# generated using pymatgen
data_Tb16Hg4OsPt3
_symmetry_space_group_name_H-M   'P 1'
_cell_length_a   9.69029419
_cell_length_b   9.69029500
_cell_length_c   9.69029495
_cell_angle_alpha   59.77424803
_cell_angle_beta   59.77424349
_cell_angle_gamma   59.77424771
_symmetry_Int_Tables_number   1
_chemical_formula_structural   Tb16Hg4OsPt3
_chemical_formula_sum   'Tb16 Hg4 Os1 Pt3'
_cell_volume   640.12414188
_cell_formula_units_Z   1
loop_
 _symmetry_equiv_pos_site_id
 _symmetry_equiv_pos_as_xyz
  1  'x, y, z'
loop_
 _atom_site_type_symbol
 _atom_site_label
 _atom_site_symmetry_multiplicity
 _atom_site_fract_x
 _atom_site_fract_y
 _atom_site_fract_z
 _atom_site_occupancy
  Tb  Tb0  1  0.353260  0.353260  0.353260  1
  Tb  Tb1  1  0.351708  0.351708  0.943238  1
  Tb  Tb2  1  0.351708  0.943238  0.351708  1
  Tb  Tb3  1  0.943238  0.351708  0.351708  1
  Tb  Tb4  1  0.815057  0.189277  0.189277  1
  Tb  Tb5  1  0.188235  0.809017  0.809017  1
  Tb  Tb6  1  0.189277  0.815057  0.189277  1
  Tb  Tb7  1  0.809017  0.188235  0.809017  1
  Tb  Tb8  1  0.189277  0.189277  0.815057  1
  Tb  Tb9  1  0.809017  0.809017  0.188235  1
  Tb  Tb10  1  0.937200  0.564219  0.564219  1
  Tb  Tb11  1  0.557571  0.938116  0.938116  1
  Tb  Tb12  1  0.564219  0.937200  0.564219  1
  Tb  Tb13  1  0.938116  0.557571  0.938116  1
  Tb  Tb14  1  0.564219  0.564219  0.937200  1
  Tb  Tb15  1  0.938116  0.938116  0.557571  1
  Hg  Hg16  1  0.584236  0.584236  0.584236  1
  Hg  Hg17  1  0.585483  0.585483  0.241472  1
  Hg  Hg18  1  0.585483  0.241472  0.585483  1
  Hg  Hg19  1  0.241472  0.585483  0.585483  1
  Os  Os20  1  0.143928  0.143928  0.143928  1
  Pt  Pt21  1  0.144358  0.144358  0.571449  1
  Pt  Pt22  1  0.144358  0.571449  0.144358  1
  Pt  Pt23  1  0.571449  0.144358  0.144358  1
