# generated using pymatgen
data_Lu4Sc(GaTe)2
_symmetry_space_group_name_H-M   'P 1'
_cell_length_a   8.39913602
_cell_length_b   8.39913736
_cell_length_c   7.69703100
_cell_angle_alpha   90.00000000
_cell_angle_beta   90.00000000
_cell_angle_gamma   125.54354840
_symmetry_Int_Tables_number   1
_chemical_formula_structural   Lu4Sc(GaTe)2
_chemical_formula_sum   'Lu8 Sc2 Ga4 Te4'
_cell_volume   441.81751246
_cell_formula_units_Z   2
loop_
 _symmetry_equiv_pos_site_id
 _symmetry_equiv_pos_as_xyz
  1  'x, y, z'
loop_
 _atom_site_type_symbol
 _atom_site_label
 _atom_site_symmetry_multiplicity
 _atom_site_fract_x
 _atom_site_fract_y
 _atom_site_fract_z
 _atom_site_occupancy
  Lu  Lu0  1  0.787898  0.540623  0.165264  1
  Lu  Lu1  1  0.459377  0.212102  0.834736  1
  Lu  Lu2  1  0.959377  0.712102  0.665264  1
  Lu  Lu3  1  0.287898  0.040623  0.334736  1
  Lu  Lu4  1  0.212102  0.459377  0.834736  1
  Lu  Lu5  1  0.540623  0.787898  0.165264  1
  Lu  Lu6  1  0.040623  0.287898  0.334736  1
  Lu  Lu7  1  0.712102  0.959377  0.665264  1
  Sc  Sc8  1  0.000000  0.000000  0.000000  1
  Sc  Sc9  1  0.500000  0.500000  0.500000  1
  Ga  Ga10  1  0.864275  0.864275  0.365101  1
  Ga  Ga11  1  0.135725  0.135725  0.634899  1
  Ga  Ga12  1  0.635725  0.635725  0.865101  1
  Ga  Ga13  1  0.364275  0.364275  0.134899  1
  Te  Te14  1  0.204933  0.795067  0.000000  1
  Te  Te15  1  0.704933  0.295067  0.500000  1
  Te  Te16  1  0.795067  0.204933  0.000000  1
  Te  Te17  1  0.295067  0.704933  0.500000  1
