# generated using pymatgen
data_Li2AgP2O7
_symmetry_space_group_name_H-M   'P 1'
_cell_length_a   9.37691390
_cell_length_b   8.22467773
_cell_length_c   9.37674934
_cell_angle_alpha   72.07880758
_cell_angle_beta   148.28190133
_cell_angle_gamma   118.55801892
_symmetry_Int_Tables_number   1
_chemical_formula_structural   Li2AgP2O7
_chemical_formula_sum   'Li4 Ag2 P4 O14'
_cell_volume   326.17972829
_cell_formula_units_Z   2
loop_
 _symmetry_equiv_pos_site_id
 _symmetry_equiv_pos_as_xyz
  1  'x, y, z'
loop_
 _atom_site_type_symbol
 _atom_site_label
 _atom_site_symmetry_multiplicity
 _atom_site_fract_x
 _atom_site_fract_y
 _atom_site_fract_z
 _atom_site_occupancy
  Li  Li0  1  0.506039  0.669531  0.953501  1
  Li  Li1  1  0.283774  0.830420  0.336386  1
  Li  Li2  1  0.716218  0.169568  0.663626  1
  Li  Li3  1  0.493943  0.330458  0.046517  1
  Ag  Ag4  1  0.000101  0.500023  0.000069  1
  Ag  Ag5  1  0.499954  0.000048  0.999891  1
  P  P6  1  0.155081  0.393594  0.471925  1
  P  P7  1  0.078399  0.106429  0.261506  1
  P  P8  1  0.921600  0.893568  0.738501  1
  P  P9  1  0.844903  0.606399  0.528072  1
  O  O10  1  0.012839  0.778259  0.954682  1
  O  O11  1  0.176427  0.721713  0.734649  1
  O  O12  1  0.200428  0.059826  0.866488  1
  O  O13  1  0.371117  0.462583  0.760975  1
  O  O14  1  0.193465  0.559872  0.359463  1
  O  O15  1  0.252108  0.250028  0.502092  1
  O  O16  1  0.701561  0.962565  0.591447  1
  O  O17  1  0.298417  0.037403  0.408569  1
  O  O18  1  0.747863  0.749947  0.497908  1
  O  O19  1  0.806649  0.440135  0.640628  1
  O  O20  1  0.628850  0.537395  0.239020  1
  O  O21  1  0.799515  0.940184  0.133437  1
  O  O22  1  0.823532  0.278303  0.265291  1
  O  O23  1  0.987214  0.221750  0.045359  1
