# generated using pymatgen
data_Ho2Th2AlNi13
_symmetry_space_group_name_H-M   'P 1'
_cell_length_a   4.93752292
_cell_length_b   4.93752502
_cell_length_c   12.53248147
_cell_angle_alpha   78.63605165
_cell_angle_beta   78.63604600
_cell_angle_gamma   61.16687789
_symmetry_Int_Tables_number   1
_chemical_formula_structural   Ho2Th2AlNi13
_chemical_formula_sum   'Ho2 Th2 Al1 Ni13'
_cell_volume   260.54887550
_cell_formula_units_Z   1
loop_
 _symmetry_equiv_pos_site_id
 _symmetry_equiv_pos_as_xyz
  1  'x, y, z'
loop_
 _atom_site_type_symbol
 _atom_site_label
 _atom_site_symmetry_multiplicity
 _atom_site_fract_x
 _atom_site_fract_y
 _atom_site_fract_z
 _atom_site_occupancy
  Ho  Ho0  1  0.850739  0.850739  0.446174  1
  Ho  Ho1  1  0.149261  0.149261  0.553826  1
  Th  Th2  1  0.945415  0.945415  0.165048  1
  Th  Th3  1  0.054585  0.054585  0.834952  1
  Al  Al4  1  0.500000  0.500000  0.000000  1
  Ni  Ni5  1  0.500000  0.500000  0.500000  1
  Ni  Ni6  1  0.722475  0.722475  0.832507  1
  Ni  Ni7  1  0.277525  0.277525  0.167493  1
  Ni  Ni8  1  0.611342  0.611342  0.167563  1
  Ni  Ni9  1  0.388658  0.388658  0.832437  1
  Ni  Ni10  1  0.000000  0.500000  0.000000  1
  Ni  Ni11  1  0.500000  0.000000  0.000000  1
  Ni  Ni12  1  0.387967  0.387967  0.333309  1
  Ni  Ni13  1  0.890159  0.388362  0.332724  1
  Ni  Ni14  1  0.388362  0.890159  0.332724  1
  Ni  Ni15  1  0.612033  0.612033  0.666691  1
  Ni  Ni16  1  0.109841  0.611638  0.667276  1
  Ni  Ni17  1  0.611638  0.109841  0.667276  1
