# generated using pymatgen
data_Sr6AcTm13Sn16
_symmetry_space_group_name_H-M   'P 1'
_cell_length_a   7.98397607
_cell_length_b   8.40990799
_cell_length_c   15.85528300
_cell_angle_alpha   89.97162431
_cell_angle_beta   90.19036012
_cell_angle_gamma   89.26245317
_symmetry_Int_Tables_number   1
_chemical_formula_structural   Sr6AcTm13Sn16
_chemical_formula_sum   'Sr6 Ac1 Tm13 Sn16'
_cell_volume   1064.50088191
_cell_formula_units_Z   1
loop_
 _symmetry_equiv_pos_site_id
 _symmetry_equiv_pos_as_xyz
  1  'x, y, z'
loop_
 _atom_site_type_symbol
 _atom_site_label
 _atom_site_symmetry_multiplicity
 _atom_site_fract_x
 _atom_site_fract_y
 _atom_site_fract_z
 _atom_site_occupancy
  Sr  Sr0  1  0.997516  0.824131  0.901839  1
  Sr  Sr1  1  0.501335  0.324175  0.091530  1
  Sr  Sr2  1  0.999124  0.177711  0.410183  1
  Sr  Sr3  1  0.501590  0.322603  0.410998  1
  Sr  Sr4  1  0.000323  0.175898  0.091833  1
  Sr  Sr5  1  0.496853  0.674503  0.905258  1
  Ac  Ac6  1  0.999183  0.824482  0.594790  1
  Tm  Tm7  1  0.669242  0.162473  0.627015  1
  Tm  Tm8  1  0.173391  0.338130  0.871897  1
  Tm  Tm9  1  0.329728  0.838482  0.124215  1
  Tm  Tm10  1  0.831076  0.660901  0.376606  1
  Tm  Tm11  1  0.331624  0.836357  0.375906  1
  Tm  Tm12  1  0.831023  0.663146  0.124343  1
  Tm  Tm13  1  0.671756  0.162030  0.870714  1
  Tm  Tm14  1  0.170692  0.339284  0.624651  1
  Tm  Tm15  1  0.498486  0.684318  0.598877  1
  Tm  Tm16  1  0.833375  0.502564  0.749154  1
  Tm  Tm17  1  0.334543  0.997474  0.749229  1
  Tm  Tm18  1  0.168792  0.496265  0.250525  1
  Tm  Tm19  1  0.666391  0.002275  0.250348  1
  Sn  Sn20  1  0.664618  0.948715  0.462362  1
  Sn  Sn21  1  0.164989  0.542644  0.042116  1
  Sn  Sn22  1  0.335160  0.041558  0.955070  1
  Sn  Sn23  1  0.819153  0.465442  0.547119  1
  Sn  Sn24  1  0.335285  0.033444  0.545866  1
  Sn  Sn25  1  0.835830  0.457854  0.955127  1
  Sn  Sn26  1  0.665244  0.958154  0.041591  1
  Sn  Sn27  1  0.174889  0.546942  0.461227  1
  Sn  Sn28  1  0.473715  0.372551  0.746938  1
  Sn  Sn29  1  0.975668  0.134717  0.747990  1
  Sn  Sn30  1  0.530649  0.629924  0.249979  1
  Sn  Sn31  1  0.028940  0.865363  0.250954  1
  Sn  Sn32  1  0.689273  0.852853  0.744869  1
  Sn  Sn33  1  0.202945  0.639295  0.745796  1
  Sn  Sn34  1  0.299716  0.137145  0.251254  1
  Sn  Sn35  1  0.797887  0.366198  0.251831  1
