# generated using pymatgen
data_DyTm5C2Br7
_symmetry_space_group_name_H-M   'P 1'
_cell_length_a   10.38179819
_cell_length_b   10.38179787
_cell_length_c   12.08181174
_cell_angle_alpha   57.60249253
_cell_angle_beta   57.60249419
_cell_angle_gamma   20.89033089
_symmetry_Int_Tables_number   1
_chemical_formula_structural   DyTm5C2Br7
_chemical_formula_sum   'Dy1 Tm5 C2 Br7'
_cell_volume   389.37288667
_cell_formula_units_Z   1
loop_
 _symmetry_equiv_pos_site_id
 _symmetry_equiv_pos_as_xyz
  1  'x, y, z'
loop_
 _atom_site_type_symbol
 _atom_site_label
 _atom_site_symmetry_multiplicity
 _atom_site_fract_x
 _atom_site_fract_y
 _atom_site_fract_z
 _atom_site_occupancy
  Dy  Dy0  1  0.234095  0.234095  0.823398  1
  Tm  Tm1  1  0.311451  0.311451  0.370350  1
  Tm  Tm2  1  0.130941  0.130941  0.448220  1
  Tm  Tm3  1  0.868186  0.868186  0.552719  1
  Tm  Tm4  1  0.689021  0.689021  0.630310  1
  Tm  Tm5  1  0.765339  0.765339  0.180077  1
  C  C6  1  0.281292  0.281292  0.598394  1
  C  C7  1  0.718810  0.718810  0.400313  1
  Br  Br8  1  0.162278  0.162278  0.176689  1
  Br  Br9  1  0.841110  0.841110  0.820959  1
  Br  Br10  1  0.059713  0.059713  0.717169  1
  Br  Br11  1  0.940506  0.940506  0.281929  1
  Br  Br12  1  0.500619  0.500619  0.499081  1
  Br  Br13  1  0.384791  0.384791  0.076693  1
  Br  Br14  1  0.611849  0.611849  0.923696  1
