# generated using pymatgen
data_GdYB10Ir
_symmetry_space_group_name_H-M   'P 1'
_cell_length_a   4.18802200
_cell_length_b   5.70809500
_cell_length_c   11.37179600
_cell_angle_alpha   89.99879817
_cell_angle_beta   90.00000000
_cell_angle_gamma   90.00000000
_symmetry_Int_Tables_number   1
_chemical_formula_structural   GdYB10Ir
_chemical_formula_sum   'Gd2 Y2 B20 Ir2'
_cell_volume   271.84991845
_cell_formula_units_Z   2
loop_
 _symmetry_equiv_pos_site_id
 _symmetry_equiv_pos_as_xyz
  1  'x, y, z'
loop_
 _atom_site_type_symbol
 _atom_site_label
 _atom_site_symmetry_multiplicity
 _atom_site_fract_x
 _atom_site_fract_y
 _atom_site_fract_z
 _atom_site_occupancy
  Gd  Gd0  1  0.500000  0.294813  0.865974  1
  Gd  Gd1  1  0.500000  0.705187  0.134026  1
  Y  Y2  1  0.500000  0.204995  0.366310  1
  Y  Y3  1  0.500000  0.795005  0.633690  1
  B  B4  1  0.000000  0.381351  0.042896  1
  B  B5  1  0.000000  0.618649  0.957104  1
  B  B6  1  0.000000  0.118604  0.542643  1
  B  B7  1  0.000000  0.881396  0.457357  1
  B  B8  1  0.000000  0.362517  0.197483  1
  B  B9  1  0.000000  0.637483  0.802517  1
  B  B10  1  0.000000  0.137652  0.697229  1
  B  B11  1  0.000000  0.862348  0.302771  1
  B  B12  1  0.000000  0.054940  0.193287  1
  B  B13  1  0.000000  0.945060  0.806713  1
  B  B14  1  0.000000  0.444973  0.693086  1
  B  B15  1  0.000000  0.555027  0.306914  1
  B  B16  1  0.301231  0.219198  0.119240  1
  B  B17  1  0.698769  0.780802  0.880760  1
  B  B18  1  0.301231  0.780802  0.880760  1
  B  B19  1  0.698635  0.280252  0.618880  1
  B  B20  1  0.698769  0.219198  0.119240  1
  B  B21  1  0.301365  0.719748  0.381120  1
  B  B22  1  0.698635  0.719748  0.381120  1
  B  B23  1  0.301365  0.280252  0.618880  1
  Ir  Ir24  1  0.000000  0.000000  0.000000  1
  Ir  Ir25  1  0.000000  0.500000  0.500000  1
