# generated using pymatgen
data_Hf3Zn3OsAu2
_symmetry_space_group_name_H-M   'P 1'
_cell_length_a   7.43494900
_cell_length_b   7.43494987
_cell_length_c   3.35801700
_cell_angle_alpha   90.00000000
_cell_angle_beta   90.00000000
_cell_angle_gamma   119.99999169
_symmetry_Int_Tables_number   1
_chemical_formula_structural   Hf3Zn3OsAu2
_chemical_formula_sum   'Hf3 Zn3 Os1 Au2'
_cell_volume   160.75689039
_cell_formula_units_Z   1
loop_
 _symmetry_equiv_pos_site_id
 _symmetry_equiv_pos_as_xyz
  1  'x, y, z'
loop_
 _atom_site_type_symbol
 _atom_site_label
 _atom_site_symmetry_multiplicity
 _atom_site_fract_x
 _atom_site_fract_y
 _atom_site_fract_z
 _atom_site_occupancy
  Hf  Hf0  1  0.407531  0.022503  0.000000  1
  Hf  Hf1  1  0.977497  0.385027  0.000000  1
  Hf  Hf2  1  0.614973  0.592469  0.000000  1
  Zn  Zn3  1  0.721051  0.998586  0.500000  1
  Zn  Zn4  1  0.277536  0.278949  0.500000  1
  Zn  Zn5  1  0.001414  0.722465  0.500000  1
  Os  Os6  1  0.666667  0.333334  0.500000  1
  Au  Au7  1  0.000000  0.000000  0.000000  1
  Au  Au8  1  0.333333  0.666666  0.500000  1
