# generated using pymatgen
data_RbFeH9
_symmetry_space_group_name_H-M   'P 1'
_cell_length_a   7.10135200
_cell_length_b   7.10135230
_cell_length_c   7.66518500
_cell_angle_alpha   90.00000000
_cell_angle_beta   90.00000000
_cell_angle_gamma   120.00000793
_symmetry_Int_Tables_number   1
_chemical_formula_structural   RbFeH9
_chemical_formula_sum   'Rb3 Fe3 H27'
_cell_volume   334.76137028
_cell_formula_units_Z   3
loop_
 _symmetry_equiv_pos_site_id
 _symmetry_equiv_pos_as_xyz
  1  'x, y, z'
loop_
 _atom_site_type_symbol
 _atom_site_label
 _atom_site_symmetry_multiplicity
 _atom_site_fract_x
 _atom_site_fract_y
 _atom_site_fract_z
 _atom_site_occupancy
  Rb  Rb0  1  0.666667  0.333333  0.508062  1
  Rb  Rb1  1  0.333333  0.666667  0.182520  1
  Rb  Rb2  1  0.000000  0.000000  0.803662  1
  Fe  Fe3  1  0.666667  0.333333  0.009804  1
  Fe  Fe4  1  0.333333  0.666667  0.682703  1
  Fe  Fe5  1  0.000000  0.000000  0.303566  1
  H  H6  1  0.458852  0.124838  0.010475  1
  H  H7  1  0.665985  0.541148  0.010475  1
  H  H8  1  0.875162  0.334015  0.010475  1
  H  H9  1  0.644999  0.170184  0.144045  1
  H  H10  1  0.525184  0.355001  0.144045  1
  H  H11  1  0.829816  0.474816  0.144045  1
  H  H12  1  0.689647  0.191080  0.876412  1
  H  H13  1  0.501433  0.310353  0.876412  1
  H  H14  1  0.808920  0.498567  0.876412  1
  H  H15  1  0.112210  0.473712  0.686509  1
  H  H16  1  0.361501  0.887790  0.686509  1
  H  H17  1  0.526288  0.638499  0.686509  1
  H  H18  1  0.217566  0.020302  0.298578  1
  H  H19  1  0.802736  0.782434  0.298578  1
  H  H20  1  0.979698  0.197264  0.298578  1
  H  H21  1  0.304664  0.502933  0.818344  1
  H  H22  1  0.198269  0.695336  0.818344  1
  H  H23  1  0.497067  0.801731  0.818344  1
  H  H24  1  0.028582  0.865119  0.168007  1
  H  H25  1  0.836537  0.971418  0.168007  1
  H  H26  1  0.134881  0.163463  0.168007  1
  H  H27  1  0.320131  0.506724  0.548100  1
  H  H28  1  0.186593  0.679869  0.548100  1
  H  H29  1  0.493276  0.813407  0.548100  1
  H  H30  1  0.001063  0.845405  0.437094  1
  H  H31  1  0.844341  0.998937  0.437094  1
  H  H32  1  0.154595  0.155659  0.437094  1
