# generated using pymatgen
data_Er2Sc4NiB4Ir9
_symmetry_space_group_name_H-M   'P 1'
_cell_length_a   3.13750700
_cell_length_b   9.59674098
_cell_length_c   9.59674081
_cell_angle_alpha   90.42277203
_cell_angle_beta   90.00000000
_cell_angle_gamma   90.00000000
_symmetry_Int_Tables_number   1
_chemical_formula_structural   Er2Sc4NiB4Ir9
_chemical_formula_sum   'Er2 Sc4 Ni1 B4 Ir9'
_cell_volume   288.94848311
_cell_formula_units_Z   1
loop_
 _symmetry_equiv_pos_site_id
 _symmetry_equiv_pos_as_xyz
  1  'x, y, z'
loop_
 _atom_site_type_symbol
 _atom_site_label
 _atom_site_symmetry_multiplicity
 _atom_site_fract_x
 _atom_site_fract_y
 _atom_site_fract_z
 _atom_site_occupancy
  Er  Er0  1  0.000000  0.319411  0.180589  1
  Er  Er1  1  0.000000  0.680589  0.819411  1
  Sc  Sc2  1  0.000000  0.175072  0.675072  1
  Sc  Sc3  1  0.000000  0.824928  0.324928  1
  Sc  Sc4  1  0.000000  0.000000  0.000000  1
  Sc  Sc5  1  0.000000  0.500000  0.500000  1
  Ni  Ni6  1  0.500000  0.000000  0.500000  1
  B  B7  1  0.000000  0.620909  0.120909  1
  B  B8  1  0.000000  0.379091  0.879091  1
  B  B9  1  0.000000  0.889937  0.610063  1
  B  B10  1  0.000000  0.110063  0.389937  1
  Ir  Ir11  1  0.500000  0.058591  0.233869  1
  Ir  Ir12  1  0.500000  0.941409  0.766131  1
  Ir  Ir13  1  0.500000  0.778760  0.074509  1
  Ir  Ir14  1  0.500000  0.425491  0.721240  1
  Ir  Ir15  1  0.500000  0.221240  0.925491  1
  Ir  Ir16  1  0.500000  0.574509  0.278760  1
  Ir  Ir17  1  0.500000  0.733869  0.558591  1
  Ir  Ir18  1  0.500000  0.266131  0.441409  1
  Ir  Ir19  1  0.500000  0.500000  0.000000  1
