# generated using pymatgen
data_Rb6AlFeSe6
_symmetry_space_group_name_H-M   'P 1'
_cell_length_a   10.75548536
_cell_length_b   10.75548541
_cell_length_c   13.71054300
_cell_angle_alpha   90.00000000
_cell_angle_beta   90.00000000
_cell_angle_gamma   140.31168127
_symmetry_Int_Tables_number   1
_chemical_formula_structural   Rb6AlFeSe6
_chemical_formula_sum   'Rb12 Al2 Fe2 Se12'
_cell_volume   1012.86377639
_cell_formula_units_Z   2
loop_
 _symmetry_equiv_pos_site_id
 _symmetry_equiv_pos_as_xyz
  1  'x, y, z'
loop_
 _atom_site_type_symbol
 _atom_site_label
 _atom_site_symmetry_multiplicity
 _atom_site_fract_x
 _atom_site_fract_y
 _atom_site_fract_z
 _atom_site_occupancy
  Rb  Rb0  1  0.850869  0.850575  0.665390  1
  Rb  Rb1  1  0.149425  0.149131  0.334610  1
  Rb  Rb2  1  0.649425  0.649131  0.165390  1
  Rb  Rb3  1  0.350869  0.350575  0.834610  1
  Rb  Rb4  1  0.161352  0.515237  0.130172  1
  Rb  Rb5  1  0.484763  0.838648  0.869828  1
  Rb  Rb6  1  0.984763  0.338648  0.630172  1
  Rb  Rb7  1  0.661352  0.015237  0.369828  1
  Rb  Rb8  1  0.843034  0.487187  0.871513  1
  Rb  Rb9  1  0.512813  0.156966  0.128487  1
  Rb  Rb10  1  0.012813  0.656966  0.371513  1
  Rb  Rb11  1  0.343034  0.987187  0.628487  1
  Al  Al12  1  0.917962  0.082038  0.000000  1
  Al  Al13  1  0.417962  0.582038  0.500000  1
  Fe  Fe14  1  0.081371  0.918629  0.000000  1
  Fe  Fe15  1  0.581371  0.418629  0.500000  1
  Se  Se16  1  0.299257  0.300948  0.582016  1
  Se  Se17  1  0.699052  0.700743  0.417984  1
  Se  Se18  1  0.199052  0.200743  0.082016  1
  Se  Se19  1  0.799257  0.800948  0.917984  1
  Se  Se20  1  0.688488  0.987149  0.114746  1
  Se  Se21  1  0.012851  0.311512  0.885254  1
  Se  Se22  1  0.512851  0.811512  0.614746  1
  Se  Se23  1  0.188488  0.487149  0.385254  1
  Se  Se24  1  0.309423  0.010659  0.885988  1
  Se  Se25  1  0.989341  0.690577  0.114012  1
  Se  Se26  1  0.489341  0.190577  0.385988  1
  Se  Se27  1  0.809423  0.510659  0.614012  1
