# generated using pymatgen
data_Sm4C4SeCl
_symmetry_space_group_name_H-M   'P 1'
_cell_length_a   7.33534099
_cell_length_b   7.33534014
_cell_length_c   6.72516076
_cell_angle_alpha   78.87204209
_cell_angle_beta   78.87204586
_cell_angle_gamma   33.68254296
_symmetry_Int_Tables_number   1
_chemical_formula_structural   Sm4C4SeCl
_chemical_formula_sum   'Sm4 C4 Se1 Cl1'
_cell_volume   196.56297479
_cell_formula_units_Z   1
loop_
 _symmetry_equiv_pos_site_id
 _symmetry_equiv_pos_as_xyz
  1  'x, y, z'
loop_
 _atom_site_type_symbol
 _atom_site_label
 _atom_site_symmetry_multiplicity
 _atom_site_fract_x
 _atom_site_fract_y
 _atom_site_fract_z
 _atom_site_occupancy
  Sm  Sm0  1  0.541569  0.156497  0.138992  1
  Sm  Sm1  1  0.150557  0.555042  0.650747  1
  Sm  Sm2  1  0.444958  0.849443  0.849253  1
  Sm  Sm3  1  0.843503  0.458431  0.361008  1
  C  C4  1  0.350581  0.105600  0.472834  1
  C  C5  1  0.894400  0.649419  0.027166  1
  C  C6  1  0.647950  0.904919  0.524395  1
  C  C7  1  0.095081  0.352050  0.975605  1
  Se  Se8  1  0.779420  0.220580  0.750000  1
  Cl  Cl9  1  0.251979  0.748021  0.250000  1
