# generated using pymatgen
data_HfZrV4O14
_symmetry_space_group_name_H-M   'P 1'
_cell_length_a   7.40051060
_cell_length_b   9.05057605
_cell_length_c   5.75903100
_cell_angle_alpha   90.00000000
_cell_angle_beta   90.00000000
_cell_angle_gamma   89.92380846
_symmetry_Int_Tables_number   1
_chemical_formula_structural   HfZrV4O14
_chemical_formula_sum   'Hf1 Zr1 V4 O14'
_cell_volume   385.73312800
_cell_formula_units_Z   1
loop_
 _symmetry_equiv_pos_site_id
 _symmetry_equiv_pos_as_xyz
  1  'x, y, z'
loop_
 _atom_site_type_symbol
 _atom_site_label
 _atom_site_symmetry_multiplicity
 _atom_site_fract_x
 _atom_site_fract_y
 _atom_site_fract_z
 _atom_site_occupancy
  Hf  Hf0  1  0.500001  0.500000  0.000000  1
  Zr  Zr1  1  0.000000  0.000000  0.500000  1
  V  V2  1  0.303321  0.116114  0.000000  1
  V  V3  1  0.696680  0.883887  0.000000  1
  V  V4  1  0.800475  0.386929  0.500000  1
  V  V5  1  0.199525  0.613071  0.500000  1
  O  O6  1  0.500001  0.000000  0.000000  1
  O  O7  1  0.369035  0.298442  0.000000  1
  O  O8  1  0.630966  0.701559  0.000000  1
  O  O9  1  0.177280  0.079754  0.243675  1
  O  O10  1  0.822721  0.920247  0.243675  1
  O  O11  1  0.675647  0.424223  0.255029  1
  O  O12  1  0.324353  0.575777  0.255029  1
  O  O13  1  0.863275  0.203817  0.500000  1
  O  O14  1  0.000000  0.500000  0.500000  1
  O  O15  1  0.136725  0.796183  0.500000  1
  O  O16  1  0.675647  0.424223  0.744970  1
  O  O17  1  0.324353  0.575777  0.744970  1
  O  O18  1  0.177280  0.079754  0.756325  1
  O  O19  1  0.822721  0.920247  0.756325  1
