# generated using pymatgen
data_ThGa4(FeTc)4
_symmetry_space_group_name_H-M   'P 1'
_cell_length_a   6.76345085
_cell_length_b   6.76345109
_cell_length_c   6.76345106
_cell_angle_alpha   97.34218894
_cell_angle_beta   97.34219370
_cell_angle_gamma   138.10844199
_symmetry_Int_Tables_number   1
_chemical_formula_structural   ThGa4(FeTc)4
_chemical_formula_sum   'Th1 Ga4 Fe4 Tc4'
_cell_volume   192.93481588
_cell_formula_units_Z   1
loop_
 _symmetry_equiv_pos_site_id
 _symmetry_equiv_pos_as_xyz
  1  'x, y, z'
loop_
 _atom_site_type_symbol
 _atom_site_label
 _atom_site_symmetry_multiplicity
 _atom_site_fract_x
 _atom_site_fract_y
 _atom_site_fract_z
 _atom_site_occupancy
  Th  Th0  1  0.000000  0.000000  0.000000  1
  Ga  Ga1  1  0.267036  0.500000  0.767036  1
  Ga  Ga2  1  0.500000  0.267036  0.767036  1
  Ga  Ga3  1  0.500000  0.732964  0.232964  1
  Ga  Ga4  1  0.732964  0.500000  0.232964  1
  Fe  Fe5  1  0.500000  0.500000  0.500000  1
  Fe  Fe6  1  0.000000  0.500000  0.000000  1
  Fe  Fe7  1  0.500000  0.000000  0.000000  1
  Fe  Fe8  1  0.000000  0.000000  0.500000  1
  Tc  Tc9  1  0.359968  0.000000  0.359968  1
  Tc  Tc10  1  0.640032  0.000000  0.640032  1
  Tc  Tc11  1  0.000000  0.640032  0.640032  1
  Tc  Tc12  1  0.000000  0.359968  0.359968  1
