# generated using pymatgen
data_Li2U5PaSb10
_symmetry_space_group_name_H-M   'P 1'
_cell_length_a   9.21572400
_cell_length_b   9.17873104
_cell_length_c   6.10901500
_cell_angle_alpha   90.00000000
_cell_angle_beta   90.00000000
_cell_angle_gamma   120.13341796
_symmetry_Int_Tables_number   1
_chemical_formula_structural   Li2U5PaSb10
_chemical_formula_sum   'Li2 U5 Pa1 Sb10'
_cell_volume   446.91865895
_cell_formula_units_Z   1
loop_
 _symmetry_equiv_pos_site_id
 _symmetry_equiv_pos_as_xyz
  1  'x, y, z'
loop_
 _atom_site_type_symbol
 _atom_site_label
 _atom_site_symmetry_multiplicity
 _atom_site_fract_x
 _atom_site_fract_y
 _atom_site_fract_z
 _atom_site_occupancy
  Li  Li0  1  0.999328  0.000000  0.499364  1
  Li  Li1  1  0.999328  0.000000  0.000636  1
  U  U2  1  0.386418  0.387646  0.250000  1
  U  U3  1  0.998773  0.612354  0.250000  1
  U  U4  1  0.000562  0.386510  0.750000  1
  U  U5  1  0.614053  0.613490  0.750000  1
  U  U6  1  0.615746  0.000000  0.250000  1
  Pa  Pa7  1  0.384159  0.000000  0.750000  1
  Sb  Sb8  1  0.333404  0.666429  0.499786  1
  Sb  Sb9  1  0.666977  0.333571  0.000214  1
  Sb  Sb10  1  0.666977  0.333571  0.499786  1
  Sb  Sb11  1  0.333404  0.666429  0.000214  1
  Sb  Sb12  1  0.733596  0.000000  0.750000  1
  Sb  Sb13  1  0.734628  0.734116  0.250000  1
  Sb  Sb14  1  0.000512  0.265884  0.250000  1
  Sb  Sb15  1  0.999799  0.734515  0.750000  1
  Sb  Sb16  1  0.267052  0.000000  0.250000  1
  Sb  Sb17  1  0.265284  0.265485  0.750000  1
