# generated using pymatgen
data_Li6PaAl5Rh12
_symmetry_space_group_name_H-M   'P 1'
_cell_length_a   4.23284700
_cell_length_b   6.06011900
_cell_length_c   12.73612000
_cell_angle_alpha   90.00086678
_cell_angle_beta   89.99927463
_cell_angle_gamma   89.99969983
_symmetry_Int_Tables_number   1
_chemical_formula_structural   Li6PaAl5Rh12
_chemical_formula_sum   'Li6 Pa1 Al5 Rh12'
_cell_volume   326.70130210
_cell_formula_units_Z   1
loop_
 _symmetry_equiv_pos_site_id
 _symmetry_equiv_pos_as_xyz
  1  'x, y, z'
loop_
 _atom_site_type_symbol
 _atom_site_label
 _atom_site_symmetry_multiplicity
 _atom_site_fract_x
 _atom_site_fract_y
 _atom_site_fract_z
 _atom_site_occupancy
  Li  Li0  1  0.000000  0.500001  0.000000  1
  Li  Li1  1  0.499789  0.000006  0.176292  1
  Li  Li2  1  0.999676  0.499992  0.336855  1
  Li  Li3  1  0.500000  0.000000  0.500000  1
  Li  Li4  1  0.000325  0.500010  0.663145  1
  Li  Li5  1  0.500211  0.999994  0.823708  1
  Pa  Pa6  1  0.000000  0.000000  0.000000  1
  Al  Al7  1  0.499799  0.499995  0.177585  1
  Al  Al8  1  0.999783  0.000007  0.339368  1
  Al  Al9  1  0.500000  0.500001  0.500000  1
  Al  Al10  1  0.000218  0.999993  0.660632  1
  Al  Al11  1  0.500202  0.500007  0.822415  1
  Rh  Rh12  1  0.500004  0.267613  0.000000  1
  Rh  Rh13  1  0.499996  0.732387  0.000000  1
  Rh  Rh14  1  0.999810  0.252833  0.170661  1
  Rh  Rh15  1  0.999811  0.747168  0.170654  1
  Rh  Rh16  1  0.499772  0.248685  0.336581  1
  Rh  Rh17  1  0.499784  0.751325  0.336577  1
  Rh  Rh18  1  0.000000  0.253032  0.499999  1
  Rh  Rh19  1  0.000000  0.746969  0.500001  1
  Rh  Rh20  1  0.500216  0.248675  0.663422  1
  Rh  Rh21  1  0.500228  0.751315  0.663418  1
  Rh  Rh22  1  0.000190  0.252831  0.829346  1
  Rh  Rh23  1  0.000191  0.747166  0.829339  1
