# generated using pymatgen
data_Ho9Tm3InCo4Ni
_symmetry_space_group_name_H-M   'P 1'
_cell_length_a   8.25184810
_cell_length_b   8.25066653
_cell_length_c   8.25184955
_cell_angle_alpha   110.78156002
_cell_angle_beta   110.77233555
_cell_angle_gamma   106.89572480
_symmetry_Int_Tables_number   1
_chemical_formula_structural   Ho9Tm3InCo4Ni
_chemical_formula_sum   'Ho9 Tm3 In1 Co4 Ni1'
_cell_volume   431.80099683
_cell_formula_units_Z   1
loop_
 _symmetry_equiv_pos_site_id
 _symmetry_equiv_pos_as_xyz
  1  'x, y, z'
loop_
 _atom_site_type_symbol
 _atom_site_label
 _atom_site_symmetry_multiplicity
 _atom_site_fract_x
 _atom_site_fract_y
 _atom_site_fract_z
 _atom_site_occupancy
  Ho  Ho0  1  0.684420  0.989290  0.304867  1
  Ho  Ho1  1  0.186595  0.291526  0.477410  1
  Ho  Ho2  1  0.814075  0.708601  0.522986  1
  Ho  Ho3  1  0.185615  0.708601  0.894526  1
  Ho  Ho4  1  0.814116  0.291526  0.104931  1
  Ho  Ho5  1  0.408137  0.213209  0.195372  1
  Ho  Ho6  1  0.591366  0.786850  0.804065  1
  Ho  Ho7  1  0.017838  0.213209  0.805071  1
  Ho  Ho8  1  0.982783  0.786850  0.195484  1
  Tm  Tm9  1  0.315450  0.621367  0.305916  1
  Tm  Tm10  1  0.683965  0.378632  0.694667  1
  Tm  Tm11  1  0.315684  0.009797  0.694115  1
  In  In12  1  0.499828  0.499570  0.999742  1
  Co  Co13  1  0.113154  0.613085  0.499932  1
  Co  Co14  1  0.887670  0.387925  0.500255  1
  Co  Co15  1  0.377333  0.999976  0.377960  1
  Co  Co16  1  0.622016  0.999976  0.622643  1
  Ni  Ni17  1  0.999954  0.000011  0.000058  1
