# generated using pymatgen
data_Al2V3TcMo2
_symmetry_space_group_name_H-M   'P 1'
_cell_length_a   4.86138769
_cell_length_b   4.86415616
_cell_length_c   4.86138622
_cell_angle_alpha   90.10184242
_cell_angle_beta   89.81863858
_cell_angle_gamma   89.89816984
_symmetry_Int_Tables_number   1
_chemical_formula_structural   Al2V3TcMo2
_chemical_formula_sum   'Al2 V3 Tc1 Mo2'
_cell_volume   114.95406656
_cell_formula_units_Z   1
loop_
 _symmetry_equiv_pos_site_id
 _symmetry_equiv_pos_as_xyz
  1  'x, y, z'
loop_
 _atom_site_type_symbol
 _atom_site_label
 _atom_site_symmetry_multiplicity
 _atom_site_fract_x
 _atom_site_fract_y
 _atom_site_fract_z
 _atom_site_occupancy
  Al  Al0  1  0.504944  0.496143  0.494561  1
  Al  Al1  1  0.994561  0.003857  0.004944  1
  V  V2  1  0.497092  0.250000  0.997092  1
  V  V3  1  0.751265  0.996877  0.503370  1
  V  V4  1  0.003370  0.503123  0.251265  1
  Tc  Tc5  1  0.499117  0.750000  0.999117  1
  Mo  Mo6  1  0.249271  0.000182  0.500379  1
  Mo  Mo7  1  0.000379  0.499818  0.749271  1
