# generated using pymatgen
data_Y4Ho2Al19Si5Ru8
_symmetry_space_group_name_H-M   'P 1'
_cell_length_a   8.68182000
_cell_length_b   8.66787459
_cell_length_c   9.58121800
_cell_angle_alpha   90.00000000
_cell_angle_beta   90.00000000
_cell_angle_gamma   120.05324263
_symmetry_Int_Tables_number   1
_chemical_formula_structural   Y4Ho2Al19Si5Ru8
_chemical_formula_sum   'Y4 Ho2 Al19 Si5 Ru8'
_cell_volume   624.08177104
_cell_formula_units_Z   1
loop_
 _symmetry_equiv_pos_site_id
 _symmetry_equiv_pos_as_xyz
  1  'x, y, z'
loop_
 _atom_site_type_symbol
 _atom_site_label
 _atom_site_symmetry_multiplicity
 _atom_site_fract_x
 _atom_site_fract_y
 _atom_site_fract_z
 _atom_site_occupancy
  Y  Y0  1  0.194143  0.388289  0.250000  1
  Y  Y1  1  0.806588  0.613175  0.750000  1
  Y  Y2  1  0.388250  0.194199  0.750000  1
  Y  Y3  1  0.805950  0.194199  0.750000  1
  Ho  Ho4  1  0.608584  0.807008  0.250000  1
  Ho  Ho5  1  0.198423  0.807008  0.250000  1
  Al  Al6  1  0.164958  0.329917  0.578646  1
  Al  Al7  1  0.834740  0.669478  0.420617  1
  Al  Al8  1  0.669542  0.834910  0.577492  1
  Al  Al9  1  0.834740  0.669478  0.079383  1
  Al  Al10  1  0.329796  0.165497  0.420918  1
  Al  Al11  1  0.164958  0.329917  0.921354  1
  Al  Al12  1  0.165367  0.834910  0.577492  1
  Al  Al13  1  0.329796  0.165497  0.079082  1
  Al  Al14  1  0.835703  0.165497  0.420918  1
  Al  Al15  1  0.669542  0.834910  0.922508  1
  Al  Al16  1  0.835703  0.165497  0.079082  1
  Al  Al17  1  0.165367  0.834910  0.922508  1
  Al  Al18  1  0.437141  0.874282  0.750000  1
  Al  Al19  1  0.873134  0.434046  0.250000  1
  Al  Al20  1  0.127192  0.564130  0.750000  1
  Al  Al21  1  0.560912  0.434046  0.250000  1
  Al  Al22  1  0.436938  0.564130  0.750000  1
  Al  Al23  1  0.999435  0.998869  0.250000  1
  Al  Al24  1  0.000343  0.000686  0.750000  1
  Si  Si25  1  0.332730  0.665461  0.037241  1
  Si  Si26  1  0.667452  0.334902  0.961696  1
  Si  Si27  1  0.667452  0.334902  0.538304  1
  Si  Si28  1  0.332730  0.665461  0.462759  1
  Si  Si29  1  0.563343  0.126685  0.250000  1
  Ru  Ru30  1  0.500696  0.001392  0.006493  1
  Ru  Ru31  1  0.999050  0.499167  0.000822  1
  Ru  Ru32  1  0.500696  0.001392  0.493507  1
  Ru  Ru33  1  0.500117  0.499167  0.000822  1
  Ru  Ru34  1  0.999050  0.499167  0.499178  1
  Ru  Ru35  1  0.500117  0.499167  0.499178  1
  Ru  Ru36  1  0.999663  0.999326  0.999873  1
  Ru  Ru37  1  0.999663  0.999326  0.500127  1
