# generated using pymatgen
data_Ho7Tm3(GaBi2)2
_symmetry_space_group_name_H-M   'P 1'
_cell_length_a   8.05940402
_cell_length_b   9.26210102
_cell_length_c   11.96578400
_cell_angle_alpha   90.00000000
_cell_angle_beta   90.00000000
_cell_angle_gamma   90.00740222
_symmetry_Int_Tables_number   1
_chemical_formula_structural   Ho7Tm3(GaBi2)2
_chemical_formula_sum   'Ho14 Tm6 Ga4 Bi8'
_cell_volume   893.21004022
_cell_formula_units_Z   2
loop_
 _symmetry_equiv_pos_site_id
 _symmetry_equiv_pos_as_xyz
  1  'x, y, z'
loop_
 _atom_site_type_symbol
 _atom_site_label
 _atom_site_symmetry_multiplicity
 _atom_site_fract_x
 _atom_site_fract_y
 _atom_site_fract_z
 _atom_site_occupancy
  Ho  Ho0  1  0.819648  0.946088  0.062306  1
  Ho  Ho1  1  0.680352  0.553912  0.562306  1
  Ho  Ho2  1  0.174224  0.749960  0.218071  1
  Ho  Ho3  1  0.325776  0.750040  0.718071  1
  Ho  Ho4  1  0.825876  0.249944  0.782016  1
  Ho  Ho5  1  0.674124  0.250056  0.282016  1
  Ho  Ho6  1  0.463066  0.750030  0.003593  1
  Ho  Ho7  1  0.036934  0.749970  0.503593  1
  Ho  Ho8  1  0.536567  0.250107  0.996376  1
  Ho  Ho9  1  0.963433  0.249893  0.496376  1
  Ho  Ho10  1  0.644857  0.750019  0.294907  1
  Ho  Ho11  1  0.855143  0.749981  0.794907  1
  Ho  Ho12  1  0.354914  0.249976  0.705059  1
  Ho  Ho13  1  0.145086  0.250024  0.205059  1
  Tm  Tm14  1  0.819952  0.553877  0.062302  1
  Tm  Tm15  1  0.680048  0.946123  0.562302  1
  Tm  Tm16  1  0.180072  0.054143  0.937715  1
  Tm  Tm17  1  0.319928  0.445857  0.437715  1
  Tm  Tm18  1  0.180093  0.445958  0.937729  1
  Tm  Tm19  1  0.319907  0.054042  0.437729  1
  Ga  Ga20  1  0.404899  0.750256  0.475744  1
  Ga  Ga21  1  0.095101  0.749744  0.975744  1
  Ga  Ga22  1  0.594769  0.249543  0.524047  1
  Ga  Ga23  1  0.905231  0.250457  0.024047  1
  Bi  Bi24  1  0.937357  0.509580  0.324412  1
  Bi  Bi25  1  0.562643  0.990420  0.824412  1
  Bi  Bi26  1  0.062592  0.009705  0.675559  1
  Bi  Bi27  1  0.437408  0.490295  0.175559  1
  Bi  Bi28  1  0.062717  0.490341  0.675635  1
  Bi  Bi29  1  0.437283  0.009659  0.175635  1
  Bi  Bi30  1  0.937525  0.990419  0.324528  1
  Bi  Bi31  1  0.562475  0.509581  0.824528  1
