# generated using pymatgen
data_La4Yb4SiPd24
_symmetry_space_group_name_H-M   'P 1'
_cell_length_a   8.38778744
_cell_length_b   8.41377253
_cell_length_c   8.41377253
_cell_angle_alpha   90.02978256
_cell_angle_beta   89.89949576
_cell_angle_gamma   89.89949576
_symmetry_Int_Tables_number   1
_chemical_formula_structural   La4Yb4SiPd24
_chemical_formula_sum   'La4 Yb4 Si1 Pd24'
_cell_volume   593.78271812
_cell_formula_units_Z   1
loop_
 _symmetry_equiv_pos_site_id
 _symmetry_equiv_pos_as_xyz
  1  'x, y, z'
loop_
 _atom_site_type_symbol
 _atom_site_label
 _atom_site_symmetry_multiplicity
 _atom_site_fract_x
 _atom_site_fract_y
 _atom_site_fract_z
 _atom_site_occupancy
  La  La0  1  0.254030  0.253983  0.746845  1
  La  La1  1  0.254030  0.746845  0.253983  1
  La  La2  1  0.254311  0.745686  0.745686  1
  La  La3  1  0.746281  0.255033  0.255033  1
  Yb  Yb4  1  0.252228  0.251869  0.251869  1
  Yb  Yb5  1  0.748262  0.748208  0.748208  1
  Yb  Yb6  1  0.747888  0.747479  0.252118  1
  Yb  Yb7  1  0.747888  0.252118  0.747479  1
  Si  Si8  1  0.998489  0.999335  0.999335  1
  Pd  Pd9  1  0.256633  0.496742  0.004702  1
  Pd  Pd10  1  0.742085  0.502816  0.995204  1
  Pd  Pd11  1  0.001116  0.257096  0.499761  1
  Pd  Pd12  1  0.500570  0.257131  0.000268  1
  Pd  Pd13  1  0.991425  0.742941  0.500692  1
  Pd  Pd14  1  0.506721  0.742645  0.999223  1
  Pd  Pd15  1  0.500570  0.000268  0.257131  1
  Pd  Pd16  1  0.256633  0.004702  0.496742  1
  Pd  Pd17  1  0.506721  0.999223  0.742645  1
  Pd  Pd18  1  0.742085  0.995204  0.502816  1
  Pd  Pd19  1  0.001116  0.499761  0.257096  1
  Pd  Pd20  1  0.991425  0.500692  0.742941  1
  Pd  Pd21  1  0.251968  0.495191  0.495191  1
  Pd  Pd22  1  0.748210  0.504696  0.504696  1
  Pd  Pd23  1  0.499399  0.251922  0.499775  1
  Pd  Pd24  1  0.508829  0.748169  0.500832  1
  Pd  Pd25  1  0.499399  0.499775  0.251922  1
  Pd  Pd26  1  0.508829  0.500832  0.748169  1
  Pd  Pd27  1  0.282147  0.004663  0.004663  1
  Pd  Pd28  1  0.719464  0.995578  0.995578  1
  Pd  Pd29  1  0.999812  0.280955  0.000258  1
  Pd  Pd30  1  0.990813  0.718810  0.999375  1
  Pd  Pd31  1  0.999812  0.000258  0.280955  1
  Pd  Pd32  1  0.990813  0.999375  0.718810  1
