# generated using pymatgen
data_Cs2SmU(CuTe3)2
_symmetry_space_group_name_H-M   'P 1'
_cell_length_a   4.35278000
_cell_length_b   8.97678760
_cell_length_c   11.49448473
_cell_angle_alpha   89.25021958
_cell_angle_beta   90.00000000
_cell_angle_gamma   75.96902495
_symmetry_Int_Tables_number   1
_chemical_formula_structural   Cs2SmU(CuTe3)2
_chemical_formula_sum   'Cs2 Sm1 U1 Cu2 Te6'
_cell_volume   435.69560293
_cell_formula_units_Z   1
loop_
 _symmetry_equiv_pos_site_id
 _symmetry_equiv_pos_as_xyz
  1  'x, y, z'
loop_
 _atom_site_type_symbol
 _atom_site_label
 _atom_site_symmetry_multiplicity
 _atom_site_fract_x
 _atom_site_fract_y
 _atom_site_fract_z
 _atom_site_occupancy
  Cs  Cs0  1  0.743179  0.513641  0.243668  1
  Cs  Cs1  1  0.256822  0.486359  0.756332  1
  Sm  Sm2  1  0.000000  0.000000  0.000000  1
  U  U3  1  0.000000  0.000000  0.500000  1
  Cu  Cu4  1  0.467506  0.064991  0.250673  1
  Cu  Cu5  1  0.532495  0.935009  0.749327  1
  Te  Te6  1  0.379353  0.241297  0.064861  1
  Te  Te7  1  0.058332  0.883339  0.257800  1
  Te  Te8  1  0.383706  0.232592  0.440410  1
  Te  Te9  1  0.616296  0.767407  0.559590  1
  Te  Te10  1  0.941668  0.116662  0.742200  1
  Te  Te11  1  0.620649  0.758702  0.935139  1
