# generated using pymatgen
data_Ho6Er2Hg3BiAu8
_symmetry_space_group_name_H-M   'P 1'
_cell_length_a   7.98881100
_cell_length_b   7.98952184
_cell_length_c   7.30048600
_cell_angle_alpha   90.00000000
_cell_angle_beta   90.00000000
_cell_angle_gamma   90.06304348
_symmetry_Int_Tables_number   1
_chemical_formula_structural   Ho6Er2Hg3BiAu8
_chemical_formula_sum   'Ho6 Er2 Hg3 Bi1 Au8'
_cell_volume   465.96623124
_cell_formula_units_Z   1
loop_
 _symmetry_equiv_pos_site_id
 _symmetry_equiv_pos_as_xyz
  1  'x, y, z'
loop_
 _atom_site_type_symbol
 _atom_site_label
 _atom_site_symmetry_multiplicity
 _atom_site_fract_x
 _atom_site_fract_y
 _atom_site_fract_z
 _atom_site_occupancy
  Ho  Ho0  1  0.181932  0.186480  0.001754  1
  Ho  Ho1  1  0.313505  0.682092  0.498308  1
  Ho  Ho2  1  0.686495  0.317908  0.498308  1
  Ho  Ho3  1  0.818068  0.813520  0.001754  1
  Ho  Ho4  1  0.340203  0.656985  0.001938  1
  Ho  Ho5  1  0.659797  0.343015  0.001938  1
  Er  Er6  1  0.843416  0.840359  0.498046  1
  Er  Er7  1  0.156584  0.159641  0.498046  1
  Hg  Hg8  1  0.000000  0.500000  0.750041  1
  Hg  Hg9  1  0.500000  0.000000  0.249965  1
  Hg  Hg10  1  0.000000  0.500000  0.249979  1
  Bi  Bi11  1  0.500000  0.000000  0.749962  1
  Au  Au12  1  0.122325  0.869673  0.775837  1
  Au  Au13  1  0.872815  0.127057  0.225315  1
  Au  Au14  1  0.372445  0.372444  0.276017  1
  Au  Au15  1  0.630775  0.622732  0.722813  1
  Au  Au16  1  0.627555  0.627556  0.276017  1
  Au  Au17  1  0.877675  0.130327  0.775837  1
  Au  Au18  1  0.369225  0.377268  0.722813  1
  Au  Au19  1  0.127185  0.872943  0.225315  1
