# generated using pymatgen
data_Tb4Y2MnB14Os
_symmetry_space_group_name_H-M   'P 1'
_cell_length_a   8.08946604
_cell_length_b   8.08946646
_cell_length_c   9.33328100
_cell_angle_alpha   90.00000000
_cell_angle_beta   90.00000000
_cell_angle_gamma   155.01692927
_symmetry_Int_Tables_number   1
_chemical_formula_structural   Tb4Y2MnB14Os
_chemical_formula_sum   'Tb4 Y2 Mn1 B14 Os1'
_cell_volume   257.95683679
_cell_formula_units_Z   1
loop_
 _symmetry_equiv_pos_site_id
 _symmetry_equiv_pos_as_xyz
  1  'x, y, z'
loop_
 _atom_site_type_symbol
 _atom_site_label
 _atom_site_symmetry_multiplicity
 _atom_site_fract_x
 _atom_site_fract_y
 _atom_site_fract_z
 _atom_site_occupancy
  Tb  Tb0  1  0.894787  0.105213  0.442243  1
  Tb  Tb1  1  0.104673  0.895327  0.563776  1
  Tb  Tb2  1  0.894787  0.105213  0.057757  1
  Tb  Tb3  1  0.104673  0.895327  0.936224  1
  Y  Y4  1  0.243909  0.756091  0.250000  1
  Y  Y5  1  0.759487  0.240513  0.750000  1
  Mn  Mn6  1  0.946720  0.053280  0.750000  1
  B  B7  1  0.727022  0.272978  0.466280  1
  B  B8  1  0.272321  0.727679  0.534119  1
  B  B9  1  0.727022  0.272978  0.033720  1
  B  B10  1  0.272321  0.727679  0.965881  1
  B  B11  1  0.631658  0.368342  0.150562  1
  B  B12  1  0.370242  0.629758  0.846017  1
  B  B13  1  0.631658  0.368342  0.349438  1
  B  B14  1  0.370242  0.629758  0.653983  1
  B  B15  1  0.520757  0.479243  0.096319  1
  B  B16  1  0.477985  0.522015  0.901078  1
  B  B17  1  0.520757  0.479243  0.403681  1
  B  B18  1  0.477985  0.522015  0.598922  1
  B  B19  1  0.457535  0.542465  0.250000  1
  B  B20  1  0.539326  0.460674  0.750000  1
  Os  Os21  1  0.054131  0.945869  0.250000  1
