# generated using pymatgen
data_Ac3(Sn2Ir)2
_symmetry_space_group_name_H-M   'P 1'
_cell_length_a   7.91675200
_cell_length_b   7.91675270
_cell_length_c   4.47865900
_cell_angle_alpha   90.00000000
_cell_angle_beta   90.00000000
_cell_angle_gamma   120.00001379
_symmetry_Int_Tables_number   1
_chemical_formula_structural   Ac3(Sn2Ir)2
_chemical_formula_sum   'Ac3 Sn4 Ir2'
_cell_volume   243.09313117
_cell_formula_units_Z   1
loop_
 _symmetry_equiv_pos_site_id
 _symmetry_equiv_pos_as_xyz
  1  'x, y, z'
loop_
 _atom_site_type_symbol
 _atom_site_label
 _atom_site_symmetry_multiplicity
 _atom_site_fract_x
 _atom_site_fract_y
 _atom_site_fract_z
 _atom_site_occupancy
  Ac  Ac0  1  0.601903  0.021144  0.000000  1
  Ac  Ac1  1  0.978856  0.580759  0.000000  1
  Ac  Ac2  1  0.419241  0.398097  0.000000  1
  Sn  Sn3  1  0.240913  0.012591  0.500000  1
  Sn  Sn4  1  0.987409  0.228322  0.500000  1
  Sn  Sn5  1  0.771678  0.759087  0.500000  1
  Sn  Sn6  1  0.333333  0.666667  0.500000  1
  Ir  Ir7  1  0.666667  0.333333  0.500000  1
  Ir  Ir8  1  0.000000  0.000000  0.000000  1
