# generated using pymatgen
data_Y2Er6Ga12CoPd3
_symmetry_space_group_name_H-M   'P 1'
_cell_length_a   6.98192700
_cell_length_b   8.85057853
_cell_length_c   8.85057900
_cell_angle_alpha   119.99999801
_cell_angle_beta   90.00000000
_cell_angle_gamma   90.00000000
_symmetry_Int_Tables_number   1
_chemical_formula_structural   Y2Er6Ga12CoPd3
_chemical_formula_sum   'Y2 Er6 Ga12 Co1 Pd3'
_cell_volume   473.64099739
_cell_formula_units_Z   1
loop_
 _symmetry_equiv_pos_site_id
 _symmetry_equiv_pos_as_xyz
  1  'x, y, z'
loop_
 _atom_site_type_symbol
 _atom_site_label
 _atom_site_symmetry_multiplicity
 _atom_site_fract_x
 _atom_site_fract_y
 _atom_site_fract_z
 _atom_site_occupancy
  Y  Y0  1  0.743577  0.000000  0.000000  1
  Y  Y1  1  0.247593  0.000000  0.000000  1
  Er  Er2  1  0.750874  0.481050  0.518950  1
  Er  Er3  1  0.255795  0.524413  0.475587  1
  Er  Er4  1  0.750874  0.037900  0.518950  1
  Er  Er5  1  0.255795  0.951174  0.475587  1
  Er  Er6  1  0.750874  0.481050  0.962100  1
  Er  Er7  1  0.255795  0.524413  0.048826  1
  Ga  Ga8  1  0.955089  0.833187  0.166813  1
  Ga  Ga9  1  0.047199  0.168248  0.831752  1
  Ga  Ga10  1  0.955089  0.333628  0.166813  1
  Ga  Ga11  1  0.454689  0.167351  0.832649  1
  Ga  Ga12  1  0.047199  0.663505  0.831752  1
  Ga  Ga13  1  0.546552  0.826011  0.173989  1
  Ga  Ga14  1  0.955089  0.833187  0.666372  1
  Ga  Ga15  1  0.454689  0.665297  0.832649  1
  Ga  Ga16  1  0.047199  0.168248  0.336495  1
  Ga  Ga17  1  0.546552  0.347978  0.173989  1
  Ga  Ga18  1  0.454689  0.167351  0.334703  1
  Ga  Ga19  1  0.546552  0.826011  0.652022  1
  Co  Co20  1  0.517183  0.666667  0.333333  1
  Pd  Pd21  1  0.959697  0.666667  0.333333  1
  Pd  Pd22  1  0.032759  0.333333  0.666667  1
  Pd  Pd23  1  0.468602  0.333333  0.666667  1
