# generated using pymatgen
data_RbCa(PO3)3
_symmetry_space_group_name_H-M   'P 1'
_cell_length_a   7.03411200
_cell_length_b   7.03411141
_cell_length_c   10.59780000
_cell_angle_alpha   90.00000000
_cell_angle_beta   90.00000000
_cell_angle_gamma   120.00000279
_symmetry_Int_Tables_number   1
_chemical_formula_structural   RbCa(PO3)3
_chemical_formula_sum   'Rb2 Ca2 P6 O18'
_cell_volume   454.11396778
_cell_formula_units_Z   2
loop_
 _symmetry_equiv_pos_site_id
 _symmetry_equiv_pos_as_xyz
  1  'x, y, z'
loop_
 _atom_site_type_symbol
 _atom_site_label
 _atom_site_symmetry_multiplicity
 _atom_site_fract_x
 _atom_site_fract_y
 _atom_site_fract_z
 _atom_site_occupancy
  Rb  Rb0  1  0.333333  0.666667  0.000000  1
  Rb  Rb1  1  0.333333  0.666667  0.500000  1
  Ca  Ca2  1  0.000000  0.000000  0.000000  1
  Ca  Ca3  1  0.000000  0.000000  0.500000  1
  P  P4  1  0.717197  0.115270  0.250000  1
  P  P5  1  0.884730  0.601927  0.250000  1
  P  P6  1  0.717197  0.601927  0.750000  1
  P  P7  1  0.398073  0.282803  0.250000  1
  P  P8  1  0.884730  0.282803  0.750000  1
  P  P9  1  0.398073  0.115270  0.750000  1
  O  O10  1  0.281057  0.264967  0.128480  1
  O  O11  1  0.735033  0.016090  0.128480  1
  O  O12  1  0.281057  0.264967  0.371520  1
  O  O13  1  0.281057  0.016090  0.628480  1
  O  O14  1  0.983910  0.718943  0.128480  1
  O  O15  1  0.735033  0.016090  0.371520  1
  O  O16  1  0.735033  0.718943  0.628480  1
  O  O17  1  0.281057  0.016090  0.871520  1
  O  O18  1  0.983910  0.718943  0.371520  1
  O  O19  1  0.735033  0.718943  0.871520  1
  O  O20  1  0.983910  0.264967  0.628480  1
  O  O21  1  0.983910  0.264967  0.871520  1
  O  O22  1  0.482828  0.107305  0.250000  1
  O  O23  1  0.892695  0.375524  0.250000  1
  O  O24  1  0.482828  0.375524  0.750000  1
  O  O25  1  0.624476  0.517172  0.250000  1
  O  O26  1  0.892695  0.517172  0.750000  1
  O  O27  1  0.624476  0.107305  0.750000  1
