# generated using pymatgen
data_Yb4CdSn3Pd4
_symmetry_space_group_name_H-M   'P 1'
_cell_length_a   4.43723700
_cell_length_b   7.24188446
_cell_length_c   8.36624083
_cell_angle_alpha   89.50672998
_cell_angle_beta   90.00000000
_cell_angle_gamma   90.00000000
_symmetry_Int_Tables_number   1
_chemical_formula_structural   Yb4CdSn3Pd4
_chemical_formula_sum   'Yb4 Cd1 Sn3 Pd4'
_cell_volume   268.83046567
_cell_formula_units_Z   1
loop_
 _symmetry_equiv_pos_site_id
 _symmetry_equiv_pos_as_xyz
  1  'x, y, z'
loop_
 _atom_site_type_symbol
 _atom_site_label
 _atom_site_symmetry_multiplicity
 _atom_site_fract_x
 _atom_site_fract_y
 _atom_site_fract_z
 _atom_site_occupancy
  Yb  Yb0  1  0.250000  0.530548  0.180133  1
  Yb  Yb1  1  0.750000  0.466366  0.822037  1
  Yb  Yb2  1  0.250000  0.029782  0.316628  1
  Yb  Yb3  1  0.750000  0.970104  0.680936  1
  Cd  Cd4  1  0.250000  0.148632  0.933531  1
  Sn  Sn5  1  0.750000  0.354081  0.438949  1
  Sn  Sn6  1  0.250000  0.656368  0.563606  1
  Sn  Sn7  1  0.750000  0.852177  0.061056  1
  Pd  Pd8  1  0.750000  0.229101  0.135531  1
  Pd  Pd9  1  0.250000  0.274291  0.617444  1
  Pd  Pd10  1  0.750000  0.732882  0.374063  1
  Pd  Pd11  1  0.250000  0.755666  0.876086  1
