# generated using pymatgen
data_Dy3U(CuAs2)4
_symmetry_space_group_name_H-M   'P 1'
_cell_length_a   3.92913400
_cell_length_b   3.91818974
_cell_length_c   19.53273826
_cell_angle_alpha   90.17036773
_cell_angle_beta   90.00000000
_cell_angle_gamma   90.00000000
_symmetry_Int_Tables_number   1
_chemical_formula_structural   Dy3U(CuAs2)4
_chemical_formula_sum   'Dy3 U1 Cu4 As8'
_cell_volume   300.70698379
_cell_formula_units_Z   1
loop_
 _symmetry_equiv_pos_site_id
 _symmetry_equiv_pos_as_xyz
  1  'x, y, z'
loop_
 _atom_site_type_symbol
 _atom_site_label
 _atom_site_symmetry_multiplicity
 _atom_site_fract_x
 _atom_site_fract_y
 _atom_site_fract_z
 _atom_site_occupancy
  Dy  Dy0  1  0.750000  0.741845  0.382404  1
  Dy  Dy1  1  0.250000  0.258738  0.619980  1
  Dy  Dy2  1  0.750000  0.757816  0.881877  1
  U  U3  1  0.250000  0.242973  0.116965  1
  Cu  Cu4  1  0.750000  0.239201  0.249904  1
  Cu  Cu5  1  0.250000  0.737893  0.249826  1
  Cu  Cu6  1  0.750000  0.261797  0.750315  1
  Cu  Cu7  1  0.250000  0.760855  0.750234  1
  As  As8  1  0.250000  0.747120  0.001557  1
  As  As9  1  0.750000  0.741960  0.165505  1
  As  As10  1  0.250000  0.239865  0.328722  1
  As  As11  1  0.750000  0.246272  0.500283  1
  As  As12  1  0.250000  0.753498  0.500271  1
  As  As13  1  0.750000  0.760068  0.669153  1
  As  As14  1  0.250000  0.259347  0.831347  1
  As  As15  1  0.750000  0.250756  0.001657  1
