# generated using pymatgen
data_PrNd11FePI17
_symmetry_space_group_name_H-M   'P 1'
_cell_length_a   9.96209589
_cell_length_b   11.94613264
_cell_length_c   11.93325520
_cell_angle_alpha   93.61428822
_cell_angle_beta   104.73006298
_cell_angle_gamma   114.54946094
_symmetry_Int_Tables_number   1
_chemical_formula_structural   PrNd11FePI17
_chemical_formula_sum   'Pr1 Nd11 Fe1 P1 I17'
_cell_volume   1226.14382438
_cell_formula_units_Z   1
loop_
 _symmetry_equiv_pos_site_id
 _symmetry_equiv_pos_as_xyz
  1  'x, y, z'
loop_
 _atom_site_type_symbol
 _atom_site_label
 _atom_site_symmetry_multiplicity
 _atom_site_fract_x
 _atom_site_fract_y
 _atom_site_fract_z
 _atom_site_occupancy
  Pr  Pr0  1  0.847634  0.712647  0.851503  1
  Nd  Nd1  1  0.054256  0.507394  0.321687  1
  Nd  Nd2  1  0.988462  0.810049  0.581329  1
  Nd  Nd3  1  0.648151  0.240798  0.283589  1
  Nd  Nd4  1  0.009739  0.191521  0.414749  1
  Nd  Nd5  1  0.221196  0.668970  0.990712  1
  Nd  Nd6  1  0.263165  0.986675  0.896024  1
  Nd  Nd7  1  0.358736  0.759446  0.717448  1
  Nd  Nd8  1  0.942718  0.487584  0.675342  1
  Nd  Nd9  1  0.742701  0.017924  0.109019  1
  Nd  Nd10  1  0.147876  0.287480  0.150585  1
  Nd  Nd11  1  0.777984  0.328380  0.012564  1
  Fe  Fe12  1  0.895678  0.262004  0.213966  1
  P  P13  1  0.104702  0.737900  0.784452  1
  I  I14  1  0.783798  0.531390  0.422022  1
  I  I15  1  0.642242  0.419556  0.754284  1
  I  I16  1  0.842895  0.893386  0.325898  1
  I  I17  1  0.327412  0.213688  0.370253  1
  I  I18  1  0.157601  0.101364  0.678263  1
  I  I19  1  0.581037  0.048863  0.837736  1
  I  I20  1  0.754125  0.182017  0.540925  1
  I  I21  1  0.542012  0.701606  0.952761  1
  I  I22  1  0.362207  0.583659  0.241834  1
  I  I23  1  0.218193  0.474342  0.586673  1
  I  I24  1  0.058130  0.371386  0.892738  1
  I  I25  1  0.449596  0.293147  0.044215  1
  I  I26  1  0.000073  0.999247  0.996062  1
  I  I27  1  0.247398  0.820178  0.466014  1
  I  I28  1  0.407812  0.943128  0.154915  1
  I  I29  1  0.674986  0.788096  0.628794  1
  I  I30  1  0.947484  0.636174  0.103644  1
