# generated using pymatgen
data_Li3Tl(Ga3Te5)4
_symmetry_space_group_name_H-M   'P 1'
_cell_length_a   10.41431014
_cell_length_b   10.41430927
_cell_length_c   10.41431000
_cell_angle_alpha   89.99073524
_cell_angle_beta   89.99073524
_cell_angle_gamma   89.99073924
_symmetry_Int_Tables_number   1
_chemical_formula_structural   Li3Tl(Ga3Te5)4
_chemical_formula_sum   'Li3 Tl1 Ga12 Te20'
_cell_volume   1129.51359229
_cell_formula_units_Z   1
loop_
 _symmetry_equiv_pos_site_id
 _symmetry_equiv_pos_as_xyz
  1  'x, y, z'
loop_
 _atom_site_type_symbol
 _atom_site_label
 _atom_site_symmetry_multiplicity
 _atom_site_fract_x
 _atom_site_fract_y
 _atom_site_fract_z
 _atom_site_occupancy
  Li  Li0  1  0.258453  0.000000  0.741547  1
  Li  Li1  1  0.741547  0.258453  0.000000  1
  Li  Li2  1  0.000000  0.741547  0.258453  1
  Tl  Tl3  1  0.500000  0.500000  0.500000  1
  Ga  Ga4  1  0.841919  0.877870  0.572878  1
  Ga  Ga5  1  0.572878  0.841919  0.877870  1
  Ga  Ga6  1  0.877870  0.572878  0.841919  1
  Ga  Ga7  1  0.158081  0.427122  0.122130  1
  Ga  Ga8  1  0.122130  0.158081  0.427122  1
  Ga  Ga9  1  0.427122  0.122130  0.158081  1
  Ga  Ga10  1  0.749615  0.165725  0.339371  1
  Ga  Ga11  1  0.339371  0.749615  0.165725  1
  Ga  Ga12  1  0.165725  0.339371  0.749615  1
  Ga  Ga13  1  0.250385  0.660629  0.834275  1
  Ga  Ga14  1  0.834275  0.250385  0.660629  1
  Ga  Ga15  1  0.660629  0.834275  0.250385  1
  Te  Te16  1  0.167506  0.832494  0.000000  1
  Te  Te17  1  0.832494  0.000000  0.167506  1
  Te  Te18  1  0.170930  0.170930  0.170930  1
  Te  Te19  1  0.829070  0.829070  0.829070  1
  Te  Te20  1  0.000000  0.167506  0.832494  1
  Te  Te21  1  0.916994  0.500000  0.083006  1
  Te  Te22  1  0.083006  0.916994  0.500000  1
  Te  Te23  1  0.500000  0.083006  0.916994  1
  Te  Te24  1  0.769350  0.685423  0.423747  1
  Te  Te25  1  0.423747  0.769350  0.685423  1
  Te  Te26  1  0.685423  0.423747  0.769350  1
  Te  Te27  1  0.230650  0.576253  0.314577  1
  Te  Te28  1  0.314577  0.230650  0.576253  1
  Te  Te29  1  0.576253  0.314577  0.230650  1
  Te  Te30  1  0.671769  0.070042  0.568575  1
  Te  Te31  1  0.568575  0.671769  0.070042  1
  Te  Te32  1  0.070042  0.568575  0.671769  1
  Te  Te33  1  0.328231  0.431425  0.929958  1
  Te  Te34  1  0.929958  0.328231  0.431425  1
  Te  Te35  1  0.431425  0.929958  0.328231  1
