# generated using pymatgen
data_Sm6ErFeBr12
_symmetry_space_group_name_H-M   'P 1'
_cell_length_a   9.33881864
_cell_length_b   9.33881847
_cell_length_c   9.33881808
_cell_angle_alpha   107.03417818
_cell_angle_beta   107.03416949
_cell_angle_gamma   107.03417423
_symmetry_Int_Tables_number   1
_chemical_formula_structural   Sm6ErFeBr12
_chemical_formula_sum   'Sm6 Er1 Fe1 Br12'
_cell_volume   677.66617877
_cell_formula_units_Z   1
loop_
 _symmetry_equiv_pos_site_id
 _symmetry_equiv_pos_as_xyz
  1  'x, y, z'
loop_
 _atom_site_type_symbol
 _atom_site_label
 _atom_site_symmetry_multiplicity
 _atom_site_fract_x
 _atom_site_fract_y
 _atom_site_fract_z
 _atom_site_occupancy
  Sm  Sm0  1  0.901978  0.977650  0.694353  1
  Sm  Sm1  1  0.694353  0.901978  0.977650  1
  Sm  Sm2  1  0.977650  0.694353  0.901978  1
  Sm  Sm3  1  0.098022  0.022350  0.305647  1
  Sm  Sm4  1  0.305647  0.098022  0.022350  1
  Sm  Sm5  1  0.022350  0.305647  0.098022  1
  Er  Er6  1  0.500000  0.500000  0.500000  1
  Fe  Fe7  1  0.000000  0.000000  0.000000  1
  Br  Br8  1  0.825675  0.610033  0.534850  1
  Br  Br9  1  0.534850  0.825675  0.610033  1
  Br  Br10  1  0.610033  0.534850  0.825675  1
  Br  Br11  1  0.174325  0.389967  0.465150  1
  Br  Br12  1  0.465150  0.174325  0.389967  1
  Br  Br13  1  0.389967  0.465150  0.174325  1
  Br  Br14  1  0.928866  0.318537  0.775126  1
  Br  Br15  1  0.775126  0.928866  0.318537  1
  Br  Br16  1  0.318537  0.775126  0.928866  1
  Br  Br17  1  0.071134  0.681463  0.224874  1
  Br  Br18  1  0.224874  0.071134  0.681463  1
  Br  Br19  1  0.681463  0.224874  0.071134  1
