# generated using pymatgen
data_Dy7YSc12Si15Rh
_symmetry_space_group_name_H-M   'P 1'
_cell_length_a   7.07862227
_cell_length_b   7.43791672
_cell_length_c   13.95784500
_cell_angle_alpha   89.99767192
_cell_angle_beta   89.99949490
_cell_angle_gamma   90.21680581
_symmetry_Int_Tables_number   1
_chemical_formula_structural   Dy7YSc12Si15Rh
_chemical_formula_sum   'Dy7 Y1 Sc12 Si15 Rh1'
_cell_volume   734.87811024
_cell_formula_units_Z   1
loop_
 _symmetry_equiv_pos_site_id
 _symmetry_equiv_pos_as_xyz
  1  'x, y, z'
loop_
 _atom_site_type_symbol
 _atom_site_label
 _atom_site_symmetry_multiplicity
 _atom_site_fract_x
 _atom_site_fract_y
 _atom_site_fract_z
 _atom_site_occupancy
  Dy  Dy0  1  0.991084  0.824512  0.904528  1
  Dy  Dy1  1  0.489238  0.676779  0.904350  1
  Dy  Dy2  1  0.991090  0.824554  0.595424  1
  Dy  Dy3  1  0.511181  0.323023  0.096418  1
  Dy  Dy4  1  0.011339  0.178228  0.403921  1
  Dy  Dy5  1  0.511159  0.322985  0.403614  1
  Dy  Dy6  1  0.489208  0.676804  0.595659  1
  Y  Y7  1  0.011200  0.178117  0.096034  1
  Sc  Sc8  1  0.158941  0.503661  0.749977  1
  Sc  Sc9  1  0.837927  0.496233  0.250032  1
  Sc  Sc10  1  0.338873  0.004665  0.250044  1
  Sc  Sc11  1  0.668663  0.999045  0.749980  1
  Sc  Sc12  1  0.320207  0.172652  0.626950  1
  Sc  Sc13  1  0.671091  0.825243  0.374027  1
  Sc  Sc14  1  0.170720  0.677334  0.374294  1
  Sc  Sc15  1  0.671027  0.825224  0.126025  1
  Sc  Sc16  1  0.833960  0.322159  0.626597  1
  Sc  Sc17  1  0.320182  0.172671  0.873002  1
  Sc  Sc18  1  0.833949  0.322176  0.873326  1
  Sc  Sc19  1  0.170708  0.677315  0.125736  1
  Si  Si20  1  0.968413  0.884368  0.250072  1
  Si  Si21  1  0.468035  0.615008  0.250001  1
  Si  Si22  1  0.530617  0.387320  0.749998  1
  Si  Si23  1  0.287775  0.868636  0.750000  1
  Si  Si24  1  0.713226  0.128908  0.250034  1
  Si  Si25  1  0.213478  0.372087  0.250109  1
  Si  Si26  1  0.780801  0.626521  0.749995  1
  Si  Si27  1  0.159354  0.467176  0.537948  1
  Si  Si28  1  0.842879  0.535716  0.461210  1
  Si  Si29  1  0.344602  0.965763  0.460530  1
  Si  Si30  1  0.842787  0.535929  0.038756  1
  Si  Si31  1  0.657596  0.034711  0.538685  1
  Si  Si32  1  0.159385  0.467290  0.961979  1
  Si  Si33  1  0.657555  0.034673  0.961274  1
  Si  Si34  1  0.344809  0.965602  0.039449  1
  Rh  Rh35  1  0.026936  0.106908  0.750022  1
