# generated using pymatgen
data_Hf4Al24CoPt8
_symmetry_space_group_name_H-M   'P 1'
_cell_length_a   7.40838452
_cell_length_b   7.41373157
_cell_length_c   12.83726112
_cell_angle_alpha   84.38190722
_cell_angle_beta   101.05377235
_cell_angle_gamma   119.83755546
_symmetry_Int_Tables_number   1
_chemical_formula_structural   Hf4Al24CoPt8
_chemical_formula_sum   'Hf4 Al24 Co1 Pt8'
_cell_volume   600.25698842
_cell_formula_units_Z   1
loop_
 _symmetry_equiv_pos_site_id
 _symmetry_equiv_pos_as_xyz
  1  'x, y, z'
loop_
 _atom_site_type_symbol
 _atom_site_label
 _atom_site_symmetry_multiplicity
 _atom_site_fract_x
 _atom_site_fract_y
 _atom_site_fract_z
 _atom_site_occupancy
  Hf  Hf0  1  0.735810  0.001442  0.188506  1
  Hf  Hf1  1  0.269059  0.003745  0.811920  1
  Hf  Hf2  1  0.058294  0.668311  0.187969  1
  Hf  Hf3  1  0.936486  0.327268  0.811630  1
  Al  Al4  1  0.810173  0.870491  0.816991  1
  Al  Al5  1  0.190494  0.128545  0.182986  1
  Al  Al6  1  0.997873  0.666290  0.941184  1
  Al  Al7  1  0.024039  0.343025  0.056782  1
  Al  Al8  1  0.382993  0.662658  0.823771  1
  Al  Al9  1  0.605608  0.336272  0.181571  1
  Al  Al10  1  0.887665  0.664772  0.679717  1
  Al  Al11  1  0.114300  0.335877  0.319981  1
  Al  Al12  1  0.602864  0.454147  0.817691  1
  Al  Al13  1  0.396528  0.559246  0.177002  1
  Al  Al14  1  0.231486  0.339103  0.677649  1
  Al  Al15  1  0.767998  0.661291  0.322345  1
  Al  Al16  1  0.853582  0.333296  0.561667  1
  Al  Al17  1  0.187654  0.999753  0.561600  1
  Al  Al18  1  0.812807  0.999760  0.438475  1
  Al  Al19  1  0.353205  0.982483  0.058781  1
  Al  Al20  1  0.638301  0.995049  0.943366  1
  Al  Al21  1  0.557733  0.993369  0.679738  1
  Al  Al22  1  0.441638  0.004502  0.320468  1
  Al  Al23  1  0.522056  0.667549  0.564300  1
  Al  Al24  1  0.478015  0.332361  0.435434  1
  Al  Al25  1  0.678098  0.670647  0.046224  1
  Al  Al26  1  0.313880  0.337152  0.953787  1
  Al  Al27  1  0.146785  0.666537  0.438500  1
  Co  Co28  1  0.329151  0.671212  0.000318  1
  Pt  Pt29  1  0.546233  0.322822  0.638467  1
  Pt  Pt30  1  0.453854  0.676221  0.360968  1
  Pt  Pt31  1  0.890650  0.010148  0.640206  1
  Pt  Pt32  1  0.109676  0.989356  0.359776  1
  Pt  Pt33  1  0.673118  0.326559  0.999677  1
  Pt  Pt34  1  0.203483  0.666410  0.640595  1
  Pt  Pt35  1  0.797693  0.333105  0.359976  1
  Pt  Pt36  1  0.000721  0.999223  0.999981  1
