# generated using pymatgen
data_K2Sn(PdSe2)3
_symmetry_space_group_name_H-M   'P 1'
_cell_length_a   8.08496656
_cell_length_b   8.08496644
_cell_length_c   8.08496548
_cell_angle_alpha   55.49815558
_cell_angle_beta   55.49815833
_cell_angle_gamma   55.49814544
_symmetry_Int_Tables_number   1
_chemical_formula_structural   K2Sn(PdSe2)3
_chemical_formula_sum   'K2 Sn1 Pd3 Se6'
_cell_volume   334.63609410
_cell_formula_units_Z   1
loop_
 _symmetry_equiv_pos_site_id
 _symmetry_equiv_pos_as_xyz
  1  'x, y, z'
loop_
 _atom_site_type_symbol
 _atom_site_label
 _atom_site_symmetry_multiplicity
 _atom_site_fract_x
 _atom_site_fract_y
 _atom_site_fract_z
 _atom_site_occupancy
  K  K0  1  0.199223  0.199223  0.199223  1
  K  K1  1  0.800777  0.800777  0.800777  1
  Sn  Sn2  1  0.000000  0.000000  0.000000  1
  Pd  Pd3  1  0.500000  0.500000  0.000000  1
  Pd  Pd4  1  0.500000  0.000000  0.500000  1
  Pd  Pd5  1  0.000000  0.500000  0.500000  1
  Se  Se6  1  0.707877  0.246184  0.246185  1
  Se  Se7  1  0.246184  0.707877  0.246185  1
  Se  Se8  1  0.753816  0.753816  0.292123  1
  Se  Se9  1  0.246184  0.246184  0.707878  1
  Se  Se10  1  0.753816  0.292123  0.753815  1
  Se  Se11  1  0.292123  0.753816  0.753815  1
