# generated using pymatgen
data_Zr18Re6Ni2MoW
_symmetry_space_group_name_H-M   'P 1'
_cell_length_a   8.74371700
_cell_length_b   8.74370272
_cell_length_c   8.50522600
_cell_angle_alpha   90.00002904
_cell_angle_beta   89.99996013
_cell_angle_gamma   120.00001545
_symmetry_Int_Tables_number   1
_chemical_formula_structural   Zr18Re6Ni2MoW
_chemical_formula_sum   'Zr18 Re6 Ni2 Mo1 W1'
_cell_volume   563.12900681
_cell_formula_units_Z   1
loop_
 _symmetry_equiv_pos_site_id
 _symmetry_equiv_pos_as_xyz
  1  'x, y, z'
loop_
 _atom_site_type_symbol
 _atom_site_label
 _atom_site_symmetry_multiplicity
 _atom_site_fract_x
 _atom_site_fract_y
 _atom_site_fract_z
 _atom_site_occupancy
  Zr  Zr0  1  0.198268  0.801731  0.443334  1
  Zr  Zr1  1  0.198268  0.396536  0.443333  1
  Zr  Zr2  1  0.603464  0.801732  0.443335  1
  Zr  Zr3  1  0.801732  0.198269  0.556666  1
  Zr  Zr4  1  0.801732  0.603464  0.556667  1
  Zr  Zr5  1  0.396536  0.198268  0.556665  1
  Zr  Zr6  1  0.801665  0.198335  0.943234  1
  Zr  Zr7  1  0.801665  0.603332  0.943234  1
  Zr  Zr8  1  0.396668  0.198334  0.943233  1
  Zr  Zr9  1  0.198335  0.801665  0.056766  1
  Zr  Zr10  1  0.198335  0.396668  0.056766  1
  Zr  Zr11  1  0.603332  0.801666  0.056767  1
  Zr  Zr12  1  0.541892  0.458107  0.249936  1
  Zr  Zr13  1  0.541892  0.083787  0.249936  1
  Zr  Zr14  1  0.916212  0.458107  0.249937  1
  Zr  Zr15  1  0.458108  0.541893  0.750064  1
  Zr  Zr16  1  0.458108  0.916213  0.750064  1
  Zr  Zr17  1  0.083788  0.541893  0.750063  1
  Re  Re18  1  0.891132  0.108868  0.249990  1
  Re  Re19  1  0.891131  0.782263  0.249990  1
  Re  Re20  1  0.217738  0.108868  0.249989  1
  Re  Re21  1  0.108868  0.891132  0.750010  1
  Re  Re22  1  0.108869  0.217737  0.750010  1
  Re  Re23  1  0.782262  0.891132  0.750011  1
  Ni  Ni24  1  0.333333  0.666667  0.249872  1
  Ni  Ni25  1  0.666667  0.333333  0.750128  1
  Mo  Mo26  1  0.000000  0.000000  0.000000  1
  W  W27  1  0.000000  0.000000  0.500000  1
