# generated using pymatgen
data_Ho6Co17P12Ru
_symmetry_space_group_name_H-M   'P 1'
_cell_length_a   3.68146100
_cell_length_b   10.48119700
_cell_length_c   12.17304600
_cell_angle_alpha   90.00000000
_cell_angle_beta   90.00000000
_cell_angle_gamma   90.00000000
_symmetry_Int_Tables_number   1
_chemical_formula_structural   Ho6Co17P12Ru
_chemical_formula_sum   'Ho6 Co17 P12 Ru1'
_cell_volume   469.71058924
_cell_formula_units_Z   1
loop_
 _symmetry_equiv_pos_site_id
 _symmetry_equiv_pos_as_xyz
  1  'x, y, z'
loop_
 _atom_site_type_symbol
 _atom_site_label
 _atom_site_symmetry_multiplicity
 _atom_site_fract_x
 _atom_site_fract_y
 _atom_site_fract_z
 _atom_site_occupancy
  Ho  Ho0  1  0.000000  0.500000  0.524681  1
  Ho  Ho1  1  0.500000  0.000000  0.478250  1
  Ho  Ho2  1  0.500000  0.817719  0.206848  1
  Ho  Ho3  1  0.500000  0.182281  0.206848  1
  Ho  Ho4  1  0.000000  0.682913  0.793886  1
  Ho  Ho5  1  0.000000  0.317087  0.793886  1
  Co  Co6  1  0.000000  0.500000  0.986983  1
  Co  Co7  1  0.500000  0.000000  0.014335  1
  Co  Co8  1  0.500000  0.297370  0.430403  1
  Co  Co9  1  0.500000  0.702630  0.430403  1
  Co  Co10  1  0.000000  0.202884  0.568803  1
  Co  Co11  1  0.000000  0.797116  0.568803  1
  Co  Co12  1  0.500000  0.879069  0.709149  1
  Co  Co13  1  0.500000  0.120931  0.709149  1
  Co  Co14  1  0.000000  0.620932  0.291754  1
  Co  Co15  1  0.000000  0.379068  0.291754  1
  Co  Co16  1  0.500000  0.332105  0.991222  1
  Co  Co17  1  0.500000  0.667895  0.991222  1
  Co  Co18  1  0.000000  0.166421  0.005546  1
  Co  Co19  1  0.000000  0.833579  0.005546  1
  Co  Co20  1  0.000000  0.000000  0.840032  1
  Co  Co21  1  0.500000  0.500000  0.703816  1
  Co  Co22  1  0.000000  0.000000  0.295753  1
  P  P23  1  0.500000  0.311310  0.616477  1
  P  P24  1  0.500000  0.688690  0.616477  1
  P  P25  1  0.000000  0.187815  0.384020  1
  P  P26  1  0.000000  0.812185  0.384020  1
  P  P27  1  0.500000  0.500000  0.881660  1
  P  P28  1  0.000000  0.000000  0.117270  1
  P  P29  1  0.500000  0.849010  0.891839  1
  P  P30  1  0.500000  0.150990  0.891839  1
  P  P31  1  0.000000  0.655593  0.105926  1
  P  P32  1  0.000000  0.344407  0.105926  1
  P  P33  1  0.500000  0.500000  0.350774  1
  P  P34  1  0.000000  0.000000  0.655265  1
  Ru  Ru35  1  0.500000  0.500000  0.159429  1
