# generated using pymatgen
data_Yb7TmSi16(MoW5)2
_symmetry_space_group_name_H-M   'P 1'
_cell_length_a   6.70593180
_cell_length_b   6.88817121
_cell_length_c   12.98125200
_cell_angle_alpha   89.75687257
_cell_angle_beta   89.92462442
_cell_angle_gamma   90.12004154
_symmetry_Int_Tables_number   1
_chemical_formula_structural   Yb7TmSi16(MoW5)2
_chemical_formula_sum   'Yb7 Tm1 Si16 Mo2 W10'
_cell_volume   599.61764261
_cell_formula_units_Z   1
loop_
 _symmetry_equiv_pos_site_id
 _symmetry_equiv_pos_as_xyz
  1  'x, y, z'
loop_
 _atom_site_type_symbol
 _atom_site_label
 _atom_site_symmetry_multiplicity
 _atom_site_fract_x
 _atom_site_fract_y
 _atom_site_fract_z
 _atom_site_occupancy
  Yb  Yb0  1  0.998719  0.167164  0.089870  1
  Yb  Yb1  1  0.001286  0.833814  0.910734  1
  Yb  Yb2  1  0.502142  0.666405  0.909846  1
  Yb  Yb3  1  0.001308  0.833417  0.589446  1
  Yb  Yb4  1  0.498195  0.332117  0.090193  1
  Yb  Yb5  1  0.999270  0.167566  0.410100  1
  Yb  Yb6  1  0.498790  0.330233  0.408565  1
  Tm  Tm7  1  0.501821  0.671341  0.593532  1
  Si  Si8  1  0.034179  0.123692  0.749546  1
  Si  Si9  1  0.965318  0.878051  0.249667  1
  Si  Si10  1  0.464202  0.619730  0.249582  1
  Si  Si11  1  0.536162  0.377540  0.749998  1
  Si  Si12  1  0.297507  0.864379  0.750867  1
  Si  Si13  1  0.701663  0.135880  0.250137  1
  Si  Si14  1  0.199542  0.362010  0.249940  1
  Si  Si15  1  0.802989  0.638245  0.750950  1
  Si  Si16  1  0.163113  0.458938  0.544292  1
  Si  Si17  1  0.837034  0.541243  0.455694  1
  Si  Si18  1  0.338205  0.956962  0.455768  1
  Si  Si19  1  0.839988  0.542388  0.045753  1
  Si  Si20  1  0.661640  0.043395  0.544219  1
  Si  Si21  1  0.159611  0.457628  0.954218  1
  Si  Si22  1  0.659537  0.042660  0.954728  1
  Si  Si23  1  0.339954  0.957076  0.045043  1
  Mo  Mo24  1  0.834047  0.333461  0.872249  1
  Mo  Mo25  1  0.165269  0.666178  0.127345  1
  W  W26  1  0.162401  0.491467  0.748499  1
  W  W27  1  0.839462  0.510023  0.251181  1
  W  W28  1  0.340688  0.988597  0.250713  1
  W  W29  1  0.659836  0.008550  0.748526  1
  W  W30  1  0.335294  0.166841  0.626088  1
  W  W31  1  0.663076  0.831041  0.373802  1
  W  W32  1  0.165038  0.666460  0.372556  1
  W  W33  1  0.664511  0.832276  0.127891  1
  W  W34  1  0.833381  0.335546  0.626961  1
  W  W35  1  0.334820  0.167689  0.871505  1
