# generated using pymatgen
data_Tm4Re3MoN8
_symmetry_space_group_name_H-M   'P 1'
_cell_length_a   3.09894200
_cell_length_b   5.61170412
_cell_length_c   10.68493614
_cell_angle_alpha   89.66018598
_cell_angle_beta   90.00000000
_cell_angle_gamma   90.00000000
_symmetry_Int_Tables_number   1
_chemical_formula_structural   Tm4Re3MoN8
_chemical_formula_sum   'Tm4 Re3 Mo1 N8'
_cell_volume   185.81146403
_cell_formula_units_Z   1
loop_
 _symmetry_equiv_pos_site_id
 _symmetry_equiv_pos_as_xyz
  1  'x, y, z'
loop_
 _atom_site_type_symbol
 _atom_site_label
 _atom_site_symmetry_multiplicity
 _atom_site_fract_x
 _atom_site_fract_y
 _atom_site_fract_z
 _atom_site_occupancy
  Tm  Tm0  1  0.250000  0.076154  0.853615  1
  Tm  Tm1  1  0.250000  0.575654  0.645689  1
  Tm  Tm2  1  0.750000  0.921923  0.147827  1
  Tm  Tm3  1  0.750000  0.422577  0.354703  1
  Re  Re4  1  0.250000  0.439354  0.100316  1
  Re  Re5  1  0.250000  0.941643  0.400262  1
  Re  Re6  1  0.750000  0.560993  0.900002  1
  Mo  Mo7  1  0.750000  0.061703  0.598083  1
  N  N8  1  0.250000  0.167216  0.244124  1
  N  N9  1  0.250000  0.667442  0.253127  1
  N  N10  1  0.750000  0.828874  0.756875  1
  N  N11  1  0.750000  0.334074  0.747517  1
  N  N12  1  0.250000  0.757089  0.997721  1
  N  N13  1  0.250000  0.261486  0.500873  1
  N  N14  1  0.750000  0.241807  0.003051  1
  N  N15  1  0.750000  0.742012  0.496215  1
