# generated using pymatgen
data_Ca3(H6Ir)2
_symmetry_space_group_name_H-M   'P 1'
_cell_length_a   4.94906000
_cell_length_b   4.94906050
_cell_length_c   8.21474200
_cell_angle_alpha   90.00007209
_cell_angle_beta   89.99996807
_cell_angle_gamma   119.99996810
_symmetry_Int_Tables_number   1
_chemical_formula_structural   Ca3(H6Ir)2
_chemical_formula_sum   'Ca3 H12 Ir2'
_cell_volume   174.24895482
_cell_formula_units_Z   1
loop_
 _symmetry_equiv_pos_site_id
 _symmetry_equiv_pos_as_xyz
  1  'x, y, z'
loop_
 _atom_site_type_symbol
 _atom_site_label
 _atom_site_symmetry_multiplicity
 _atom_site_fract_x
 _atom_site_fract_y
 _atom_site_fract_z
 _atom_site_occupancy
  Ca  Ca0  1  0.000003  0.000003  0.000000  1
  Ca  Ca1  1  0.666666  0.333336  0.362833  1
  Ca  Ca2  1  0.333331  0.666665  0.637167  1
  H  H3  1  0.021590  0.510794  0.129694  1
  H  H4  1  0.489207  0.978411  0.129695  1
  H  H5  1  0.489207  0.510795  0.129695  1
  H  H6  1  0.658152  0.829076  0.367175  1
  H  H7  1  0.170924  0.829073  0.367174  1
  H  H8  1  0.170925  0.341849  0.367175  1
  H  H9  1  0.829075  0.170924  0.632826  1
  H  H10  1  0.829075  0.658151  0.632826  1
  H  H11  1  0.341847  0.170921  0.632826  1
  H  H12  1  0.510793  0.021589  0.870305  1
  H  H13  1  0.510793  0.489205  0.870306  1
  H  H14  1  0.978409  0.489205  0.870306  1
  Ir  Ir15  1  0.333334  0.666667  0.251972  1
  Ir  Ir16  1  0.666665  0.333332  0.748028  1
