# generated using pymatgen
data_NaCeNiPt3
_symmetry_space_group_name_H-M   'P 1'
_cell_length_a   5.43038171
_cell_length_b   5.43038221
_cell_length_c   5.22672908
_cell_angle_alpha   58.70249642
_cell_angle_beta   58.70249218
_cell_angle_gamma   60.00000657
_symmetry_Int_Tables_number   1
_chemical_formula_structural   NaCeNiPt3
_chemical_formula_sum   'Na1 Ce1 Ni1 Pt3'
_cell_volume   106.80068813
_cell_formula_units_Z   1
loop_
 _symmetry_equiv_pos_site_id
 _symmetry_equiv_pos_as_xyz
  1  'x, y, z'
loop_
 _atom_site_type_symbol
 _atom_site_label
 _atom_site_symmetry_multiplicity
 _atom_site_fract_x
 _atom_site_fract_y
 _atom_site_fract_z
 _atom_site_occupancy
  Na  Na0  1  0.998368  0.998368  0.004898  1
  Ce  Ce1  1  0.250173  0.250173  0.249482  1
  Ni  Ni2  1  0.625813  0.625813  0.122561  1
  Pt  Pt3  1  0.626087  0.123471  0.624353  1
  Pt  Pt4  1  0.626087  0.626087  0.624353  1
  Pt  Pt5  1  0.123471  0.626087  0.624353  1
