# generated using pymatgen
data_Na4TcPtCl12
_symmetry_space_group_name_H-M   'P 1'
_cell_length_a   7.00547919
_cell_length_b   6.76687502
_cell_length_c   11.75356800
_cell_angle_alpha   54.68451260
_cell_angle_beta   90.16539827
_cell_angle_gamma   89.85538541
_symmetry_Int_Tables_number   1
_chemical_formula_structural   Na4TcPtCl12
_chemical_formula_sum   'Na4 Tc1 Pt1 Cl12'
_cell_volume   454.64081648
_cell_formula_units_Z   1
loop_
 _symmetry_equiv_pos_site_id
 _symmetry_equiv_pos_as_xyz
  1  'x, y, z'
loop_
 _atom_site_type_symbol
 _atom_site_label
 _atom_site_symmetry_multiplicity
 _atom_site_fract_x
 _atom_site_fract_y
 _atom_site_fract_z
 _atom_site_occupancy
  Na  Na0  1  0.423582  0.740744  0.249021  1
  Na  Na1  1  0.924156  0.263406  0.247192  1
  Na  Na2  1  0.075844  0.736594  0.752808  1
  Na  Na3  1  0.576418  0.259256  0.750979  1
  Tc  Tc4  1  0.500000  0.000000  0.500000  1
  Pt  Pt5  1  0.000000  0.000000  0.000000  1
  Cl  Cl6  1  0.825314  0.341578  0.946707  1
  Cl  Cl7  1  0.525695  0.140469  0.262519  1
  Cl  Cl8  1  0.474305  0.859531  0.737481  1
  Cl  Cl9  1  0.286586  0.215871  0.950257  1
  Cl  Cl10  1  0.325855  0.656200  0.551952  1
  Cl  Cl11  1  0.208757  0.216769  0.450297  1
  Cl  Cl12  1  0.174686  0.658422  0.053293  1
  Cl  Cl13  1  0.791243  0.783231  0.549703  1
  Cl  Cl14  1  0.713414  0.784129  0.049743  1
  Cl  Cl15  1  0.026922  0.864786  0.234286  1
  Cl  Cl16  1  0.973078  0.135214  0.765714  1
  Cl  Cl17  1  0.674145  0.343800  0.448048  1
