# generated using pymatgen
data_Nd2Nb3Si4
_symmetry_space_group_name_H-M   'P 1'
_cell_length_a   7.18304600
_cell_length_b   7.18304600
_cell_length_c   13.30312200
_cell_angle_alpha   90.00000000
_cell_angle_beta   90.00000000
_cell_angle_gamma   90.00000000
_symmetry_Int_Tables_number   1
_chemical_formula_structural   Nd2Nb3Si4
_chemical_formula_sum   'Nd8 Nb12 Si16'
_cell_volume   686.38987603
_cell_formula_units_Z   4
loop_
 _symmetry_equiv_pos_site_id
 _symmetry_equiv_pos_as_xyz
  1  'x, y, z'
loop_
 _atom_site_type_symbol
 _atom_site_label
 _atom_site_symmetry_multiplicity
 _atom_site_fract_x
 _atom_site_fract_y
 _atom_site_fract_z
 _atom_site_occupancy
  Nd  Nd0  1  0.996518  0.339174  0.217436  1
  Nd  Nd1  1  0.003482  0.660826  0.717436  1
  Nd  Nd2  1  0.160826  0.496518  0.467436  1
  Nd  Nd3  1  0.503482  0.839174  0.032564  1
  Nd  Nd4  1  0.839174  0.503482  0.967436  1
  Nd  Nd5  1  0.496518  0.160826  0.532564  1
  Nd  Nd6  1  0.339174  0.996518  0.782564  1
  Nd  Nd7  1  0.660826  0.003482  0.282564  1
  Nb  Nb8  1  0.170841  0.170841  0.000000  1
  Nb  Nb9  1  0.829159  0.829159  0.500000  1
  Nb  Nb10  1  0.329159  0.670841  0.250000  1
  Nb  Nb11  1  0.670841  0.329159  0.750000  1
  Nb  Nb12  1  0.156707  0.990389  0.375451  1
  Nb  Nb13  1  0.843293  0.009611  0.875451  1
  Nb  Nb14  1  0.509611  0.656707  0.625451  1
  Nb  Nb15  1  0.343293  0.490389  0.874549  1
  Nb  Nb16  1  0.490389  0.343293  0.125451  1
  Nb  Nb17  1  0.656707  0.509611  0.374549  1
  Nb  Nb18  1  0.990389  0.156707  0.624549  1
  Nb  Nb19  1  0.009611  0.843293  0.124549  1
  Si  Si20  1  0.289899  0.044422  0.186831  1
  Si  Si21  1  0.710101  0.955578  0.686831  1
  Si  Si22  1  0.455578  0.789899  0.436831  1
  Si  Si23  1  0.210101  0.544422  0.063169  1
  Si  Si24  1  0.544422  0.210101  0.936831  1
  Si  Si25  1  0.789899  0.455578  0.563169  1
  Si  Si26  1  0.044422  0.289899  0.813169  1
  Si  Si27  1  0.955578  0.710101  0.313169  1
  Si  Si28  1  0.371754  0.298080  0.314364  1
  Si  Si29  1  0.628246  0.701920  0.814364  1
  Si  Si30  1  0.201920  0.871754  0.564364  1
  Si  Si31  1  0.128246  0.798080  0.935636  1
  Si  Si32  1  0.798080  0.128246  0.064364  1
  Si  Si33  1  0.871754  0.201920  0.435636  1
  Si  Si34  1  0.298080  0.371754  0.685636  1
  Si  Si35  1  0.701920  0.628246  0.185636  1
