# generated using pymatgen
data_CrFe3(CoW2)3
_symmetry_space_group_name_H-M   'P 1'
_cell_length_a   9.03113778
_cell_length_b   9.03113912
_cell_length_c   9.03113850
_cell_angle_alpha   30.59299033
_cell_angle_beta   30.59298801
_cell_angle_gamma   30.59298750
_symmetry_Int_Tables_number   1
_chemical_formula_structural   CrFe3(CoW2)3
_chemical_formula_sum   'Cr1 Fe3 Co3 W6'
_cell_volume   169.14770861
_cell_formula_units_Z   1
loop_
 _symmetry_equiv_pos_site_id
 _symmetry_equiv_pos_as_xyz
  1  'x, y, z'
loop_
 _atom_site_type_symbol
 _atom_site_label
 _atom_site_symmetry_multiplicity
 _atom_site_fract_x
 _atom_site_fract_y
 _atom_site_fract_z
 _atom_site_occupancy
  Cr  Cr0  1  0.999961  0.999961  0.999961  1
  Fe  Fe1  1  0.907479  0.413737  0.907479  1
  Fe  Fe2  1  0.413737  0.907479  0.907479  1
  Fe  Fe3  1  0.907479  0.907479  0.413737  1
  Co  Co4  1  0.587929  0.091517  0.091517  1
  Co  Co5  1  0.091517  0.091517  0.587929  1
  Co  Co6  1  0.091517  0.587929  0.091517  1
  W  W7  1  0.165990  0.165990  0.165990  1
  W  W8  1  0.835198  0.835198  0.835198  1
  W  W9  1  0.346399  0.346399  0.346399  1
  W  W10  1  0.653013  0.653013  0.653013  1
  W  W11  1  0.450196  0.450196  0.450196  1
  W  W12  1  0.549584  0.549584  0.549584  1
