# generated using pymatgen
data_DyTm19Co3Bi8Ru
_symmetry_space_group_name_H-M   'P 1'
_cell_length_a   7.86984748
_cell_length_b   8.86707100
_cell_length_c   12.32904636
_cell_angle_alpha   90.00000000
_cell_angle_beta   90.21711934
_cell_angle_gamma   90.00000000
_symmetry_Int_Tables_number   1
_chemical_formula_structural   DyTm19Co3Bi8Ru
_chemical_formula_sum   'Dy1 Tm19 Co3 Bi8 Ru1'
_cell_volume   860.34545625
_cell_formula_units_Z   1
loop_
 _symmetry_equiv_pos_site_id
 _symmetry_equiv_pos_as_xyz
  1  'x, y, z'
loop_
 _atom_site_type_symbol
 _atom_site_label
 _atom_site_symmetry_multiplicity
 _atom_site_fract_x
 _atom_site_fract_y
 _atom_site_fract_z
 _atom_site_occupancy
  Dy  Dy0  1  0.554708  0.750000  0.002048  1
  Tm  Tm1  1  0.846919  0.750000  0.799371  1
  Tm  Tm2  1  0.152352  0.250000  0.199491  1
  Tm  Tm3  1  0.346509  0.250000  0.699213  1
  Tm  Tm4  1  0.654379  0.750000  0.295523  1
  Tm  Tm5  1  0.381859  0.750000  0.690005  1
  Tm  Tm6  1  0.615765  0.250000  0.313355  1
  Tm  Tm7  1  0.884523  0.250000  0.813313  1
  Tm  Tm8  1  0.115290  0.750000  0.184035  1
  Tm  Tm9  1  0.944149  0.750000  0.504393  1
  Tm  Tm10  1  0.056120  0.250000  0.496703  1
  Tm  Tm11  1  0.443477  0.250000  0.997531  1
  Tm  Tm12  1  0.675530  0.045905  0.564675  1
  Tm  Tm13  1  0.326601  0.964424  0.436772  1
  Tm  Tm14  1  0.172067  0.964949  0.936830  1
  Tm  Tm15  1  0.326601  0.535576  0.436772  1
  Tm  Tm16  1  0.826366  0.039195  0.063501  1
  Tm  Tm17  1  0.675530  0.454095  0.564675  1
  Tm  Tm18  1  0.826366  0.460805  0.063501  1
  Tm  Tm19  1  0.172067  0.535051  0.936830  1
  Co  Co20  1  0.430255  0.250000  0.491060  1
  Co  Co21  1  0.063326  0.250000  0.993240  1
  Co  Co22  1  0.936200  0.750000  0.005785  1
  Bi  Bi23  1  0.568658  0.490470  0.826659  1
  Bi  Bi24  1  0.430079  0.507599  0.173495  1
  Bi  Bi25  1  0.069809  0.508238  0.673411  1
  Bi  Bi26  1  0.430079  0.992401  0.173495  1
  Bi  Bi27  1  0.932282  0.492439  0.327412  1
  Bi  Bi28  1  0.568658  0.009530  0.826659  1
  Bi  Bi29  1  0.932282  0.007561  0.327412  1
  Bi  Bi30  1  0.069809  0.991762  0.673411  1
  Ru  Ru31  1  0.571383  0.750000  0.509427  1
