# generated using pymatgen
data_CaTi3Mo(PO4)6
_symmetry_space_group_name_H-M   'P 1'
_cell_length_a   8.53333833
_cell_length_b   8.53333866
_cell_length_c   8.92849411
_cell_angle_alpha   61.45354897
_cell_angle_beta   118.54646231
_cell_angle_gamma   120.00000198
_symmetry_Int_Tables_number   1
_chemical_formula_structural   CaTi3Mo(PO4)6
_chemical_formula_sum   'Ca1 Ti3 Mo1 P6 O24'
_cell_volume   469.57097512
_cell_formula_units_Z   1
loop_
 _symmetry_equiv_pos_site_id
 _symmetry_equiv_pos_as_xyz
  1  'x, y, z'
loop_
 _atom_site_type_symbol
 _atom_site_label
 _atom_site_symmetry_multiplicity
 _atom_site_fract_x
 _atom_site_fract_y
 _atom_site_fract_z
 _atom_site_occupancy
  Ca  Ca0  1  0.999196  0.000804  0.997589  1
  Ti  Ti1  1  0.147998  0.852002  0.443993  1
  Ti  Ti2  1  0.851433  0.148568  0.554299  1
  Ti  Ti3  1  0.642417  0.357583  0.927249  1
  Mo  Mo4  1  0.358142  0.641858  0.074425  1
  P  P5  1  0.025728  0.241688  0.245020  1
  P  P6  1  0.758311  0.539019  0.245020  1
  P  P7  1  0.460981  0.974272  0.245020  1
  P  P8  1  0.540579  0.033392  0.753706  1
  P  P9  1  0.246520  0.459422  0.753706  1
  P  P10  1  0.966608  0.753481  0.753706  1
  O  O11  1  0.483039  0.157753  0.084219  1
  O  O12  1  0.842247  0.241067  0.084219  1
  O  O13  1  0.758933  0.516961  0.084219  1
  O  O14  1  0.183600  0.439173  0.226024  1
  O  O15  1  0.560826  0.518403  0.226024  1
  O  O16  1  0.481596  0.816400  0.226024  1
  O  O17  1  0.088682  0.092343  0.257477  1
  O  O18  1  0.907658  0.738864  0.257477  1
  O  O19  1  0.261137  0.911318  0.257477  1
  O  O20  1  0.614805  0.012361  0.421625  1
  O  O21  1  0.987638  0.180818  0.421625  1
  O  O22  1  0.819183  0.385195  0.421625  1
  O  O23  1  0.201017  0.622970  0.579255  1
  O  O24  1  0.001209  0.798982  0.579255  1
  O  O25  1  0.377029  0.998791  0.579255  1
  O  O26  1  0.737758  0.097437  0.735951  1
  O  O27  1  0.095629  0.262242  0.735951  1
  O  O28  1  0.902562  0.904370  0.735951  1
  O  O29  1  0.533342  0.190263  0.786829  1
  O  O30  1  0.443749  0.466658  0.786829  1
  O  O31  1  0.809737  0.556251  0.786829  1
  O  O32  1  0.232223  0.476615  0.910709  1
  O  O33  1  0.155101  0.767778  0.910709  1
  O  O34  1  0.523386  0.844900  0.910709  1
