# generated using pymatgen
data_TmLu15In4RuRh3
_symmetry_space_group_name_H-M   'P 1'
_cell_length_a   9.48149800
_cell_length_b   9.48149828
_cell_length_c   9.48149914
_cell_angle_alpha   59.84004601
_cell_angle_beta   59.84004559
_cell_angle_gamma   59.84004294
_symmetry_Int_Tables_number   1
_chemical_formula_structural   TmLu15In4RuRh3
_chemical_formula_sum   'Tm1 Lu15 In4 Ru1 Rh3'
_cell_volume   600.53246364
_cell_formula_units_Z   1
loop_
 _symmetry_equiv_pos_site_id
 _symmetry_equiv_pos_as_xyz
  1  'x, y, z'
loop_
 _atom_site_type_symbol
 _atom_site_label
 _atom_site_symmetry_multiplicity
 _atom_site_fract_x
 _atom_site_fract_y
 _atom_site_fract_z
 _atom_site_occupancy
  Tm  Tm0  1  0.599941  0.599941  0.599941  1
  Lu  Lu1  1  0.598438  0.598438  0.203972  1
  Lu  Lu2  1  0.598438  0.203972  0.598438  1
  Lu  Lu3  1  0.203972  0.598438  0.598438  1
  Lu  Lu4  1  0.060012  0.440812  0.440812  1
  Lu  Lu5  1  0.440681  0.058770  0.058770  1
  Lu  Lu6  1  0.440812  0.060012  0.440812  1
  Lu  Lu7  1  0.058770  0.440681  0.058770  1
  Lu  Lu8  1  0.440812  0.440812  0.060012  1
  Lu  Lu9  1  0.058770  0.058770  0.440681  1
  Lu  Lu10  1  0.188335  0.811205  0.811205  1
  Lu  Lu11  1  0.807695  0.190379  0.190379  1
  Lu  Lu12  1  0.811205  0.188335  0.811205  1
  Lu  Lu13  1  0.190379  0.807695  0.190379  1
  Lu  Lu14  1  0.811205  0.811205  0.188335  1
  Lu  Lu15  1  0.190379  0.190379  0.807695  1
  In  In16  1  0.833321  0.833321  0.833321  1
  In  In17  1  0.833936  0.833936  0.499217  1
  In  In18  1  0.833936  0.499217  0.833936  1
  In  In19  1  0.499217  0.833936  0.833936  1
  Ru  Ru20  1  0.390419  0.390419  0.390419  1
  Rh  Rh21  1  0.391742  0.391742  0.825840  1
  Rh  Rh22  1  0.391742  0.825840  0.391742  1
  Rh  Rh23  1  0.825840  0.391742  0.391742  1
