# generated using pymatgen
data_Y3Er7Si5Te
_symmetry_space_group_name_H-M   'P 1'
_cell_length_a   8.39429500
_cell_length_b   8.42120033
_cell_length_c   6.26350400
_cell_angle_alpha   90.00000000
_cell_angle_beta   90.00000000
_cell_angle_gamma   119.95012374
_symmetry_Int_Tables_number   1
_chemical_formula_structural   Y3Er7Si5Te
_chemical_formula_sum   'Y3 Er7 Si5 Te1'
_cell_volume   383.64034088
_cell_formula_units_Z   1
loop_
 _symmetry_equiv_pos_site_id
 _symmetry_equiv_pos_as_xyz
  1  'x, y, z'
loop_
 _atom_site_type_symbol
 _atom_site_label
 _atom_site_symmetry_multiplicity
 _atom_site_fract_x
 _atom_site_fract_y
 _atom_site_fract_z
 _atom_site_occupancy
  Y  Y0  1  0.764249  0.999949  0.750000  1
  Y  Y1  1  0.241029  0.254625  0.750000  1
  Y  Y2  1  0.242030  0.999684  0.250000  1
  Er  Er3  1  0.985414  0.744460  0.750000  1
  Er  Er4  1  0.000297  0.245955  0.250000  1
  Er  Er5  1  0.755280  0.754596  0.250000  1
  Er  Er6  1  0.331318  0.656534  0.496530  1
  Er  Er7  1  0.675012  0.343690  0.003335  1
  Er  Er8  1  0.675012  0.343690  0.496665  1
  Er  Er9  1  0.331318  0.656534  0.003470  1
  Si  Si10  1  0.394548  0.392565  0.250000  1
  Si  Si11  1  0.001954  0.607177  0.250000  1
  Si  Si12  1  0.999296  0.397138  0.750000  1
  Si  Si13  1  0.604490  0.604409  0.750000  1
  Si  Si14  1  0.607750  0.999878  0.250000  1
  Te  Te15  1  0.391003  0.999116  0.750000  1
