# generated using pymatgen
data_Pr8Sc12Ga11Si4Ge
_symmetry_space_group_name_H-M   'P 1'
_cell_length_a   7.39246715
_cell_length_b   7.70109709
_cell_length_c   14.53485523
_cell_angle_alpha   89.96742302
_cell_angle_beta   90.07802740
_cell_angle_gamma   90.16553089
_symmetry_Int_Tables_number   1
_chemical_formula_structural   Pr8Sc12Ga11Si4Ge
_chemical_formula_sum   'Pr8 Sc12 Ga11 Si4 Ge1'
_cell_volume   827.46651541
_cell_formula_units_Z   1
loop_
 _symmetry_equiv_pos_site_id
 _symmetry_equiv_pos_as_xyz
  1  'x, y, z'
loop_
 _atom_site_type_symbol
 _atom_site_label
 _atom_site_symmetry_multiplicity
 _atom_site_fract_x
 _atom_site_fract_y
 _atom_site_fract_z
 _atom_site_occupancy
  Pr  Pr0  1  0.013498  0.176521  0.403977  1
  Pr  Pr1  1  0.513481  0.326606  0.405338  1
  Pr  Pr2  1  0.489380  0.676064  0.904332  1
  Pr  Pr3  1  0.489801  0.676638  0.593983  1
  Pr  Pr4  1  0.987487  0.820538  0.594869  1
  Pr  Pr5  1  0.985294  0.825439  0.903802  1
  Pr  Pr6  1  0.510721  0.323999  0.095330  1
  Pr  Pr7  1  0.010884  0.177277  0.096194  1
  Sc  Sc8  1  0.328534  0.171752  0.622589  1
  Sc  Sc9  1  0.671461  0.824034  0.377332  1
  Sc  Sc10  1  0.664797  0.995734  0.752175  1
  Sc  Sc11  1  0.171852  0.673141  0.376136  1
  Sc  Sc12  1  0.823940  0.325857  0.876192  1
  Sc  Sc13  1  0.826588  0.330022  0.623279  1
  Sc  Sc14  1  0.840097  0.498586  0.251953  1
  Sc  Sc15  1  0.336618  0.003716  0.251795  1
  Sc  Sc16  1  0.333058  0.173774  0.875444  1
  Sc  Sc17  1  0.171418  0.670451  0.125222  1
  Sc  Sc18  1  0.671525  0.827608  0.123144  1
  Sc  Sc19  1  0.158916  0.501384  0.750585  1
  Ga  Ga20  1  0.287013  0.881601  0.749483  1
  Ga  Ga21  1  0.467714  0.620851  0.250865  1
  Ga  Ga22  1  0.031875  0.125223  0.749219  1
  Ga  Ga23  1  0.531623  0.380438  0.749136  1
  Ga  Ga24  1  0.153697  0.463513  0.541258  1
  Ga  Ga25  1  0.967557  0.875756  0.250130  1
  Ga  Ga26  1  0.712313  0.118650  0.250676  1
  Ga  Ga27  1  0.845031  0.537348  0.042092  1
  Ga  Ga28  1  0.344197  0.961339  0.041000  1
  Ga  Ga29  1  0.154926  0.462235  0.957555  1
  Ga  Ga30  1  0.658355  0.038762  0.541782  1
  Si  Si31  1  0.849224  0.535789  0.456955  1
  Si  Si32  1  0.785397  0.615716  0.749349  1
  Si  Si33  1  0.215413  0.383983  0.250829  1
  Si  Si34  1  0.652668  0.037693  0.958510  1
  Ge  Ge35  1  0.343646  0.961961  0.457490  1
