# generated using pymatgen
data_KU3O9
_symmetry_space_group_name_H-M   'P 1'
_cell_length_a   8.09643127
_cell_length_b   8.09303379
_cell_length_c   4.18627300
_cell_angle_alpha   90.00000000
_cell_angle_beta   90.00000000
_cell_angle_gamma   119.98486081
_symmetry_Int_Tables_number   1
_chemical_formula_structural   KU3O9
_chemical_formula_sum   'K1 U3 O9'
_cell_volume   237.59067863
_cell_formula_units_Z   1
loop_
 _symmetry_equiv_pos_site_id
 _symmetry_equiv_pos_as_xyz
  1  'x, y, z'
loop_
 _atom_site_type_symbol
 _atom_site_label
 _atom_site_symmetry_multiplicity
 _atom_site_fract_x
 _atom_site_fract_y
 _atom_site_fract_z
 _atom_site_occupancy
  K  K0  1  0.000000  0.000000  0.649886  1
  U  U1  1  0.500000  0.000000  0.519118  1
  U  U2  1  0.000000  0.500000  0.518839  1
  U  U3  1  0.500000  0.500000  0.518767  1
  O  O4  1  0.792829  0.206204  0.522715  1
  O  O5  1  0.207171  0.793796  0.522715  1
  O  O6  1  0.586834  0.793820  0.522864  1
  O  O7  1  0.413166  0.206180  0.522864  1
  O  O8  1  0.792882  0.585942  0.522704  1
  O  O9  1  0.207118  0.414058  0.522704  1
  O  O10  1  0.500000  0.000000  0.019160  1
  O  O11  1  0.000000  0.500000  0.018873  1
  O  O12  1  0.500000  0.500000  0.018786  1
