# generated using pymatgen
data_Tb15Th(AlRu)4
_symmetry_space_group_name_H-M   'P 1'
_cell_length_a   9.57196811
_cell_length_b   9.56553380
_cell_length_c   9.57196700
_cell_angle_alpha   59.97773968
_cell_angle_beta   59.99999346
_cell_angle_gamma   59.97774186
_symmetry_Int_Tables_number   1
_chemical_formula_structural   Tb15Th(AlRu)4
_chemical_formula_sum   'Tb15 Th1 Al4 Ru4'
_cell_volume   619.51300446
_cell_formula_units_Z   1
loop_
 _symmetry_equiv_pos_site_id
 _symmetry_equiv_pos_as_xyz
  1  'x, y, z'
loop_
 _atom_site_type_symbol
 _atom_site_label
 _atom_site_symmetry_multiplicity
 _atom_site_fract_x
 _atom_site_fract_y
 _atom_site_fract_z
 _atom_site_occupancy
  Tb  Tb0  1  0.944103  0.942458  0.556720  1
  Tb  Tb1  1  0.942989  0.555743  0.942989  1
  Tb  Tb2  1  0.313761  0.684965  0.313761  1
  Tb  Tb3  1  0.942989  0.555743  0.558280  1
  Tb  Tb4  1  0.311504  0.309816  0.689341  1
  Tb  Tb5  1  0.102116  0.102999  0.102116  1
  Tb  Tb6  1  0.558280  0.555743  0.942989  1
  Tb  Tb7  1  0.102116  0.102999  0.692771  1
  Tb  Tb8  1  0.689341  0.309816  0.689341  1
  Tb  Tb9  1  0.687513  0.684965  0.313761  1
  Tb  Tb10  1  0.689341  0.309816  0.311504  1
  Tb  Tb11  1  0.313761  0.684965  0.687513  1
  Tb  Tb12  1  0.556720  0.942458  0.556720  1
  Tb  Tb13  1  0.692771  0.102999  0.102116  1
  Tb  Tb14  1  0.556720  0.942458  0.944103  1
  Th  Th15  1  0.096134  0.711598  0.096134  1
  Al  Al16  1  0.326316  0.327176  0.326316  1
  Al  Al17  1  0.020191  0.327176  0.326316  1
  Al  Al18  1  0.326458  0.020624  0.326458  1
  Al  Al19  1  0.326316  0.327176  0.020191  1
  Ru  Ru20  1  0.891820  0.890609  0.891820  1
  Ru  Ru21  1  0.891820  0.890609  0.325750  1
  Ru  Ru22  1  0.325750  0.890609  0.891820  1
  Ru  Ru23  1  0.891174  0.326478  0.891174  1
