# generated using pymatgen
data_RbNd4Sm2(CBr6)2
_symmetry_space_group_name_H-M   'P 1'
_cell_length_a   9.15249984
_cell_length_b   9.13521028
_cell_length_c   9.68280470
_cell_angle_alpha   71.83071776
_cell_angle_beta   70.59060361
_cell_angle_gamma   72.58163299
_symmetry_Int_Tables_number   1
_chemical_formula_structural   RbNd4Sm2(CBr6)2
_chemical_formula_sum   'Rb1 Nd4 Sm2 C2 Br12'
_cell_volume   707.98259209
_cell_formula_units_Z   1
loop_
 _symmetry_equiv_pos_site_id
 _symmetry_equiv_pos_as_xyz
  1  'x, y, z'
loop_
 _atom_site_type_symbol
 _atom_site_label
 _atom_site_symmetry_multiplicity
 _atom_site_fract_x
 _atom_site_fract_y
 _atom_site_fract_z
 _atom_site_occupancy
  Rb  Rb0  1  0.999485  0.500509  0.000051  1
  Nd  Nd1  1  0.475990  0.117933  0.180438  1
  Nd  Nd2  1  0.782363  0.032569  0.406436  1
  Nd  Nd3  1  0.595965  0.718694  0.474076  1
  Nd  Nd4  1  0.404233  0.281545  0.525505  1
  Sm  Sm5  1  0.219585  0.966848  0.594362  1
  Sm  Sm6  1  0.523994  0.882767  0.817373  1
  C  C7  1  0.491978  0.025791  0.426226  1
  C  C8  1  0.504450  0.973334  0.576304  1
  Br  Br9  1  0.801189  0.163354  0.080776  1
  Br  Br10  1  0.588250  0.783555  0.139339  1
  Br  Br11  1  0.349411  0.436539  0.222953  1
  Br  Br12  1  0.137161  0.071278  0.297530  1
  Br  Br13  1  0.928064  0.720214  0.352416  1
  Br  Br14  1  0.717898  0.367834  0.427779  1
  Br  Br15  1  0.280034  0.637011  0.572828  1
  Br  Br16  1  0.073017  0.274407  0.646859  1
  Br  Br17  1  0.862168  0.926602  0.708039  1
  Br  Br18  1  0.648920  0.567477  0.778676  1
  Br  Br19  1  0.412654  0.212880  0.857297  1
  Br  Br20  1  0.203197  0.838855  0.914738  1
