# generated using pymatgen
data_SrYb3(MnN2)4
_symmetry_space_group_name_H-M   'P 1'
_cell_length_a   7.25039205
_cell_length_b   5.71839966
_cell_length_c   5.65271719
_cell_angle_alpha   66.38923451
_cell_angle_beta   88.72690703
_cell_angle_gamma   90.40558036
_symmetry_Int_Tables_number   1
_chemical_formula_structural   SrYb3(MnN2)4
_chemical_formula_sum   'Sr1 Yb3 Mn4 N8'
_cell_volume   214.66029787
_cell_formula_units_Z   1
loop_
 _symmetry_equiv_pos_site_id
 _symmetry_equiv_pos_as_xyz
  1  'x, y, z'
loop_
 _atom_site_type_symbol
 _atom_site_label
 _atom_site_symmetry_multiplicity
 _atom_site_fract_x
 _atom_site_fract_y
 _atom_site_fract_z
 _atom_site_occupancy
  Sr  Sr0  1  0.412647  0.819880  0.336529  1
  Yb  Yb1  1  0.070051  0.305264  0.314129  1
  Yb  Yb2  1  0.589714  0.197909  0.677477  1
  Yb  Yb3  1  0.919670  0.690168  0.677888  1
  Mn  Mn4  1  0.635433  0.401272  0.105873  1
  Mn  Mn5  1  0.137114  0.101149  0.886029  1
  Mn  Mn6  1  0.363513  0.591825  0.908634  1
  Mn  Mn7  1  0.864405  0.900162  0.098763  1
  N  N8  1  0.076854  0.931996  0.243161  1
  N  N9  1  0.588553  0.568841  0.758986  1
  N  N10  1  0.918333  0.070322  0.741012  1
  N  N11  1  0.410563  0.409253  0.258455  1
  N  N12  1  0.699259  0.091592  0.158532  1
  N  N13  1  0.184430  0.424521  0.831954  1
  N  N14  1  0.317443  0.919794  0.828900  1
  N  N15  1  0.812018  0.576052  0.173678  1
