# generated using pymatgen
data_Ho3Er5In2IrPt
_symmetry_space_group_name_H-M   'P 1'
_cell_length_a   9.60243672
_cell_length_b   9.61295844
_cell_length_c   9.61029211
_cell_angle_alpha   60.32204251
_cell_angle_beta   60.18578167
_cell_angle_gamma   60.21161520
_symmetry_Int_Tables_number   1
_chemical_formula_structural   Ho3Er5In2IrPt
_chemical_formula_sum   'Ho6 Er10 In4 Ir2 Pt2'
_cell_volume   630.68149710
_cell_formula_units_Z   2
loop_
 _symmetry_equiv_pos_site_id
 _symmetry_equiv_pos_as_xyz
  1  'x, y, z'
loop_
 _atom_site_type_symbol
 _atom_site_label
 _atom_site_symmetry_multiplicity
 _atom_site_fract_x
 _atom_site_fract_y
 _atom_site_fract_z
 _atom_site_occupancy
  Ho  Ho0  1  0.047870  0.648620  0.649187  1
  Ho  Ho1  1  0.439088  0.060885  0.060398  1
  Ho  Ho2  1  0.061083  0.060765  0.436616  1
  Ho  Ho3  1  0.649629  0.054313  0.645177  1
  Ho  Ho4  1  0.810287  0.807981  0.194206  1
  Ho  Ho5  1  0.440544  0.061734  0.436154  1
  Er  Er6  1  0.440747  0.436315  0.061343  1
  Er  Er7  1  0.650126  0.645150  0.053713  1
  Er  Er8  1  0.187941  0.807827  0.194218  1
  Er  Er9  1  0.061247  0.436600  0.060466  1
  Er  Er10  1  0.191946  0.808358  0.808477  1
  Er  Er11  1  0.062067  0.438144  0.438142  1
  Er  Er12  1  0.809691  0.190527  0.190126  1
  Er  Er13  1  0.654448  0.650162  0.650591  1
  Er  Er14  1  0.810111  0.194383  0.808170  1
  Er  Er15  1  0.187461  0.194234  0.808171  1
  In  In16  1  0.416332  0.416837  0.416724  1
  In  In17  1  0.416402  0.417307  0.749801  1
  In  In18  1  0.416520  0.749526  0.417336  1
  In  In19  1  0.749944  0.416859  0.416766  1
  Ir  Ir20  1  0.857251  0.425234  0.860624  1
  Ir  Ir21  1  0.857525  0.860349  0.425268  1
  Pt  Pt22  1  0.426256  0.859014  0.859399  1
  Pt  Pt23  1  0.855483  0.858878  0.858931  1
