# generated using pymatgen
data_Ho16Lu4OsRh11
_symmetry_space_group_name_H-M   'P 1'
_cell_length_a   10.79806900
_cell_length_b   10.79806900
_cell_length_c   6.35391700
_cell_angle_alpha   90.00000000
_cell_angle_beta   90.00000000
_cell_angle_gamma   90.00000000
_symmetry_Int_Tables_number   1
_chemical_formula_structural   Ho16Lu4OsRh11
_chemical_formula_sum   'Ho16 Lu4 Os1 Rh11'
_cell_volume   740.85588324
_cell_formula_units_Z   1
loop_
 _symmetry_equiv_pos_site_id
 _symmetry_equiv_pos_as_xyz
  1  'x, y, z'
loop_
 _atom_site_type_symbol
 _atom_site_label
 _atom_site_symmetry_multiplicity
 _atom_site_fract_x
 _atom_site_fract_y
 _atom_site_fract_z
 _atom_site_occupancy
  Ho  Ho0  1  0.291596  0.087192  0.376905  1
  Ho  Ho1  1  0.292612  0.912820  0.883084  1
  Ho  Ho2  1  0.707388  0.087180  0.883084  1
  Ho  Ho3  1  0.708404  0.912808  0.376905  1
  Ho  Ho4  1  0.587180  0.792612  0.883084  1
  Ho  Ho5  1  0.587192  0.208404  0.376905  1
  Ho  Ho6  1  0.412808  0.791596  0.376905  1
  Ho  Ho7  1  0.412820  0.207388  0.883084  1
  Ho  Ho8  1  0.210299  0.411258  0.621101  1
  Ho  Ho9  1  0.210138  0.587404  0.120237  1
  Ho  Ho10  1  0.789862  0.412596  0.120237  1
  Ho  Ho11  1  0.789701  0.588742  0.621101  1
  Ho  Ho12  1  0.912596  0.710138  0.120237  1
  Ho  Ho13  1  0.911258  0.289701  0.621101  1
  Ho  Ho14  1  0.088742  0.710299  0.621101  1
  Ho  Ho15  1  0.087404  0.289862  0.120237  1
  Lu  Lu16  1  0.000000  0.000000  0.498084  1
  Lu  Lu17  1  0.000000  0.000000  0.998263  1
  Lu  Lu18  1  0.500000  0.500000  0.998263  1
  Lu  Lu19  1  0.500000  0.500000  0.498084  1
  Os  Os20  1  0.500000  0.000000  0.129536  1
  Rh  Rh21  1  0.850341  0.153103  0.249466  1
  Rh  Rh22  1  0.849452  0.847755  0.749407  1
  Rh  Rh23  1  0.150548  0.152245  0.749407  1
  Rh  Rh24  1  0.149659  0.846897  0.249466  1
  Rh  Rh25  1  0.652245  0.349452  0.749407  1
  Rh  Rh26  1  0.653103  0.649659  0.249466  1
  Rh  Rh27  1  0.346897  0.350341  0.249466  1
  Rh  Rh28  1  0.347755  0.650548  0.749407  1
  Rh  Rh29  1  0.500000  0.000000  0.626730  1
  Rh  Rh30  1  0.000000  0.500000  0.874578  1
  Rh  Rh31  1  0.000000  0.500000  0.375664  1
