# generated using pymatgen
data_Yb4TlGePt4
_symmetry_space_group_name_H-M   'P 1'
_cell_length_a   5.66960726
_cell_length_b   5.66960662
_cell_length_c   8.05231600
_cell_angle_alpha   77.93398880
_cell_angle_beta   77.93399019
_cell_angle_gamma   59.18410847
_symmetry_Int_Tables_number   1
_chemical_formula_structural   Yb4TlGePt4
_chemical_formula_sum   'Yb4 Tl1 Ge1 Pt4'
_cell_volume   215.77529075
_cell_formula_units_Z   1
loop_
 _symmetry_equiv_pos_site_id
 _symmetry_equiv_pos_as_xyz
  1  'x, y, z'
loop_
 _atom_site_type_symbol
 _atom_site_label
 _atom_site_symmetry_multiplicity
 _atom_site_fract_x
 _atom_site_fract_y
 _atom_site_fract_z
 _atom_site_occupancy
  Yb  Yb0  1  0.792100  0.504452  0.346011  1
  Yb  Yb1  1  0.495548  0.207900  0.153989  1
  Yb  Yb2  1  0.200246  0.498423  0.645187  1
  Yb  Yb3  1  0.501577  0.799754  0.854813  1
  Tl  Tl4  1  0.823578  0.176422  0.750000  1
  Ge  Ge5  1  0.149063  0.850937  0.250000  1
  Pt  Pt6  1  0.013018  0.727473  0.012105  1
  Pt  Pt7  1  0.272527  0.986982  0.487895  1
  Pt  Pt8  1  0.011956  0.259614  0.014540  1
  Pt  Pt9  1  0.740386  0.988044  0.485460  1
