# generated using pymatgen
data_K4(BS)9
_symmetry_space_group_name_H-M   'P 1'
_cell_length_a   10.18160337
_cell_length_b   10.34109845
_cell_length_c   10.80749300
_cell_angle_alpha   92.16177486
_cell_angle_beta   104.39460386
_cell_angle_gamma   109.63677670
_symmetry_Int_Tables_number   1
_chemical_formula_structural   K4(BS)9
_chemical_formula_sum   'K8 B18 S18'
_cell_volume   1028.87390054
_cell_formula_units_Z   2
loop_
 _symmetry_equiv_pos_site_id
 _symmetry_equiv_pos_as_xyz
  1  'x, y, z'
loop_
 _atom_site_type_symbol
 _atom_site_label
 _atom_site_symmetry_multiplicity
 _atom_site_fract_x
 _atom_site_fract_y
 _atom_site_fract_z
 _atom_site_occupancy
  K  K0  1  0.817281  0.386726  0.755499  1
  K  K1  1  0.182719  0.613274  0.244501  1
  K  K2  1  0.751179  0.628662  0.470395  1
  K  K3  1  0.248821  0.371338  0.529605  1
  K  K4  1  0.611669  0.375066  0.127055  1
  K  K5  1  0.388331  0.624934  0.872945  1
  K  K6  1  0.640491  0.006442  0.369512  1
  K  K7  1  0.359509  0.993558  0.630488  1
  B  B8  1  0.927112  0.263108  0.250906  1
  B  B9  1  0.072888  0.736892  0.749094  1
  B  B10  1  0.329212  0.239023  0.856140  1
  B  B11  1  0.670788  0.760977  0.143860  1
  B  B12  1  0.363613  0.176755  0.313334  1
  B  B13  1  0.636387  0.823245  0.686666  1
  B  B14  1  0.989889  0.041363  0.148679  1
  B  B15  1  0.010111  0.958637  0.851321  1
  B  B16  1  0.062423  0.135200  0.918028  1
  B  B17  1  0.937577  0.864800  0.081972  1
  B  B18  1  0.168160  0.034108  0.981673  1
  B  B19  1  0.831840  0.965892  0.018327  1
  B  B20  1  0.125929  0.976036  0.126189  1
  B  B21  1  0.874071  0.023964  0.873811  1
  B  B22  1  0.132617  0.143269  0.088884  1
  B  B23  1  0.867383  0.856731  0.911116  1
  B  B24  1  0.951296  0.140054  0.022480  1
  B  B25  1  0.048704  0.859946  0.977520  1
  S  S26  1  0.028025  0.889481  0.696692  1
  S  S27  1  0.971975  0.110519  0.303308  1
  S  S28  1  0.485668  0.748533  0.548866  1
  S  S29  1  0.514332  0.251467  0.451134  1
  S  S30  1  0.528985  0.655411  0.203964  1
  S  S31  1  0.471015  0.344589  0.796036  1
  S  S32  1  0.091316  0.618780  0.638515  1
  S  S33  1  0.908684  0.381220  0.361485  1
  S  S34  1  0.158330  0.274602  0.832687  1
  S  S35  1  0.841670  0.725398  0.167313  1
  S  S36  1  0.347527  0.093838  0.944802  1
  S  S37  1  0.652473  0.906162  0.055198  1
  S  S38  1  0.275596  0.984845  0.271510  1
  S  S39  1  0.724404  0.015155  0.728490  1
  S  S40  1  0.287356  0.283720  0.204478  1
  S  S41  1  0.712644  0.716280  0.795522  1
  S  S42  1  0.907534  0.289738  0.078518  1
  S  S43  1  0.092466  0.710262  0.921482  1
