# generated using pymatgen
data_Rb6Na4ErNbAs6
_symmetry_space_group_name_H-M   'P 1'
_cell_length_a   11.09993140
_cell_length_b   11.09993143
_cell_length_c   16.01333300
_cell_angle_alpha   90.00000000
_cell_angle_beta   90.00000000
_cell_angle_gamma   143.08444146
_symmetry_Int_Tables_number   1
_chemical_formula_structural   Rb6Na4ErNbAs6
_chemical_formula_sum   'Rb12 Na8 Er2 Nb2 As12'
_cell_volume   1185.04451565
_cell_formula_units_Z   2
loop_
 _symmetry_equiv_pos_site_id
 _symmetry_equiv_pos_as_xyz
  1  'x, y, z'
loop_
 _atom_site_type_symbol
 _atom_site_label
 _atom_site_symmetry_multiplicity
 _atom_site_fract_x
 _atom_site_fract_y
 _atom_site_fract_z
 _atom_site_occupancy
  Rb  Rb0  1  0.602839  0.944052  0.824921  1
  Rb  Rb1  1  0.275678  0.278782  0.316737  1
  Rb  Rb2  1  0.224322  0.221218  0.816737  1
  Rb  Rb3  1  0.721218  0.724322  0.683263  1
  Rb  Rb4  1  0.444052  0.102839  0.675079  1
  Rb  Rb5  1  0.897161  0.555948  0.324921  1
  Rb  Rb6  1  0.055948  0.397161  0.175079  1
  Rb  Rb7  1  0.392588  0.053905  0.177952  1
  Rb  Rb8  1  0.553905  0.892588  0.322048  1
  Rb  Rb9  1  0.107412  0.446095  0.677952  1
  Rb  Rb10  1  0.946095  0.607412  0.822048  1
  Rb  Rb11  1  0.778782  0.775678  0.183263  1
  Na  Na12  1  0.080917  0.919083  0.000000  1
  Na  Na13  1  0.580358  0.419642  0.500000  1
  Na  Na14  1  0.919642  0.080358  0.000000  1
  Na  Na15  1  0.753802  0.246198  0.000000  1
  Na  Na16  1  0.746198  0.253802  0.500000  1
  Na  Na17  1  0.244416  0.755584  0.000000  1
  Na  Na18  1  0.255584  0.744416  0.500000  1
  Na  Na19  1  0.419083  0.580917  0.500000  1
  Er  Er20  1  0.912783  0.087217  0.500000  1
  Er  Er21  1  0.587217  0.412783  0.000000  1
  Nb  Nb22  1  0.084873  0.915127  0.500000  1
  Nb  Nb23  1  0.415127  0.584873  0.000000  1
  As  As24  1  0.068986  0.390243  0.397658  1
  As  As25  1  0.890243  0.568986  0.102342  1
  As  As26  1  0.431014  0.109757  0.897658  1
  As  As27  1  0.609757  0.931014  0.602342  1
  As  As28  1  0.946160  0.640467  0.592221  1
  As  As29  1  0.140467  0.446160  0.907779  1
  As  As30  1  0.553840  0.859533  0.092221  1
  As  As31  1  0.359533  0.053840  0.407779  1
  As  As32  1  0.208564  0.190846  0.588716  1
  As  As33  1  0.690846  0.708564  0.911284  1
  As  As34  1  0.291436  0.309154  0.088716  1
  As  As35  1  0.809154  0.791436  0.411284  1
