# generated using pymatgen
data_Nd3Er5(AgRh)2
_symmetry_space_group_name_H-M   'P 1'
_cell_length_a   9.59058627
_cell_length_b   9.59058556
_cell_length_c   9.59058700
_cell_angle_alpha   60.00000538
_cell_angle_beta   60.00000782
_cell_angle_gamma   60.00000875
_symmetry_Int_Tables_number   1
_chemical_formula_structural   Nd3Er5(AgRh)2
_chemical_formula_sum   'Nd6 Er10 Ag4 Rh4'
_cell_volume   623.76434133
_cell_formula_units_Z   2
loop_
 _symmetry_equiv_pos_site_id
 _symmetry_equiv_pos_as_xyz
  1  'x, y, z'
loop_
 _atom_site_type_symbol
 _atom_site_label
 _atom_site_symmetry_multiplicity
 _atom_site_fract_x
 _atom_site_fract_y
 _atom_site_fract_z
 _atom_site_occupancy
  Nd  Nd0  1  0.188617  0.811383  0.811383  1
  Nd  Nd1  1  0.811383  0.188617  0.188617  1
  Nd  Nd2  1  0.811383  0.188617  0.811383  1
  Nd  Nd3  1  0.188617  0.811383  0.188617  1
  Nd  Nd4  1  0.811383  0.811383  0.188617  1
  Nd  Nd5  1  0.188617  0.188617  0.811383  1
  Er  Er6  1  0.601241  0.601241  0.601241  1
  Er  Er7  1  0.601241  0.601241  0.196277  1
  Er  Er8  1  0.601241  0.196277  0.601241  1
  Er  Er9  1  0.196277  0.601241  0.601241  1
  Er  Er10  1  0.063996  0.436004  0.436004  1
  Er  Er11  1  0.436004  0.063996  0.063996  1
  Er  Er12  1  0.436004  0.063996  0.436004  1
  Er  Er13  1  0.063996  0.436004  0.063996  1
  Er  Er14  1  0.436004  0.436004  0.063996  1
  Er  Er15  1  0.063996  0.063996  0.436004  1
  Ag  Ag16  1  0.830010  0.830010  0.830010  1
  Ag  Ag17  1  0.830010  0.830010  0.509971  1
  Ag  Ag18  1  0.830010  0.509971  0.830010  1
  Ag  Ag19  1  0.509971  0.830010  0.830010  1
  Rh  Rh20  1  0.393000  0.393000  0.393000  1
  Rh  Rh21  1  0.393000  0.393000  0.820999  1
  Rh  Rh22  1  0.393000  0.820999  0.393000  1
  Rh  Rh23  1  0.820999  0.393000  0.393000  1
