# generated using pymatgen
data_Tb2Y3Bi2Te
_symmetry_space_group_name_H-M   'P 1'
_cell_length_a   8.22236300
_cell_length_b   9.49413500
_cell_length_c   12.05945600
_cell_angle_alpha   90.00000000
_cell_angle_beta   90.00000000
_cell_angle_gamma   90.00000000
_symmetry_Int_Tables_number   1
_chemical_formula_structural   Tb2Y3Bi2Te
_chemical_formula_sum   'Tb8 Y12 Bi8 Te4'
_cell_volume   941.41207861
_cell_formula_units_Z   4
loop_
 _symmetry_equiv_pos_site_id
 _symmetry_equiv_pos_as_xyz
  1  'x, y, z'
loop_
 _atom_site_type_symbol
 _atom_site_label
 _atom_site_symmetry_multiplicity
 _atom_site_fract_x
 _atom_site_fract_y
 _atom_site_fract_z
 _atom_site_occupancy
  Tb  Tb0  1  0.025457  0.750000  0.988273  1
  Tb  Tb1  1  0.525457  0.750000  0.511727  1
  Tb  Tb2  1  0.974543  0.250000  0.011727  1
  Tb  Tb3  1  0.474543  0.250000  0.488273  1
  Tb  Tb4  1  0.180836  0.750000  0.717918  1
  Tb  Tb5  1  0.680836  0.750000  0.782082  1
  Tb  Tb6  1  0.819164  0.250000  0.282082  1
  Tb  Tb7  1  0.319164  0.250000  0.217918  1
  Y  Y8  1  0.309186  0.439022  0.941876  1
  Y  Y9  1  0.809186  0.060978  0.558124  1
  Y  Y10  1  0.690814  0.939022  0.058124  1
  Y  Y11  1  0.190814  0.560978  0.441876  1
  Y  Y12  1  0.690814  0.560978  0.058124  1
  Y  Y13  1  0.190814  0.939022  0.441876  1
  Y  Y14  1  0.309186  0.060978  0.941876  1
  Y  Y15  1  0.809186  0.439022  0.558124  1
  Y  Y16  1  0.354478  0.750000  0.212603  1
  Y  Y17  1  0.854478  0.750000  0.287397  1
  Y  Y18  1  0.645522  0.250000  0.787397  1
  Y  Y19  1  0.145522  0.250000  0.712603  1
  Bi  Bi20  1  0.431260  0.004507  0.674476  1
  Bi  Bi21  1  0.931260  0.495493  0.825524  1
  Bi  Bi22  1  0.568740  0.504507  0.325524  1
  Bi  Bi23  1  0.068740  0.995493  0.174476  1
  Bi  Bi24  1  0.568740  0.995493  0.325524  1
  Bi  Bi25  1  0.068740  0.504507  0.174476  1
  Bi  Bi26  1  0.431260  0.495493  0.674476  1
  Bi  Bi27  1  0.931260  0.004507  0.825524  1
  Te  Te28  1  0.409593  0.750000  0.959243  1
  Te  Te29  1  0.909593  0.750000  0.540757  1
  Te  Te30  1  0.590407  0.250000  0.040757  1
  Te  Te31  1  0.090407  0.250000  0.459243  1
