# generated using pymatgen
data_Tb7Th(CdNi)2
_symmetry_space_group_name_H-M   'P 1'
_cell_length_a   9.57153695
_cell_length_b   9.57153672
_cell_length_c   9.59475000
_cell_angle_alpha   59.91973428
_cell_angle_beta   59.91973507
_cell_angle_gamma   59.74255862
_symmetry_Int_Tables_number   1
_chemical_formula_structural   Tb7Th(CdNi)2
_chemical_formula_sum   'Tb14 Th2 Cd4 Ni4'
_cell_volume   619.58943793
_cell_formula_units_Z   2
loop_
 _symmetry_equiv_pos_site_id
 _symmetry_equiv_pos_as_xyz
  1  'x, y, z'
loop_
 _atom_site_type_symbol
 _atom_site_label
 _atom_site_symmetry_multiplicity
 _atom_site_fract_x
 _atom_site_fract_y
 _atom_site_fract_z
 _atom_site_occupancy
  Tb  Tb0  1  0.348165  0.950898  0.350469  1
  Tb  Tb1  1  0.950898  0.348165  0.350469  1
  Tb  Tb2  1  0.811609  0.189566  0.188297  1
  Tb  Tb3  1  0.189566  0.811609  0.810529  1
  Tb  Tb4  1  0.189566  0.811609  0.188297  1
  Tb  Tb5  1  0.811609  0.189566  0.810529  1
  Tb  Tb6  1  0.189407  0.189407  0.810593  1
  Tb  Tb7  1  0.811175  0.811175  0.188825  1
  Tb  Tb8  1  0.937011  0.564298  0.565772  1
  Tb  Tb9  1  0.564298  0.937011  0.932918  1
  Tb  Tb10  1  0.564298  0.937011  0.565772  1
  Tb  Tb11  1  0.937011  0.564298  0.932918  1
  Tb  Tb12  1  0.564195  0.564195  0.935805  1
  Tb  Tb13  1  0.935035  0.935035  0.564965  1
  Th  Th14  1  0.344121  0.344121  0.350082  1
  Th  Th15  1  0.344121  0.344121  0.961676  1
  Cd  Cd16  1  0.582108  0.582108  0.579928  1
  Cd  Cd17  1  0.582108  0.582108  0.255854  1
  Cd  Cd18  1  0.582953  0.256167  0.580439  1
  Cd  Cd19  1  0.256167  0.582953  0.580439  1
  Ni  Ni20  1  0.144194  0.144194  0.140187  1
  Ni  Ni21  1  0.144194  0.144194  0.571426  1
  Ni  Ni22  1  0.146867  0.569324  0.141905  1
  Ni  Ni23  1  0.569324  0.146867  0.141905  1
