# generated using pymatgen
data_Ba12Tb3YFe2(CoO5)6
_symmetry_space_group_name_H-M   'P 1'
_cell_length_a   6.05614011
_cell_length_b   8.06761538
_cell_length_c   18.55075200
_cell_angle_alpha   89.06981710
_cell_angle_beta   90.01103126
_cell_angle_gamma   90.01359466
_symmetry_Int_Tables_number   1
_chemical_formula_structural   Ba12Tb3YFe2(CoO5)6
_chemical_formula_sum   'Ba12 Tb3 Y1 Fe2 Co6 O30'
_cell_volume   906.24445748
_cell_formula_units_Z   1
loop_
 _symmetry_equiv_pos_site_id
 _symmetry_equiv_pos_as_xyz
  1  'x, y, z'
loop_
 _atom_site_type_symbol
 _atom_site_label
 _atom_site_symmetry_multiplicity
 _atom_site_fract_x
 _atom_site_fract_y
 _atom_site_fract_z
 _atom_site_occupancy
  Ba  Ba0  1  0.282091  0.999873  0.249872  1
  Ba  Ba1  1  0.719052  0.000145  0.750243  1
  Ba  Ba2  1  0.328834  0.499954  0.249972  1
  Ba  Ba3  1  0.668778  0.500271  0.750188  1
  Ba  Ba4  1  0.753695  0.981460  0.090769  1
  Ba  Ba5  1  0.754015  0.018696  0.408920  1
  Ba  Ba6  1  0.249448  0.023845  0.909070  1
  Ba  Ba7  1  0.249483  0.975803  0.591086  1
  Ba  Ba8  1  0.246734  0.500477  0.578540  1
  Ba  Ba9  1  0.246239  0.499630  0.921347  1
  Ba  Ba10  1  0.755005  0.505549  0.420486  1
  Ba  Ba11  1  0.754807  0.494567  0.079338  1
  Tb  Tb12  1  0.253081  0.754229  0.410360  1
  Tb  Tb13  1  0.252892  0.245890  0.089541  1
  Tb  Tb14  1  0.747791  0.246054  0.589535  1
  Y  Y15  1  0.747571  0.753826  0.910578  1
  Fe  Fe16  1  0.254752  0.755323  0.060226  1
  Fe  Fe17  1  0.254917  0.244690  0.439411  1
  Co  Co18  1  0.746905  0.245849  0.937655  1
  Co  Co19  1  0.747205  0.754231  0.562289  1
  Co  Co20  1  0.777265  0.768301  0.262896  1
  Co  Co21  1  0.777308  0.231678  0.236972  1
  Co  Co22  1  0.221533  0.231675  0.735917  1
  Co  Co23  1  0.221718  0.768417  0.764486  1
  O  O24  1  0.820717  0.000050  0.250033  1
  O  O25  1  0.175721  0.999922  0.750063  1
  O  O26  1  0.769564  0.956405  0.607791  1
  O  O27  1  0.768997  0.043079  0.892523  1
  O  O28  1  0.224033  0.040759  0.390365  1
  O  O29  1  0.223897  0.959196  0.109325  1
  O  O30  1  0.240706  0.530026  0.091047  1
  O  O31  1  0.240814  0.470141  0.408771  1
  O  O32  1  0.755187  0.467483  0.911015  1
  O  O33  1  0.755522  0.532627  0.588971  1
  O  O34  1  0.037447  0.716146  0.309066  1
  O  O35  1  0.037429  0.283802  0.190823  1
  O  O36  1  0.959361  0.284210  0.691045  1
  O  O37  1  0.960154  0.716152  0.809915  1
  O  O38  1  0.549144  0.751663  0.336061  1
  O  O39  1  0.549003  0.248339  0.163882  1
  O  O40  1  0.451112  0.247624  0.663483  1
  O  O41  1  0.452603  0.752333  0.836553  1
  O  O42  1  0.487827  0.764517  0.503669  1
  O  O43  1  0.487916  0.235458  0.996420  1
  O  O44  1  0.516344  0.233257  0.496341  1
  O  O45  1  0.516347  0.766773  0.003382  1
  O  O46  1  0.020831  0.765875  0.990389  1
  O  O47  1  0.021532  0.233918  0.509347  1
  O  O48  1  0.984730  0.234724  0.006389  1
  O  O49  1  0.984772  0.765460  0.493508  1
  O  O50  1  0.348103  0.698809  0.682873  1
  O  O51  1  0.349505  0.300650  0.817372  1
  O  O52  1  0.649860  0.299297  0.318769  1
  O  O53  1  0.649697  0.700871  0.181115  1
