# generated using pymatgen
data_Sr8Cd15GaAu12
_symmetry_space_group_name_H-M   'P 1'
_cell_length_a   15.35298100
_cell_length_b   15.35298299
_cell_length_c   4.50705800
_cell_angle_alpha   90.00000000
_cell_angle_beta   90.00000000
_cell_angle_gamma   120.00000218
_symmetry_Int_Tables_number   1
_chemical_formula_structural   Sr8Cd15GaAu12
_chemical_formula_sum   'Sr8 Cd15 Ga1 Au12'
_cell_volume   920.04538293
_cell_formula_units_Z   1
loop_
 _symmetry_equiv_pos_site_id
 _symmetry_equiv_pos_as_xyz
  1  'x, y, z'
loop_
 _atom_site_type_symbol
 _atom_site_label
 _atom_site_symmetry_multiplicity
 _atom_site_fract_x
 _atom_site_fract_y
 _atom_site_fract_z
 _atom_site_occupancy
  Sr  Sr0  1  0.450348  0.000000  0.000000  1
  Sr  Sr1  1  0.000000  0.450348  0.000000  1
  Sr  Sr2  1  0.549652  0.549652  0.000000  1
  Sr  Sr3  1  0.333333  0.666667  0.000000  1
  Sr  Sr4  1  0.666667  0.333333  0.000000  1
  Sr  Sr5  1  0.825770  0.000000  0.500000  1
  Sr  Sr6  1  0.000000  0.825770  0.500000  1
  Sr  Sr7  1  0.174230  0.174230  0.500000  1
  Cd  Cd8  1  0.177397  0.374476  0.000000  1
  Cd  Cd9  1  0.625524  0.802921  0.000000  1
  Cd  Cd10  1  0.374476  0.177397  0.000000  1
  Cd  Cd11  1  0.197079  0.822603  0.000000  1
  Cd  Cd12  1  0.802921  0.625524  0.000000  1
  Cd  Cd13  1  0.822603  0.197079  0.000000  1
  Cd  Cd14  1  0.276308  0.000000  0.500000  1
  Cd  Cd15  1  0.000000  0.276308  0.500000  1
  Cd  Cd16  1  0.723692  0.723692  0.500000  1
  Cd  Cd17  1  0.346591  0.471063  0.500000  1
  Cd  Cd18  1  0.528937  0.875528  0.500000  1
  Cd  Cd19  1  0.471063  0.346591  0.500000  1
  Cd  Cd20  1  0.124472  0.653409  0.500000  1
  Cd  Cd21  1  0.875528  0.528937  0.500000  1
  Cd  Cd22  1  0.653409  0.124472  0.500000  1
  Ga  Ga23  1  0.000000  0.000000  0.000000  1
  Au  Au24  1  0.169764  0.493362  0.500000  1
  Au  Au25  1  0.506638  0.676402  0.500000  1
  Au  Au26  1  0.493362  0.169764  0.500000  1
  Au  Au27  1  0.323598  0.830236  0.500000  1
  Au  Au28  1  0.676402  0.506638  0.500000  1
  Au  Au29  1  0.830236  0.323598  0.500000  1
  Au  Au30  1  0.164860  0.000000  0.000000  1
  Au  Au31  1  0.000000  0.164860  0.000000  1
  Au  Au32  1  0.835140  0.835140  0.000000  1
  Au  Au33  1  0.655996  0.000000  0.000000  1
  Au  Au34  1  0.000000  0.655996  0.000000  1
  Au  Au35  1  0.344004  0.344004  0.000000  1
