# generated using pymatgen
data_CsLa2(CoH6)2
_symmetry_space_group_name_H-M   'P 1'
_cell_length_a   5.09976600
_cell_length_b   5.09976608
_cell_length_c   9.42868300
_cell_angle_alpha   90.00000000
_cell_angle_beta   90.00000000
_cell_angle_gamma   119.99999949
_symmetry_Int_Tables_number   1
_chemical_formula_structural   CsLa2(CoH6)2
_chemical_formula_sum   'Cs1 La2 Co2 H12'
_cell_volume   212.36462429
_cell_formula_units_Z   1
loop_
 _symmetry_equiv_pos_site_id
 _symmetry_equiv_pos_as_xyz
  1  'x, y, z'
loop_
 _atom_site_type_symbol
 _atom_site_label
 _atom_site_symmetry_multiplicity
 _atom_site_fract_x
 _atom_site_fract_y
 _atom_site_fract_z
 _atom_site_occupancy
  Cs  Cs0  1  0.000000  0.000000  0.000000  1
  La  La1  1  0.666667  0.333333  0.368702  1
  La  La2  1  0.333333  0.666667  0.631298  1
  Co  Co3  1  0.666667  0.333333  0.705543  1
  Co  Co4  1  0.333333  0.666667  0.294457  1
  H  H5  1  0.185032  0.814968  0.389282  1
  H  H6  1  0.629937  0.814968  0.389282  1
  H  H7  1  0.185032  0.370063  0.389282  1
  H  H8  1  0.814968  0.185032  0.610718  1
  H  H9  1  0.370063  0.185032  0.610718  1
  H  H10  1  0.814968  0.629937  0.610718  1
  H  H11  1  0.530087  0.060172  0.808326  1
  H  H12  1  0.530087  0.469913  0.808326  1
  H  H13  1  0.939828  0.469913  0.808326  1
  H  H14  1  0.469913  0.939828  0.191674  1
  H  H15  1  0.469913  0.530087  0.191674  1
  H  H16  1  0.060172  0.530087  0.191674  1
