# generated using pymatgen
data_Ba6MnIr4O15
_symmetry_space_group_name_H-M   'P 1'
_cell_length_a   7.45895750
_cell_length_b   7.45895697
_cell_length_c   7.45895700
_cell_angle_alpha   87.96471897
_cell_angle_beta   87.96471911
_cell_angle_gamma   87.96470550
_symmetry_Int_Tables_number   1
_chemical_formula_structural   Ba6MnIr4O15
_chemical_formula_sum   'Ba6 Mn1 Ir4 O15'
_cell_volume   414.21959073
_cell_formula_units_Z   1
loop_
 _symmetry_equiv_pos_site_id
 _symmetry_equiv_pos_as_xyz
  1  'x, y, z'
loop_
 _atom_site_type_symbol
 _atom_site_label
 _atom_site_symmetry_multiplicity
 _atom_site_fract_x
 _atom_site_fract_y
 _atom_site_fract_z
 _atom_site_occupancy
  Ba  Ba0  1  0.500000  0.852969  0.147031  1
  Ba  Ba1  1  0.147031  0.500000  0.852969  1
  Ba  Ba2  1  0.852969  0.147031  0.500000  1
  Ba  Ba3  1  0.000000  0.673745  0.326255  1
  Ba  Ba4  1  0.326255  0.000000  0.673745  1
  Ba  Ba5  1  0.673745  0.326255  0.000000  1
  Mn  Mn6  1  0.500000  0.500000  0.500000  1
  Ir  Ir7  1  0.708051  0.708051  0.708051  1
  Ir  Ir8  1  0.291949  0.291949  0.291949  1
  Ir  Ir9  1  0.905482  0.905482  0.905482  1
  Ir  Ir10  1  0.094518  0.094518  0.094518  1
  O  O11  1  0.371180  0.541293  0.244256  1
  O  O12  1  0.244256  0.371180  0.541293  1
  O  O13  1  0.541293  0.244256  0.371180  1
  O  O14  1  0.628820  0.755744  0.458707  1
  O  O15  1  0.458707  0.628820  0.755744  1
  O  O16  1  0.755744  0.458707  0.628820  1
  O  O17  1  0.198255  0.028077  0.341506  1
  O  O18  1  0.341506  0.198255  0.028077  1
  O  O19  1  0.028077  0.341506  0.198255  1
  O  O20  1  0.801745  0.658494  0.971923  1
  O  O21  1  0.971923  0.801745  0.658494  1
  O  O22  1  0.158607  0.841393  0.000000  1
  O  O23  1  0.841393  0.000000  0.158607  1
  O  O24  1  0.000000  0.158607  0.841393  1
  O  O25  1  0.658494  0.971923  0.801745  1
