# generated using pymatgen
data_Li(SmP)2
_symmetry_space_group_name_H-M   'P 1'
_cell_length_a   4.11933800
_cell_length_b   4.11933633
_cell_length_c   14.33868100
_cell_angle_alpha   90.00000000
_cell_angle_beta   90.00000000
_cell_angle_gamma   119.99999738
_symmetry_Int_Tables_number   1
_chemical_formula_structural   Li(SmP)2
_chemical_formula_sum   'Li2 Sm4 P4'
_cell_volume   210.71455046
_cell_formula_units_Z   2
loop_
 _symmetry_equiv_pos_site_id
 _symmetry_equiv_pos_as_xyz
  1  'x, y, z'
loop_
 _atom_site_type_symbol
 _atom_site_label
 _atom_site_symmetry_multiplicity
 _atom_site_fract_x
 _atom_site_fract_y
 _atom_site_fract_z
 _atom_site_occupancy
  Li  Li0  1  0.000000  0.000000  0.250000  1
  Li  Li1  1  0.000000  0.000000  0.750000  1
  Sm  Sm2  1  0.333333  0.666667  0.110665  1
  Sm  Sm3  1  0.333333  0.666667  0.389335  1
  Sm  Sm4  1  0.666667  0.333332  0.610665  1
  Sm  Sm5  1  0.666667  0.333332  0.889335  1
  P  P6  1  0.000000  0.000000  0.000000  1
  P  P7  1  0.666667  0.333332  0.250000  1
  P  P8  1  0.000000  0.000000  0.500000  1
  P  P9  1  0.333333  0.666667  0.750000  1
