# generated using pymatgen
data_HoTa6Cl18
_symmetry_space_group_name_H-M   'P 1'
_cell_length_a   10.13722055
_cell_length_b   10.13722005
_cell_length_c   10.13722029
_cell_angle_alpha   55.96027088
_cell_angle_beta   55.96027306
_cell_angle_gamma   55.96027324
_symmetry_Int_Tables_number   1
_chemical_formula_structural   HoTa6Cl18
_chemical_formula_sum   'Ho1 Ta6 Cl18'
_cell_volume   667.66555060
_cell_formula_units_Z   1
loop_
 _symmetry_equiv_pos_site_id
 _symmetry_equiv_pos_as_xyz
  1  'x, y, z'
loop_
 _atom_site_type_symbol
 _atom_site_label
 _atom_site_symmetry_multiplicity
 _atom_site_fract_x
 _atom_site_fract_y
 _atom_site_fract_z
 _atom_site_occupancy
  Ho  Ho0  1  0.000000  0.000000  0.000000  1
  Ta  Ta1  1  0.409212  0.301889  0.648600  1
  Ta  Ta2  1  0.351400  0.590788  0.698111  1
  Ta  Ta3  1  0.698111  0.351400  0.590788  1
  Ta  Ta4  1  0.301889  0.648600  0.409212  1
  Ta  Ta5  1  0.648600  0.409212  0.301889  1
  Ta  Ta6  1  0.590788  0.698111  0.351400  1
  Cl  Cl7  1  0.568664  0.161550  0.441725  1
  Cl  Cl8  1  0.223864  0.370491  0.908408  1
  Cl  Cl9  1  0.908408  0.223864  0.370491  1
  Cl  Cl10  1  0.370491  0.908408  0.223864  1
  Cl  Cl11  1  0.776136  0.629509  0.091592  1
  Cl  Cl12  1  0.091592  0.776136  0.629509  1
  Cl  Cl13  1  0.703970  0.956101  0.160686  1
  Cl  Cl14  1  0.956101  0.160686  0.703970  1
  Cl  Cl15  1  0.160686  0.703970  0.956101  1
  Cl  Cl16  1  0.296030  0.043899  0.839314  1
  Cl  Cl17  1  0.043899  0.839314  0.296030  1
  Cl  Cl18  1  0.839314  0.296030  0.043899  1
  Cl  Cl19  1  0.558275  0.431336  0.838450  1
  Cl  Cl20  1  0.161550  0.441725  0.568664  1
  Cl  Cl21  1  0.441725  0.568664  0.161550  1
  Cl  Cl22  1  0.431336  0.838450  0.558275  1
  Cl  Cl23  1  0.838450  0.558275  0.431336  1
  Cl  Cl24  1  0.629509  0.091592  0.776136  1
