# generated using pymatgen
data_PrNd2In3O9
_symmetry_space_group_name_H-M   'P 1'
_cell_length_a   6.56066700
_cell_length_b   6.56066873
_cell_length_c   12.54318100
_cell_angle_alpha   90.00000000
_cell_angle_beta   90.00000000
_cell_angle_gamma   119.99999630
_symmetry_Int_Tables_number   1
_chemical_formula_structural   PrNd2In3O9
_chemical_formula_sum   'Pr2 Nd4 In6 O18'
_cell_volume   467.55686873
_cell_formula_units_Z   2
loop_
 _symmetry_equiv_pos_site_id
 _symmetry_equiv_pos_as_xyz
  1  'x, y, z'
loop_
 _atom_site_type_symbol
 _atom_site_label
 _atom_site_symmetry_multiplicity
 _atom_site_fract_x
 _atom_site_fract_y
 _atom_site_fract_z
 _atom_site_occupancy
  Pr  Pr0  1  0.666667  0.333333  0.961347  1
  Pr  Pr1  1  0.333333  0.666667  0.461347  1
  Nd  Nd2  1  0.666667  0.333333  0.460353  1
  Nd  Nd3  1  0.333333  0.666667  0.960353  1
  Nd  Nd4  1  0.000000  0.000000  0.998352  1
  Nd  Nd5  1  0.000000  0.000000  0.498352  1
  In  In6  1  0.666464  0.666005  0.726782  1
  In  In7  1  0.999541  0.333536  0.726782  1
  In  In8  1  0.333536  0.333995  0.226782  1
  In  In9  1  0.000459  0.666464  0.226782  1
  In  In10  1  0.333995  0.000459  0.726782  1
  In  In11  1  0.666005  0.999541  0.226782  1
  O  O12  1  0.691836  0.694510  0.895165  1
  O  O13  1  0.002675  0.308164  0.895165  1
  O  O14  1  0.308164  0.305490  0.395165  1
  O  O15  1  0.997325  0.691836  0.395165  1
  O  O16  1  0.305490  0.997325  0.895165  1
  O  O17  1  0.694510  0.002675  0.395165  1
  O  O18  1  0.643286  0.640532  0.559572  1
  O  O19  1  0.997246  0.356714  0.559572  1
  O  O20  1  0.356714  0.359468  0.059572  1
  O  O21  1  0.002754  0.643286  0.059572  1
  O  O22  1  0.359468  0.002754  0.559572  1
  O  O23  1  0.640532  0.997246  0.059572  1
  O  O24  1  0.000000  0.000000  0.699060  1
  O  O25  1  0.000000  0.000000  0.199060  1
  O  O26  1  0.666667  0.333333  0.752364  1
  O  O27  1  0.333333  0.666667  0.252364  1
  O  O28  1  0.666667  0.333333  0.249860  1
  O  O29  1  0.333333  0.666667  0.749860  1
