# generated using pymatgen
data_Dy3Er3Zr4(Sn3N)2
_symmetry_space_group_name_H-M   'P 1'
_cell_length_a   8.73977800
_cell_length_b   8.73977683
_cell_length_c   6.10548800
_cell_angle_alpha   90.00000000
_cell_angle_beta   90.00000000
_cell_angle_gamma   119.99999685
_symmetry_Int_Tables_number   1
_chemical_formula_structural   Dy3Er3Zr4(Sn3N)2
_chemical_formula_sum   'Dy3 Er3 Zr4 Sn6 N2'
_cell_volume   403.87946459
_cell_formula_units_Z   1
loop_
 _symmetry_equiv_pos_site_id
 _symmetry_equiv_pos_as_xyz
  1  'x, y, z'
loop_
 _atom_site_type_symbol
 _atom_site_label
 _atom_site_symmetry_multiplicity
 _atom_site_fract_x
 _atom_site_fract_y
 _atom_site_fract_z
 _atom_site_occupancy
  Dy  Dy0  1  0.781717  0.781717  0.750000  1
  Dy  Dy1  1  0.218283  0.000000  0.750000  1
  Dy  Dy2  1  0.000000  0.218283  0.750000  1
  Er  Er3  1  0.216620  0.216620  0.250000  1
  Er  Er4  1  0.783380  0.000000  0.250000  1
  Er  Er5  1  0.000000  0.783380  0.250000  1
  Zr  Zr6  1  0.666667  0.333333  0.000056  1
  Zr  Zr7  1  0.333333  0.666667  0.000056  1
  Zr  Zr8  1  0.333333  0.666667  0.499944  1
  Zr  Zr9  1  0.666667  0.333333  0.499944  1
  Sn  Sn10  1  0.407827  0.407827  0.750000  1
  Sn  Sn11  1  0.592173  0.000000  0.750000  1
  Sn  Sn12  1  0.000000  0.592173  0.750000  1
  Sn  Sn13  1  0.592534  0.592534  0.250000  1
  Sn  Sn14  1  0.407466  0.000000  0.250000  1
  Sn  Sn15  1  0.000000  0.407466  0.250000  1
  N  N16  1  0.000000  0.000000  0.002267  1
  N  N17  1  0.000000  0.000000  0.497733  1
