# generated using pymatgen
data_Tb17Er3Si15Pd
_symmetry_space_group_name_H-M   'P 1'
_cell_length_a   7.48732242
_cell_length_b   7.70880587
_cell_length_c   14.69685200
_cell_angle_alpha   90.31044261
_cell_angle_beta   90.42852920
_cell_angle_gamma   90.20955870
_symmetry_Int_Tables_number   1
_chemical_formula_structural   Tb17Er3Si15Pd
_chemical_formula_sum   'Tb17 Er3 Si15 Pd1'
_cell_volume   848.23555545
_cell_formula_units_Z   1
loop_
 _symmetry_equiv_pos_site_id
 _symmetry_equiv_pos_as_xyz
  1  'x, y, z'
loop_
 _atom_site_type_symbol
 _atom_site_label
 _atom_site_symmetry_multiplicity
 _atom_site_fract_x
 _atom_site_fract_y
 _atom_site_fract_z
 _atom_site_occupancy
  Tb  Tb0  1  0.680851  0.169577  0.620140  1
  Tb  Tb1  1  0.183607  0.321809  0.876986  1
  Tb  Tb2  1  0.319227  0.819292  0.121708  1
  Tb  Tb3  1  0.820069  0.682744  0.379699  1
  Tb  Tb4  1  0.321159  0.824946  0.378159  1
  Tb  Tb5  1  0.817116  0.680296  0.122653  1
  Tb  Tb6  1  0.680869  0.180094  0.877608  1
  Tb  Tb7  1  0.178775  0.320782  0.623039  1
  Tb  Tb8  1  0.525369  0.680866  0.599915  1
  Tb  Tb9  1  0.029191  0.816871  0.901119  1
  Tb  Tb10  1  0.470001  0.316984  0.099517  1
  Tb  Tb11  1  0.973833  0.181013  0.398812  1
  Tb  Tb12  1  0.470868  0.319161  0.400151  1
  Tb  Tb13  1  0.969670  0.182803  0.099081  1
  Tb  Tb14  1  0.531183  0.683276  0.900034  1
  Tb  Tb15  1  0.028141  0.816305  0.600820  1
  Tb  Tb16  1  0.852110  0.507795  0.749344  1
  Er  Er17  1  0.351284  0.988857  0.748530  1
  Er  Er18  1  0.148823  0.489157  0.250808  1
  Er  Er19  1  0.652035  0.012275  0.253367  1
  Si  Si20  1  0.143972  0.527350  0.040957  1
  Si  Si21  1  0.353997  0.029136  0.959701  1
  Si  Si22  1  0.852659  0.471471  0.541208  1
  Si  Si23  1  0.344154  0.027200  0.542721  1
  Si  Si24  1  0.856634  0.471728  0.959483  1
  Si  Si25  1  0.644212  0.971819  0.039573  1
  Si  Si26  1  0.146473  0.529991  0.460261  1
  Si  Si27  1  0.478994  0.393511  0.749466  1
  Si  Si28  1  0.977790  0.102480  0.751682  1
  Si  Si29  1  0.521739  0.604962  0.248656  1
  Si  Si30  1  0.025209  0.895668  0.247712  1
  Si  Si31  1  0.734055  0.872157  0.751628  1
  Si  Si32  1  0.235615  0.628131  0.751118  1
  Si  Si33  1  0.267069  0.127834  0.247109  1
  Si  Si34  1  0.766780  0.374932  0.248998  1
  Pd  Pd35  1  0.646463  0.976735  0.458233  1
