# generated using pymatgen
data_Ta3NbSi4IrRh3
_symmetry_space_group_name_H-M   'P 1'
_cell_length_a   3.78469700
_cell_length_b   6.43181809
_cell_length_c   7.33970675
_cell_angle_alpha   90.20838263
_cell_angle_beta   90.00000000
_cell_angle_gamma   90.00000000
_symmetry_Int_Tables_number   1
_chemical_formula_structural   Ta3NbSi4IrRh3
_chemical_formula_sum   'Ta3 Nb1 Si4 Ir1 Rh3'
_cell_volume   178.66550240
_cell_formula_units_Z   1
loop_
 _symmetry_equiv_pos_site_id
 _symmetry_equiv_pos_as_xyz
  1  'x, y, z'
loop_
 _atom_site_type_symbol
 _atom_site_label
 _atom_site_symmetry_multiplicity
 _atom_site_fract_x
 _atom_site_fract_y
 _atom_site_fract_z
 _atom_site_occupancy
  Ta  Ta0  1  0.750000  0.474230  0.328169  1
  Ta  Ta1  1  0.250000  0.023795  0.825859  1
  Ta  Ta2  1  0.750000  0.975432  0.173201  1
  Nb  Nb3  1  0.250000  0.526179  0.671981  1
  Si  Si4  1  0.250000  0.268225  0.122527  1
  Si  Si5  1  0.750000  0.731666  0.874675  1
  Si  Si6  1  0.250000  0.766850  0.375778  1
  Si  Si7  1  0.750000  0.233248  0.626536  1
  Ir  Ir8  1  0.250000  0.145157  0.435464  1
  Rh  Rh9  1  0.750000  0.856244  0.563042  1
  Rh  Rh10  1  0.750000  0.353819  0.938137  1
  Rh  Rh11  1  0.250000  0.645154  0.064630  1
