# generated using pymatgen
data_Ba2CdSb3Pt4
_symmetry_space_group_name_H-M   'P 1'
_cell_length_a   4.85815001
_cell_length_b   4.74517000
_cell_length_c   10.76197655
_cell_angle_alpha   90.00000000
_cell_angle_beta   91.62108784
_cell_angle_gamma   90.00000000
_symmetry_Int_Tables_number   1
_chemical_formula_structural   Ba2CdSb3Pt4
_chemical_formula_sum   'Ba2 Cd1 Sb3 Pt4'
_cell_volume   247.99383610
_cell_formula_units_Z   1
loop_
 _symmetry_equiv_pos_site_id
 _symmetry_equiv_pos_as_xyz
  1  'x, y, z'
loop_
 _atom_site_type_symbol
 _atom_site_label
 _atom_site_symmetry_multiplicity
 _atom_site_fract_x
 _atom_site_fract_y
 _atom_site_fract_z
 _atom_site_occupancy
  Ba  Ba0  1  0.256418  0.750001  0.253107  1
  Ba  Ba1  1  0.742650  0.250000  0.748156  1
  Cd  Cd2  1  0.251680  0.250000  0.002521  1
  Sb  Sb3  1  0.793237  0.250000  0.380194  1
  Sb  Sb4  1  0.206517  0.750001  0.617812  1
  Sb  Sb5  1  0.746922  0.750001  0.998987  1
  Pt  Pt6  1  0.758906  0.250000  0.127997  1
  Pt  Pt7  1  0.692491  0.750001  0.498441  1
  Pt  Pt8  1  0.310220  0.250000  0.502046  1
  Pt  Pt9  1  0.240959  0.750001  0.870739  1
