# generated using pymatgen
data_Nb2Ni4IrPt
_symmetry_space_group_name_H-M   'P 1'
_cell_length_a   4.30506500
_cell_length_b   4.72428820
_cell_length_c   5.28736549
_cell_angle_alpha   89.71872278
_cell_angle_beta   90.00000000
_cell_angle_gamma   90.00000000
_symmetry_Int_Tables_number   1
_chemical_formula_structural   Nb2Ni4IrPt
_chemical_formula_sum   'Nb2 Ni4 Ir1 Pt1'
_cell_volume   107.53508816
_cell_formula_units_Z   1
loop_
 _symmetry_equiv_pos_site_id
 _symmetry_equiv_pos_as_xyz
  1  'x, y, z'
loop_
 _atom_site_type_symbol
 _atom_site_label
 _atom_site_symmetry_multiplicity
 _atom_site_fract_x
 _atom_site_fract_y
 _atom_site_fract_z
 _atom_site_occupancy
  Nb  Nb0  1  0.500000  0.648820  0.505822  1
  Nb  Nb1  1  0.000000  0.347060  0.994209  1
  Ni  Ni2  1  0.500000  0.170938  0.254112  1
  Ni  Ni3  1  0.000000  0.833709  0.753660  1
  Ni  Ni4  1  0.000000  0.321217  0.496810  1
  Ni  Ni5  1  0.500000  0.677106  0.997400  1
  Ir  Ir6  1  0.500000  0.161679  0.749307  1
  Pt  Pt7  1  0.000000  0.839471  0.248681  1
