# generated using pymatgen
data_Pr5Nd6In9Ir4
_symmetry_space_group_name_H-M   'P 1'
_cell_length_a   13.40981574
_cell_length_b   13.40981625
_cell_length_c   3.89867900
_cell_angle_alpha   90.00000000
_cell_angle_beta   90.00000000
_cell_angle_gamma   112.17753966
_symmetry_Int_Tables_number   1
_chemical_formula_structural   Pr5Nd6In9Ir4
_chemical_formula_sum   'Pr5 Nd6 In9 Ir4'
_cell_volume   649.20647117
_cell_formula_units_Z   1
loop_
 _symmetry_equiv_pos_site_id
 _symmetry_equiv_pos_as_xyz
  1  'x, y, z'
loop_
 _atom_site_type_symbol
 _atom_site_label
 _atom_site_symmetry_multiplicity
 _atom_site_fract_x
 _atom_site_fract_y
 _atom_site_fract_z
 _atom_site_occupancy
  Pr  Pr0  1  0.500000  0.500000  0.500000  1
  Pr  Pr1  1  0.126762  0.873238  0.500000  1
  Pr  Pr2  1  0.873238  0.126762  0.500000  1
  Pr  Pr3  1  0.339730  0.660270  0.500000  1
  Pr  Pr4  1  0.660270  0.339730  0.500000  1
  Nd  Nd5  1  0.813304  0.813304  0.500000  1
  Nd  Nd6  1  0.186696  0.186696  0.500000  1
  Nd  Nd7  1  0.580381  0.919331  0.500000  1
  Nd  Nd8  1  0.419619  0.080669  0.500000  1
  Nd  Nd9  1  0.919331  0.580381  0.500000  1
  Nd  Nd10  1  0.080669  0.419619  0.500000  1
  In  In11  1  0.338987  0.865729  0.000000  1
  In  In12  1  0.661013  0.134271  0.000000  1
  In  In13  1  0.865729  0.338987  0.000000  1
  In  In14  1  0.134271  0.661013  0.000000  1
  In  In15  1  0.578726  0.720231  0.000000  1
  In  In16  1  0.421274  0.279769  0.000000  1
  In  In17  1  0.720231  0.578726  0.000000  1
  In  In18  1  0.279769  0.421274  0.000000  1
  In  In19  1  0.000000  0.000000  0.000000  1
  Ir  Ir20  1  0.747389  0.953576  0.000000  1
  Ir  Ir21  1  0.252611  0.046424  0.000000  1
  Ir  Ir22  1  0.953576  0.747389  0.000000  1
  Ir  Ir23  1  0.046424  0.252611  0.000000  1
