# generated using pymatgen
data_Er6Tm6Co4SnPt
_symmetry_space_group_name_H-M   'P 1'
_cell_length_a   8.21416262
_cell_length_b   8.21940723
_cell_length_c   8.21940740
_cell_angle_alpha   111.10985925
_cell_angle_beta   110.68666420
_cell_angle_gamma   106.67807796
_symmetry_Int_Tables_number   1
_chemical_formula_structural   Er6Tm6Co4SnPt
_chemical_formula_sum   'Er6 Tm6 Co4 Sn1 Pt1'
_cell_volume   426.29304892
_cell_formula_units_Z   1
loop_
 _symmetry_equiv_pos_site_id
 _symmetry_equiv_pos_as_xyz
  1  'x, y, z'
loop_
 _atom_site_type_symbol
 _atom_site_label
 _atom_site_symmetry_multiplicity
 _atom_site_fract_x
 _atom_site_fract_y
 _atom_site_fract_z
 _atom_site_occupancy
  Er  Er0  1  0.016911  0.217133  0.799778  1
  Er  Er1  1  0.983089  0.782867  0.200222  1
  Er  Er2  1  0.185730  0.288751  0.473891  1
  Er  Er3  1  0.814270  0.711249  0.526109  1
  Er  Er4  1  0.185730  0.711839  0.896978  1
  Er  Er5  1  0.814270  0.288161  0.103022  1
  Tm  Tm6  1  0.314937  0.619530  0.305317  1
  Tm  Tm7  1  0.685063  0.380471  0.694683  1
  Tm  Tm8  1  0.314937  0.009621  0.695408  1
  Tm  Tm9  1  0.685063  0.990379  0.304592  1
  Tm  Tm10  1  0.417365  0.216947  0.200419  1
  Tm  Tm11  1  0.582635  0.783053  0.799581  1
  Co  Co12  1  0.112917  0.612615  0.500301  1
  Co  Co13  1  0.887084  0.387386  0.499699  1
  Co  Co14  1  0.377465  0.000245  0.377220  1
  Co  Co15  1  0.622535  0.999755  0.622780  1
  Sn  Sn16  1  0.500000  0.500000  0.000000  1
  Pt  Pt17  1  0.000000  0.000000  0.000000  1
