# generated using pymatgen
data_Ho4InPt8Rh3
_symmetry_space_group_name_H-M   'P 1'
_cell_length_a   4.20954400
_cell_length_b   5.76255895
_cell_length_c   11.57856719
_cell_angle_alpha   87.34022223
_cell_angle_beta   90.00000000
_cell_angle_gamma   90.00000000
_symmetry_Int_Tables_number   1
_chemical_formula_structural   Ho4InPt8Rh3
_chemical_formula_sum   'Ho4 In1 Pt8 Rh3'
_cell_volume   280.56735377
_cell_formula_units_Z   1
loop_
 _symmetry_equiv_pos_site_id
 _symmetry_equiv_pos_as_xyz
  1  'x, y, z'
loop_
 _atom_site_type_symbol
 _atom_site_label
 _atom_site_symmetry_multiplicity
 _atom_site_fract_x
 _atom_site_fract_y
 _atom_site_fract_z
 _atom_site_occupancy
  Ho  Ho0  1  0.500000  0.754149  0.372169  1
  Ho  Ho1  1  0.500000  0.717748  0.865160  1
  Ho  Ho2  1  0.500000  0.281527  0.137536  1
  Ho  Ho3  1  0.500000  0.246329  0.625751  1
  In  In4  1  0.000000  0.000520  0.000077  1
  Pt  Pt5  1  0.000000  0.010631  0.250145  1
  Pt  Pt6  1  0.000000  0.988949  0.750225  1
  Pt  Pt7  1  0.000000  0.499946  0.000374  1
  Pt  Pt8  1  0.000000  0.499261  0.499260  1
  Pt  Pt9  1  0.000000  0.514441  0.250763  1
  Pt  Pt10  1  0.000000  0.485091  0.749608  1
  Pt  Pt11  1  0.500000  0.749610  0.621293  1
  Pt  Pt12  1  0.000000  0.000702  0.499399  1
  Rh  Rh13  1  0.500000  0.250912  0.378340  1
  Rh  Rh14  1  0.500000  0.227284  0.881367  1
  Rh  Rh15  1  0.500000  0.772900  0.118534  1
