# generated using pymatgen
data_Tb5DyY14(Cd3Ru)2
_symmetry_space_group_name_H-M   'P 1'
_cell_length_a   9.65121000
_cell_length_b   9.65097120
_cell_length_c   9.88853700
_cell_angle_alpha   90.00000044
_cell_angle_beta   90.00178280
_cell_angle_gamma   119.99918348
_symmetry_Int_Tables_number   1
_chemical_formula_structural   Tb5DyY14(Cd3Ru)2
_chemical_formula_sum   'Tb5 Dy1 Y14 Cd6 Ru2'
_cell_volume   797.66223831
_cell_formula_units_Z   1
loop_
 _symmetry_equiv_pos_site_id
 _symmetry_equiv_pos_as_xyz
  1  'x, y, z'
loop_
 _atom_site_type_symbol
 _atom_site_label
 _atom_site_symmetry_multiplicity
 _atom_site_fract_x
 _atom_site_fract_y
 _atom_site_fract_z
 _atom_site_occupancy
  Tb  Tb0  1  0.210029  0.790065  0.439807  1
  Tb  Tb1  1  0.210029  0.419966  0.439807  1
  Tb  Tb2  1  0.579993  0.789997  0.439790  1
  Tb  Tb3  1  0.789898  0.210001  0.560241  1
  Tb  Tb4  1  0.789898  0.579895  0.560241  1
  Dy  Dy5  1  0.420063  0.210030  0.560218  1
  Y  Y6  1  0.000084  0.000042  0.500017  1
  Y  Y7  1  0.000000  0.000000  0.000015  1
  Y  Y8  1  0.790192  0.209762  0.940094  1
  Y  Y9  1  0.790192  0.580429  0.940094  1
  Y  Y10  1  0.419620  0.209810  0.940032  1
  Y  Y11  1  0.209790  0.790229  0.059902  1
  Y  Y12  1  0.209790  0.419563  0.059902  1
  Y  Y13  1  0.580434  0.790218  0.059886  1
  Y  Y14  1  0.541267  0.458648  0.250341  1
  Y  Y15  1  0.541267  0.082619  0.250341  1
  Y  Y16  1  0.917396  0.458698  0.250293  1
  Y  Y17  1  0.458707  0.541213  0.749677  1
  Y  Y18  1  0.458707  0.917494  0.749677  1
  Y  Y19  1  0.082611  0.541306  0.749715  1
  Cd  Cd20  1  0.885291  0.114721  0.249752  1
  Cd  Cd21  1  0.885291  0.770571  0.249752  1
  Cd  Cd22  1  0.229453  0.114727  0.249790  1
  Cd  Cd23  1  0.114735  0.885304  0.750233  1
  Cd  Cd24  1  0.114735  0.229430  0.750233  1
  Cd  Cd25  1  0.770581  0.885290  0.750248  1
  Ru  Ru26  1  0.333339  0.666670  0.251877  1
  Ru  Ru27  1  0.666605  0.333302  0.748025  1
