# generated using pymatgen
data_Tb8Ho8Cd4Co3Os
_symmetry_space_group_name_H-M   'P 1'
_cell_length_a   9.57527582
_cell_length_b   9.57367091
_cell_length_c   9.57314309
_cell_angle_alpha   59.38144757
_cell_angle_beta   59.38046517
_cell_angle_gamma   59.35521708
_symmetry_Int_Tables_number   1
_chemical_formula_structural   Tb8Ho8Cd4Co3Os
_chemical_formula_sum   'Tb8 Ho8 Cd4 Co3 Os1'
_cell_volume   611.67497829
_cell_formula_units_Z   1
loop_
 _symmetry_equiv_pos_site_id
 _symmetry_equiv_pos_as_xyz
  1  'x, y, z'
loop_
 _atom_site_type_symbol
 _atom_site_label
 _atom_site_symmetry_multiplicity
 _atom_site_fract_x
 _atom_site_fract_y
 _atom_site_fract_z
 _atom_site_occupancy
  Tb  Tb0  1  0.812382  0.813808  0.186602  1
  Tb  Tb1  1  0.211406  0.600143  0.599889  1
  Tb  Tb2  1  0.806061  0.190017  0.189915  1
  Tb  Tb3  1  0.057976  0.436452  0.437785  1
  Tb  Tb4  1  0.189762  0.807004  0.189169  1
  Tb  Tb5  1  0.599676  0.600269  0.211137  1
  Tb  Tb6  1  0.189896  0.189382  0.806369  1
  Tb  Tb7  1  0.062438  0.435201  0.061543  1
  Ho  Ho8  1  0.438108  0.436486  0.057799  1
  Ho  Ho9  1  0.595714  0.596105  0.596555  1
  Ho  Ho10  1  0.187334  0.813540  0.812077  1
  Ho  Ho11  1  0.061830  0.061116  0.436499  1
  Ho  Ho12  1  0.436175  0.061944  0.061862  1
  Ho  Ho13  1  0.812518  0.187397  0.812516  1
  Ho  Ho14  1  0.437136  0.057984  0.437014  1
  Ho  Ho15  1  0.599853  0.211258  0.600173  1
  Cd  Cd16  1  0.829027  0.829763  0.509278  1
  Cd  Cd17  1  0.829790  0.830734  0.829277  1
  Cd  Cd18  1  0.508923  0.829498  0.829196  1
  Cd  Cd19  1  0.828954  0.508995  0.829401  1
  Co  Co20  1  0.828608  0.391173  0.393196  1
  Co  Co21  1  0.391687  0.829763  0.392518  1
  Co  Co22  1  0.392850  0.391802  0.828876  1
  Os  Os23  1  0.391899  0.390165  0.391356  1
