# generated using pymatgen
data_NaGeH11Br2
_symmetry_space_group_name_H-M   'P 1'
_cell_length_a   7.62644149
_cell_length_b   5.28632260
_cell_length_c   7.60793475
_cell_angle_alpha   75.49872655
_cell_angle_beta   75.74244128
_cell_angle_gamma   77.37618947
_symmetry_Int_Tables_number   1
_chemical_formula_structural   NaGeH11Br2
_chemical_formula_sum   'Na1 Ge1 H11 Br2'
_cell_volume   283.75126003
_cell_formula_units_Z   1
loop_
 _symmetry_equiv_pos_site_id
 _symmetry_equiv_pos_as_xyz
  1  'x, y, z'
loop_
 _atom_site_type_symbol
 _atom_site_label
 _atom_site_symmetry_multiplicity
 _atom_site_fract_x
 _atom_site_fract_y
 _atom_site_fract_z
 _atom_site_occupancy
  Na  Na0  1  0.264408  0.318818  0.873118  1
  Ge  Ge1  1  0.084838  0.195108  0.465816  1
  H  H2  1  0.704718  0.794063  0.365311  1
  H  H3  1  0.714521  0.167375  0.652924  1
  H  H4  1  0.788710  0.509759  0.910044  1
  H  H5  1  0.834879  0.514652  0.810094  1
  H  H6  1  0.807706  0.772860  0.347939  1
  H  H7  1  0.102069  0.960520  0.360221  1
  H  H8  1  0.497805  0.983177  0.037979  1
  H  H9  1  0.807514  0.244135  0.249871  1
  H  H10  1  0.511410  0.913848  0.959220  1
  H  H11  1  0.652144  0.081911  0.642546  1
  H  H12  1  0.787102  0.378370  0.274202  1
  Br  Br13  1  0.289804  0.881897  0.690657  1
  Br  Br14  1  0.321917  0.407726  0.211540  1
