# generated using pymatgen
data_LiCo4Tc3P4
_symmetry_space_group_name_H-M   'P 1'
_cell_length_a   3.66549200
_cell_length_b   5.75306304
_cell_length_c   6.65082363
_cell_angle_alpha   90.37341940
_cell_angle_beta   90.00000000
_cell_angle_gamma   90.00000000
_symmetry_Int_Tables_number   1
_chemical_formula_structural   LiCo4Tc3P4
_chemical_formula_sum   'Li1 Co4 Tc3 P4'
_cell_volume   140.24830336
_cell_formula_units_Z   1
loop_
 _symmetry_equiv_pos_site_id
 _symmetry_equiv_pos_as_xyz
  1  'x, y, z'
loop_
 _atom_site_type_symbol
 _atom_site_label
 _atom_site_symmetry_multiplicity
 _atom_site_fract_x
 _atom_site_fract_y
 _atom_site_fract_z
 _atom_site_occupancy
  Li  Li0  1  0.250000  0.974227  0.679366  1
  Co  Co1  1  0.750000  0.635131  0.562357  1
  Co  Co2  1  0.750000  0.139436  0.931489  1
  Co  Co3  1  0.250000  0.362634  0.436172  1
  Co  Co4  1  0.250000  0.852075  0.060606  1
  Tc  Tc5  1  0.750000  0.535266  0.173984  1
  Tc  Tc6  1  0.750000  0.030445  0.323289  1
  Tc  Tc7  1  0.250000  0.471428  0.832905  1
  P  P8  1  0.750000  0.262238  0.620396  1
  P  P9  1  0.750000  0.760497  0.878048  1
  P  P10  1  0.250000  0.743157  0.382979  1
  P  P11  1  0.250000  0.233466  0.118410  1
