# generated using pymatgen
data_Na2GeS2O
_symmetry_space_group_name_H-M   'P 1'
_cell_length_a   13.83274700
_cell_length_b   5.54423110
_cell_length_c   7.05202079
_cell_angle_alpha   67.96484621
_cell_angle_beta   90.00000000
_cell_angle_gamma   90.00000000
_symmetry_Int_Tables_number   1
_chemical_formula_structural   Na2GeS2O
_chemical_formula_sum   'Na8 Ge4 S8 O4'
_cell_volume   501.32741064
_cell_formula_units_Z   4
loop_
 _symmetry_equiv_pos_site_id
 _symmetry_equiv_pos_as_xyz
  1  'x, y, z'
loop_
 _atom_site_type_symbol
 _atom_site_label
 _atom_site_symmetry_multiplicity
 _atom_site_fract_x
 _atom_site_fract_y
 _atom_site_fract_z
 _atom_site_occupancy
  Na  Na0  1  0.352085  0.456466  0.596275  1
  Na  Na1  1  0.942073  0.345376  0.800531  1
  Na  Na2  1  0.147915  0.956466  0.596275  1
  Na  Na3  1  0.442073  0.154624  0.199469  1
  Na  Na4  1  0.557927  0.845376  0.800531  1
  Na  Na5  1  0.852085  0.043534  0.403725  1
  Na  Na6  1  0.057927  0.654624  0.199469  1
  Na  Na7  1  0.647915  0.543534  0.403725  1
  Ge  Ge8  1  0.318805  0.825863  0.976016  1
  Ge  Ge9  1  0.681195  0.174137  0.023984  1
  Ge  Ge10  1  0.181195  0.325863  0.976016  1
  Ge  Ge11  1  0.818805  0.674137  0.023984  1
  S  S12  1  0.566670  0.349236  0.802276  1
  S  S13  1  0.357572  0.930696  0.653606  1
  S  S14  1  0.857572  0.569304  0.346394  1
  S  S15  1  0.933330  0.849236  0.802276  1
  S  S16  1  0.642428  0.069304  0.346394  1
  S  S17  1  0.142428  0.430696  0.653606  1
  S  S18  1  0.433330  0.650764  0.197724  1
  S  S19  1  0.066670  0.150764  0.197724  1
  O  O20  1  0.709141  0.874365  0.975255  1
  O  O21  1  0.209141  0.625635  0.024745  1
  O  O22  1  0.790859  0.374365  0.975255  1
  O  O23  1  0.290859  0.125635  0.024745  1
