# generated using pymatgen
data_KNdCr2O8
_symmetry_space_group_name_H-M   'P 1'
_cell_length_a   5.88639900
_cell_length_b   5.88639869
_cell_length_c   7.84969800
_cell_angle_alpha   90.00000000
_cell_angle_beta   90.00000000
_cell_angle_gamma   119.99999613
_symmetry_Int_Tables_number   1
_chemical_formula_structural   KNdCr2O8
_chemical_formula_sum   'K1 Nd1 Cr2 O8'
_cell_volume   235.54992355
_cell_formula_units_Z   1
loop_
 _symmetry_equiv_pos_site_id
 _symmetry_equiv_pos_as_xyz
  1  'x, y, z'
loop_
 _atom_site_type_symbol
 _atom_site_label
 _atom_site_symmetry_multiplicity
 _atom_site_fract_x
 _atom_site_fract_y
 _atom_site_fract_z
 _atom_site_occupancy
  K  K0  1  0.000000  0.000000  0.500000  1
  Nd  Nd1  1  0.000000  0.000000  0.000000  1
  Cr  Cr2  1  0.666666  0.333333  0.261112  1
  Cr  Cr3  1  0.333334  0.666667  0.738888  1
  O  O4  1  0.354946  0.177473  0.191239  1
  O  O5  1  0.822527  0.177473  0.191239  1
  O  O6  1  0.822527  0.645055  0.191239  1
  O  O7  1  0.666666  0.333333  0.467411  1
  O  O8  1  0.333334  0.666667  0.532589  1
  O  O9  1  0.177473  0.354945  0.808761  1
  O  O10  1  0.177474  0.822527  0.808761  1
  O  O11  1  0.645054  0.822527  0.808761  1
