# generated using pymatgen
data_SrHoRh2O7
_symmetry_space_group_name_H-M   'P 1'
_cell_length_a   7.33769353
_cell_length_b   7.32011053
_cell_length_c   7.33769404
_cell_angle_alpha   60.07923883
_cell_angle_beta   59.68938990
_cell_angle_gamma   60.07923490
_symmetry_Int_Tables_number   1
_chemical_formula_structural   SrHoRh2O7
_chemical_formula_sum   'Sr2 Ho2 Rh4 O14'
_cell_volume   278.36115725
_cell_formula_units_Z   2
loop_
 _symmetry_equiv_pos_site_id
 _symmetry_equiv_pos_as_xyz
  1  'x, y, z'
loop_
 _atom_site_type_symbol
 _atom_site_label
 _atom_site_symmetry_multiplicity
 _atom_site_fract_x
 _atom_site_fract_y
 _atom_site_fract_z
 _atom_site_occupancy
  Sr  Sr0  1  0.625000  0.625000  0.125000  1
  Sr  Sr1  1  0.125000  0.625000  0.625000  1
  Ho  Ho2  1  0.625000  0.625000  0.625000  1
  Ho  Ho3  1  0.625000  0.125000  0.625000  1
  Rh  Rh4  1  0.125000  0.125000  0.125000  1
  Rh  Rh5  1  0.625000  0.125000  0.125000  1
  Rh  Rh6  1  0.125000  0.625000  0.125000  1
  Rh  Rh7  1  0.125000  0.125000  0.625000  1
  O  O8  1  0.033578  0.452011  0.454126  1
  O  O9  1  0.795874  0.797989  0.216422  1
  O  O10  1  0.795874  0.189713  0.216422  1
  O  O11  1  0.453544  0.046456  0.453544  1
  O  O12  1  0.732894  0.767106  0.732894  1
  O  O13  1  0.033578  0.060287  0.454126  1
  O  O14  1  0.052426  0.447574  0.052426  1
  O  O15  1  0.796456  0.203544  0.796456  1
  O  O16  1  0.197574  0.802426  0.197574  1
  O  O17  1  0.216422  0.189713  0.795874  1
  O  O18  1  0.517106  0.482894  0.517106  1
  O  O19  1  0.454126  0.060287  0.033578  1
  O  O20  1  0.454126  0.452011  0.033578  1
  O  O21  1  0.216422  0.797989  0.795874  1
