# generated using pymatgen
data_Tb5Er11Cd3AgPt4
_symmetry_space_group_name_H-M   'P 1'
_cell_length_a   9.59536682
_cell_length_b   9.59301673
_cell_length_c   9.59301701
_cell_angle_alpha   60.15028272
_cell_angle_beta   60.13517991
_cell_angle_gamma   60.13518335
_symmetry_Int_Tables_number   1
_chemical_formula_structural   Tb5Er11Cd3AgPt4
_chemical_formula_sum   'Tb5 Er11 Cd3 Ag1 Pt4'
_cell_volume   626.37469596
_cell_formula_units_Z   1
loop_
 _symmetry_equiv_pos_site_id
 _symmetry_equiv_pos_as_xyz
  1  'x, y, z'
loop_
 _atom_site_type_symbol
 _atom_site_label
 _atom_site_symmetry_multiplicity
 _atom_site_fract_x
 _atom_site_fract_y
 _atom_site_fract_z
 _atom_site_occupancy
  Tb  Tb0  1  0.561694  0.937011  0.937011  1
  Tb  Tb1  1  0.564390  0.933361  0.563518  1
  Tb  Tb2  1  0.936779  0.561598  0.936058  1
  Tb  Tb3  1  0.564390  0.563518  0.933361  1
  Tb  Tb4  1  0.936779  0.936058  0.561598  1
  Er  Er5  1  0.349887  0.350125  0.350125  1
  Er  Er6  1  0.354546  0.354941  0.939197  1
  Er  Er7  1  0.354546  0.939197  0.354941  1
  Er  Er8  1  0.938803  0.355029  0.355029  1
  Er  Er9  1  0.811180  0.190316  0.190316  1
  Er  Er10  1  0.188888  0.810909  0.810909  1
  Er  Er11  1  0.189861  0.811104  0.190727  1
  Er  Er12  1  0.811130  0.189421  0.810682  1
  Er  Er13  1  0.189861  0.190727  0.811104  1
  Er  Er14  1  0.811130  0.810682  0.189421  1
  Er  Er15  1  0.934547  0.563399  0.563399  1
  Cd  Cd16  1  0.581532  0.581508  0.255764  1
  Cd  Cd17  1  0.581532  0.255764  0.581508  1
  Cd  Cd18  1  0.255460  0.581670  0.581670  1
  Ag  Ag19  1  0.583776  0.583561  0.583561  1
  Pt  Pt20  1  0.144562  0.144609  0.144609  1
  Pt  Pt21  1  0.141897  0.142725  0.570747  1
  Pt  Pt22  1  0.141897  0.570747  0.142725  1
  Pt  Pt23  1  0.570935  0.142019  0.142019  1
