# generated using pymatgen
data_TbSmMn6Co6P7
_symmetry_space_group_name_H-M   'P 1'
_cell_length_a   9.09800800
_cell_length_b   9.09800882
_cell_length_c   3.65304800
_cell_angle_alpha   90.00000000
_cell_angle_beta   90.00000000
_cell_angle_gamma   119.99999701
_symmetry_Int_Tables_number   1
_chemical_formula_structural   TbSmMn6Co6P7
_chemical_formula_sum   'Tb1 Sm1 Mn6 Co6 P7'
_cell_volume   261.86574497
_cell_formula_units_Z   1
loop_
 _symmetry_equiv_pos_site_id
 _symmetry_equiv_pos_as_xyz
  1  'x, y, z'
loop_
 _atom_site_type_symbol
 _atom_site_label
 _atom_site_symmetry_multiplicity
 _atom_site_fract_x
 _atom_site_fract_y
 _atom_site_fract_z
 _atom_site_occupancy
  Tb  Tb0  1  0.666667  0.333333  0.000000  1
  Sm  Sm1  1  0.333333  0.666667  0.500000  1
  Mn  Mn2  1  0.276401  0.120092  0.000000  1
  Mn  Mn3  1  0.843691  0.723599  0.000000  1
  Mn  Mn4  1  0.879908  0.156309  0.000000  1
  Mn  Mn5  1  0.104263  0.880957  0.500000  1
  Mn  Mn6  1  0.776693  0.895737  0.500000  1
  Mn  Mn7  1  0.119043  0.223307  0.500000  1
  Co  Co8  1  0.058318  0.630350  0.000000  1
  Co  Co9  1  0.572032  0.941682  0.000000  1
  Co  Co10  1  0.369650  0.427968  0.000000  1
  Co  Co11  1  0.438248  0.050812  0.500000  1
  Co  Co12  1  0.612565  0.561752  0.500000  1
  Co  Co13  1  0.949188  0.387435  0.500000  1
  P  P14  1  0.301523  0.891098  0.000000  1
  P  P15  1  0.589576  0.698477  0.000000  1
  P  P16  1  0.108902  0.410424  0.000000  1
  P  P17  1  0.405740  0.288151  0.500000  1
  P  P18  1  0.882411  0.594260  0.500000  1
  P  P19  1  0.711849  0.117589  0.500000  1
  P  P20  1  0.000000  0.000000  0.000000  1
