# generated using pymatgen
data_Dy2TmIn3HgPt2
_symmetry_space_group_name_H-M   'P 1'
_cell_length_a   7.77660740
_cell_length_b   7.79961850
_cell_length_c   3.89636000
_cell_angle_alpha   90.00000000
_cell_angle_beta   90.00000000
_cell_angle_gamma   119.97089555
_symmetry_Int_Tables_number   1
_chemical_formula_structural   Dy2TmIn3HgPt2
_chemical_formula_sum   'Dy2 Tm1 In3 Hg1 Pt2'
_cell_volume   204.72955214
_cell_formula_units_Z   1
loop_
 _symmetry_equiv_pos_site_id
 _symmetry_equiv_pos_as_xyz
  1  'x, y, z'
loop_
 _atom_site_type_symbol
 _atom_site_label
 _atom_site_symmetry_multiplicity
 _atom_site_fract_x
 _atom_site_fract_y
 _atom_site_fract_z
 _atom_site_occupancy
  Dy  Dy0  1  0.388119  0.411057  0.500000  1
  Dy  Dy1  1  0.588115  0.977044  0.500000  1
  Tm  Tm2  1  0.025188  0.613705  0.500000  1
  In  In3  1  0.999933  0.256153  0.000000  1
  In  In4  1  0.743971  0.743154  0.000000  1
  In  In5  1  0.256056  0.999564  0.000000  1
  Hg  Hg6  1  0.668836  0.334922  0.000000  1
  Pt  Pt7  1  0.999795  0.998590  0.500000  1
  Pt  Pt8  1  0.329988  0.665811  0.000000  1
