# generated using pymatgen
data_Ti6Co12Si5Ge
_symmetry_space_group_name_H-M   'P 1'
_cell_length_a   4.07864200
_cell_length_b   5.76802500
_cell_length_c   12.23897700
_cell_angle_alpha   90.00000000
_cell_angle_beta   90.00039797
_cell_angle_gamma   90.00000000
_symmetry_Int_Tables_number   1
_chemical_formula_structural   Ti6Co12Si5Ge
_chemical_formula_sum   'Ti6 Co12 Si5 Ge1'
_cell_volume   287.93061163
_cell_formula_units_Z   1
loop_
 _symmetry_equiv_pos_site_id
 _symmetry_equiv_pos_as_xyz
  1  'x, y, z'
loop_
 _atom_site_type_symbol
 _atom_site_label
 _atom_site_symmetry_multiplicity
 _atom_site_fract_x
 _atom_site_fract_y
 _atom_site_fract_z
 _atom_site_occupancy
  Ti  Ti0  1  0.000000  0.000000  0.000831  1
  Ti  Ti1  1  0.500267  0.500000  0.167463  1
  Ti  Ti2  1  0.000270  0.000000  0.333333  1
  Ti  Ti3  1  0.500000  0.500000  0.499212  1
  Ti  Ti4  1  0.999726  0.000000  0.665838  1
  Ti  Ti5  1  0.499730  0.500000  0.833326  1
  Co  Co6  1  0.500009  0.253439  0.002824  1
  Co  Co7  1  0.500009  0.746562  0.002824  1
  Co  Co8  1  0.000293  0.249764  0.166827  1
  Co  Co9  1  0.000293  0.750235  0.166827  1
  Co  Co10  1  0.500297  0.249454  0.333334  1
  Co  Co11  1  0.500297  0.750545  0.333334  1
  Co  Co12  1  0.999993  0.249760  0.499846  1
  Co  Co13  1  0.999993  0.750241  0.499846  1
  Co  Co14  1  0.499702  0.253429  0.663842  1
  Co  Co15  1  0.499702  0.746570  0.663842  1
  Co  Co16  1  0.999708  0.256960  0.833327  1
  Co  Co17  1  0.999708  0.743039  0.833327  1
  Si  Si18  1  0.000002  0.500000  0.000502  1
  Si  Si19  1  0.500281  0.000000  0.167002  1
  Si  Si20  1  0.000272  0.500000  0.333330  1
  Si  Si21  1  0.499997  0.000000  0.499666  1
  Si  Si22  1  0.999709  0.500000  0.666166  1
  Ge  Ge23  1  0.499732  0.000000  0.833331  1
