# generated using pymatgen
data_Ho7Er13(Zn3Fe)2
_symmetry_space_group_name_H-M   'P 1'
_cell_length_a   9.26802304
_cell_length_b   9.26802308
_cell_length_c   9.47989600
_cell_angle_alpha   90.00562570
_cell_angle_beta   89.99437430
_cell_angle_gamma   120.01042648
_symmetry_Int_Tables_number   1
_chemical_formula_structural   Ho7Er13(Zn3Fe)2
_chemical_formula_sum   'Ho7 Er13 Zn6 Fe2'
_cell_volume   705.11958063
_cell_formula_units_Z   1
loop_
 _symmetry_equiv_pos_site_id
 _symmetry_equiv_pos_as_xyz
  1  'x, y, z'
loop_
 _atom_site_type_symbol
 _atom_site_label
 _atom_site_symmetry_multiplicity
 _atom_site_fract_x
 _atom_site_fract_y
 _atom_site_fract_z
 _atom_site_occupancy
  Ho  Ho0  1  0.541576  0.458424  0.250018  1
  Ho  Ho1  1  0.541774  0.083346  0.249897  1
  Ho  Ho2  1  0.916654  0.458226  0.249897  1
  Ho  Ho3  1  0.458358  0.541642  0.750050  1
  Ho  Ho4  1  0.458527  0.916805  0.750145  1
  Ho  Ho5  1  0.083195  0.541473  0.750145  1
  Ho  Ho6  1  0.209965  0.790035  0.437569  1
  Er  Er7  1  0.999913  0.000087  0.500063  1
  Er  Er8  1  0.999982  0.000018  0.999991  1
  Er  Er9  1  0.209983  0.419612  0.437854  1
  Er  Er10  1  0.580388  0.790017  0.437854  1
  Er  Er11  1  0.790027  0.209973  0.562286  1
  Er  Er12  1  0.789904  0.580016  0.562318  1
  Er  Er13  1  0.419984  0.210096  0.562318  1
  Er  Er14  1  0.790022  0.209978  0.937725  1
  Er  Er15  1  0.790006  0.580052  0.937827  1
  Er  Er16  1  0.419948  0.209994  0.937827  1
  Er  Er17  1  0.209879  0.790121  0.061914  1
  Er  Er18  1  0.209978  0.419949  0.062204  1
  Er  Er19  1  0.580051  0.790022  0.062204  1
  Zn  Zn20  1  0.886567  0.113433  0.250018  1
  Zn  Zn21  1  0.886505  0.773144  0.249955  1
  Zn  Zn22  1  0.226856  0.113495  0.249955  1
  Zn  Zn23  1  0.113403  0.886597  0.750105  1
  Zn  Zn24  1  0.113424  0.226879  0.750053  1
  Zn  Zn25  1  0.773121  0.886576  0.750053  1
  Fe  Fe26  1  0.333270  0.666730  0.249990  1
  Fe  Fe27  1  0.666741  0.333259  0.749762  1
