# generated using pymatgen
data_Er16MgCd2InPd4
_symmetry_space_group_name_H-M   'P 1'
_cell_length_a   9.62288406
_cell_length_b   9.62288405
_cell_length_c   9.63143097
_cell_angle_alpha   60.04377095
_cell_angle_beta   60.04377075
_cell_angle_gamma   60.11662235
_symmetry_Int_Tables_number   1
_chemical_formula_structural   Er16MgCd2InPd4
_chemical_formula_sum   'Er16 Mg1 Cd2 In1 Pd4'
_cell_volume   631.61895705
_cell_formula_units_Z   1
loop_
 _symmetry_equiv_pos_site_id
 _symmetry_equiv_pos_as_xyz
  1  'x, y, z'
loop_
 _atom_site_type_symbol
 _atom_site_label
 _atom_site_symmetry_multiplicity
 _atom_site_fract_x
 _atom_site_fract_y
 _atom_site_fract_z
 _atom_site_occupancy
  Er  Er0  1  0.350600  0.350600  0.351790  1
  Er  Er1  1  0.354606  0.354606  0.937790  1
  Er  Er2  1  0.356513  0.936071  0.355179  1
  Er  Er3  1  0.936071  0.356513  0.355179  1
  Er  Er4  1  0.809383  0.191632  0.191569  1
  Er  Er5  1  0.189837  0.812463  0.812400  1
  Er  Er6  1  0.191632  0.809383  0.191569  1
  Er  Er7  1  0.812463  0.189837  0.812400  1
  Er  Er8  1  0.190271  0.190271  0.811062  1
  Er  Er9  1  0.811496  0.811496  0.190168  1
  Er  Er10  1  0.934667  0.567649  0.566293  1
  Er  Er11  1  0.564292  0.937908  0.933038  1
  Er  Er12  1  0.567649  0.934667  0.566293  1
  Er  Er13  1  0.937908  0.564292  0.933038  1
  Er  Er14  1  0.566733  0.566733  0.933470  1
  Er  Er15  1  0.937048  0.937048  0.562670  1
  Mg  Mg16  1  0.576962  0.576962  0.579086  1
  Cd  Cd17  1  0.580878  0.251355  0.582916  1
  Cd  Cd18  1  0.251355  0.580878  0.582916  1
  In  In19  1  0.581613  0.581613  0.251933  1
  Pd  Pd20  1  0.145718  0.145718  0.146352  1
  Pd  Pd21  1  0.142395  0.142395  0.566910  1
  Pd  Pd22  1  0.142427  0.567479  0.142989  1
  Pd  Pd23  1  0.567479  0.142427  0.142989  1
