# generated using pymatgen
data_Pr3Th(Si4Tc3)2
_symmetry_space_group_name_H-M   'P 1'
_cell_length_a   8.20325249
_cell_length_b   5.73356104
_cell_length_c   7.03727700
_cell_angle_alpha   76.89615215
_cell_angle_beta   90.11685165
_cell_angle_gamma   89.91293445
_symmetry_Int_Tables_number   1
_chemical_formula_structural   Pr3Th(Si4Tc3)2
_chemical_formula_sum   'Pr3 Th1 Si8 Tc6'
_cell_volume   322.37014622
_cell_formula_units_Z   1
loop_
 _symmetry_equiv_pos_site_id
 _symmetry_equiv_pos_as_xyz
  1  'x, y, z'
loop_
 _atom_site_type_symbol
 _atom_site_label
 _atom_site_symmetry_multiplicity
 _atom_site_fract_x
 _atom_site_fract_y
 _atom_site_fract_z
 _atom_site_occupancy
  Pr  Pr0  1  0.431271  0.936145  0.747898  1
  Pr  Pr1  1  0.070512  0.436649  0.746326  1
  Pr  Pr2  1  0.569199  0.063405  0.252974  1
  Th  Th3  1  0.933345  0.566711  0.249783  1
  Si  Si4  1  0.586389  0.610734  0.112857  1
  Si  Si5  1  0.089793  0.889852  0.887836  1
  Si  Si6  1  0.412274  0.387999  0.890307  1
  Si  Si7  1  0.911770  0.113743  0.110511  1
  Si  Si8  1  0.750723  0.715656  0.591594  1
  Si  Si9  1  0.252092  0.785016  0.407907  1
  Si  Si10  1  0.248853  0.279851  0.410223  1
  Si  Si11  1  0.748370  0.217676  0.592336  1
  Tc  Tc12  1  0.289835  0.607508  0.122082  1
  Tc  Tc13  1  0.795092  0.885997  0.883203  1
  Tc  Tc14  1  0.706570  0.389661  0.880757  1
  Tc  Tc15  1  0.206325  0.111882  0.119136  1
  Tc  Tc16  1  0.500311  0.500196  0.497743  1
  Tc  Tc17  1  0.997278  0.001319  0.496529  1
