# generated using pymatgen
data_La4Pr2IrO12
_symmetry_space_group_name_H-M   'P 1'
_cell_length_a   6.82986521
_cell_length_b   6.82291581
_cell_length_c   6.80680014
_cell_angle_alpha   98.35914701
_cell_angle_beta   98.37214662
_cell_angle_gamma   98.67838982
_symmetry_Int_Tables_number   1
_chemical_formula_structural   La4Pr2IrO12
_chemical_formula_sum   'La4 Pr2 Ir1 O12'
_cell_volume   305.64587215
_cell_formula_units_Z   1
loop_
 _symmetry_equiv_pos_site_id
 _symmetry_equiv_pos_as_xyz
  1  'x, y, z'
loop_
 _atom_site_type_symbol
 _atom_site_label
 _atom_site_symmetry_multiplicity
 _atom_site_fract_x
 _atom_site_fract_y
 _atom_site_fract_z
 _atom_site_occupancy
  La  La0  1  0.693240  0.392480  0.855759  1
  La  La1  1  0.304989  0.606168  0.144471  1
  La  La2  1  0.605607  0.142772  0.306155  1
  La  La3  1  0.856765  0.695196  0.395573  1
  Pr  Pr4  1  0.143718  0.305375  0.611656  1
  Pr  Pr5  1  0.388620  0.856732  0.695063  1
  Ir  Ir6  1  0.000307  0.000223  0.999180  1
  O  O7  1  0.065641  0.286364  0.963823  1
  O  O8  1  0.036101  0.936541  0.712016  1
  O  O9  1  0.403634  0.557940  0.824151  1
  O  O10  1  0.176919  0.594746  0.443339  1
  O  O11  1  0.714446  0.027237  0.930701  1
  O  O12  1  0.439946  0.177054  0.594195  1
  O  O13  1  0.559017  0.822277  0.408513  1
  O  O14  1  0.286823  0.968780  0.062449  1
  O  O15  1  0.821732  0.403695  0.558748  1
  O  O16  1  0.595179  0.441167  0.178133  1
  O  O17  1  0.972720  0.069942  0.284848  1
  O  O18  1  0.934598  0.715311  0.031228  1
