# generated using pymatgen
data_CsKBO3
_symmetry_space_group_name_H-M   'P 1'
_cell_length_a   6.22800243
_cell_length_b   6.22734796
_cell_length_c   7.00043300
_cell_angle_alpha   93.92909099
_cell_angle_beta   93.93369792
_cell_angle_gamma   60.18238112
_symmetry_Int_Tables_number   1
_chemical_formula_structural   CsKBO3
_chemical_formula_sum   'Cs2 K2 B2 O6'
_cell_volume   234.81986955
_cell_formula_units_Z   2
loop_
 _symmetry_equiv_pos_site_id
 _symmetry_equiv_pos_as_xyz
  1  'x, y, z'
loop_
 _atom_site_type_symbol
 _atom_site_label
 _atom_site_symmetry_multiplicity
 _atom_site_fract_x
 _atom_site_fract_y
 _atom_site_fract_z
 _atom_site_occupancy
  Cs  Cs0  1  0.667130  0.667129  0.247387  1
  Cs  Cs1  1  0.332870  0.332871  0.752614  1
  K  K2  1  0.000000  0.000000  0.000000  1
  K  K3  1  0.000000  0.000000  0.500000  1
  B  B4  1  0.334152  0.334077  0.250158  1
  B  B5  1  0.665848  0.665923  0.749841  1
  O  O6  1  0.586617  0.205463  0.231421  1
  O  O7  1  0.205476  0.586613  0.231449  1
  O  O8  1  0.210563  0.210528  0.286846  1
  O  O9  1  0.789436  0.789471  0.713154  1
  O  O10  1  0.794524  0.413387  0.768551  1
  O  O11  1  0.413383  0.794537  0.768579  1
