# generated using pymatgen
data_YPaRh2Pb
_symmetry_space_group_name_H-M   'P 1'
_cell_length_a   7.91848000
_cell_length_b   7.73686700
_cell_length_c   3.62231000
_cell_angle_alpha   90.00000000
_cell_angle_beta   90.00000000
_cell_angle_gamma   90.00000000
_symmetry_Int_Tables_number   1
_chemical_formula_structural   YPaRh2Pb
_chemical_formula_sum   'Y2 Pa2 Rh4 Pb2'
_cell_volume   221.91802066
_cell_formula_units_Z   2
loop_
 _symmetry_equiv_pos_site_id
 _symmetry_equiv_pos_as_xyz
  1  'x, y, z'
loop_
 _atom_site_type_symbol
 _atom_site_label
 _atom_site_symmetry_multiplicity
 _atom_site_fract_x
 _atom_site_fract_y
 _atom_site_fract_z
 _atom_site_occupancy
  Y  Y0  1  0.828919  0.669837  0.500000  1
  Y  Y1  1  0.328919  0.830163  0.500000  1
  Pa  Pa2  1  0.677371  0.162505  0.500000  1
  Pa  Pa3  1  0.177371  0.337495  0.500000  1
  Rh  Rh4  1  0.860257  0.340302  0.000000  1
  Rh  Rh5  1  0.360257  0.159698  0.000000  1
  Rh  Rh6  1  0.624819  0.907783  0.000000  1
  Rh  Rh7  1  0.124819  0.592217  0.000000  1
  Pb  Pb8  1  0.008634  0.988801  0.000000  1
  Pb  Pb9  1  0.508634  0.511199  0.000000  1
