# generated using pymatgen
data_Y9Ho(Co2Rh)2
_symmetry_space_group_name_H-M   'P 1'
_cell_length_a   7.12980922
_cell_length_b   7.12980926
_cell_length_c   8.81276393
_cell_angle_alpha   113.86079894
_cell_angle_beta   113.86080089
_cell_angle_gamma   90.00000439
_symmetry_Int_Tables_number   1
_chemical_formula_structural   Y9Ho(Co2Rh)2
_chemical_formula_sum   'Y9 Ho1 Co4 Rh2'
_cell_volume   367.44261230
_cell_formula_units_Z   1
loop_
 _symmetry_equiv_pos_site_id
 _symmetry_equiv_pos_as_xyz
  1  'x, y, z'
loop_
 _atom_site_type_symbol
 _atom_site_label
 _atom_site_symmetry_multiplicity
 _atom_site_fract_x
 _atom_site_fract_y
 _atom_site_fract_z
 _atom_site_occupancy
  Y  Y0  1  0.000000  0.000000  0.000000  1
  Y  Y1  1  0.464307  0.319082  0.282721  1
  Y  Y2  1  0.963640  0.464307  0.282721  1
  Y  Y3  1  0.319082  0.818412  0.282721  1
  Y  Y4  1  0.818412  0.963640  0.282721  1
  Y  Y5  1  0.181587  0.036361  0.717278  1
  Y  Y6  1  0.680917  0.181587  0.717278  1
  Y  Y7  1  0.036361  0.535692  0.717278  1
  Y  Y8  1  0.535692  0.680917  0.717278  1
  Ho  Ho9  1  0.500000  0.500000  0.000000  1
  Co  Co10  1  0.610057  0.111607  0.000000  1
  Co  Co11  1  0.111607  0.389944  0.000000  1
  Co  Co12  1  0.888393  0.610057  0.000000  1
  Co  Co13  1  0.389944  0.888393  0.000000  1
  Rh  Rh14  1  0.250062  0.250062  0.500124  1
  Rh  Rh15  1  0.749938  0.749938  0.499876  1
