# generated using pymatgen
data_Li3V2Ni9As7
_symmetry_space_group_name_H-M   'P 1'
_cell_length_a   9.39334741
_cell_length_b   9.46068646
_cell_length_c   3.72100800
_cell_angle_alpha   90.00000000
_cell_angle_beta   90.00000000
_cell_angle_gamma   120.00752486
_symmetry_Int_Tables_number   1
_chemical_formula_structural   Li3V2Ni9As7
_chemical_formula_sum   'Li3 V2 Ni9 As7'
_cell_volume   286.35273427
_cell_formula_units_Z   1
loop_
 _symmetry_equiv_pos_site_id
 _symmetry_equiv_pos_as_xyz
  1  'x, y, z'
loop_
 _atom_site_type_symbol
 _atom_site_label
 _atom_site_symmetry_multiplicity
 _atom_site_fract_x
 _atom_site_fract_y
 _atom_site_fract_z
 _atom_site_occupancy
  Li  Li0  1  0.790411  0.231910  0.500000  1
  Li  Li1  1  0.332876  0.670247  0.000000  1
  Li  Li2  1  0.999805  0.996690  0.500000  1
  V  V3  1  0.756049  0.550767  0.500000  1
  V  V4  1  0.448990  0.213598  0.500000  1
  Ni  Ni5  1  0.281283  0.380180  0.500000  1
  Ni  Ni6  1  0.623589  0.903743  0.500000  1
  Ni  Ni7  1  0.099450  0.717944  0.500000  1
  Ni  Ni8  1  0.501786  0.455550  0.000000  1
  Ni  Ni9  1  0.550094  0.051544  0.000000  1
  Ni  Ni10  1  0.949921  0.494050  0.000000  1
  Ni  Ni11  1  0.718645  0.761495  0.000000  1
  Ni  Ni12  1  0.235770  0.958524  0.000000  1
  Ni  Ni13  1  0.044220  0.279188  0.000000  1
  As  As14  1  0.958865  0.749633  0.000000  1
  As  As15  1  0.246981  0.207072  0.000000  1
  As  As16  1  0.796012  0.035529  0.000000  1
  As  As17  1  0.665013  0.334652  0.000000  1
  As  As18  1  0.536114  0.625328  0.500000  1
  As  As19  1  0.375869  0.918938  0.500000  1
  As  As20  1  0.088257  0.463415  0.500000  1
