# generated using pymatgen
data_YHo7(B6Os)4
_symmetry_space_group_name_H-M   'P 1'
_cell_length_a   3.64448200
_cell_length_b   9.13359870
_cell_length_c   11.51468557
_cell_angle_alpha   89.99240500
_cell_angle_beta   90.00000000
_cell_angle_gamma   90.00000000
_symmetry_Int_Tables_number   1
_chemical_formula_structural   YHo7(B6Os)4
_chemical_formula_sum   'Y1 Ho7 B24 Os4'
_cell_volume   383.29205332
_cell_formula_units_Z   1
loop_
 _symmetry_equiv_pos_site_id
 _symmetry_equiv_pos_as_xyz
  1  'x, y, z'
loop_
 _atom_site_type_symbol
 _atom_site_label
 _atom_site_symmetry_multiplicity
 _atom_site_fract_x
 _atom_site_fract_y
 _atom_site_fract_z
 _atom_site_occupancy
  Y  Y0  1  0.000000  0.322255  0.413815  1
  Ho  Ho1  1  0.000000  0.677612  0.586203  1
  Ho  Ho2  1  0.000000  0.822462  0.086038  1
  Ho  Ho3  1  0.000000  0.177550  0.913906  1
  Ho  Ho4  1  0.000000  0.943877  0.372952  1
  Ho  Ho5  1  0.000000  0.056023  0.627188  1
  Ho  Ho6  1  0.000000  0.443971  0.126789  1
  Ho  Ho7  1  0.000000  0.556064  0.873238  1
  B  B8  1  0.500000  0.554155  0.433147  1
  B  B9  1  0.500000  0.446521  0.567235  1
  B  B10  1  0.500000  0.053541  0.066589  1
  B  B11  1  0.500000  0.946218  0.933201  1
  B  B12  1  0.500000  0.747990  0.420036  1
  B  B13  1  0.500000  0.252151  0.580473  1
  B  B14  1  0.500000  0.247616  0.079647  1
  B  B15  1  0.500000  0.752300  0.920160  1
  B  B16  1  0.500000  0.791248  0.266378  1
  B  B17  1  0.500000  0.208832  0.733742  1
  B  B18  1  0.500000  0.290877  0.232917  1
  B  B19  1  0.500000  0.708907  0.766748  1
  B  B20  1  0.500000  0.632236  0.185161  1
  B  B21  1  0.500000  0.368005  0.814794  1
  B  B22  1  0.500000  0.131573  0.314254  1
  B  B23  1  0.500000  0.868029  0.685524  1
  B  B24  1  0.500000  0.982888  0.212861  1
  B  B25  1  0.500000  0.016920  0.787086  1
  B  B26  1  0.500000  0.483499  0.286542  1
  B  B27  1  0.500000  0.517032  0.713347  1
  B  B28  1  0.500000  0.608893  0.030122  1
  B  B29  1  0.500000  0.391189  0.969840  1
  B  B30  1  0.500000  0.107664  0.470161  1
  B  B31  1  0.500000  0.891871  0.530060  1
  Os  Os32  1  0.000000  0.637637  0.321300  1
  Os  Os33  1  0.000000  0.362748  0.678909  1
  Os  Os34  1  0.000000  0.136933  0.178083  1
  Os  Os35  1  0.000000  0.862713  0.821554  1
