# generated using pymatgen
data_Zr2AlCuRh4
_symmetry_space_group_name_H-M   'P 1'
_cell_length_a   5.48525201
_cell_length_b   5.48525161
_cell_length_c   8.42827300
_cell_angle_alpha   89.99981392
_cell_angle_beta   89.99981397
_cell_angle_gamma   100.88196799
_symmetry_Int_Tables_number   1
_chemical_formula_structural   Zr2AlCuRh4
_chemical_formula_sum   'Zr4 Al2 Cu2 Rh8'
_cell_volume   249.02976531
_cell_formula_units_Z   2
loop_
 _symmetry_equiv_pos_site_id
 _symmetry_equiv_pos_as_xyz
  1  'x, y, z'
loop_
 _atom_site_type_symbol
 _atom_site_label
 _atom_site_symmetry_multiplicity
 _atom_site_fract_x
 _atom_site_fract_y
 _atom_site_fract_z
 _atom_site_occupancy
  Zr  Zr0  1  0.774089  0.225911  0.500000  1
  Zr  Zr1  1  0.225890  0.774110  0.000000  1
  Zr  Zr2  1  0.225911  0.774089  0.500000  1
  Zr  Zr3  1  0.774110  0.225890  0.000000  1
  Al  Al4  1  0.500259  0.500259  0.750014  1
  Al  Al5  1  0.499741  0.499741  0.249986  1
  Cu  Cu6  1  0.000081  0.000081  0.250019  1
  Cu  Cu7  1  0.999919  0.999919  0.749981  1
  Rh  Rh8  1  0.724191  0.724191  0.000093  1
  Rh  Rh9  1  0.724195  0.724195  0.499909  1
  Rh  Rh10  1  0.275809  0.275809  0.999907  1
  Rh  Rh11  1  0.275805  0.275805  0.500091  1
  Rh  Rh12  1  0.499982  0.000066  0.749988  1
  Rh  Rh13  1  0.500018  0.999934  0.250012  1
  Rh  Rh14  1  0.000066  0.499982  0.749988  1
  Rh  Rh15  1  0.999934  0.500018  0.250012  1
