# generated using pymatgen
data_Tm3Sc2ZnPt3
_symmetry_space_group_name_H-M   'P 1'
_cell_length_a   7.19759345
_cell_length_b   7.19759372
_cell_length_c   4.27162300
_cell_angle_alpha   90.00000000
_cell_angle_beta   90.00000000
_cell_angle_gamma   121.16106213
_symmetry_Int_Tables_number   1
_chemical_formula_structural   Tm3Sc2ZnPt3
_chemical_formula_sum   'Tm3 Sc2 Zn1 Pt3'
_cell_volume   189.36393341
_cell_formula_units_Z   1
loop_
 _symmetry_equiv_pos_site_id
 _symmetry_equiv_pos_as_xyz
  1  'x, y, z'
loop_
 _atom_site_type_symbol
 _atom_site_label
 _atom_site_symmetry_multiplicity
 _atom_site_fract_x
 _atom_site_fract_y
 _atom_site_fract_z
 _atom_site_occupancy
  Tm  Tm0  1  0.589412  0.979736  0.000000  1
  Tm  Tm1  1  0.433602  0.433602  0.000000  1
  Tm  Tm2  1  0.979736  0.589413  0.000000  1
  Sc  Sc3  1  0.244815  0.997146  0.500000  1
  Sc  Sc4  1  0.997146  0.244815  0.500000  1
  Zn  Zn5  1  0.753869  0.753870  0.500000  1
  Pt  Pt6  1  0.015645  0.015645  0.000000  1
  Pt  Pt7  1  0.661609  0.324166  0.500000  1
  Pt  Pt8  1  0.324165  0.661609  0.500000  1
