# generated using pymatgen
data_Pr3Cd2Sn5Pd4
_symmetry_space_group_name_H-M   'P 1'
_cell_length_a   4.65677500
_cell_length_b   10.03933700
_cell_length_c   13.92573700
_cell_angle_alpha   90.00000000
_cell_angle_beta   90.00000000
_cell_angle_gamma   90.00000000
_symmetry_Int_Tables_number   1
_chemical_formula_structural   Pr3Cd2Sn5Pd4
_chemical_formula_sum   'Pr6 Cd4 Sn10 Pd8'
_cell_volume   651.04120524
_cell_formula_units_Z   2
loop_
 _symmetry_equiv_pos_site_id
 _symmetry_equiv_pos_as_xyz
  1  'x, y, z'
loop_
 _atom_site_type_symbol
 _atom_site_label
 _atom_site_symmetry_multiplicity
 _atom_site_fract_x
 _atom_site_fract_y
 _atom_site_fract_z
 _atom_site_occupancy
  Pr  Pr0  1  0.000000  0.242253  0.000000  1
  Pr  Pr1  1  0.500000  0.757747  0.500000  1
  Pr  Pr2  1  0.000000  0.244523  0.310222  1
  Pr  Pr3  1  0.500000  0.755477  0.189778  1
  Pr  Pr4  1  0.000000  0.244523  0.689778  1
  Pr  Pr5  1  0.500000  0.755477  0.810222  1
  Cd  Cd6  1  0.500000  0.970114  0.000000  1
  Cd  Cd7  1  0.000000  0.029886  0.500000  1
  Cd  Cd8  1  0.500000  0.543569  0.000000  1
  Cd  Cd9  1  0.000000  0.456431  0.500000  1
  Sn  Sn10  1  0.000000  0.515339  0.153037  1
  Sn  Sn11  1  0.500000  0.484661  0.346963  1
  Sn  Sn12  1  0.000000  0.515339  0.846963  1
  Sn  Sn13  1  0.500000  0.484661  0.653037  1
  Sn  Sn14  1  0.000000  0.881324  0.325825  1
  Sn  Sn15  1  0.500000  0.118676  0.174175  1
  Sn  Sn16  1  0.000000  0.881324  0.674175  1
  Sn  Sn17  1  0.500000  0.118676  0.825825  1
  Sn  Sn18  1  0.000000  0.770297  0.000000  1
  Sn  Sn19  1  0.500000  0.229703  0.500000  1
  Pd  Pd20  1  0.000000  0.978568  0.136216  1
  Pd  Pd21  1  0.500000  0.021432  0.363784  1
  Pd  Pd22  1  0.000000  0.978568  0.863784  1
  Pd  Pd23  1  0.500000  0.021432  0.636216  1
  Pd  Pd24  1  0.000000  0.614879  0.338021  1
  Pd  Pd25  1  0.500000  0.385121  0.161979  1
  Pd  Pd26  1  0.000000  0.614879  0.661979  1
  Pd  Pd27  1  0.500000  0.385121  0.838021  1
