# generated using pymatgen
data_Tb17Er3(Cd3Ni)2
_symmetry_space_group_name_H-M   'P 1'
_cell_length_a   9.60544770
_cell_length_b   9.60544733
_cell_length_c   9.80756609
_cell_angle_alpha   89.98664185
_cell_angle_beta   90.01335635
_cell_angle_gamma   119.95841057
_symmetry_Int_Tables_number   1
_chemical_formula_structural   Tb17Er3(Cd3Ni)2
_chemical_formula_sum   'Tb17 Er3 Cd6 Ni2'
_cell_volume   783.98710338
_cell_formula_units_Z   1
loop_
 _symmetry_equiv_pos_site_id
 _symmetry_equiv_pos_as_xyz
  1  'x, y, z'
loop_
 _atom_site_type_symbol
 _atom_site_label
 _atom_site_symmetry_multiplicity
 _atom_site_fract_x
 _atom_site_fract_y
 _atom_site_fract_z
 _atom_site_occupancy
  Tb  Tb0  1  0.543525  0.456475  0.249936  1
  Tb  Tb1  1  0.542945  0.086373  0.250414  1
  Tb  Tb2  1  0.913627  0.457055  0.250414  1
  Tb  Tb3  1  0.456199  0.543801  0.750211  1
  Tb  Tb4  1  0.455677  0.912092  0.749120  1
  Tb  Tb5  1  0.087908  0.544323  0.749120  1
  Tb  Tb6  1  0.209753  0.420655  0.436372  1
  Tb  Tb7  1  0.579345  0.790247  0.436372  1
  Tb  Tb8  1  0.790501  0.209499  0.563377  1
  Tb  Tb9  1  0.790861  0.580804  0.563191  1
  Tb  Tb10  1  0.419196  0.209139  0.563191  1
  Tb  Tb11  1  0.790205  0.209795  0.936714  1
  Tb  Tb12  1  0.790551  0.581079  0.936760  1
  Tb  Tb13  1  0.418921  0.209449  0.936760  1
  Tb  Tb14  1  0.209844  0.790156  0.064716  1
  Tb  Tb15  1  0.209623  0.419113  0.063176  1
  Tb  Tb16  1  0.580887  0.790377  0.063176  1
  Er  Er17  1  0.000500  0.999500  0.499874  1
  Er  Er18  1  0.000016  0.999984  0.999790  1
  Er  Er19  1  0.209863  0.790137  0.436500  1
  Cd  Cd20  1  0.886135  0.113865  0.250055  1
  Cd  Cd21  1  0.886400  0.772203  0.250167  1
  Cd  Cd22  1  0.227797  0.113600  0.250167  1
  Cd  Cd23  1  0.114056  0.885944  0.749599  1
  Cd  Cd24  1  0.113968  0.227916  0.750004  1
  Cd  Cd25  1  0.772084  0.886032  0.750004  1
  Ni  Ni26  1  0.332912  0.667088  0.250867  1
  Ni  Ni27  1  0.666700  0.333300  0.749953  1
