# generated using pymatgen
data_Sr4Sc2MoRhO12
_symmetry_space_group_name_H-M   'P 1'
_cell_length_a   5.70248982
_cell_length_b   5.71402362
_cell_length_c   9.91903370
_cell_angle_alpha   54.65141221
_cell_angle_beta   90.13986571
_cell_angle_gamma   89.99216929
_symmetry_Int_Tables_number   1
_chemical_formula_structural   Sr4Sc2MoRhO12
_chemical_formula_sum   'Sr4 Sc2 Mo1 Rh1 O12'
_cell_volume   263.61870508
_cell_formula_units_Z   1
loop_
 _symmetry_equiv_pos_site_id
 _symmetry_equiv_pos_as_xyz
  1  'x, y, z'
loop_
 _atom_site_type_symbol
 _atom_site_label
 _atom_site_symmetry_multiplicity
 _atom_site_fract_x
 _atom_site_fract_y
 _atom_site_fract_z
 _atom_site_occupancy
  Sr  Sr0  1  0.482415  0.765149  0.237393  1
  Sr  Sr1  1  0.517585  0.234851  0.762607  1
  Sr  Sr2  1  0.976905  0.259704  0.236679  1
  Sr  Sr3  1  0.023095  0.740296  0.763321  1
  Sc  Sc4  1  0.000000  0.000000  0.000000  1
  Sc  Sc5  1  0.500000  0.000000  0.500000  1
  Mo  Mo6  1  0.000000  0.500000  0.500000  1
  Rh  Rh7  1  0.500000  0.500000  0.000000  1
  O  O8  1  0.724222  0.202270  0.027803  1
  O  O9  1  0.275778  0.797730  0.972197  1
  O  O10  1  0.213282  0.792620  0.470359  1
  O  O11  1  0.786718  0.207380  0.529641  1
  O  O12  1  0.006773  0.681994  0.262023  1
  O  O13  1  0.993227  0.318006  0.737977  1
  O  O14  1  0.508153  0.306508  0.249838  1
  O  O15  1  0.491847  0.693492  0.750162  1
  O  O16  1  0.230100  0.248599  0.028480  1
  O  O17  1  0.769900  0.751401  0.971520  1
  O  O18  1  0.734924  0.741760  0.469827  1
  O  O19  1  0.265076  0.258240  0.530173  1
