# generated using pymatgen
data_TbLu4Cu(P2Ru3)6
_symmetry_space_group_name_H-M   'P 1'
_cell_length_a   3.95188000
_cell_length_b   12.58692643
_cell_length_c   12.38049500
_cell_angle_alpha   119.45291443
_cell_angle_beta   90.00000000
_cell_angle_gamma   90.00000000
_symmetry_Int_Tables_number   1
_chemical_formula_structural   TbLu4Cu(P2Ru3)6
_chemical_formula_sum   'Tb1 Lu4 Cu1 P12 Ru18'
_cell_volume   536.24092988
_cell_formula_units_Z   1
loop_
 _symmetry_equiv_pos_site_id
 _symmetry_equiv_pos_as_xyz
  1  'x, y, z'
loop_
 _atom_site_type_symbol
 _atom_site_label
 _atom_site_symmetry_multiplicity
 _atom_site_fract_x
 _atom_site_fract_y
 _atom_site_fract_z
 _atom_site_occupancy
  Tb  Tb0  1  0.500000  0.818226  0.814890  1
  Lu  Lu1  1  0.500000  0.999977  0.182397  1
  Lu  Lu2  1  0.500000  0.181603  0.997173  1
  Lu  Lu3  1  0.000000  0.343286  0.670754  1
  Lu  Lu4  1  0.000000  0.656151  0.327138  1
  Cu  Cu5  1  0.000000  0.000038  0.552236  1
  P  P6  1  0.000000  0.000585  0.807956  1
  P  P7  1  0.000000  0.820989  0.004051  1
  P  P8  1  0.000000  0.179734  0.183407  1
  P  P9  1  0.500000  0.307513  0.482189  1
  P  P10  1  0.500000  0.185735  0.701159  1
  P  P11  1  0.500000  0.527700  0.834513  1
  P  P12  1  0.500000  0.814493  0.515564  1
  P  P13  1  0.500000  0.471973  0.306506  1
  P  P14  1  0.500000  0.692233  0.175052  1
  P  P15  1  0.000000  0.000073  0.367090  1
  P  P16  1  0.000000  0.372815  0.999408  1
  P  P17  1  0.000000  0.626608  0.626179  1
  Ru  Ru18  1  0.000000  0.556790  0.002937  1
  Ru  Ru19  1  0.000000  0.442978  0.445547  1
  Ru  Ru20  1  0.500000  0.000703  0.704619  1
  Ru  Ru21  1  0.500000  0.721946  0.005047  1
  Ru  Ru22  1  0.500000  0.277710  0.282049  1
  Ru  Ru23  1  0.000000  0.192666  0.381489  1
  Ru  Ru24  1  0.000000  0.186627  0.804229  1
  Ru  Ru25  1  0.000000  0.628021  0.817904  1
  Ru  Ru26  1  0.000000  0.814068  0.615878  1
  Ru  Ru27  1  0.000000  0.370117  0.187679  1
  Ru  Ru28  1  0.000000  0.807536  0.189069  1
  Ru  Ru29  1  0.500000  0.125440  0.495404  1
  Ru  Ru30  1  0.500000  0.370997  0.878801  1
  Ru  Ru31  1  0.500000  0.507080  0.637314  1
  Ru  Ru32  1  0.500000  0.628673  0.507390  1
  Ru  Ru33  1  0.500000  0.492427  0.130234  1
  Ru  Ru34  1  0.500000  0.874477  0.370114  1
  Ru  Ru35  1  0.000000  0.001911  0.996635  1
