# generated using pymatgen
data_La2Ho2CoI5
_symmetry_space_group_name_H-M   'P 1'
_cell_length_a   9.78265796
_cell_length_b   9.78265801
_cell_length_c   9.16767524
_cell_angle_alpha   76.51960679
_cell_angle_beta   76.51960630
_cell_angle_gamma   25.12228184
_symmetry_Int_Tables_number   1
_chemical_formula_structural   La2Ho2CoI5
_chemical_formula_sum   'La2 Ho2 Co1 I5'
_cell_volume   361.70139816
_cell_formula_units_Z   1
loop_
 _symmetry_equiv_pos_site_id
 _symmetry_equiv_pos_as_xyz
  1  'x, y, z'
loop_
 _atom_site_type_symbol
 _atom_site_label
 _atom_site_symmetry_multiplicity
 _atom_site_fract_x
 _atom_site_fract_y
 _atom_site_fract_z
 _atom_site_occupancy
  La  La0  1  0.867149  0.867149  0.068381  1
  La  La1  1  0.132851  0.132851  0.931619  1
  Ho  Ho2  1  0.499997  0.499997  0.208010  1
  Ho  Ho3  1  0.500003  0.500003  0.791990  1
  Co  Co4  1  0.000000  0.000000  0.000000  1
  I  I5  1  0.669979  0.669979  0.180820  1
  I  I6  1  0.330021  0.330021  0.819180  1
  I  I7  1  0.664570  0.664570  0.651372  1
  I  I8  1  0.335430  0.335430  0.348628  1
  I  I9  1  0.000000  0.000000  0.500000  1
