# generated using pymatgen
data_Tm3LuAl18(IrPt)3
_symmetry_space_group_name_H-M   'P 1'
_cell_length_a   7.57039176
_cell_length_b   7.57239921
_cell_length_c   9.37760498
_cell_angle_alpha   89.97116225
_cell_angle_beta   89.97642520
_cell_angle_gamma   119.63522647
_symmetry_Int_Tables_number   1
_chemical_formula_structural   Tm3LuAl18(IrPt)3
_chemical_formula_sum   'Tm3 Lu1 Al18 Ir3 Pt3'
_cell_volume   467.26028720
_cell_formula_units_Z   1
loop_
 _symmetry_equiv_pos_site_id
 _symmetry_equiv_pos_as_xyz
  1  'x, y, z'
loop_
 _atom_site_type_symbol
 _atom_site_label
 _atom_site_symmetry_multiplicity
 _atom_site_fract_x
 _atom_site_fract_y
 _atom_site_fract_z
 _atom_site_occupancy
  Tm  Tm0  1  0.995864  0.671087  0.250752  1
  Tm  Tm1  1  0.004993  0.329073  0.749211  1
  Tm  Tm2  1  0.670402  0.994598  0.250714  1
  Lu  Lu3  1  0.328533  0.004743  0.748990  1
  Al  Al4  1  0.126169  0.126639  0.250484  1
  Al  Al5  1  0.873211  0.873810  0.749566  1
  Al  Al6  1  0.999527  0.331865  0.077324  1
  Al  Al7  1  0.000324  0.668884  0.921782  1
  Al  Al8  1  0.997989  0.664972  0.576344  1
  Al  Al9  1  0.335249  0.002319  0.424289  1
  Al  Al10  1  0.995961  0.331188  0.423946  1
  Al  Al11  1  0.668300  0.003936  0.576462  1
  Al  Al12  1  0.667688  0.000522  0.922241  1
  Al  Al13  1  0.331387  0.000124  0.077519  1
  Al  Al14  1  0.332311  0.328832  0.554179  1
  Al  Al15  1  0.671355  0.667973  0.446280  1
  Al  Al16  1  0.670180  0.670367  0.057749  1
  Al  Al17  1  0.329922  0.329945  0.941781  1
  Al  Al18  1  0.340264  0.546091  0.250548  1
  Al  Al19  1  0.658877  0.451028  0.747594  1
  Al  Al20  1  0.548592  0.340738  0.252613  1
  Al  Al21  1  0.453348  0.659928  0.749458  1
  Ir  Ir22  1  0.672201  0.327786  0.500152  1
  Ir  Ir23  1  0.000084  0.000519  0.999725  1
  Ir  Ir24  1  0.000708  0.999840  0.500292  1
  Pt  Pt25  1  0.672080  0.327492  0.000029  1
  Pt  Pt26  1  0.327151  0.672996  0.999889  1
  Pt  Pt27  1  0.327326  0.672707  0.500083  1
