# generated using pymatgen
data_NaAc3(CrN3)2
_symmetry_space_group_name_H-M   'P 1'
_cell_length_a   6.32310635
_cell_length_b   6.32310682
_cell_length_c   12.47220362
_cell_angle_alpha   88.95425013
_cell_angle_beta   91.04574972
_cell_angle_gamma   127.02268407
_symmetry_Int_Tables_number   1
_chemical_formula_structural   NaAc3(CrN3)2
_chemical_formula_sum   'Na2 Ac6 Cr4 N12'
_cell_volume   398.04565032
_cell_formula_units_Z   2
loop_
 _symmetry_equiv_pos_site_id
 _symmetry_equiv_pos_as_xyz
  1  'x, y, z'
loop_
 _atom_site_type_symbol
 _atom_site_label
 _atom_site_symmetry_multiplicity
 _atom_site_fract_x
 _atom_site_fract_y
 _atom_site_fract_z
 _atom_site_occupancy
  Na  Na0  1  0.556513  0.443487  0.632834  1
  Na  Na1  1  0.443487  0.556513  0.367166  1
  Ac  Ac2  1  0.942277  0.057723  0.144068  1
  Ac  Ac3  1  0.057723  0.942277  0.855932  1
  Ac  Ac4  1  0.855439  0.144561  0.583305  1
  Ac  Ac5  1  0.144561  0.855439  0.416695  1
  Ac  Ac6  1  0.644089  0.355911  0.076221  1
  Ac  Ac7  1  0.355911  0.644089  0.923779  1
  Cr  Cr8  1  0.735389  0.264611  0.834949  1
  Cr  Cr9  1  0.264611  0.735389  0.165051  1
  Cr  Cr10  1  0.763431  0.236569  0.335924  1
  Cr  Cr11  1  0.236569  0.763431  0.664076  1
  N  N12  1  0.843874  0.156126  0.956945  1
  N  N13  1  0.156126  0.843874  0.043055  1
  N  N14  1  0.673283  0.326717  0.449553  1
  N  N15  1  0.326717  0.673283  0.550447  1
  N  N16  1  0.582108  0.417892  0.870786  1
  N  N17  1  0.417892  0.582108  0.129214  1
  N  N18  1  0.917801  0.082199  0.373523  1
  N  N19  1  0.082199  0.917801  0.626477  1
  N  N20  1  0.514596  0.981713  0.752615  1
  N  N21  1  0.981713  0.514596  0.247385  1
  N  N22  1  0.485404  0.018287  0.247385  1
  N  N23  1  0.018287  0.485404  0.752615  1
