# generated using pymatgen
data_Tm4V3Fe5(PRh)12
_symmetry_space_group_name_H-M   'P 1'
_cell_length_a   3.79903000
_cell_length_b   10.63721820
_cell_length_c   12.39979645
_cell_angle_alpha   90.37485218
_cell_angle_beta   90.00000000
_cell_angle_gamma   90.00000000
_symmetry_Int_Tables_number   1
_chemical_formula_structural   Tm4V3Fe5(PRh)12
_chemical_formula_sum   'Tm4 V3 Fe5 P12 Rh12'
_cell_volume   501.07882742
_cell_formula_units_Z   1
loop_
 _symmetry_equiv_pos_site_id
 _symmetry_equiv_pos_as_xyz
  1  'x, y, z'
loop_
 _atom_site_type_symbol
 _atom_site_label
 _atom_site_symmetry_multiplicity
 _atom_site_fract_x
 _atom_site_fract_y
 _atom_site_fract_z
 _atom_site_occupancy
  Tm  Tm0  1  0.250000  0.579459  0.712415  1
  Tm  Tm1  1  0.250000  0.917213  0.207324  1
  Tm  Tm2  1  0.750000  0.421588  0.289226  1
  Tm  Tm3  1  0.750000  0.081573  0.795340  1
  V  V4  1  0.250000  0.697059  0.987481  1
  V  V5  1  0.250000  0.797158  0.488402  1
  V  V6  1  0.750000  0.301511  0.006474  1
  Fe  Fe7  1  0.750000  0.378470  0.800982  1
  Fe  Fe8  1  0.250000  0.462264  0.932621  1
  Fe  Fe9  1  0.250000  0.039742  0.437848  1
  Fe  Fe10  1  0.750000  0.536686  0.061465  1
  Fe  Fe11  1  0.750000  0.965381  0.565274  1
  P  P12  1  0.250000  0.426904  0.104203  1
  P  P13  1  0.250000  0.070968  0.610659  1
  P  P14  1  0.750000  0.563914  0.887202  1
  P  P15  1  0.750000  0.926730  0.394578  1
  P  P16  1  0.250000  0.272803  0.866467  1
  P  P17  1  0.250000  0.232288  0.367542  1
  P  P18  1  0.750000  0.729962  0.127852  1
  P  P19  1  0.750000  0.770581  0.630534  1
  P  P20  1  0.250000  0.600667  0.390670  1
  P  P21  1  0.250000  0.897739  0.891970  1
  P  P22  1  0.750000  0.403349  0.619803  1
  P  P23  1  0.750000  0.103513  0.107839  1
  Rh  Rh24  1  0.750000  0.210444  0.513165  1
  Rh  Rh25  1  0.250000  0.405481  0.483639  1
  Rh  Rh26  1  0.250000  0.097433  0.982510  1
  Rh  Rh27  1  0.750000  0.594369  0.518010  1
  Rh  Rh28  1  0.750000  0.905056  0.016772  1
  Rh  Rh29  1  0.250000  0.230630  0.176478  1
  Rh  Rh30  1  0.250000  0.270267  0.678152  1
  Rh  Rh31  1  0.750000  0.766523  0.823366  1
  Rh  Rh32  1  0.750000  0.730986  0.323792  1
  Rh  Rh33  1  0.250000  0.883457  0.700782  1
  Rh  Rh34  1  0.250000  0.614519  0.199152  1
  Rh  Rh35  1  0.750000  0.113313  0.300011  1
