# generated using pymatgen
data_Rb3Na(NpTe3)2
_symmetry_space_group_name_H-M   'P 1'
_cell_length_a   7.99149180
_cell_length_b   7.99149144
_cell_length_c   8.89811921
_cell_angle_alpha   81.36644226
_cell_angle_beta   81.36644916
_cell_angle_gamma   119.95904547
_symmetry_Int_Tables_number   1
_chemical_formula_structural   Rb3Na(NpTe3)2
_chemical_formula_sum   'Rb3 Na1 Np2 Te6'
_cell_volume   469.65414992
_cell_formula_units_Z   1
loop_
 _symmetry_equiv_pos_site_id
 _symmetry_equiv_pos_as_xyz
  1  'x, y, z'
loop_
 _atom_site_type_symbol
 _atom_site_label
 _atom_site_symmetry_multiplicity
 _atom_site_fract_x
 _atom_site_fract_y
 _atom_site_fract_z
 _atom_site_occupancy
  Rb  Rb0  1  0.656943  0.343057  0.500000  1
  Rb  Rb1  1  0.343057  0.656943  0.500000  1
  Rb  Rb2  1  0.000000  0.000000  0.500000  1
  Na  Na3  1  0.500000  0.500000  0.000000  1
  Np  Np4  1  0.832236  0.167764  0.000000  1
  Np  Np5  1  0.167764  0.832236  0.000000  1
  Te  Te6  1  0.790715  0.790715  0.194943  1
  Te  Te7  1  0.209285  0.209285  0.805057  1
  Te  Te8  1  0.432647  0.073707  0.200580  1
  Te  Te9  1  0.567353  0.926293  0.799420  1
  Te  Te10  1  0.926293  0.567353  0.799420  1
  Te  Te11  1  0.073707  0.432647  0.200580  1
