# generated using pymatgen
data_Tb4ErTm11(CdPt)4
_symmetry_space_group_name_H-M   'P 1'
_cell_length_a   9.59915904
_cell_length_b   9.58575478
_cell_length_c   9.58575549
_cell_angle_alpha   60.22943391
_cell_angle_beta   60.02115156
_cell_angle_gamma   60.02115590
_symmetry_Int_Tables_number   1
_chemical_formula_structural   Tb4ErTm11(CdPt)4
_chemical_formula_sum   'Tb4 Er1 Tm11 Cd4 Pt4'
_cell_volume   624.96761049
_cell_formula_units_Z   1
loop_
 _symmetry_equiv_pos_site_id
 _symmetry_equiv_pos_as_xyz
  1  'x, y, z'
loop_
 _atom_site_type_symbol
 _atom_site_label
 _atom_site_symmetry_multiplicity
 _atom_site_fract_x
 _atom_site_fract_y
 _atom_site_fract_z
 _atom_site_occupancy
  Tb  Tb0  1  0.564740  0.935279  0.564708  1
  Tb  Tb1  1  0.935382  0.564618  0.935375  1
  Tb  Tb2  1  0.564740  0.564708  0.935279  1
  Tb  Tb3  1  0.935382  0.935375  0.564618  1
  Er  Er4  1  0.352371  0.352347  0.352347  1
  Tm  Tm5  1  0.352314  0.352341  0.942983  1
  Tm  Tm6  1  0.352314  0.942983  0.352341  1
  Tm  Tm7  1  0.942979  0.352313  0.352313  1
  Tm  Tm8  1  0.811132  0.188933  0.188933  1
  Tm  Tm9  1  0.189193  0.810869  0.810869  1
  Tm  Tm10  1  0.188766  0.811276  0.188745  1
  Tm  Tm11  1  0.811105  0.188965  0.811050  1
  Tm  Tm12  1  0.188766  0.188745  0.811276  1
  Tm  Tm13  1  0.811105  0.811050  0.188965  1
  Tm  Tm14  1  0.937844  0.562170  0.562170  1
  Tm  Tm15  1  0.562060  0.937951  0.937951  1
  Cd  Cd16  1  0.582713  0.580891  0.580891  1
  Cd  Cd17  1  0.581117  0.582847  0.255500  1
  Cd  Cd18  1  0.581117  0.255500  0.582847  1
  Cd  Cd19  1  0.255492  0.581101  0.581101  1
  Pt  Pt20  1  0.144748  0.142901  0.142901  1
  Pt  Pt21  1  0.142387  0.144354  0.569992  1
  Pt  Pt22  1  0.142387  0.569992  0.144354  1
  Pt  Pt23  1  0.569845  0.142491  0.142491  1
