# generated using pymatgen
data_La12Ni(OsBr4)3
_symmetry_space_group_name_H-M   'P 1'
_cell_length_a   10.60808229
_cell_length_b   10.60808178
_cell_length_c   10.58995646
_cell_angle_alpha   109.15801947
_cell_angle_beta   109.15801596
_cell_angle_gamma   110.05068046
_symmetry_Int_Tables_number   1
_chemical_formula_structural   La12Ni(OsBr4)3
_chemical_formula_sum   'La12 Ni1 Os3 Br12'
_cell_volume   917.84841714
_cell_formula_units_Z   1
loop_
 _symmetry_equiv_pos_site_id
 _symmetry_equiv_pos_as_xyz
  1  'x, y, z'
loop_
 _atom_site_type_symbol
 _atom_site_label
 _atom_site_symmetry_multiplicity
 _atom_site_fract_x
 _atom_site_fract_y
 _atom_site_fract_z
 _atom_site_occupancy
  La  La0  1  0.391474  0.608526  0.000000  1
  La  La1  1  0.610035  0.389965  0.000000  1
  La  La2  1  0.644292  0.137485  0.283801  1
  La  La3  1  0.862515  0.355708  0.716199  1
  La  La4  1  0.407442  0.395905  0.262512  1
  La  La5  1  0.127887  0.141102  0.732833  1
  La  La6  1  0.124073  0.358491  0.512249  1
  La  La7  1  0.838094  0.607392  0.485109  1
  La  La8  1  0.604095  0.592558  0.737488  1
  La  La9  1  0.858898  0.872113  0.267167  1
  La  La10  1  0.641509  0.875927  0.487751  1
  La  La11  1  0.392608  0.161906  0.514891  1
  Ni  Ni12  1  0.624242  0.375758  0.500000  1
  Os  Os13  1  0.624291  0.622509  0.252754  1
  Os  Os14  1  0.377491  0.375709  0.747246  1
  Os  Os15  1  0.873128  0.126872  0.500000  1
  Br  Br16  1  0.369020  0.630980  0.500000  1
  Br  Br17  1  0.130478  0.869522  0.500000  1
  Br  Br18  1  0.120091  0.119908  0.239128  1
  Br  Br19  1  0.880092  0.879909  0.760872  1
  Br  Br20  1  0.884730  0.630460  0.002152  1
  Br  Br21  1  0.629870  0.884754  0.997375  1
  Br  Br22  1  0.620746  0.118589  0.753151  1
  Br  Br23  1  0.364953  0.868250  0.247452  1
  Br  Br24  1  0.369540  0.115270  0.997848  1
  Br  Br25  1  0.115246  0.370130  0.002625  1
  Br  Br26  1  0.881411  0.379254  0.246849  1
  Br  Br27  1  0.131750  0.635047  0.752548  1
