# generated using pymatgen
data_Lu5Tl2Bi
_symmetry_space_group_name_H-M   'P 1'
_cell_length_a   6.53963100
_cell_length_b   8.84380096
_cell_length_c   8.80281455
_cell_angle_alpha   119.66215655
_cell_angle_beta   89.99835116
_cell_angle_gamma   89.99943592
_symmetry_Int_Tables_number   1
_chemical_formula_structural   Lu5Tl2Bi
_chemical_formula_sum   'Lu10 Tl4 Bi2'
_cell_volume   442.39766695
_cell_formula_units_Z   2
loop_
 _symmetry_equiv_pos_site_id
 _symmetry_equiv_pos_as_xyz
  1  'x, y, z'
loop_
 _atom_site_type_symbol
 _atom_site_label
 _atom_site_symmetry_multiplicity
 _atom_site_fract_x
 _atom_site_fract_y
 _atom_site_fract_z
 _atom_site_occupancy
  Lu  Lu0  1  0.492173  0.328265  0.667145  1
  Lu  Lu1  1  0.492396  0.672100  0.339325  1
  Lu  Lu2  1  0.007630  0.672123  0.339289  1
  Lu  Lu3  1  0.007835  0.328170  0.667171  1
  Lu  Lu4  1  0.749990  0.225280  0.989353  1
  Lu  Lu5  1  0.750027  0.773827  0.762344  1
  Lu  Lu6  1  0.750014  0.999350  0.234690  1
  Lu  Lu7  1  0.250054  0.765971  0.001557  1
  Lu  Lu8  1  0.250007  0.233057  0.234467  1
  Lu  Lu9  1  0.250015  0.000319  0.765393  1
  Tl  Tl10  1  0.749896  0.000923  0.595388  1
  Tl  Tl11  1  0.250127  0.398223  0.004804  1
  Tl  Tl12  1  0.249779  0.601910  0.605784  1
  Tl  Tl13  1  0.250000  0.000249  0.397430  1
  Bi  Bi14  1  0.750050  0.603659  0.999603  1
  Bi  Bi15  1  0.750010  0.396575  0.396256  1
