# generated using pymatgen
data_Ce(Lu2Ru)2
_symmetry_space_group_name_H-M   'P 1'
_cell_length_a   6.27132151
_cell_length_b   7.11563092
_cell_length_c   8.48765997
_cell_angle_alpha   95.80821479
_cell_angle_beta   112.02319009
_cell_angle_gamma   92.38247302
_symmetry_Int_Tables_number   1
_chemical_formula_structural   Ce(Lu2Ru)2
_chemical_formula_sum   'Ce2 Lu8 Ru4'
_cell_volume   348.01637479
_cell_formula_units_Z   2
loop_
 _symmetry_equiv_pos_site_id
 _symmetry_equiv_pos_as_xyz
  1  'x, y, z'
loop_
 _atom_site_type_symbol
 _atom_site_label
 _atom_site_symmetry_multiplicity
 _atom_site_fract_x
 _atom_site_fract_y
 _atom_site_fract_z
 _atom_site_occupancy
  Ce  Ce0  1  0.507539  0.096195  0.808940  1
  Ce  Ce1  1  0.492461  0.903805  0.191060  1
  Lu  Lu2  1  0.711742  0.420521  0.190284  1
  Lu  Lu3  1  0.288258  0.579479  0.809716  1
  Lu  Lu4  1  0.291084  0.315143  0.431167  1
  Lu  Lu5  1  0.708916  0.684857  0.568833  1
  Lu  Lu6  1  0.860433  0.188013  0.566509  1
  Lu  Lu7  1  0.139567  0.811987  0.433491  1
  Lu  Lu8  1  0.075076  0.251035  0.003187  1
  Lu  Lu9  1  0.924924  0.748965  0.996813  1
  Ru  Ru10  1  0.332110  0.591930  0.222306  1
  Ru  Ru11  1  0.667890  0.408070  0.777694  1
  Ru  Ru12  1  0.127814  0.931744  0.780414  1
  Ru  Ru13  1  0.872186  0.068256  0.219586  1
