# generated using pymatgen
data_La4DyP12Ru16Pt3
_symmetry_space_group_name_H-M   'P 1'
_cell_length_a   12.76102900
_cell_length_b   12.76102900
_cell_length_c   4.02018400
_cell_angle_alpha   90.00000000
_cell_angle_beta   90.00000000
_cell_angle_gamma   120.00000260
_symmetry_Int_Tables_number   1
_chemical_formula_structural   La4DyP12Ru16Pt3
_chemical_formula_sum   'La4 Dy1 P12 Ru16 Pt3'
_cell_volume   566.95415475
_cell_formula_units_Z   1
loop_
 _symmetry_equiv_pos_site_id
 _symmetry_equiv_pos_as_xyz
  1  'x, y, z'
loop_
 _atom_site_type_symbol
 _atom_site_label
 _atom_site_symmetry_multiplicity
 _atom_site_fract_x
 _atom_site_fract_y
 _atom_site_fract_z
 _atom_site_occupancy
  La  La0  1  0.666667  0.333333  0.000000  1
  La  La1  1  0.816328  0.999689  0.500000  1
  La  La2  1  0.183362  0.183672  0.500000  1
  La  La3  1  0.000311  0.816638  0.500000  1
  Dy  Dy4  1  0.333333  0.666667  0.000000  1
  P  P5  1  0.622391  0.984782  0.000000  1
  P  P6  1  0.362392  0.377609  0.000000  1
  P  P7  1  0.015218  0.637608  0.000000  1
  P  P8  1  0.696852  0.529560  0.500000  1
  P  P9  1  0.832710  0.303148  0.500000  1
  P  P10  1  0.307294  0.826654  0.500000  1
  P  P11  1  0.519359  0.692706  0.500000  1
  P  P12  1  0.188047  0.999541  0.000000  1
  P  P13  1  0.811495  0.811953  0.000000  1
  P  P14  1  0.000459  0.188505  0.000000  1
  P  P15  1  0.470440  0.167290  0.500000  1
  P  P16  1  0.173346  0.480641  0.500000  1
  Ru  Ru17  1  0.615969  0.796246  0.000000  1
  Ru  Ru18  1  0.180277  0.384031  0.000000  1
  Ru  Ru19  1  0.380355  0.186481  0.000000  1
  Ru  Ru20  1  0.203754  0.819723  0.000000  1
  Ru  Ru21  1  0.806126  0.619645  0.000000  1
  Ru  Ru22  1  0.127547  0.634751  0.500000  1
  Ru  Ru23  1  0.365249  0.492797  0.500000  1
  Ru  Ru24  1  0.507203  0.872453  0.500000  1
  Ru  Ru25  1  0.000000  0.000000  0.000000  1
  Ru  Ru26  1  0.711697  0.712161  0.500000  1
  Ru  Ru27  1  0.000464  0.288303  0.500000  1
  Ru  Ru28  1  0.452326  0.004189  0.000000  1
  Ru  Ru29  1  0.551863  0.547674  0.000000  1
  Ru  Ru30  1  0.995811  0.448137  0.000000  1
  Ru  Ru31  1  0.813519  0.193874  0.000000  1
  Ru  Ru32  1  0.287839  0.999536  0.500000  1
  Pt  Pt33  1  0.872569  0.504991  0.500000  1
  Pt  Pt34  1  0.495009  0.367578  0.500000  1
  Pt  Pt35  1  0.632422  0.127431  0.500000  1
