# generated using pymatgen
data_NdSm3(NCl3)2
_symmetry_space_group_name_H-M   'P 1'
_cell_length_a   6.23879600
_cell_length_b   6.84865823
_cell_length_c   13.39444347
_cell_angle_alpha   90.03009635
_cell_angle_beta   90.00000000
_cell_angle_gamma   90.00000000
_symmetry_Int_Tables_number   1
_chemical_formula_structural   NdSm3(NCl3)2
_chemical_formula_sum   'Nd2 Sm6 N4 Cl12'
_cell_volume   572.30941829
_cell_formula_units_Z   2
loop_
 _symmetry_equiv_pos_site_id
 _symmetry_equiv_pos_as_xyz
  1  'x, y, z'
loop_
 _atom_site_type_symbol
 _atom_site_label
 _atom_site_symmetry_multiplicity
 _atom_site_fract_x
 _atom_site_fract_y
 _atom_site_fract_z
 _atom_site_occupancy
  Nd  Nd0  1  0.506164  0.676074  0.407858  1
  Nd  Nd1  1  0.006164  0.823926  0.092142  1
  Sm  Sm2  1  0.006761  0.326088  0.408997  1
  Sm  Sm3  1  0.506761  0.173912  0.091003  1
  Sm  Sm4  1  0.493315  0.327172  0.592115  1
  Sm  Sm5  1  0.993315  0.172828  0.907885  1
  Sm  Sm6  1  0.993031  0.671453  0.592441  1
  Sm  Sm7  1  0.493031  0.828547  0.907559  1
  N  N8  1  0.751055  0.490721  0.500961  1
  N  N9  1  0.251055  0.009279  0.999039  1
  N  N10  1  0.248958  0.506499  0.500910  1
  N  N11  1  0.748958  0.993501  0.999090  1
  Cl  Cl12  1  0.104253  0.361500  0.718557  1
  Cl  Cl13  1  0.604253  0.138500  0.781443  1
  Cl  Cl14  1  0.394498  0.359660  0.280996  1
  Cl  Cl15  1  0.894498  0.140340  0.219004  1
  Cl  Cl16  1  0.749175  0.500077  0.999408  1
  Cl  Cl17  1  0.249175  0.999923  0.500592  1
  Cl  Cl18  1  0.251083  0.497585  0.999225  1
  Cl  Cl19  1  0.751083  0.002415  0.500775  1
  Cl  Cl20  1  0.104104  0.861539  0.781846  1
  Cl  Cl21  1  0.604104  0.638461  0.718154  1
  Cl  Cl22  1  0.397602  0.862953  0.217030  1
  Cl  Cl23  1  0.897602  0.637047  0.282970  1
