# generated using pymatgen
data_Ba4Tc2O9
_symmetry_space_group_name_H-M   'P 1'
_cell_length_a   6.02958300
_cell_length_b   10.43397902
_cell_length_c   16.22362800
_cell_angle_alpha   90.00000000
_cell_angle_beta   90.00000000
_cell_angle_gamma   90.00342106
_symmetry_Int_Tables_number   1
_chemical_formula_structural   Ba4Tc2O9
_chemical_formula_sum   'Ba16 Tc8 O36'
_cell_volume   1020.66968444
_cell_formula_units_Z   4
loop_
 _symmetry_equiv_pos_site_id
 _symmetry_equiv_pos_as_xyz
  1  'x, y, z'
loop_
 _atom_site_type_symbol
 _atom_site_label
 _atom_site_symmetry_multiplicity
 _atom_site_fract_x
 _atom_site_fract_y
 _atom_site_fract_z
 _atom_site_occupancy
  Ba  Ba0  1  0.501585  0.500291  0.249159  1
  Ba  Ba1  1  0.998415  0.999709  0.749159  1
  Ba  Ba2  1  0.498415  0.499709  0.750841  1
  Ba  Ba3  1  0.001585  0.000291  0.250841  1
  Ba  Ba4  1  0.500367  0.830880  0.373496  1
  Ba  Ba5  1  0.999633  0.669120  0.873496  1
  Ba  Ba6  1  0.499633  0.169120  0.626504  1
  Ba  Ba7  1  0.000367  0.330880  0.126504  1
  Ba  Ba8  1  0.001795  0.336001  0.373657  1
  Ba  Ba9  1  0.498205  0.163999  0.873657  1
  Ba  Ba10  1  0.998205  0.663999  0.626343  1
  Ba  Ba11  1  0.501795  0.836001  0.126343  1
  Ba  Ba12  1  0.500000  0.500000  0.500000  1
  Ba  Ba13  1  0.000000  0.000000  0.000000  1
  Ba  Ba14  1  0.000000  0.000000  0.500000  1
  Ba  Ba15  1  0.500000  0.500000  0.000000  1
  Tc  Tc16  1  0.496400  0.833360  0.670801  1
  Tc  Tc17  1  0.003600  0.666640  0.170801  1
  Tc  Tc18  1  0.503600  0.166640  0.329199  1
  Tc  Tc19  1  0.996400  0.333360  0.829199  1
  Tc  Tc20  1  0.001071  0.332854  0.672951  1
  Tc  Tc21  1  0.498929  0.167146  0.172951  1
  Tc  Tc22  1  0.998929  0.667146  0.327049  1
  Tc  Tc23  1  0.501071  0.832854  0.827049  1
  O  O24  1  0.036668  0.506587  0.248940  1
  O  O25  1  0.463332  0.993413  0.748940  1
  O  O26  1  0.963332  0.493413  0.751060  1
  O  O27  1  0.536668  0.006587  0.251060  1
  O  O28  1  0.258169  0.272518  0.752278  1
  O  O29  1  0.241831  0.227482  0.252278  1
  O  O30  1  0.741831  0.727482  0.247722  1
  O  O31  1  0.758169  0.772518  0.747722  1
  O  O32  1  0.723364  0.265378  0.250148  1
  O  O33  1  0.776636  0.234622  0.750148  1
  O  O34  1  0.276636  0.734622  0.749852  1
  O  O35  1  0.223364  0.765378  0.249852  1
  O  O36  1  0.462710  0.319748  0.390015  1
  O  O37  1  0.037290  0.180252  0.890015  1
  O  O38  1  0.537290  0.680252  0.609985  1
  O  O39  1  0.962710  0.819748  0.109985  1
  O  O40  1  0.959493  0.820811  0.388085  1
  O  O41  1  0.540507  0.679189  0.888085  1
  O  O42  1  0.040507  0.179189  0.611915  1
  O  O43  1  0.459493  0.320811  0.111915  1
  O  O44  1  0.742473  0.386804  0.888771  1
  O  O45  1  0.757527  0.113196  0.388771  1
  O  O46  1  0.257527  0.613196  0.111229  1
  O  O47  1  0.242473  0.886804  0.611229  1
  O  O48  1  0.255666  0.891779  0.889779  1
  O  O49  1  0.244334  0.608221  0.389779  1
  O  O50  1  0.744334  0.108221  0.110221  1
  O  O51  1  0.755666  0.391779  0.610221  1
  O  O52  1  0.784675  0.572394  0.388025  1
  O  O53  1  0.715325  0.927606  0.888025  1
  O  O54  1  0.215325  0.427606  0.611975  1
  O  O55  1  0.284675  0.072394  0.111975  1
  O  O56  1  0.300036  0.068326  0.392136  1
  O  O57  1  0.199964  0.431674  0.892136  1
  O  O58  1  0.699964  0.931674  0.607864  1
  O  O59  1  0.800036  0.568326  0.107864  1
