# generated using pymatgen
data_Tb3Dy5(CdRu)2
_symmetry_space_group_name_H-M   'P 1'
_cell_length_a   9.63439677
_cell_length_b   9.63439794
_cell_length_c   9.63439700
_cell_angle_alpha   59.99999979
_cell_angle_beta   59.99999578
_cell_angle_gamma   59.99999921
_symmetry_Int_Tables_number   1
_chemical_formula_structural   Tb3Dy5(CdRu)2
_chemical_formula_sum   'Tb6 Dy10 Cd4 Ru4'
_cell_volume   632.35161402
_cell_formula_units_Z   2
loop_
 _symmetry_equiv_pos_site_id
 _symmetry_equiv_pos_as_xyz
  1  'x, y, z'
loop_
 _atom_site_type_symbol
 _atom_site_label
 _atom_site_symmetry_multiplicity
 _atom_site_fract_x
 _atom_site_fract_y
 _atom_site_fract_z
 _atom_site_occupancy
  Tb  Tb0  1  0.188987  0.811013  0.811013  1
  Tb  Tb1  1  0.811013  0.188987  0.188987  1
  Tb  Tb2  1  0.811013  0.188987  0.811013  1
  Tb  Tb3  1  0.188987  0.811013  0.188987  1
  Tb  Tb4  1  0.811013  0.811013  0.188987  1
  Tb  Tb5  1  0.188987  0.188987  0.811013  1
  Dy  Dy6  1  0.596320  0.596320  0.596320  1
  Dy  Dy7  1  0.596320  0.596320  0.211040  1
  Dy  Dy8  1  0.596320  0.211040  0.596320  1
  Dy  Dy9  1  0.211040  0.596320  0.596320  1
  Dy  Dy10  1  0.060807  0.439193  0.439193  1
  Dy  Dy11  1  0.439193  0.060807  0.060807  1
  Dy  Dy12  1  0.439193  0.060807  0.439193  1
  Dy  Dy13  1  0.060807  0.439193  0.060807  1
  Dy  Dy14  1  0.439193  0.439193  0.060807  1
  Dy  Dy15  1  0.060807  0.060807  0.439193  1
  Cd  Cd16  1  0.830196  0.830196  0.830196  1
  Cd  Cd17  1  0.830196  0.830196  0.509414  1
  Cd  Cd18  1  0.830196  0.509414  0.830196  1
  Cd  Cd19  1  0.509414  0.830196  0.830196  1
  Ru  Ru20  1  0.389522  0.389522  0.389522  1
  Ru  Ru21  1  0.389522  0.389522  0.831435  1
  Ru  Ru22  1  0.389522  0.831435  0.389522  1
  Ru  Ru23  1  0.831435  0.389522  0.389522  1
