# generated using pymatgen
data_Ho11Lu5(ScBi3)4
_symmetry_space_group_name_H-M   'P 1'
_cell_length_a   8.06735515
_cell_length_b   9.34410218
_cell_length_c   11.87914691
_cell_angle_alpha   89.99733137
_cell_angle_beta   89.91957813
_cell_angle_gamma   89.97801130
_symmetry_Int_Tables_number   1
_chemical_formula_structural   Ho11Lu5(ScBi3)4
_chemical_formula_sum   'Ho11 Lu5 Sc4 Bi12'
_cell_volume   895.47516967
_cell_formula_units_Z   1
loop_
 _symmetry_equiv_pos_site_id
 _symmetry_equiv_pos_as_xyz
  1  'x, y, z'
loop_
 _atom_site_type_symbol
 _atom_site_label
 _atom_site_symmetry_multiplicity
 _atom_site_fract_x
 _atom_site_fract_y
 _atom_site_fract_z
 _atom_site_occupancy
  Ho  Ho0  1  0.355140  0.250294  0.283961  1
  Ho  Ho1  1  0.645266  0.748987  0.716272  1
  Ho  Ho2  1  0.145125  0.749327  0.783681  1
  Ho  Ho3  1  0.854110  0.250233  0.216568  1
  Ho  Ho4  1  0.185457  0.250293  0.780832  1
  Ho  Ho5  1  0.814409  0.749531  0.218978  1
  Ho  Ho6  1  0.314349  0.749605  0.281031  1
  Ho  Ho7  1  0.685583  0.250106  0.718692  1
  Ho  Ho8  1  0.194650  0.065677  0.058376  1
  Ho  Ho9  1  0.805375  0.934402  0.941728  1
  Ho  Ho10  1  0.304878  0.934395  0.558315  1
  Lu  Lu11  1  0.804038  0.567069  0.941640  1
  Lu  Lu12  1  0.695394  0.067634  0.441752  1
  Lu  Lu13  1  0.196044  0.432807  0.058476  1
  Lu  Lu14  1  0.696109  0.432725  0.441676  1
  Lu  Lu15  1  0.304213  0.567060  0.558285  1
  Sc  Sc16  1  0.023091  0.249596  0.511941  1
  Sc  Sc17  1  0.975839  0.749989  0.488053  1
  Sc  Sc18  1  0.476050  0.749849  0.012112  1
  Sc  Sc19  1  0.523947  0.249981  0.987975  1
  Bi  Bi20  1  0.401343  0.252454  0.542770  1
  Bi  Bi21  1  0.599787  0.749381  0.456628  1
  Bi  Bi22  1  0.098945  0.746978  0.042898  1
  Bi  Bi23  1  0.900948  0.253056  0.957123  1
  Bi  Bi24  1  0.065327  0.003973  0.330843  1
  Bi  Bi25  1  0.934165  0.995699  0.669100  1
  Bi  Bi26  1  0.434216  0.995952  0.830416  1
  Bi  Bi27  1  0.934695  0.503818  0.669140  1
  Bi  Bi28  1  0.566092  0.003864  0.169648  1
  Bi  Bi29  1  0.065235  0.495615  0.330951  1
  Bi  Bi30  1  0.565344  0.495844  0.169380  1
  Bi  Bi31  1  0.434836  0.503807  0.830758  1
