# generated using pymatgen
data_Ho4Er4MgCdIr2
_symmetry_space_group_name_H-M   'P 1'
_cell_length_a   9.60547741
_cell_length_b   9.60547823
_cell_length_c   9.65377800
_cell_angle_alpha   59.83352343
_cell_angle_beta   59.83352058
_cell_angle_gamma   59.72576824
_symmetry_Int_Tables_number   1
_chemical_formula_structural   Ho4Er4MgCdIr2
_chemical_formula_sum   'Ho8 Er8 Mg2 Cd2 Ir4'
_cell_volume   626.93022268
_cell_formula_units_Z   2
loop_
 _symmetry_equiv_pos_site_id
 _symmetry_equiv_pos_as_xyz
  1  'x, y, z'
loop_
 _atom_site_type_symbol
 _atom_site_label
 _atom_site_symmetry_multiplicity
 _atom_site_fract_x
 _atom_site_fract_y
 _atom_site_fract_z
 _atom_site_occupancy
  Ho  Ho0  1  0.439692  0.439692  0.060308  1
  Ho  Ho1  1  0.062421  0.062421  0.437579  1
  Ho  Ho2  1  0.189459  0.812844  0.812563  1
  Ho  Ho3  1  0.812844  0.189459  0.185135  1
  Ho  Ho4  1  0.812844  0.189459  0.812563  1
  Ho  Ho5  1  0.189459  0.812844  0.185135  1
  Ho  Ho6  1  0.813359  0.813359  0.186641  1
  Ho  Ho7  1  0.187473  0.187473  0.812527  1
  Er  Er8  1  0.598424  0.598424  0.598121  1
  Er  Er9  1  0.598424  0.598424  0.205032  1
  Er  Er10  1  0.597049  0.208403  0.597274  1
  Er  Er11  1  0.208403  0.597049  0.597274  1
  Er  Er12  1  0.061308  0.437655  0.439300  1
  Er  Er13  1  0.437655  0.061308  0.061737  1
  Er  Er14  1  0.437655  0.061308  0.439300  1
  Er  Er15  1  0.061308  0.437655  0.061737  1
  Mg  Mg16  1  0.825847  0.825847  0.830026  1
  Mg  Mg17  1  0.825847  0.825847  0.518280  1
  Cd  Cd18  1  0.831509  0.505787  0.831352  1
  Cd  Cd19  1  0.505787  0.831509  0.831352  1
  Ir  Ir20  1  0.392358  0.392358  0.390244  1
  Ir  Ir21  1  0.392358  0.392358  0.825040  1
  Ir  Ir22  1  0.393399  0.825121  0.390740  1
  Ir  Ir23  1  0.825121  0.393399  0.390740  1
