# generated using pymatgen
data_CaLa7Tb2Si8O3
_symmetry_space_group_name_H-M   'P 1'
_cell_length_a   10.78087708
_cell_length_b   10.78087649
_cell_length_c   4.57749600
_cell_angle_alpha   90.00000000
_cell_angle_beta   90.00000000
_cell_angle_gamma   119.98571278
_symmetry_Int_Tables_number   1
_chemical_formula_structural   CaLa7Tb2Si8O3
_chemical_formula_sum   'Ca1 La7 Tb2 Si8 O3'
_cell_volume   460.81783238
_cell_formula_units_Z   1
loop_
 _symmetry_equiv_pos_site_id
 _symmetry_equiv_pos_as_xyz
  1  'x, y, z'
loop_
 _atom_site_type_symbol
 _atom_site_label
 _atom_site_symmetry_multiplicity
 _atom_site_fract_x
 _atom_site_fract_y
 _atom_site_fract_z
 _atom_site_occupancy
  Ca  Ca0  1  0.500000  0.500000  0.500000  1
  La  La1  1  0.211495  0.788505  0.000000  1
  La  La2  1  0.575300  0.782577  0.000000  1
  La  La3  1  0.782577  0.575300  0.000000  1
  La  La4  1  0.000000  0.000000  0.000000  1
  La  La5  1  0.217423  0.424700  0.000000  1
  La  La6  1  0.424700  0.217423  0.000000  1
  La  La7  1  0.788505  0.211495  0.000000  1
  Tb  Tb8  1  0.000000  0.500000  0.500000  1
  Tb  Tb9  1  0.500000  0.000000  0.500000  1
  Si  Si10  1  0.999758  0.777085  0.500000  1
  Si  Si11  1  0.000242  0.222915  0.500000  1
  Si  Si12  1  0.218431  0.218431  0.500000  1
  Si  Si13  1  0.777085  0.999758  0.500000  1
  Si  Si14  1  0.330459  0.669541  0.500000  1
  Si  Si15  1  0.222915  0.000242  0.500000  1
  Si  Si16  1  0.669541  0.330459  0.500000  1
  Si  Si17  1  0.781569  0.781569  0.500000  1
  O  O18  1  0.000000  0.500000  0.000000  1
  O  O19  1  0.500000  0.500000  0.000000  1
  O  O20  1  0.500000  0.000000  0.000000  1
