# generated using pymatgen
data_Pr2(AlAu2)3
_symmetry_space_group_name_H-M   'P 1'
_cell_length_a   8.82178128
_cell_length_b   8.82178119
_cell_length_c   8.82178124
_cell_angle_alpha   56.97077543
_cell_angle_beta   56.97078028
_cell_angle_gamma   56.97076743
_symmetry_Int_Tables_number   1
_chemical_formula_structural   Pr2(AlAu2)3
_chemical_formula_sum   'Pr4 Al6 Au12'
_cell_volume   451.54760158
_cell_formula_units_Z   2
loop_
 _symmetry_equiv_pos_site_id
 _symmetry_equiv_pos_as_xyz
  1  'x, y, z'
loop_
 _atom_site_type_symbol
 _atom_site_label
 _atom_site_symmetry_multiplicity
 _atom_site_fract_x
 _atom_site_fract_y
 _atom_site_fract_z
 _atom_site_occupancy
  Pr  Pr0  1  0.909032  0.909032  0.909032  1
  Pr  Pr1  1  0.409032  0.409032  0.409032  1
  Pr  Pr2  1  0.090968  0.090968  0.090968  1
  Pr  Pr3  1  0.590968  0.590968  0.590968  1
  Al  Al4  1  0.554564  0.750000  0.945436  1
  Al  Al5  1  0.945436  0.554564  0.750000  1
  Al  Al6  1  0.750000  0.945436  0.554564  1
  Al  Al7  1  0.445436  0.250000  0.054564  1
  Al  Al8  1  0.054564  0.445436  0.250000  1
  Al  Al9  1  0.250000  0.054564  0.445436  1
  Au  Au10  1  0.478038  0.866373  0.202883  1
  Au  Au11  1  0.202883  0.478038  0.866373  1
  Au  Au12  1  0.866373  0.202883  0.478038  1
  Au  Au13  1  0.702883  0.366373  0.978038  1
  Au  Au14  1  0.978038  0.702883  0.366373  1
  Au  Au15  1  0.366373  0.978038  0.702883  1
  Au  Au16  1  0.521962  0.133627  0.797117  1
  Au  Au17  1  0.797117  0.521962  0.133627  1
  Au  Au18  1  0.133627  0.797117  0.521962  1
  Au  Au19  1  0.297117  0.633627  0.021962  1
  Au  Au20  1  0.021962  0.297117  0.633627  1
  Au  Au21  1  0.633627  0.021962  0.297117  1
