# generated using pymatgen
data_Pr5Gd(WO7)2
_symmetry_space_group_name_H-M   'P 1'
_cell_length_a   6.72120158
_cell_length_b   6.68684946
_cell_length_c   7.74432200
_cell_angle_alpha   90.00000000
_cell_angle_beta   90.00000000
_cell_angle_gamma   108.99699263
_symmetry_Int_Tables_number   1
_chemical_formula_structural   Pr5Gd(WO7)2
_chemical_formula_sum   'Pr5 Gd1 W2 O14'
_cell_volume   329.10144048
_cell_formula_units_Z   1
loop_
 _symmetry_equiv_pos_site_id
 _symmetry_equiv_pos_as_xyz
  1  'x, y, z'
loop_
 _atom_site_type_symbol
 _atom_site_label
 _atom_site_symmetry_multiplicity
 _atom_site_fract_x
 _atom_site_fract_y
 _atom_site_fract_z
 _atom_site_occupancy
  Pr  Pr0  1  0.474789  0.478748  0.500805  1
  Pr  Pr1  1  0.474789  0.478748  0.999195  1
  Pr  Pr2  1  0.537458  0.996136  0.750000  1
  Pr  Pr3  1  0.993874  0.539631  0.250000  1
  Pr  Pr4  1  0.471163  0.995550  0.250000  1
  Gd  Gd5  1  0.994999  0.471750  0.750000  1
  W  W6  1  0.001933  0.002468  0.501636  1
  W  W7  1  0.001933  0.002468  0.998364  1
  O  O8  1  0.689669  0.925075  0.472763  1
  O  O9  1  0.949871  0.696178  0.534998  1
  O  O10  1  0.689669  0.925075  0.027237  1
  O  O11  1  0.949871  0.696178  0.965002  1
  O  O12  1  0.320095  0.082086  0.527157  1
  O  O13  1  0.069858  0.316081  0.475301  1
  O  O14  1  0.320095  0.082086  0.972843  1
  O  O15  1  0.069858  0.316081  0.024699  1
  O  O16  1  0.355050  0.623522  0.750000  1
  O  O17  1  0.628938  0.367997  0.250000  1
  O  O18  1  0.643185  0.367281  0.750000  1
  O  O19  1  0.358651  0.628101  0.250000  1
  O  O20  1  0.936397  0.069581  0.750000  1
  O  O21  1  0.067857  0.939177  0.250000  1
