# generated using pymatgen
data_HoEr2Th(CdCu2)2
_symmetry_space_group_name_H-M   'P 1'
_cell_length_a   7.62994505
_cell_length_b   7.62666078
_cell_length_c   3.69057600
_cell_angle_alpha   90.00000000
_cell_angle_beta   90.00000000
_cell_angle_gamma   91.16323849
_symmetry_Int_Tables_number   1
_chemical_formula_structural   HoEr2Th(CdCu2)2
_chemical_formula_sum   'Ho1 Er2 Th1 Cd2 Cu4'
_cell_volume   214.71405923
_cell_formula_units_Z   1
loop_
 _symmetry_equiv_pos_site_id
 _symmetry_equiv_pos_as_xyz
  1  'x, y, z'
loop_
 _atom_site_type_symbol
 _atom_site_label
 _atom_site_symmetry_multiplicity
 _atom_site_fract_x
 _atom_site_fract_y
 _atom_site_fract_z
 _atom_site_occupancy
  Ho  Ho0  1  0.176442  0.329329  0.500000  1
  Er  Er1  1  0.323725  0.823621  0.500000  1
  Er  Er2  1  0.829278  0.676398  0.500000  1
  Th  Th3  1  0.672696  0.172639  0.500000  1
  Cd  Cd4  1  0.006638  0.996291  0.000000  1
  Cd  Cd5  1  0.496561  0.506817  0.000000  1
  Cu  Cu6  1  0.119266  0.619698  0.000000  1
  Cu  Cu7  1  0.883062  0.383455  0.000000  1
  Cu  Cu8  1  0.617652  0.874422  0.000000  1
  Cu  Cu9  1  0.374681  0.117331  0.000000  1
