# generated using pymatgen
data_Er8CuSi16Tc11
_symmetry_space_group_name_H-M   'P 1'
_cell_length_a   6.77387648
_cell_length_b   6.77526256
_cell_length_c   12.70814100
_cell_angle_alpha   89.65734442
_cell_angle_beta   89.68947574
_cell_angle_gamma   89.65515409
_symmetry_Int_Tables_number   1
_chemical_formula_structural   Er8CuSi16Tc11
_chemical_formula_sum   'Er8 Cu1 Si16 Tc11'
_cell_volume   583.20803870
_cell_formula_units_Z   1
loop_
 _symmetry_equiv_pos_site_id
 _symmetry_equiv_pos_as_xyz
  1  'x, y, z'
loop_
 _atom_site_type_symbol
 _atom_site_label
 _atom_site_symmetry_multiplicity
 _atom_site_fract_x
 _atom_site_fract_y
 _atom_site_fract_z
 _atom_site_occupancy
  Er  Er0  1  0.333747  0.988284  0.466618  1
  Er  Er1  1  0.506817  0.843164  0.720731  1
  Er  Er2  1  0.500335  0.163301  0.219732  1
  Er  Er3  1  0.841925  0.504240  0.279968  1
  Er  Er4  1  0.159186  0.495894  0.782466  1
  Er  Er5  1  0.665792  0.011577  0.967642  1
  Er  Er6  1  0.990684  0.339538  0.529994  1
  Er  Er7  1  0.014285  0.667471  0.032000  1
  Cu  Cu8  1  0.004529  0.794715  0.627694  1
  Si  Si9  1  0.184384  0.105070  0.692668  1
  Si  Si10  1  0.389104  0.698961  0.933955  1
  Si  Si11  1  0.611007  0.303391  0.434207  1
  Si  Si12  1  0.698929  0.386224  0.065765  1
  Si  Si13  1  0.306840  0.615413  0.567226  1
  Si  Si14  1  0.809879  0.883774  0.185414  1
  Si  Si15  1  0.118414  0.195575  0.312844  1
  Si  Si16  1  0.892456  0.810484  0.812300  1
  Si  Si17  1  0.287689  0.979054  0.066062  1
  Si  Si18  1  0.519002  0.766769  0.309857  1
  Si  Si19  1  0.479234  0.238561  0.811122  1
  Si  Si20  1  0.753592  0.507099  0.688045  1
  Si  Si21  1  0.237814  0.483428  0.189621  1
  Si  Si22  1  0.724221  0.019215  0.558975  1
  Si  Si23  1  0.978623  0.287839  0.940549  1
  Si  Si24  1  0.012150  0.728177  0.435576  1
  Tc  Tc25  1  0.340201  0.343023  0.003386  1
  Tc  Tc26  1  0.170046  0.834109  0.249519  1
  Tc  Tc27  1  0.829575  0.159648  0.741331  1
  Tc  Tc28  1  0.659480  0.660755  0.499395  1
  Tc  Tc29  1  0.176655  0.995991  0.879869  1
  Tc  Tc30  1  0.531832  0.689874  0.117548  1
  Tc  Tc31  1  0.459449  0.300072  0.616295  1
  Tc  Tc32  1  0.693503  0.523446  0.881986  1
  Tc  Tc33  1  0.308674  0.478538  0.383529  1
  Tc  Tc34  1  0.821664  0.021967  0.368362  1
  Tc  Tc35  1  0.988284  0.175360  0.127747  1
