# generated using pymatgen
data_Cs2LuAgCl6
_symmetry_space_group_name_H-M   'P 1'
_cell_length_a   7.60689808
_cell_length_b   7.60689827
_cell_length_c   7.60689800
_cell_angle_alpha   119.99999883
_cell_angle_beta   119.99999967
_cell_angle_gamma   60.00001111
_symmetry_Int_Tables_number   1
_chemical_formula_structural   Cs2LuAgCl6
_chemical_formula_sum   'Cs2 Lu1 Ag1 Cl6'
_cell_volume   311.24891200
_cell_formula_units_Z   1
loop_
 _symmetry_equiv_pos_site_id
 _symmetry_equiv_pos_as_xyz
  1  'x, y, z'
loop_
 _atom_site_type_symbol
 _atom_site_label
 _atom_site_symmetry_multiplicity
 _atom_site_fract_x
 _atom_site_fract_y
 _atom_site_fract_z
 _atom_site_occupancy
  Cs  Cs0  1  0.750000  0.750000  0.250002  1
  Cs  Cs1  1  0.249999  0.249999  0.750000  1
  Lu  Lu2  1  0.000000  0.000000  0.000000  1
  Ag  Ag3  1  0.500000  0.500000  0.500000  1
  Cl  Cl4  1  0.240918  0.240918  0.240918  1
  Cl  Cl5  1  0.759081  0.240918  0.240918  1
  Cl  Cl6  1  0.240918  0.759081  0.240918  1
  Cl  Cl7  1  0.759082  0.240919  0.759082  1
  Cl  Cl8  1  0.240919  0.759082  0.759082  1
  Cl  Cl9  1  0.759083  0.759083  0.759082  1
