# generated using pymatgen
data_Eu3Er(Si4Tc3)2
_symmetry_space_group_name_H-M   'P 1'
_cell_length_a   6.90553038
_cell_length_b   6.85460578
_cell_length_c   6.89054443
_cell_angle_alpha   70.07531460
_cell_angle_beta   90.16341575
_cell_angle_gamma   89.59543953
_symmetry_Int_Tables_number   1
_chemical_formula_structural   Eu3Er(Si4Tc3)2
_chemical_formula_sum   'Eu3 Er1 Si8 Tc6'
_cell_volume   306.62574294
_cell_formula_units_Z   1
loop_
 _symmetry_equiv_pos_site_id
 _symmetry_equiv_pos_as_xyz
  1  'x, y, z'
loop_
 _atom_site_type_symbol
 _atom_site_label
 _atom_site_symmetry_multiplicity
 _atom_site_fract_x
 _atom_site_fract_y
 _atom_site_fract_z
 _atom_site_occupancy
  Eu  Eu0  1  0.663477  0.445515  0.185179  1
  Eu  Eu1  1  0.165323  0.056424  0.811776  1
  Eu  Eu2  1  0.335799  0.555508  0.814073  1
  Er  Er3  1  0.832100  0.942743  0.192495  1
  Si  Si4  1  0.449777  0.115808  0.106876  1
  Si  Si5  1  0.948016  0.382112  0.893667  1
  Si  Si6  1  0.552592  0.884550  0.893922  1
  Si  Si7  1  0.050781  0.617473  0.108583  1
  Si  Si8  1  0.859168  0.132203  0.507257  1
  Si  Si9  1  0.357915  0.368718  0.487477  1
  Si  Si10  1  0.139825  0.867337  0.489561  1
  Si  Si11  1  0.642364  0.630957  0.511993  1
  Tc  Tc12  1  0.504530  0.998887  0.496642  1
  Tc  Tc13  1  0.998294  0.505862  0.497103  1
  Tc  Tc14  1  0.151857  0.239005  0.247635  1
  Tc  Tc15  1  0.659447  0.252945  0.753383  1
  Tc  Tc16  1  0.844887  0.759270  0.754062  1
  Tc  Tc17  1  0.343848  0.744684  0.248317  1
