# generated using pymatgen
data_Ho7ErSc2(SiB4)4
_symmetry_space_group_name_H-M   'P 1'
_cell_length_a   7.15525511
_cell_length_b   7.15524307
_cell_length_c   7.88265900
_cell_angle_alpha   89.99840391
_cell_angle_beta   90.00111617
_cell_angle_gamma   89.98182294
_symmetry_Int_Tables_number   1
_chemical_formula_structural   Ho7ErSc2(SiB4)4
_chemical_formula_sum   'Ho7 Er1 Sc2 Si4 B16'
_cell_volume   403.57311971
_cell_formula_units_Z   1
loop_
 _symmetry_equiv_pos_site_id
 _symmetry_equiv_pos_as_xyz
  1  'x, y, z'
loop_
 _atom_site_type_symbol
 _atom_site_label
 _atom_site_symmetry_multiplicity
 _atom_site_fract_x
 _atom_site_fract_y
 _atom_site_fract_z
 _atom_site_occupancy
  Ho  Ho0  1  0.319793  0.819849  0.771255  1
  Ho  Ho1  1  0.319827  0.819754  0.228845  1
  Ho  Ho2  1  0.819713  0.680241  0.228647  1
  Ho  Ho3  1  0.819787  0.680197  0.771294  1
  Ho  Ho4  1  0.680158  0.180228  0.771283  1
  Ho  Ho5  1  0.180224  0.319778  0.771314  1
  Ho  Ho6  1  0.180229  0.319738  0.228669  1
  Er  Er7  1  0.680194  0.180125  0.227858  1
  Sc  Sc8  1  0.999871  0.000096  0.499835  1
  Sc  Sc9  1  0.500100  0.499873  0.499835  1
  Si  Si10  1  0.117474  0.617464  0.499909  1
  Si  Si11  1  0.882003  0.382005  0.499487  1
  Si  Si12  1  0.382766  0.117792  0.499587  1
  Si  Si13  1  0.617783  0.882758  0.499642  1
  B  B14  1  0.172683  0.039209  0.000193  1
  B  B15  1  0.827180  0.960968  0.000151  1
  B  B16  1  0.960712  0.172904  0.000110  1
  B  B17  1  0.327255  0.539109  0.000121  1
  B  B18  1  0.039107  0.827254  0.000125  1
  B  B19  1  0.672899  0.460712  0.000113  1
  B  B20  1  0.539211  0.672681  0.000159  1
  B  B21  1  0.460965  0.327185  0.000184  1
  B  B22  1  0.089294  0.589294  0.000092  1
  B  B23  1  0.910750  0.410750  0.000052  1
  B  B24  1  0.410694  0.089381  0.000330  1
  B  B25  1  0.589380  0.910698  0.000314  1
  B  B26  1  0.999667  0.000176  0.167488  1
  B  B27  1  0.000049  0.000055  0.832812  1
  B  B28  1  0.500028  0.499957  0.832807  1
  B  B29  1  0.500203  0.499767  0.167492  1
