# generated using pymatgen
data_Y2Ir5Rh
_symmetry_space_group_name_H-M   'P 1'
_cell_length_a   5.31868400
_cell_length_b   5.31831035
_cell_length_c   17.48665600
_cell_angle_alpha   90.00000000
_cell_angle_beta   90.00000000
_cell_angle_gamma   120.00232412
_symmetry_Int_Tables_number   1
_chemical_formula_structural   Y2Ir5Rh
_chemical_formula_sum   'Y6 Ir15 Rh3'
_cell_volume   428.35623450
_cell_formula_units_Z   3
loop_
 _symmetry_equiv_pos_site_id
 _symmetry_equiv_pos_as_xyz
  1  'x, y, z'
loop_
 _atom_site_type_symbol
 _atom_site_label
 _atom_site_symmetry_multiplicity
 _atom_site_fract_x
 _atom_site_fract_y
 _atom_site_fract_z
 _atom_site_occupancy
  Y  Y0  1  0.666700  0.333399  0.040915  1
  Y  Y1  1  0.666670  0.333339  0.250000  1
  Y  Y2  1  0.666700  0.333399  0.459085  1
  Y  Y3  1  0.333350  0.666700  0.541122  1
  Y  Y4  1  0.333322  0.666644  0.750000  1
  Y  Y5  1  0.333350  0.666700  0.958878  1
  Ir  Ir6  1  0.000009  0.000018  0.999910  1
  Ir  Ir7  1  0.167548  0.335095  0.126067  1
  Ir  Ir8  1  0.167587  0.832526  0.126141  1
  Ir  Ir9  1  0.664940  0.832526  0.126141  1
  Ir  Ir10  1  0.000184  0.000370  0.250000  1
  Ir  Ir11  1  0.167587  0.832526  0.373858  1
  Ir  Ir12  1  0.664940  0.832526  0.373858  1
  Ir  Ir13  1  0.167548  0.335095  0.373932  1
  Ir  Ir14  1  0.000009  0.000018  0.500090  1
  Ir  Ir15  1  0.832420  0.664840  0.625797  1
  Ir  Ir16  1  0.335100  0.167545  0.625846  1
  Ir  Ir17  1  0.832444  0.167545  0.625846  1
  Ir  Ir18  1  0.335100  0.167545  0.874153  1
  Ir  Ir19  1  0.832444  0.167545  0.874153  1
  Ir  Ir20  1  0.832420  0.664840  0.874203  1
  Rh  Rh21  1  0.333066  0.666132  0.250000  1
  Rh  Rh22  1  0.999822  0.999643  0.750000  1
  Rh  Rh23  1  0.666747  0.333493  0.750000  1
