# generated using pymatgen
data_Tb3Er7(AlCo5)2
_symmetry_space_group_name_H-M   'P 1'
_cell_length_a   5.45891575
_cell_length_b   5.45891650
_cell_length_c   20.51314773
_cell_angle_alpha   90.08511910
_cell_angle_beta   89.91488143
_cell_angle_gamma   137.09802801
_symmetry_Int_Tables_number   1
_chemical_formula_structural   Tb3Er7(AlCo5)2
_chemical_formula_sum   'Tb3 Er7 Al2 Co10'
_cell_volume   416.13069106
_cell_formula_units_Z   1
loop_
 _symmetry_equiv_pos_site_id
 _symmetry_equiv_pos_as_xyz
  1  'x, y, z'
loop_
 _atom_site_type_symbol
 _atom_site_label
 _atom_site_symmetry_multiplicity
 _atom_site_fract_x
 _atom_site_fract_y
 _atom_site_fract_z
 _atom_site_occupancy
  Tb  Tb0  1  0.292793  0.707207  0.066389  1
  Tb  Tb1  1  0.997836  0.002164  0.842289  1
  Tb  Tb2  1  0.707404  0.292596  0.566051  1
  Er  Er3  1  0.289662  0.710338  0.250181  1
  Er  Er4  1  0.711025  0.288975  0.749888  1
  Er  Er5  1  0.003341  0.996659  0.342108  1
  Er  Er6  1  0.995955  0.004045  0.658164  1
  Er  Er7  1  0.709067  0.290933  0.933740  1
  Er  Er8  1  0.003885  0.996115  0.158331  1
  Er  Er9  1  0.292318  0.707682  0.432834  1
  Al  Al10  1  0.999149  0.000851  0.499334  1
  Al  Al11  1  0.001148  0.998852  0.000019  1
  Co  Co12  1  0.293511  0.706489  0.655026  1
  Co  Co13  1  0.581230  0.418770  0.440417  1
  Co  Co14  1  0.412919  0.587081  0.749902  1
  Co  Co15  1  0.418044  0.581956  0.941722  1
  Co  Co16  1  0.585917  0.414083  0.250378  1
  Co  Co17  1  0.417958  0.582042  0.558001  1
  Co  Co18  1  0.706581  0.293419  0.345418  1
  Co  Co19  1  0.705415  0.294585  0.155426  1
  Co  Co20  1  0.582213  0.417787  0.058638  1
  Co  Co21  1  0.292631  0.707369  0.845744  1
