# generated using pymatgen
data_Ho8Hg3Ru
_symmetry_space_group_name_H-M   'P 1'
_cell_length_a   10.16408500
_cell_length_b   10.16408628
_cell_length_c   7.16000200
_cell_angle_alpha   90.00000000
_cell_angle_beta   90.00000000
_cell_angle_gamma   119.99999910
_symmetry_Int_Tables_number   1
_chemical_formula_structural   Ho8Hg3Ru
_chemical_formula_sum   'Ho16 Hg6 Ru2'
_cell_volume   640.59037693
_cell_formula_units_Z   2
loop_
 _symmetry_equiv_pos_site_id
 _symmetry_equiv_pos_as_xyz
  1  'x, y, z'
loop_
 _atom_site_type_symbol
 _atom_site_label
 _atom_site_symmetry_multiplicity
 _atom_site_fract_x
 _atom_site_fract_y
 _atom_site_fract_z
 _atom_site_occupancy
  Ho  Ho0  1  0.537063  0.074124  0.511622  1
  Ho  Ho1  1  0.925876  0.462937  0.511622  1
  Ho  Ho2  1  0.537063  0.462937  0.511622  1
  Ho  Ho3  1  0.462937  0.925876  0.011622  1
  Ho  Ho4  1  0.074124  0.537063  0.011622  1
  Ho  Ho5  1  0.462937  0.537063  0.011622  1
  Ho  Ho6  1  0.173654  0.347308  0.701388  1
  Ho  Ho7  1  0.652692  0.826346  0.701388  1
  Ho  Ho8  1  0.173654  0.826346  0.701388  1
  Ho  Ho9  1  0.826346  0.652692  0.201388  1
  Ho  Ho10  1  0.347308  0.173654  0.201388  1
  Ho  Ho11  1  0.826346  0.173654  0.201388  1
  Ho  Ho12  1  0.666667  0.333333  0.894885  1
  Ho  Ho13  1  0.333333  0.666667  0.394885  1
  Ho  Ho14  1  0.000000  0.000000  0.482986  1
  Ho  Ho15  1  0.000000  0.000000  0.982986  1
  Hg  Hg16  1  0.832899  0.665799  0.762286  1
  Hg  Hg17  1  0.334201  0.167101  0.762286  1
  Hg  Hg18  1  0.832899  0.167101  0.762286  1
  Hg  Hg19  1  0.167101  0.334201  0.262286  1
  Hg  Hg20  1  0.665799  0.832899  0.262286  1
  Hg  Hg21  1  0.167101  0.832899  0.262286  1
  Ru  Ru22  1  0.666667  0.333333  0.275263  1
  Ru  Ru23  1  0.333333  0.666667  0.775263  1
