# generated using pymatgen
data_Zn22PdRh2Au
_symmetry_space_group_name_H-M   'P 1'
_cell_length_a   7.95602151
_cell_length_b   7.96925970
_cell_length_c   7.95313768
_cell_angle_alpha   109.45566447
_cell_angle_beta   109.38812967
_cell_angle_gamma   109.61818334
_symmetry_Int_Tables_number   1
_chemical_formula_structural   Zn22PdRh2Au
_chemical_formula_sum   'Zn22 Pd1 Rh2 Au1'
_cell_volume   387.94478642
_cell_formula_units_Z   1
loop_
 _symmetry_equiv_pos_site_id
 _symmetry_equiv_pos_as_xyz
  1  'x, y, z'
loop_
 _atom_site_type_symbol
 _atom_site_label
 _atom_site_symmetry_multiplicity
 _atom_site_fract_x
 _atom_site_fract_y
 _atom_site_fract_z
 _atom_site_occupancy
  Zn  Zn0  1  0.996907  0.787693  0.000000  1
  Zn  Zn1  1  0.782467  0.992564  0.000000  1
  Zn  Zn2  1  0.997314  0.992899  0.777623  1
  Zn  Zn3  1  0.219691  0.215277  0.222377  1
  Zn  Zn4  1  0.356321  0.621956  0.354641  1
  Zn  Zn5  1  0.270418  0.003285  0.648836  1
  Zn  Zn6  1  0.652203  0.002893  0.273281  1
  Zn  Zn7  1  0.279133  0.654237  0.000000  1
  Zn  Zn8  1  0.731025  0.732802  0.380276  1
  Zn  Zn9  1  0.378923  0.729613  0.726719  1
  Zn  Zn10  1  0.001265  0.656092  0.278864  1
  Zn  Zn11  1  0.001680  0.267315  0.645359  1
  Zn  Zn12  1  0.646650  0.270174  0.000000  1
  Zn  Zn13  1  0.350749  0.352526  0.619724  1
  Zn  Zn14  1  0.621582  0.354449  0.351164  1
  Zn  Zn15  1  0.722403  0.377229  0.721136  1
  Zn  Zn16  1  0.359086  0.355869  0.000000  1
  Zn  Zn17  1  0.999770  0.639081  0.646475  1
  Zn  Zn18  1  0.994344  0.353264  0.356668  1
  Zn  Zn19  1  0.353296  0.992606  0.353525  1
  Zn  Zn20  1  0.637676  0.996596  0.643332  1
  Zn  Zn21  1  0.643737  0.641244  0.000000  1
  Pd  Pd22  1  0.345848  0.000976  0.000000  1
  Rh  Rh23  1  0.001180  0.001711  0.345703  1
  Rh  Rh24  1  0.655478  0.656008  0.654297  1
  Au  Au25  1  0.000859  0.351644  0.000000  1
