# generated using pymatgen
data_Dy3Lu3(Al3Os)8
_symmetry_space_group_name_H-M   'P 1'
_cell_length_a   8.76969217
_cell_length_b   8.78063023
_cell_length_c   9.60098800
_cell_angle_alpha   90.00000000
_cell_angle_beta   90.00000000
_cell_angle_gamma   119.88765246
_symmetry_Int_Tables_number   1
_chemical_formula_structural   Dy3Lu3(Al3Os)8
_chemical_formula_sum   'Dy3 Lu3 Al24 Os8'
_cell_volume   640.98393310
_cell_formula_units_Z   1
loop_
 _symmetry_equiv_pos_site_id
 _symmetry_equiv_pos_as_xyz
  1  'x, y, z'
loop_
 _atom_site_type_symbol
 _atom_site_label
 _atom_site_symmetry_multiplicity
 _atom_site_fract_x
 _atom_site_fract_y
 _atom_site_fract_z
 _atom_site_occupancy
  Dy  Dy0  1  0.385994  0.192492  0.750000  1
  Dy  Dy1  1  0.193006  0.808240  0.250000  1
  Dy  Dy2  1  0.807439  0.192718  0.750000  1
  Lu  Lu3  1  0.196384  0.392356  0.250000  1
  Lu  Lu4  1  0.804119  0.606699  0.750000  1
  Lu  Lu5  1  0.608529  0.804873  0.250000  1
  Al  Al6  1  0.333367  0.666970  0.022136  1
  Al  Al7  1  0.666685  0.333191  0.979164  1
  Al  Al8  1  0.666685  0.333191  0.520836  1
  Al  Al9  1  0.333367  0.666970  0.477864  1
  Al  Al10  1  0.164094  0.327690  0.575172  1
  Al  Al11  1  0.836122  0.673182  0.424125  1
  Al  Al12  1  0.673014  0.835844  0.575340  1
  Al  Al13  1  0.836122  0.673182  0.075875  1
  Al  Al14  1  0.327479  0.164616  0.423066  1
  Al  Al15  1  0.164094  0.327690  0.924828  1
  Al  Al16  1  0.163235  0.835641  0.576387  1
  Al  Al17  1  0.327479  0.164616  0.076934  1
  Al  Al18  1  0.836833  0.163649  0.422998  1
  Al  Al19  1  0.673014  0.835844  0.924660  1
  Al  Al20  1  0.836833  0.163649  0.077002  1
  Al  Al21  1  0.163235  0.835641  0.923613  1
  Al  Al22  1  0.562613  0.124159  0.250000  1
  Al  Al23  1  0.438322  0.875418  0.750000  1
  Al  Al24  1  0.876845  0.438507  0.250000  1
  Al  Al25  1  0.124065  0.561917  0.750000  1
  Al  Al26  1  0.561981  0.439442  0.250000  1
  Al  Al27  1  0.439026  0.562146  0.750000  1
  Al  Al28  1  0.997953  0.003399  0.250000  1
  Al  Al29  1  0.997517  0.993834  0.750000  1
  Os  Os30  1  0.500579  0.999659  0.000689  1
  Os  Os31  1  0.000371  0.500193  0.999862  1
  Os  Os32  1  0.500579  0.999659  0.499311  1
  Os  Os33  1  0.500424  0.500873  0.000654  1
  Os  Os34  1  0.000371  0.500193  0.500138  1
  Os  Os35  1  0.500424  0.500873  0.499346  1
  Os  Os36  1  0.000901  0.000391  0.000095  1
  Os  Os37  1  0.000901  0.000391  0.499905  1
