# generated using pymatgen
data_La2Nd3(SiC)2
_symmetry_space_group_name_H-M   'P 1'
_cell_length_a   8.04403600
_cell_length_b   12.72796800
_cell_length_c   4.25409200
_cell_angle_alpha   90.00000000
_cell_angle_beta   90.00000000
_cell_angle_gamma   90.00000000
_symmetry_Int_Tables_number   1
_chemical_formula_structural   La2Nd3(SiC)2
_chemical_formula_sum   'La4 Nd6 Si4 C4'
_cell_volume   435.55194568
_cell_formula_units_Z   2
loop_
 _symmetry_equiv_pos_site_id
 _symmetry_equiv_pos_as_xyz
  1  'x, y, z'
loop_
 _atom_site_type_symbol
 _atom_site_label
 _atom_site_symmetry_multiplicity
 _atom_site_fract_x
 _atom_site_fract_y
 _atom_site_fract_z
 _atom_site_occupancy
  La  La0  1  0.830756  0.061760  0.499998  1
  La  La1  1  0.330756  0.438240  0.499998  1
  La  La2  1  0.669245  0.561760  0.499998  1
  La  La3  1  0.169245  0.938240  0.499998  1
  Nd  Nd4  1  0.500000  0.000000  0.000000  1
  Nd  Nd5  1  0.176615  0.213211  0.000000  1
  Nd  Nd6  1  0.676616  0.286789  0.000000  1
  Nd  Nd7  1  0.000000  0.500000  0.000000  1
  Nd  Nd8  1  0.323385  0.713211  0.000000  1
  Nd  Nd9  1  0.823385  0.786789  0.000000  1
  Si  Si10  1  0.455305  0.171152  0.499998  1
  Si  Si11  1  0.955305  0.328848  0.499998  1
  Si  Si12  1  0.044694  0.671152  0.499998  1
  Si  Si13  1  0.544696  0.828848  0.499998  1
  C  C14  1  0.041606  0.047078  0.000000  1
  C  C15  1  0.541605  0.452922  0.000000  1
  C  C16  1  0.458394  0.547078  0.000000  1
  C  C17  1  0.958395  0.952922  0.000000  1
