# generated using pymatgen
data_Cs2KCoF7
_symmetry_space_group_name_H-M   'P 1'
_cell_length_a   8.32232331
_cell_length_b   8.32232333
_cell_length_c   6.02991100
_cell_angle_alpha   90.00000000
_cell_angle_beta   90.00000000
_cell_angle_gamma   92.59488804
_symmetry_Int_Tables_number   1
_chemical_formula_structural   Cs2KCoF7
_chemical_formula_sum   'Cs4 K2 Co2 F14'
_cell_volume   417.20981962
_cell_formula_units_Z   2
loop_
 _symmetry_equiv_pos_site_id
 _symmetry_equiv_pos_as_xyz
  1  'x, y, z'
loop_
 _atom_site_type_symbol
 _atom_site_label
 _atom_site_symmetry_multiplicity
 _atom_site_fract_x
 _atom_site_fract_y
 _atom_site_fract_z
 _atom_site_occupancy
  Cs  Cs0  1  0.000000  0.500000  0.000000  1
  Cs  Cs1  1  0.500000  0.000000  0.000000  1
  Cs  Cs2  1  0.692746  0.307254  0.500000  1
  Cs  Cs3  1  0.307254  0.692746  0.500000  1
  K  K4  1  0.189931  0.189931  0.500000  1
  K  K5  1  0.810069  0.810069  0.500000  1
  Co  Co6  1  0.000000  0.000000  0.000000  1
  Co  Co7  1  0.500000  0.500000  0.000000  1
  F  F8  1  0.894941  0.105059  0.783249  1
  F  F9  1  0.105059  0.894941  0.783249  1
  F  F10  1  0.389246  0.389246  0.787943  1
  F  F11  1  0.610754  0.610754  0.787943  1
  F  F12  1  0.105059  0.894941  0.216751  1
  F  F13  1  0.894941  0.105059  0.216751  1
  F  F14  1  0.610754  0.610754  0.212057  1
  F  F15  1  0.389246  0.389246  0.212057  1
  F  F16  1  0.652443  0.347557  0.000000  1
  F  F17  1  0.347557  0.652443  0.000000  1
  F  F18  1  0.156835  0.156835  0.000000  1
  F  F19  1  0.843165  0.843165  0.000000  1
  F  F20  1  0.000000  0.500000  0.500000  1
  F  F21  1  0.500000  0.000000  0.500000  1
