# generated using pymatgen
data_Ho5PaAl18
_symmetry_space_group_name_H-M   'P 1'
_cell_length_a   14.58992295
_cell_length_b   14.58992217
_cell_length_c   14.58992326
_cell_angle_alpha   24.35271497
_cell_angle_beta   24.35271161
_cell_angle_gamma   24.35271970
_symmetry_Int_Tables_number   1
_chemical_formula_structural   Ho5PaAl18
_chemical_formula_sum   'Ho5 Pa1 Al18'
_cell_volume   464.20815119
_cell_formula_units_Z   1
loop_
 _symmetry_equiv_pos_site_id
 _symmetry_equiv_pos_as_xyz
  1  'x, y, z'
loop_
 _atom_site_type_symbol
 _atom_site_label
 _atom_site_symmetry_multiplicity
 _atom_site_fract_x
 _atom_site_fract_y
 _atom_site_fract_z
 _atom_site_occupancy
  Ho  Ho0  1  0.890742  0.890742  0.890742  1
  Ho  Ho1  1  0.390973  0.390973  0.390973  1
  Ho  Ho2  1  0.999722  0.999722  0.999722  1
  Ho  Ho3  1  0.499987  0.499987  0.499987  1
  Ho  Ho4  1  0.609238  0.609238  0.609238  1
  Pa  Pa5  1  0.108870  0.108870  0.108870  1
  Al  Al6  1  0.924065  0.371435  0.371435  1
  Al  Al7  1  0.421321  0.871040  0.871040  1
  Al  Al8  1  0.371435  0.371435  0.924065  1
  Al  Al9  1  0.871040  0.871040  0.421321  1
  Al  Al10  1  0.371435  0.924065  0.371435  1
  Al  Al11  1  0.871040  0.421321  0.871040  1
  Al  Al12  1  0.577070  0.128799  0.128799  1
  Al  Al13  1  0.077633  0.628697  0.628697  1
  Al  Al14  1  0.128799  0.128799  0.577070  1
  Al  Al15  1  0.628697  0.628697  0.077633  1
  Al  Al16  1  0.128799  0.577070  0.128799  1
  Al  Al17  1  0.628697  0.077633  0.628697  1
  Al  Al18  1  0.499691  0.499691  0.999684  1
  Al  Al19  1  0.002003  0.002003  0.497365  1
  Al  Al20  1  0.499691  0.999684  0.499691  1
  Al  Al21  1  0.002003  0.497365  0.002003  1
  Al  Al22  1  0.999684  0.499691  0.499691  1
  Al  Al23  1  0.497365  0.002003  0.002003  1
