# generated using pymatgen
data_Li4NiB4Rh5
_symmetry_space_group_name_H-M   'P 1'
_cell_length_a   2.84773700
_cell_length_b   5.82336648
_cell_length_c   9.18311684
_cell_angle_alpha   90.05948508
_cell_angle_beta   90.00000000
_cell_angle_gamma   90.00000000
_symmetry_Int_Tables_number   1
_chemical_formula_structural   Li4NiB4Rh5
_chemical_formula_sum   'Li4 Ni1 B4 Rh5'
_cell_volume   152.28736635
_cell_formula_units_Z   1
loop_
 _symmetry_equiv_pos_site_id
 _symmetry_equiv_pos_as_xyz
  1  'x, y, z'
loop_
 _atom_site_type_symbol
 _atom_site_label
 _atom_site_symmetry_multiplicity
 _atom_site_fract_x
 _atom_site_fract_y
 _atom_site_fract_z
 _atom_site_occupancy
  Li  Li0  1  0.500000  0.337929  0.075728  1
  Li  Li1  1  0.500000  0.662071  0.924272  1
  Li  Li2  1  0.500000  0.169456  0.563980  1
  Li  Li3  1  0.500000  0.830544  0.436020  1
  Ni  Ni4  1  0.000000  0.500000  0.500000  1
  B  B5  1  0.500000  0.061757  0.824704  1
  B  B6  1  0.500000  0.560903  0.659916  1
  B  B7  1  0.500000  0.439097  0.340084  1
  B  B8  1  0.500000  0.938243  0.175296  1
  Rh  Rh9  1  0.000000  0.336118  0.773743  1
  Rh  Rh10  1  0.000000  0.168184  0.290850  1
  Rh  Rh11  1  0.000000  0.663882  0.226257  1
  Rh  Rh12  1  0.000000  0.831816  0.709150  1
  Rh  Rh13  1  0.000000  0.000000  0.000000  1
