# generated using pymatgen
data_Eu10CdPt4Pb
_symmetry_space_group_name_H-M   'P 1'
_cell_length_a   9.44739758
_cell_length_b   9.44739707
_cell_length_c   9.44739766
_cell_angle_alpha   128.16304061
_cell_angle_beta   128.16304019
_cell_angle_gamma   76.36105717
_symmetry_Int_Tables_number   1
_chemical_formula_structural   Eu10CdPt4Pb
_chemical_formula_sum   'Eu10 Cd1 Pt4 Pb1'
_cell_volume   506.52588108
_cell_formula_units_Z   1
loop_
 _symmetry_equiv_pos_site_id
 _symmetry_equiv_pos_as_xyz
  1  'x, y, z'
loop_
 _atom_site_type_symbol
 _atom_site_label
 _atom_site_symmetry_multiplicity
 _atom_site_fract_x
 _atom_site_fract_y
 _atom_site_fract_z
 _atom_site_occupancy
  Eu  Eu0  1  0.499205  0.499205  0.000000  1
  Eu  Eu1  1  0.000795  0.000795  0.000000  1
  Eu  Eu2  1  0.531884  0.032961  0.829393  1
  Eu  Eu3  1  0.203568  0.702491  0.170607  1
  Eu  Eu4  1  0.032961  0.203568  0.501077  1
  Eu  Eu5  1  0.702491  0.531884  0.498923  1
  Eu  Eu6  1  0.467039  0.968116  0.170607  1
  Eu  Eu7  1  0.797509  0.296432  0.829393  1
  Eu  Eu8  1  0.968116  0.797509  0.501077  1
  Eu  Eu9  1  0.296432  0.467039  0.498923  1
  Cd  Cd10  1  0.750000  0.750000  0.000000  1
  Pt  Pt11  1  0.132591  0.632591  0.765181  1
  Pt  Pt12  1  0.867409  0.367409  0.234819  1
  Pt  Pt13  1  0.632591  0.867409  0.500000  1
  Pt  Pt14  1  0.367409  0.132591  0.500000  1
  Pb  Pb15  1  0.250000  0.250000  0.000000  1
