# generated using pymatgen
data_Rb8Li4YTm3As8
_symmetry_space_group_name_H-M   'P 1'
_cell_length_a   10.58883711
_cell_length_b   10.58883692
_cell_length_c   6.82662736
_cell_angle_alpha   90.02848063
_cell_angle_beta   89.97151481
_cell_angle_gamma   99.91036051
_symmetry_Int_Tables_number   1
_chemical_formula_structural   Rb8Li4YTm3As8
_chemical_formula_sum   'Rb8 Li4 Y1 Tm3 As8'
_cell_volume   754.00348002
_cell_formula_units_Z   1
loop_
 _symmetry_equiv_pos_site_id
 _symmetry_equiv_pos_as_xyz
  1  'x, y, z'
loop_
 _atom_site_type_symbol
 _atom_site_label
 _atom_site_symmetry_multiplicity
 _atom_site_fract_x
 _atom_site_fract_y
 _atom_site_fract_z
 _atom_site_occupancy
  Rb  Rb0  1  0.567968  0.932126  0.750144  1
  Rb  Rb1  1  0.932126  0.567968  0.249856  1
  Rb  Rb2  1  0.432218  0.067319  0.249708  1
  Rb  Rb3  1  0.067319  0.432218  0.750292  1
  Rb  Rb4  1  0.678542  0.321890  0.787893  1
  Rb  Rb5  1  0.821879  0.178036  0.287679  1
  Rb  Rb6  1  0.321890  0.678542  0.212107  1
  Rb  Rb7  1  0.178036  0.821879  0.712321  1
  Li  Li8  1  0.618330  0.618330  0.000000  1
  Li  Li9  1  0.881887  0.881887  0.500000  1
  Li  Li10  1  0.381934  0.381934  0.000000  1
  Li  Li11  1  0.117538  0.117538  0.500000  1
  Y  Y12  1  0.367679  0.367679  0.500000  1
  Tm  Tm13  1  0.868226  0.868226  0.000000  1
  Tm  Tm14  1  0.632514  0.632514  0.500000  1
  Tm  Tm15  1  0.131147  0.131147  0.000000  1
  As  As16  1  0.342216  0.155232  0.752764  1
  As  As17  1  0.155232  0.342216  0.247236  1
  As  As18  1  0.657940  0.842351  0.250137  1
  As  As19  1  0.842351  0.657940  0.749863  1
  As  As20  1  0.910630  0.089147  0.766734  1
  As  As21  1  0.591625  0.411626  0.264949  1
  As  As22  1  0.089147  0.910630  0.233266  1
  As  As23  1  0.411626  0.591625  0.735051  1
