# generated using pymatgen
data_Zr2TaCrRe2
_symmetry_space_group_name_H-M   'P 1'
_cell_length_a   5.26193750
_cell_length_b   5.26193618
_cell_length_c   5.31805626
_cell_angle_alpha   61.33575162
_cell_angle_beta   61.33575768
_cell_angle_gamma   60.71301183
_symmetry_Int_Tables_number   1
_chemical_formula_structural   Zr2TaCrRe2
_chemical_formula_sum   'Zr2 Ta1 Cr1 Re2'
_cell_volume   106.75427228
_cell_formula_units_Z   1
loop_
 _symmetry_equiv_pos_site_id
 _symmetry_equiv_pos_as_xyz
  1  'x, y, z'
loop_
 _atom_site_type_symbol
 _atom_site_label
 _atom_site_symmetry_multiplicity
 _atom_site_fract_x
 _atom_site_fract_y
 _atom_site_fract_z
 _atom_site_occupancy
  Zr  Zr0  1  0.623312  0.623312  0.629874  1
  Zr  Zr1  1  0.376688  0.376688  0.370126  1
  Ta  Ta2  1  0.000000  0.000000  0.500000  1
  Cr  Cr3  1  0.000000  0.000000  0.000000  1
  Re  Re4  1  0.000000  0.500000  0.000000  1
  Re  Re5  1  0.500000  0.000000  0.000000  1
