# generated using pymatgen
data_Zr20(AlSb3)3
_symmetry_space_group_name_H-M   'P 1'
_cell_length_a   5.56118700
_cell_length_b   8.39800084
_cell_length_c   15.86120000
_cell_angle_alpha   90.00000000
_cell_angle_beta   90.00000000
_cell_angle_gamma   109.33482796
_symmetry_Int_Tables_number   1
_chemical_formula_structural   Zr20(AlSb3)3
_chemical_formula_sum   'Zr20 Al3 Sb9'
_cell_volume   698.98414738
_cell_formula_units_Z   1
loop_
 _symmetry_equiv_pos_site_id
 _symmetry_equiv_pos_as_xyz
  1  'x, y, z'
loop_
 _atom_site_type_symbol
 _atom_site_label
 _atom_site_symmetry_multiplicity
 _atom_site_fract_x
 _atom_site_fract_y
 _atom_site_fract_z
 _atom_site_occupancy
  Zr  Zr0  1  0.430945  0.860061  0.354957  1
  Zr  Zr1  1  0.921103  0.858123  0.851394  1
  Zr  Zr2  1  0.062976  0.141867  0.148607  1
  Zr  Zr3  1  0.570882  0.139952  0.645042  1
  Zr  Zr4  1  0.655097  0.295010  0.072141  1
  Zr  Zr5  1  0.146122  0.292215  0.568992  1
  Zr  Zr6  1  0.853922  0.707791  0.431006  1
  Zr  Zr7  1  0.360071  0.704974  0.927867  1
  Zr  Zr8  1  0.844903  0.704990  0.072141  1
  Zr  Zr9  1  0.353878  0.707785  0.568992  1
  Zr  Zr10  1  0.646078  0.292209  0.431006  1
  Zr  Zr11  1  0.139929  0.295026  0.927867  1
  Zr  Zr12  1  0.069055  0.139939  0.354957  1
  Zr  Zr13  1  0.578897  0.141877  0.851394  1
  Zr  Zr14  1  0.437024  0.858133  0.148607  1
  Zr  Zr15  1  0.929118  0.860048  0.645042  1
  Zr  Zr16  1  0.501580  0.503448  0.249342  1
  Zr  Zr17  1  0.998158  0.496560  0.750660  1
  Zr  Zr18  1  0.998420  0.496552  0.249342  1
  Zr  Zr19  1  0.501842  0.503440  0.750660  1
  Al  Al20  1  0.750000  0.000000  0.499991  1
  Al  Al21  1  0.750000  0.000000  0.000003  1
  Al  Al22  1  0.250000  0.000000  0.499993  1
  Sb  Sb23  1  0.917424  0.827920  0.251373  1
  Sb  Sb24  1  0.410387  0.827897  0.748632  1
  Sb  Sb25  1  0.582576  0.172080  0.251373  1
  Sb  Sb26  1  0.089613  0.172103  0.748632  1
  Sb  Sb27  1  0.250000  0.500000  0.085771  1
  Sb  Sb28  1  0.750000  0.500000  0.586726  1
  Sb  Sb29  1  0.250000  0.500000  0.413252  1
  Sb  Sb30  1  0.750000  0.500000  0.914242  1
  Sb  Sb31  1  0.250000  0.000000  0.999998  1
