# generated using pymatgen
data_Nb9CrN12
_symmetry_space_group_name_H-M   'P 1'
_cell_length_a   5.24639200
_cell_length_b   5.24639272
_cell_length_c   10.36096600
_cell_angle_alpha   90.00000000
_cell_angle_beta   90.00000000
_cell_angle_gamma   120.00000809
_symmetry_Int_Tables_number   1
_chemical_formula_structural   Nb9CrN12
_chemical_formula_sum   'Nb9 Cr1 N12'
_cell_volume   246.97464980
_cell_formula_units_Z   1
loop_
 _symmetry_equiv_pos_site_id
 _symmetry_equiv_pos_as_xyz
  1  'x, y, z'
loop_
 _atom_site_type_symbol
 _atom_site_label
 _atom_site_symmetry_multiplicity
 _atom_site_fract_x
 _atom_site_fract_y
 _atom_site_fract_z
 _atom_site_occupancy
  Nb  Nb0  1  0.666667  0.333333  0.000000  1
  Nb  Nb1  1  0.666667  0.333333  0.500000  1
  Nb  Nb2  1  0.333333  0.666667  0.000000  1
  Nb  Nb3  1  0.675211  0.998371  0.749265  1
  Nb  Nb4  1  0.675211  0.676840  0.250735  1
  Nb  Nb5  1  0.001629  0.324789  0.250735  1
  Nb  Nb6  1  0.001629  0.676840  0.749265  1
  Nb  Nb7  1  0.323160  0.324789  0.749265  1
  Nb  Nb8  1  0.323160  0.998371  0.250735  1
  Cr  Cr9  1  0.333333  0.666667  0.500000  1
  N  N10  1  0.345057  0.350375  0.379466  1
  N  N11  1  0.649625  0.994682  0.379466  1
  N  N12  1  0.005318  0.654943  0.379466  1
  N  N13  1  0.999682  0.337326  0.878075  1
  N  N14  1  0.662674  0.000318  0.121925  1
  N  N15  1  0.662674  0.662356  0.878075  1
  N  N16  1  0.337644  0.000318  0.878075  1
  N  N17  1  0.649625  0.654943  0.620534  1
  N  N18  1  0.005318  0.350375  0.620534  1
  N  N19  1  0.999682  0.662356  0.121925  1
  N  N20  1  0.345057  0.994682  0.620534  1
  N  N21  1  0.337644  0.337326  0.121925  1
