# generated using pymatgen
data_Ho4Tm8Os3Rh
_symmetry_space_group_name_H-M   'P 1'
_cell_length_a   7.30576335
_cell_length_b   8.93818100
_cell_length_c   6.28002416
_cell_angle_alpha   90.00000000
_cell_angle_beta   89.88171647
_cell_angle_gamma   90.00000000
_symmetry_Int_Tables_number   1
_chemical_formula_structural   Ho4Tm8Os3Rh
_chemical_formula_sum   'Ho4 Tm8 Os3 Rh1'
_cell_volume   410.08618078
_cell_formula_units_Z   1
loop_
 _symmetry_equiv_pos_site_id
 _symmetry_equiv_pos_as_xyz
  1  'x, y, z'
loop_
 _atom_site_type_symbol
 _atom_site_label
 _atom_site_symmetry_multiplicity
 _atom_site_fract_x
 _atom_site_fract_y
 _atom_site_fract_z
 _atom_site_occupancy
  Ho  Ho0  1  0.038751  0.250000  0.628690  1
  Ho  Ho1  1  0.961739  0.750000  0.373133  1
  Ho  Ho2  1  0.462447  0.750000  0.129298  1
  Ho  Ho3  1  0.539314  0.250000  0.870209  1
  Tm  Tm4  1  0.172442  0.060720  0.165512  1
  Tm  Tm5  1  0.824561  0.936939  0.830961  1
  Tm  Tm6  1  0.323287  0.933486  0.671938  1
  Tm  Tm7  1  0.824561  0.563061  0.830961  1
  Tm  Tm8  1  0.678426  0.061516  0.331800  1
  Tm  Tm9  1  0.172442  0.439280  0.165512  1
  Tm  Tm10  1  0.678426  0.438484  0.331800  1
  Tm  Tm11  1  0.323287  0.566514  0.671938  1
  Os  Os12  1  0.615610  0.750000  0.539424  1
  Os  Os13  1  0.116541  0.750000  0.962088  1
  Os  Os14  1  0.883501  0.250000  0.039551  1
  Rh  Rh15  1  0.384663  0.250000  0.457186  1
