# generated using pymatgen
data_Cs2Ta5NbSnBr18
_symmetry_space_group_name_H-M   'P 1'
_cell_length_a   11.00722288
_cell_length_b   11.00910499
_cell_length_c   11.00998494
_cell_angle_alpha   54.92901710
_cell_angle_beta   54.92191872
_cell_angle_gamma   54.93231985
_symmetry_Int_Tables_number   1
_chemical_formula_structural   Cs2Ta5NbSnBr18
_chemical_formula_sum   'Cs2 Ta5 Nb1 Sn1 Br18'
_cell_volume   832.04171416
_cell_formula_units_Z   1
loop_
 _symmetry_equiv_pos_site_id
 _symmetry_equiv_pos_as_xyz
  1  'x, y, z'
loop_
 _atom_site_type_symbol
 _atom_site_label
 _atom_site_symmetry_multiplicity
 _atom_site_fract_x
 _atom_site_fract_y
 _atom_site_fract_z
 _atom_site_occupancy
  Cs  Cs0  1  0.723158  0.722892  0.722794  1
  Cs  Cs1  1  0.277068  0.277148  0.277158  1
  Ta  Ta2  1  0.576426  0.361354  0.690507  1
  Ta  Ta3  1  0.361299  0.690543  0.576418  1
  Ta  Ta4  1  0.690086  0.576200  0.361665  1
  Ta  Ta5  1  0.638708  0.309467  0.423561  1
  Ta  Ta6  1  0.423580  0.638670  0.309446  1
  Nb  Nb7  1  0.308301  0.423078  0.639483  1
  Sn  Sn8  1  0.000096  0.000987  0.999561  1
  Br  Br9  1  0.906871  0.359680  0.231856  1
  Br  Br10  1  0.831506  0.422320  0.564971  1
  Br  Br11  1  0.767866  0.093527  0.640190  1
  Br  Br12  1  0.092787  0.641874  0.768092  1
  Br  Br13  1  0.679734  0.171778  0.959008  1
  Br  Br14  1  0.232087  0.906437  0.359846  1
  Br  Br15  1  0.436585  0.167476  0.576714  1
  Br  Br16  1  0.640337  0.768077  0.093169  1
  Br  Br17  1  0.577617  0.435070  0.168825  1
  Br  Br18  1  0.039228  0.319318  0.829604  1
  Br  Br19  1  0.564985  0.831493  0.422311  1
  Br  Br20  1  0.360834  0.231324  0.907693  1
  Br  Br21  1  0.958808  0.679332  0.172007  1
  Br  Br22  1  0.168610  0.578693  0.433440  1
  Br  Br23  1  0.828456  0.040993  0.320266  1
  Br  Br24  1  0.422339  0.564903  0.831221  1
  Br  Br25  1  0.171925  0.959137  0.679379  1
  Br  Br26  1  0.320703  0.828229  0.040814  1
