# generated using pymatgen
data_Tb2Ta3P7(RuRh2)3
_symmetry_space_group_name_H-M   'P 1'
_cell_length_a   3.86505000
_cell_length_b   9.69945508
_cell_length_c   9.69930300
_cell_angle_alpha   119.99958655
_cell_angle_beta   89.99939636
_cell_angle_gamma   90.00038486
_symmetry_Int_Tables_number   1
_chemical_formula_structural   Tb2Ta3P7(RuRh2)3
_chemical_formula_sum   'Tb2 Ta3 P7 Ru3 Rh6'
_cell_volume   314.90200124
_cell_formula_units_Z   1
loop_
 _symmetry_equiv_pos_site_id
 _symmetry_equiv_pos_as_xyz
  1  'x, y, z'
loop_
 _atom_site_type_symbol
 _atom_site_label
 _atom_site_symmetry_multiplicity
 _atom_site_fract_x
 _atom_site_fract_y
 _atom_site_fract_z
 _atom_site_occupancy
  Tb  Tb0  1  0.261693  0.666638  0.333333  1
  Tb  Tb1  1  0.761991  0.333328  0.666672  1
  Ta  Ta2  1  0.761976  0.099683  0.878274  1
  Ta  Ta3  1  0.761972  0.121736  0.221399  1
  Ta  Ta4  1  0.761968  0.778597  0.900303  1
  P  P5  1  0.262089  0.000027  0.000024  1
  P  P6  1  0.761774  0.872072  0.587733  1
  P  P7  1  0.761757  0.412249  0.284347  1
  P  P8  1  0.761763  0.715676  0.127940  1
  P  P9  1  0.261942  0.114586  0.415388  1
  P  P10  1  0.261935  0.584606  0.699201  1
  P  P11  1  0.261942  0.300795  0.885397  1
  Ru  Ru12  1  0.261782  0.884605  0.159374  1
  Ru  Ru13  1  0.261793  0.840662  0.725239  1
  Ru  Ru14  1  0.261769  0.274777  0.115414  1
  Rh  Rh15  1  0.761918  0.609202  0.555942  1
  Rh  Rh16  1  0.761909  0.444074  0.053245  1
  Rh  Rh17  1  0.761925  0.946700  0.390775  1
  Rh  Rh18  1  0.262028  0.365347  0.437861  1
  Rh  Rh19  1  0.262029  0.562152  0.927505  1
  Rh  Rh20  1  0.262046  0.072488  0.634633  1
