# generated using pymatgen
data_YbMnCr(Sb6Pt)2
_symmetry_space_group_name_H-M   'P 1'
_cell_length_a   8.20374252
_cell_length_b   8.18484310
_cell_length_c   8.13771766
_cell_angle_alpha   109.19472507
_cell_angle_beta   109.50041136
_cell_angle_gamma   109.59261875
_symmetry_Int_Tables_number   1
_chemical_formula_structural   YbMnCr(Sb6Pt)2
_chemical_formula_sum   'Yb1 Mn1 Cr1 Sb12 Pt2'
_cell_volume   421.28093485
_cell_formula_units_Z   1
loop_
 _symmetry_equiv_pos_site_id
 _symmetry_equiv_pos_as_xyz
  1  'x, y, z'
loop_
 _atom_site_type_symbol
 _atom_site_label
 _atom_site_symmetry_multiplicity
 _atom_site_fract_x
 _atom_site_fract_y
 _atom_site_fract_z
 _atom_site_occupancy
  Yb  Yb0  1  0.000000  0.000000  0.000000  1
  Mn  Mn1  1  0.500000  0.500000  0.500000  1
  Cr  Cr2  1  0.000000  0.000000  0.500000  1
  Sb  Sb3  1  0.831043  0.664670  0.507500  1
  Sb  Sb4  1  0.168957  0.335330  0.492500  1
  Sb  Sb5  1  0.150499  0.654217  0.803690  1
  Sb  Sb6  1  0.849501  0.345783  0.196310  1
  Sb  Sb7  1  0.653756  0.505787  0.833635  1
  Sb  Sb8  1  0.346244  0.494213  0.166365  1
  Sb  Sb9  1  0.663362  0.814455  0.159445  1
  Sb  Sb10  1  0.336638  0.185545  0.840555  1
  Sb  Sb11  1  0.505427  0.831610  0.651896  1
  Sb  Sb12  1  0.494573  0.168390  0.348104  1
  Sb  Sb13  1  0.184875  0.849401  0.345298  1
  Sb  Sb14  1  0.815125  0.150599  0.654702  1
  Pt  Pt15  1  0.500000  0.000000  0.000000  1
  Pt  Pt16  1  0.000000  0.500000  0.000000  1
