# generated using pymatgen
data_Th2Zn2Si3GeIr2
_symmetry_space_group_name_H-M   'P 1'
_cell_length_a   4.24629500
_cell_length_b   4.24629500
_cell_length_c   10.19787400
_cell_angle_alpha   90.00000000
_cell_angle_beta   90.00000000
_cell_angle_gamma   90.00000000
_symmetry_Int_Tables_number   1
_chemical_formula_structural   Th2Zn2Si3GeIr2
_chemical_formula_sum   'Th2 Zn2 Si3 Ge1 Ir2'
_cell_volume   183.87808256
_cell_formula_units_Z   1
loop_
 _symmetry_equiv_pos_site_id
 _symmetry_equiv_pos_as_xyz
  1  'x, y, z'
loop_
 _atom_site_type_symbol
 _atom_site_label
 _atom_site_symmetry_multiplicity
 _atom_site_fract_x
 _atom_site_fract_y
 _atom_site_fract_z
 _atom_site_occupancy
  Th  Th0  1  0.000000  0.500000  0.263075  1
  Th  Th1  1  0.500000  0.000000  0.733898  1
  Zn  Zn2  1  0.000000  0.000000  0.004601  1
  Zn  Zn3  1  0.500000  0.500000  0.004601  1
  Si  Si4  1  0.000000  0.000000  0.498410  1
  Si  Si5  1  0.500000  0.500000  0.498410  1
  Si  Si6  1  0.500000  0.000000  0.145714  1
  Ge  Ge7  1  0.000000  0.500000  0.857166  1
  Ir  Ir8  1  0.000000  0.500000  0.615407  1
  Ir  Ir9  1  0.500000  0.000000  0.378717  1
