# generated using pymatgen
data_Yb8Re11Si16Ir
_symmetry_space_group_name_H-M   'P 1'
_cell_length_a   6.73574867
_cell_length_b   6.73574770
_cell_length_c   12.73484839
_cell_angle_alpha   90.01322896
_cell_angle_beta   89.98677103
_cell_angle_gamma   90.15140752
_symmetry_Int_Tables_number   1
_chemical_formula_structural   Yb8Re11Si16Ir
_chemical_formula_sum   'Yb8 Re11 Si16 Ir1'
_cell_volume   577.78188937
_cell_formula_units_Z   1
loop_
 _symmetry_equiv_pos_site_id
 _symmetry_equiv_pos_as_xyz
  1  'x, y, z'
loop_
 _atom_site_type_symbol
 _atom_site_label
 _atom_site_symmetry_multiplicity
 _atom_site_fract_x
 _atom_site_fract_y
 _atom_site_fract_z
 _atom_site_occupancy
  Yb  Yb0  1  0.997995  0.669091  0.029161  1
  Yb  Yb1  1  0.000728  0.332617  0.529306  1
  Yb  Yb2  1  0.332617  0.000728  0.470694  1
  Yb  Yb3  1  0.168563  0.501174  0.779122  1
  Yb  Yb4  1  0.831493  0.499417  0.279286  1
  Yb  Yb5  1  0.501174  0.168563  0.220878  1
  Yb  Yb6  1  0.499417  0.831493  0.720714  1
  Yb  Yb7  1  0.669091  0.997995  0.970839  1
  Re  Re8  1  0.165463  0.837390  0.247494  1
  Re  Re9  1  0.334602  0.334602  0.000000  1
  Re  Re10  1  0.008522  0.821443  0.627646  1
  Re  Re11  1  0.993236  0.178585  0.128914  1
  Re  Re12  1  0.821443  0.008522  0.372354  1
  Re  Re13  1  0.323800  0.492721  0.380742  1
  Re  Re14  1  0.676270  0.504860  0.879339  1
  Re  Re15  1  0.492721  0.323800  0.619258  1
  Re  Re16  1  0.504860  0.676270  0.120661  1
  Re  Re17  1  0.178585  0.993236  0.871086  1
  Re  Re18  1  0.837390  0.165463  0.752506  1
  Si  Si19  1  0.024992  0.717718  0.435591  1
  Si  Si20  1  0.617721  0.300207  0.436306  1
  Si  Si21  1  0.378980  0.698501  0.936226  1
  Si  Si22  1  0.197836  0.120279  0.686550  1
  Si  Si23  1  0.300207  0.617721  0.563694  1
  Si  Si24  1  0.698501  0.378980  0.063774  1
  Si  Si25  1  0.801466  0.879072  0.186919  1
  Si  Si26  1  0.120279  0.197836  0.313450  1
  Si  Si27  1  0.977343  0.284593  0.935865  1
  Si  Si28  1  0.717718  0.024992  0.564409  1
  Si  Si29  1  0.213729  0.477741  0.186771  1
  Si  Si30  1  0.784447  0.520236  0.687701  1
  Si  Si31  1  0.477741  0.213729  0.813229  1
  Si  Si32  1  0.520236  0.784447  0.312299  1
  Si  Si33  1  0.284593  0.977343  0.064135  1
  Si  Si34  1  0.879072  0.801466  0.813081  1
  Ir  Ir35  1  0.667170  0.667170  0.500000  1
