# generated using pymatgen
data_Sc4TiCo16(MoP4)3
_symmetry_space_group_name_H-M   'P 1'
_cell_length_a   3.64195400
_cell_length_b   10.32052564
_cell_length_c   11.79722401
_cell_angle_alpha   90.08194650
_cell_angle_beta   90.00000000
_cell_angle_gamma   90.00000000
_symmetry_Int_Tables_number   1
_chemical_formula_structural   Sc4TiCo16(MoP4)3
_chemical_formula_sum   'Sc4 Ti1 Co16 Mo3 P12'
_cell_volume   443.42038558
_cell_formula_units_Z   1
loop_
 _symmetry_equiv_pos_site_id
 _symmetry_equiv_pos_as_xyz
  1  'x, y, z'
loop_
 _atom_site_type_symbol
 _atom_site_label
 _atom_site_symmetry_multiplicity
 _atom_site_fract_x
 _atom_site_fract_y
 _atom_site_fract_z
 _atom_site_occupancy
  Sc  Sc0  1  0.250000  0.582304  0.705423  1
  Sc  Sc1  1  0.250000  0.917046  0.205605  1
  Sc  Sc2  1  0.750000  0.417458  0.294069  1
  Sc  Sc3  1  0.750000  0.083262  0.795056  1
  Ti  Ti4  1  0.250000  0.705183  0.990068  1
  Co  Co5  1  0.250000  0.407443  0.487244  1
  Co  Co6  1  0.250000  0.092866  0.987181  1
  Co  Co7  1  0.750000  0.592375  0.514030  1
  Co  Co8  1  0.750000  0.906728  0.012173  1
  Co  Co9  1  0.250000  0.222253  0.178521  1
  Co  Co10  1  0.250000  0.277635  0.678549  1
  Co  Co11  1  0.750000  0.778982  0.821909  1
  Co  Co12  1  0.750000  0.721305  0.322993  1
  Co  Co13  1  0.250000  0.888587  0.701302  1
  Co  Co14  1  0.250000  0.613343  0.201660  1
  Co  Co15  1  0.750000  0.111826  0.297820  1
  Co  Co16  1  0.750000  0.387589  0.798079  1
  Co  Co17  1  0.250000  0.464947  0.931289  1
  Co  Co18  1  0.250000  0.034745  0.431603  1
  Co  Co19  1  0.750000  0.535981  0.067162  1
  Co  Co20  1  0.750000  0.965277  0.567780  1
  Mo  Mo21  1  0.250000  0.789228  0.488447  1
  Mo  Mo22  1  0.750000  0.290035  0.011764  1
  Mo  Mo23  1  0.750000  0.210657  0.511832  1
  P  P24  1  0.250000  0.421089  0.117574  1
  P  P25  1  0.250000  0.079465  0.617466  1
  P  P26  1  0.750000  0.579059  0.880960  1
  P  P27  1  0.750000  0.920587  0.382004  1
  P  P28  1  0.250000  0.263848  0.863991  1
  P  P29  1  0.250000  0.236009  0.363784  1
  P  P30  1  0.750000  0.735793  0.137859  1
  P  P31  1  0.750000  0.764557  0.636430  1
  P  P32  1  0.250000  0.591921  0.389464  1
  P  P33  1  0.250000  0.910694  0.887276  1
  P  P34  1  0.750000  0.407275  0.611071  1
  P  P35  1  0.750000  0.092647  0.110560  1
