# generated using pymatgen
data_Ho16Lu4Sn9Pb7
_symmetry_space_group_name_H-M   'P 1'
_cell_length_a   8.10997252
_cell_length_b   8.16125874
_cell_length_c   15.49139700
_cell_angle_alpha   89.99922073
_cell_angle_beta   89.96493006
_cell_angle_gamma   90.02443072
_symmetry_Int_Tables_number   1
_chemical_formula_structural   Ho16Lu4Sn9Pb7
_chemical_formula_sum   'Ho16 Lu4 Sn9 Pb7'
_cell_volume   1025.33785678
_cell_formula_units_Z   1
loop_
 _symmetry_equiv_pos_site_id
 _symmetry_equiv_pos_as_xyz
  1  'x, y, z'
loop_
 _atom_site_type_symbol
 _atom_site_label
 _atom_site_symmetry_multiplicity
 _atom_site_fract_x
 _atom_site_fract_y
 _atom_site_fract_z
 _atom_site_occupancy
  Ho  Ho0  1  0.380082  0.839782  0.878359  1
  Ho  Ho1  1  0.880579  0.660884  0.623229  1
  Ho  Ho2  1  0.618744  0.161429  0.376842  1
  Ho  Ho3  1  0.120462  0.335848  0.122507  1
  Ho  Ho4  1  0.617307  0.161417  0.122513  1
  Ho  Ho5  1  0.118914  0.338578  0.376798  1
  Ho  Ho6  1  0.380505  0.838653  0.622908  1
  Ho  Ho7  1  0.880168  0.661045  0.876943  1
  Ho  Ho8  1  0.535960  0.323459  0.897289  1
  Ho  Ho9  1  0.037324  0.175509  0.603580  1
  Ho  Ho10  1  0.462052  0.675718  0.395950  1
  Ho  Ho11  1  0.966342  0.826624  0.102713  1
  Ho  Ho12  1  0.462059  0.678327  0.103140  1
  Ho  Ho13  1  0.962398  0.824530  0.396012  1
  Ho  Ho14  1  0.537962  0.324932  0.603829  1
  Ho  Ho15  1  0.039486  0.173943  0.897801  1
  Lu  Lu16  1  0.210813  0.503621  0.750068  1
  Lu  Lu17  1  0.710846  0.996094  0.750095  1
  Lu  Lu18  1  0.789244  0.496136  0.249632  1
  Lu  Lu19  1  0.288905  0.003804  0.248613  1
  Sn  Sn20  1  0.282151  0.031615  0.042680  1
  Sn  Sn21  1  0.575320  0.623044  0.750440  1
  Sn  Sn22  1  0.075709  0.877181  0.750248  1
  Sn  Sn23  1  0.423944  0.377978  0.249895  1
  Sn  Sn24  1  0.923271  0.122661  0.249946  1
  Sn  Sn25  1  0.345775  0.149937  0.750049  1
  Sn  Sn26  1  0.845991  0.349262  0.750700  1
  Sn  Sn27  1  0.654951  0.850477  0.249755  1
  Sn  Sn28  1  0.154242  0.649472  0.249608  1
  Pb  Pb29  1  0.780365  0.468516  0.457913  1
  Pb  Pb30  1  0.719269  0.967892  0.541757  1
  Pb  Pb31  1  0.218446  0.532360  0.958455  1
  Pb  Pb32  1  0.719658  0.967716  0.958323  1
  Pb  Pb33  1  0.219260  0.531725  0.541845  1
  Pb  Pb34  1  0.280373  0.031728  0.457632  1
  Pb  Pb35  1  0.781125  0.468102  0.041932  1
