# generated using pymatgen
data_V12Si3Ni8AsN4
_symmetry_space_group_name_H-M   'P 1'
_cell_length_a   7.59632686
_cell_length_b   7.59632723
_cell_length_c   7.59632649
_cell_angle_alpha   60.03362231
_cell_angle_beta   60.03362169
_cell_angle_gamma   60.03362285
_symmetry_Int_Tables_number   1
_chemical_formula_structural   V12Si3Ni8AsN4
_chemical_formula_sum   'V12 Si3 Ni8 As1 N4'
_cell_volume   310.18929059
_cell_formula_units_Z   1
loop_
 _symmetry_equiv_pos_site_id
 _symmetry_equiv_pos_as_xyz
  1  'x, y, z'
loop_
 _atom_site_type_symbol
 _atom_site_label
 _atom_site_symmetry_multiplicity
 _atom_site_fract_x
 _atom_site_fract_y
 _atom_site_fract_z
 _atom_site_occupancy
  V  V0  1  0.816569  0.816569  0.181727  1
  V  V1  1  0.184446  0.184446  0.815679  1
  V  V2  1  0.816569  0.181727  0.816569  1
  V  V3  1  0.184446  0.815679  0.184446  1
  V  V4  1  0.181727  0.816569  0.816569  1
  V  V5  1  0.815679  0.184446  0.184446  1
  V  V6  1  0.433431  0.433431  0.068273  1
  V  V7  1  0.065554  0.065554  0.434321  1
  V  V8  1  0.433431  0.068273  0.433431  1
  V  V9  1  0.065554  0.434321  0.065554  1
  V  V10  1  0.068273  0.433431  0.433431  1
  V  V11  1  0.434321  0.065554  0.065554  1
  Si  Si12  1  0.125000  0.625000  0.625000  1
  Si  Si13  1  0.625000  0.125000  0.625000  1
  Si  Si14  1  0.625000  0.625000  0.125000  1
  Ni  Ni15  1  0.752712  0.413581  0.413581  1
  Ni  Ni16  1  0.413581  0.752712  0.413581  1
  Ni  Ni17  1  0.413581  0.413581  0.752712  1
  Ni  Ni18  1  0.416467  0.416467  0.416467  1
  Ni  Ni19  1  0.497288  0.836419  0.836419  1
  Ni  Ni20  1  0.836419  0.497288  0.836419  1
  Ni  Ni21  1  0.836419  0.836419  0.497288  1
  Ni  Ni22  1  0.833533  0.833533  0.833533  1
  As  As23  1  0.625000  0.625000  0.625000  1
  N  N24  1  0.625000  0.125000  0.125000  1
  N  N25  1  0.125000  0.625000  0.125000  1
  N  N26  1  0.125000  0.125000  0.625000  1
  N  N27  1  0.125000  0.125000  0.125000  1
