# generated using pymatgen
data_DyY9(Bi2Ru)2
_symmetry_space_group_name_H-M   'P 1'
_cell_length_a   8.00145169
_cell_length_b   9.04343360
_cell_length_c   12.49062574
_cell_angle_alpha   89.97718458
_cell_angle_beta   89.96788082
_cell_angle_gamma   89.96488283
_symmetry_Int_Tables_number   1
_chemical_formula_structural   DyY9(Bi2Ru)2
_chemical_formula_sum   'Dy2 Y18 Bi8 Ru4'
_cell_volume   903.82875313
_cell_formula_units_Z   2
loop_
 _symmetry_equiv_pos_site_id
 _symmetry_equiv_pos_as_xyz
  1  'x, y, z'
loop_
 _atom_site_type_symbol
 _atom_site_label
 _atom_site_symmetry_multiplicity
 _atom_site_fract_x
 _atom_site_fract_y
 _atom_site_fract_z
 _atom_site_occupancy
  Dy  Dy0  1  0.825030  0.459010  0.064046  1
  Dy  Dy1  1  0.174970  0.540990  0.935954  1
  Y  Y2  1  0.842434  0.749861  0.792910  1
  Y  Y3  1  0.157566  0.250139  0.207090  1
  Y  Y4  1  0.342395  0.250060  0.707061  1
  Y  Y5  1  0.657605  0.749940  0.292939  1
  Y  Y6  1  0.375193  0.749931  0.692212  1
  Y  Y7  1  0.624807  0.250069  0.307788  1
  Y  Y8  1  0.875146  0.250118  0.807757  1
  Y  Y9  1  0.124854  0.749882  0.192243  1
  Y  Y10  1  0.947042  0.749950  0.504243  1
  Y  Y11  1  0.052958  0.250050  0.495757  1
  Y  Y12  1  0.446987  0.250424  0.995765  1
  Y  Y13  1  0.553013  0.749576  0.004235  1
  Y  Y14  1  0.675933  0.041142  0.564612  1
  Y  Y15  1  0.324067  0.958858  0.435388  1
  Y  Y16  1  0.175820  0.958767  0.935461  1
  Y  Y17  1  0.324056  0.541128  0.435379  1
  Y  Y18  1  0.824180  0.041233  0.064539  1
  Y  Y19  1  0.675944  0.458872  0.564621  1
  Bi  Bi20  1  0.568985  0.493165  0.827340  1
  Bi  Bi21  1  0.431015  0.506835  0.172660  1
  Bi  Bi22  1  0.068992  0.506818  0.672560  1
  Bi  Bi23  1  0.431078  0.993237  0.172542  1
  Bi  Bi24  1  0.931008  0.493182  0.327440  1
  Bi  Bi25  1  0.568922  0.006763  0.827458  1
  Bi  Bi26  1  0.931071  0.006798  0.327409  1
  Bi  Bi27  1  0.068929  0.993202  0.672591  1
  Ru  Ru28  1  0.573129  0.750004  0.510835  1
  Ru  Ru29  1  0.426871  0.249996  0.489165  1
  Ru  Ru30  1  0.072922  0.251499  0.989174  1
  Ru  Ru31  1  0.927078  0.748501  0.010826  1
