# generated using pymatgen
data_Dy16ErLu3Sn16
_symmetry_space_group_name_H-M   'P 1'
_cell_length_a   8.00289951
_cell_length_b   8.15243506
_cell_length_c   15.43428600
_cell_angle_alpha   90.00000000
_cell_angle_beta   90.00000000
_cell_angle_gamma   90.01328415
_symmetry_Int_Tables_number   1
_chemical_formula_structural   Dy16ErLu3Sn16
_chemical_formula_sum   'Dy16 Er1 Lu3 Sn16'
_cell_volume   1006.98092386
_cell_formula_units_Z   1
loop_
 _symmetry_equiv_pos_site_id
 _symmetry_equiv_pos_as_xyz
  1  'x, y, z'
loop_
 _atom_site_type_symbol
 _atom_site_label
 _atom_site_symmetry_multiplicity
 _atom_site_fract_x
 _atom_site_fract_y
 _atom_site_fract_z
 _atom_site_occupancy
  Dy  Dy0  1  0.367973  0.836386  0.877994  1
  Dy  Dy1  1  0.867741  0.663795  0.621999  1
  Dy  Dy2  1  0.632103  0.163735  0.377997  1
  Dy  Dy3  1  0.132095  0.336311  0.121964  1
  Dy  Dy4  1  0.632103  0.163735  0.122003  1
  Dy  Dy5  1  0.132095  0.336311  0.378036  1
  Dy  Dy6  1  0.367973  0.836386  0.622006  1
  Dy  Dy7  1  0.867741  0.663795  0.878001  1
  Dy  Dy8  1  0.521041  0.320411  0.902371  1
  Dy  Dy9  1  0.020952  0.179586  0.597640  1
  Dy  Dy10  1  0.478994  0.679562  0.402374  1
  Dy  Dy11  1  0.979010  0.820406  0.097641  1
  Dy  Dy12  1  0.478994  0.679562  0.097626  1
  Dy  Dy13  1  0.979010  0.820406  0.402359  1
  Dy  Dy14  1  0.521041  0.320411  0.597629  1
  Dy  Dy15  1  0.020952  0.179586  0.902360  1
  Er  Er16  1  0.198760  0.502744  0.750000  1
  Lu  Lu17  1  0.698882  0.997320  0.750000  1
  Lu  Lu18  1  0.801122  0.497286  0.250000  1
  Lu  Lu19  1  0.301127  0.002683  0.250000  1
  Sn  Sn20  1  0.292339  0.035293  0.042307  1
  Sn  Sn21  1  0.792305  0.464657  0.457690  1
  Sn  Sn22  1  0.707657  0.964618  0.542316  1
  Sn  Sn23  1  0.207637  0.535306  0.957859  1
  Sn  Sn24  1  0.707657  0.964618  0.957684  1
  Sn  Sn25  1  0.207637  0.535306  0.542141  1
  Sn  Sn26  1  0.292339  0.035293  0.457693  1
  Sn  Sn27  1  0.792305  0.464657  0.042310  1
  Sn  Sn28  1  0.565157  0.618890  0.750000  1
  Sn  Sn29  1  0.064481  0.881398  0.750000  1
  Sn  Sn30  1  0.435479  0.381109  0.250000  1
  Sn  Sn31  1  0.935452  0.118848  0.250000  1
  Sn  Sn32  1  0.329756  0.147805  0.750000  1
  Sn  Sn33  1  0.829751  0.351729  0.750000  1
  Sn  Sn34  1  0.670181  0.851671  0.250000  1
  Sn  Sn35  1  0.170159  0.648382  0.250000  1
