# generated using pymatgen
data_Nd8CdHgPd23
_symmetry_space_group_name_H-M   'P 1'
_cell_length_a   8.51009000
_cell_length_b   8.63710900
_cell_length_c   8.63710900
_cell_angle_alpha   90.00000000
_cell_angle_beta   90.00000000
_cell_angle_gamma   90.00000000
_symmetry_Int_Tables_number   1
_chemical_formula_structural   Nd8CdHgPd23
_chemical_formula_sum   'Nd8 Cd1 Hg1 Pd23'
_cell_volume   634.84975145
_cell_formula_units_Z   1
loop_
 _symmetry_equiv_pos_site_id
 _symmetry_equiv_pos_as_xyz
  1  'x, y, z'
loop_
 _atom_site_type_symbol
 _atom_site_label
 _atom_site_symmetry_multiplicity
 _atom_site_fract_x
 _atom_site_fract_y
 _atom_site_fract_z
 _atom_site_occupancy
  Nd  Nd0  1  0.248849  0.240823  0.240823  1
  Nd  Nd1  1  0.749522  0.749110  0.749110  1
  Nd  Nd2  1  0.749522  0.749110  0.250890  1
  Nd  Nd3  1  0.749522  0.250890  0.749110  1
  Nd  Nd4  1  0.248849  0.240823  0.759177  1
  Nd  Nd5  1  0.248849  0.759177  0.240823  1
  Nd  Nd6  1  0.248849  0.759177  0.759177  1
  Nd  Nd7  1  0.749522  0.250890  0.250890  1
  Cd  Cd8  1  0.999101  0.000000  0.000000  1
  Hg  Hg9  1  0.261021  0.500000  0.500000  1
  Pd  Pd10  1  0.265416  0.500000  0.000000  1
  Pd  Pd11  1  0.732933  0.500000  0.000000  1
  Pd  Pd12  1  0.002881  0.264721  0.500000  1
  Pd  Pd13  1  0.501453  0.268197  0.000000  1
  Pd  Pd14  1  0.002881  0.735279  0.500000  1
  Pd  Pd15  1  0.501453  0.731803  0.000000  1
  Pd  Pd16  1  0.501453  0.000000  0.268197  1
  Pd  Pd17  1  0.265416  0.000000  0.500000  1
  Pd  Pd18  1  0.501453  0.000000  0.731803  1
  Pd  Pd19  1  0.732933  0.000000  0.500000  1
  Pd  Pd20  1  0.002881  0.500000  0.264721  1
  Pd  Pd21  1  0.002881  0.500000  0.735279  1
  Pd  Pd22  1  0.745820  0.500000  0.500000  1
  Pd  Pd23  1  0.497530  0.250991  0.500000  1
  Pd  Pd24  1  0.497530  0.749009  0.500000  1
  Pd  Pd25  1  0.497530  0.500000  0.250991  1
  Pd  Pd26  1  0.497530  0.500000  0.749009  1
  Pd  Pd27  1  0.320343  0.000000  0.000000  1
  Pd  Pd28  1  0.682827  0.000000  0.000000  1
  Pd  Pd29  1  0.998312  0.314322  0.000000  1
  Pd  Pd30  1  0.998312  0.685678  0.000000  1
  Pd  Pd31  1  0.998312  0.000000  0.314322  1
  Pd  Pd32  1  0.998312  0.000000  0.685678  1
