# generated using pymatgen
data_Yb2HoEr(Pd2Pb)2
_symmetry_space_group_name_H-M   'P 1'
_cell_length_a   7.85980602
_cell_length_b   7.85960063
_cell_length_c   3.64792900
_cell_angle_alpha   90.00000000
_cell_angle_beta   90.00000000
_cell_angle_gamma   91.16750642
_symmetry_Int_Tables_number   1
_chemical_formula_structural   Yb2HoEr(Pd2Pb)2
_chemical_formula_sum   'Yb2 Ho1 Er1 Pd4 Pb2'
_cell_volume   225.30379894
_cell_formula_units_Z   1
loop_
 _symmetry_equiv_pos_site_id
 _symmetry_equiv_pos_as_xyz
  1  'x, y, z'
loop_
 _atom_site_type_symbol
 _atom_site_label
 _atom_site_symmetry_multiplicity
 _atom_site_fract_x
 _atom_site_fract_y
 _atom_site_fract_z
 _atom_site_occupancy
  Yb  Yb0  1  0.169192  0.330604  0.500000  1
  Yb  Yb1  1  0.830599  0.669189  0.500000  1
  Ho  Ho2  1  0.671407  0.171405  0.500000  1
  Er  Er3  1  0.329389  0.829387  0.500000  1
  Pd  Pd4  1  0.373579  0.123951  0.000000  1
  Pd  Pd5  1  0.129412  0.629418  0.000000  1
  Pd  Pd6  1  0.623951  0.873577  0.000000  1
  Pd  Pd7  1  0.872434  0.372441  0.000000  1
  Pb  Pb8  1  0.000085  0.999944  0.000000  1
  Pb  Pb9  1  0.499952  0.500086  0.000000  1
