# generated using pymatgen
data_Hf3Cu3Si2Pt
_symmetry_space_group_name_H-M   'P 1'
_cell_length_a   6.41921400
_cell_length_b   6.39707092
_cell_length_c   3.96082100
_cell_angle_alpha   90.00000000
_cell_angle_beta   90.00000000
_cell_angle_gamma   120.11456975
_symmetry_Int_Tables_number   1
_chemical_formula_structural   Hf3Cu3Si2Pt
_chemical_formula_sum   'Hf3 Cu3 Si2 Pt1'
_cell_volume   140.69424198
_cell_formula_units_Z   1
loop_
 _symmetry_equiv_pos_site_id
 _symmetry_equiv_pos_as_xyz
  1  'x, y, z'
loop_
 _atom_site_type_symbol
 _atom_site_label
 _atom_site_symmetry_multiplicity
 _atom_site_fract_x
 _atom_site_fract_y
 _atom_site_fract_z
 _atom_site_occupancy
  Hf  Hf0  1  0.000397  0.590407  0.500000  1
  Hf  Hf1  1  0.409989  0.409593  0.500000  1
  Hf  Hf2  1  0.589584  0.000000  0.500000  1
  Cu  Cu3  1  0.998966  0.249536  0.000000  1
  Cu  Cu4  1  0.989159  0.000000  0.500000  1
  Cu  Cu5  1  0.749430  0.750464  0.000000  1
  Si  Si6  1  0.672739  0.338622  0.000000  1
  Si  Si7  1  0.334116  0.661378  0.000000  1
  Pt  Pt8  1  0.255620  0.000000  0.000000  1
