# generated using pymatgen
data_TmInAg10(SnO6)2
_symmetry_space_group_name_H-M   'P 1'
_cell_length_a   8.76162085
_cell_length_b   8.76162211
_cell_length_c   5.90599400
_cell_angle_alpha   70.32615121
_cell_angle_beta   70.32614828
_cell_angle_gamma   71.10084407
_symmetry_Int_Tables_number   1
_chemical_formula_structural   TmInAg10(SnO6)2
_chemical_formula_sum   'Tm1 In1 Ag10 Sn2 O12'
_cell_volume   390.49224518
_cell_formula_units_Z   1
loop_
 _symmetry_equiv_pos_site_id
 _symmetry_equiv_pos_as_xyz
  1  'x, y, z'
loop_
 _atom_site_type_symbol
 _atom_site_label
 _atom_site_symmetry_multiplicity
 _atom_site_fract_x
 _atom_site_fract_y
 _atom_site_fract_z
 _atom_site_occupancy
  Tm  Tm0  1  0.084767  0.915233  0.000000  1
  In  In1  1  0.419664  0.580336  0.000000  1
  Ag  Ag2  1  0.251321  0.249199  0.002210  1
  Ag  Ag3  1  0.748215  0.751384  0.498549  1
  Ag  Ag4  1  0.248616  0.251785  0.501451  1
  Ag  Ag5  1  0.750801  0.748679  0.997790  1
  Ag  Ag6  1  0.502696  0.001561  0.748283  1
  Ag  Ag7  1  0.998439  0.497304  0.251717  1
  Ag  Ag8  1  0.113859  0.613753  0.635092  1
  Ag  Ag9  1  0.613423  0.113700  0.136519  1
  Ag  Ag10  1  0.386247  0.886141  0.364908  1
  Ag  Ag11  1  0.886300  0.386577  0.863481  1
  Sn  Sn12  1  0.914068  0.085932  0.500000  1
  Sn  Sn13  1  0.582603  0.417397  0.500000  1
  O  O14  1  0.653882  0.528472  0.703743  1
  O  O15  1  0.141408  0.043267  0.226734  1
  O  O16  1  0.540698  0.643843  0.223961  1
  O  O17  1  0.027910  0.154392  0.700667  1
  O  O18  1  0.350611  0.842299  0.792647  1
  O  O19  1  0.836620  0.339875  0.295633  1
  O  O20  1  0.356157  0.459302  0.776039  1
  O  O21  1  0.845608  0.972090  0.299333  1
  O  O22  1  0.471528  0.346118  0.296257  1
  O  O23  1  0.956733  0.858592  0.773266  1
  O  O24  1  0.660125  0.163380  0.704367  1
  O  O25  1  0.157701  0.649389  0.207353  1
