# generated using pymatgen
data_Cs2Nd8Y2Os2Br17
_symmetry_space_group_name_H-M   'P 1'
_cell_length_a   9.56364225
_cell_length_b   11.18758368
_cell_length_c   11.14423420
_cell_angle_alpha   107.38586758
_cell_angle_beta   93.69002403
_cell_angle_gamma   93.69056665
_symmetry_Int_Tables_number   1
_chemical_formula_structural   Cs2Nd8Y2Os2Br17
_chemical_formula_sum   'Cs2 Nd8 Y2 Os2 Br17'
_cell_volume   1131.14972972
_cell_formula_units_Z   1
loop_
 _symmetry_equiv_pos_site_id
 _symmetry_equiv_pos_as_xyz
  1  'x, y, z'
loop_
 _atom_site_type_symbol
 _atom_site_label
 _atom_site_symmetry_multiplicity
 _atom_site_fract_x
 _atom_site_fract_y
 _atom_site_fract_z
 _atom_site_occupancy
  Cs  Cs0  1  0.001565  0.822427  0.178799  1
  Cs  Cs1  1  0.001275  0.178946  0.821717  1
  Nd  Nd2  1  0.821836  0.293427  0.290916  1
  Nd  Nd3  1  0.308438  0.429536  0.428097  1
  Nd  Nd4  1  0.426694  0.795501  0.489591  1
  Nd  Nd5  1  0.573290  0.194957  0.511514  1
  Nd  Nd6  1  0.693294  0.564322  0.564151  1
  Nd  Nd7  1  0.171475  0.712109  0.712229  1
  Nd  Nd8  1  0.425201  0.488727  0.796384  1
  Nd  Nd9  1  0.564319  0.836020  0.840874  1
  Y  Y10  1  0.439821  0.170838  0.168779  1
  Y  Y11  1  0.572930  0.509574  0.199181  1
  Os  Os12  1  0.568876  0.359298  0.359040  1
  Os  Os13  1  0.429448  0.641600  0.642279  1
  Br  Br14  1  0.578558  0.681577  0.023699  1
  Br  Br15  1  0.701718  0.071192  0.070327  1
  Br  Br16  1  0.846728  0.454833  0.119362  1
  Br  Br17  1  0.138735  0.205505  0.202463  1
  Br  Br18  1  0.293397  0.602977  0.249674  1
  Br  Br19  1  0.419339  0.980169  0.308050  1
  Br  Br20  1  0.710716  0.739950  0.386474  1
  Br  Br21  1  0.856390  0.120178  0.450138  1
  Br  Br22  1  0.000634  0.500940  0.499811  1
  Br  Br23  1  0.144534  0.879120  0.548659  1
  Br  Br24  1  0.284799  0.252883  0.604099  1
  Br  Br25  1  0.580356  0.017648  0.688780  1
  Br  Br26  1  0.714406  0.393784  0.744482  1
  Br  Br27  1  0.869396  0.797022  0.797595  1
  Br  Br28  1  0.143558  0.550031  0.880360  1
  Br  Br29  1  0.293396  0.938888  0.938035  1
  Br  Br30  1  0.424882  0.316019  0.984442  1
