# generated using pymatgen
data_Hf6Pa2In4PdPt7
_symmetry_space_group_name_H-M   'P 1'
_cell_length_a   7.52936023
_cell_length_b   7.52935982
_cell_length_c   7.04857259
_cell_angle_alpha   90.03255266
_cell_angle_beta   90.03255775
_cell_angle_gamma   91.89775493
_symmetry_Int_Tables_number   1
_chemical_formula_structural   Hf6Pa2In4PdPt7
_chemical_formula_sum   'Hf6 Pa2 In4 Pd1 Pt7'
_cell_volume   399.37317408
_cell_formula_units_Z   1
loop_
 _symmetry_equiv_pos_site_id
 _symmetry_equiv_pos_as_xyz
  1  'x, y, z'
loop_
 _atom_site_type_symbol
 _atom_site_label
 _atom_site_symmetry_multiplicity
 _atom_site_fract_x
 _atom_site_fract_y
 _atom_site_fract_z
 _atom_site_occupancy
  Hf  Hf0  1  0.649198  0.354224  0.498710  1
  Hf  Hf1  1  0.354224  0.649198  0.498710  1
  Hf  Hf2  1  0.687006  0.315893  0.001649  1
  Hf  Hf3  1  0.315893  0.687006  0.001649  1
  Hf  Hf4  1  0.811400  0.811400  0.499750  1
  Hf  Hf5  1  0.185868  0.185868  0.498458  1
  Pa  Pa6  1  0.141398  0.141398  0.000783  1
  Pa  Pa7  1  0.857987  0.857987  0.998814  1
  In  In8  1  0.500361  0.000546  0.258183  1
  In  In9  1  0.499418  0.002047  0.741307  1
  In  In10  1  0.000546  0.500361  0.258183  1
  In  In11  1  0.002047  0.499418  0.741307  1
  Pd  Pd12  1  0.365537  0.365537  0.789862  1
  Pt  Pt13  1  0.367653  0.367653  0.215222  1
  Pt  Pt14  1  0.629438  0.629438  0.784488  1
  Pt  Pt15  1  0.632249  0.632249  0.212679  1
  Pt  Pt16  1  0.863576  0.136203  0.705792  1
  Pt  Pt17  1  0.863993  0.136005  0.294331  1
  Pt  Pt18  1  0.136005  0.863993  0.294331  1
  Pt  Pt19  1  0.136203  0.863576  0.705792  1
