# generated using pymatgen
data_Tb3Co6Tc(NiP3)2
_symmetry_space_group_name_H-M   'P 1'
_cell_length_a   3.75841600
_cell_length_b   10.56518900
_cell_length_c   12.29335200
_cell_angle_alpha   90.00000000
_cell_angle_beta   90.00000000
_cell_angle_gamma   90.00000000
_symmetry_Int_Tables_number   1
_chemical_formula_structural   Tb3Co6Tc(NiP3)2
_chemical_formula_sum   'Tb6 Co12 Tc2 Ni4 P12'
_cell_volume   488.14903590
_cell_formula_units_Z   2
loop_
 _symmetry_equiv_pos_site_id
 _symmetry_equiv_pos_as_xyz
  1  'x, y, z'
loop_
 _atom_site_type_symbol
 _atom_site_label
 _atom_site_symmetry_multiplicity
 _atom_site_fract_x
 _atom_site_fract_y
 _atom_site_fract_z
 _atom_site_occupancy
  Tb  Tb0  1  0.000000  0.500000  0.522702  1
  Tb  Tb1  1  0.500000  0.000000  0.478111  1
  Tb  Tb2  1  0.500000  0.816042  0.205369  1
  Tb  Tb3  1  0.500000  0.183958  0.205369  1
  Tb  Tb4  1  0.000000  0.684176  0.793506  1
  Tb  Tb5  1  0.000000  0.315824  0.793506  1
  Co  Co6  1  0.000000  0.500000  0.986560  1
  Co  Co7  1  0.500000  0.000000  0.012994  1
  Co  Co8  1  0.000000  0.168765  0.009627  1
  Co  Co9  1  0.000000  0.831235  0.009627  1
  Co  Co10  1  0.500000  0.297739  0.431416  1
  Co  Co11  1  0.500000  0.702261  0.431416  1
  Co  Co12  1  0.000000  0.201461  0.569199  1
  Co  Co13  1  0.000000  0.798539  0.569199  1
  Co  Co14  1  0.500000  0.879713  0.708487  1
  Co  Co15  1  0.500000  0.120287  0.708487  1
  Co  Co16  1  0.000000  0.620635  0.292724  1
  Co  Co17  1  0.000000  0.379365  0.292724  1
  Tc  Tc18  1  0.500000  0.500000  0.156983  1
  Tc  Tc19  1  0.000000  0.000000  0.844408  1
  Ni  Ni20  1  0.500000  0.500000  0.700913  1
  Ni  Ni21  1  0.000000  0.000000  0.297111  1
  Ni  Ni22  1  0.500000  0.331209  0.989900  1
  Ni  Ni23  1  0.500000  0.668791  0.989900  1
  P  P24  1  0.500000  0.500000  0.880158  1
  P  P25  1  0.000000  0.000000  0.116508  1
  P  P26  1  0.500000  0.500000  0.348044  1
  P  P27  1  0.000000  0.000000  0.652534  1
  P  P28  1  0.500000  0.309335  0.614714  1
  P  P29  1  0.500000  0.690665  0.614714  1
  P  P30  1  0.000000  0.190357  0.384832  1
  P  P31  1  0.000000  0.809643  0.384832  1
  P  P32  1  0.500000  0.848398  0.892670  1
  P  P33  1  0.500000  0.151602  0.892670  1
  P  P34  1  0.000000  0.651729  0.109044  1
  P  P35  1  0.000000  0.348271  0.109044  1
