# generated using pymatgen
data_Tb8BSCl12
_symmetry_space_group_name_H-M   'P 1'
_cell_length_a   3.91267900
_cell_length_b   12.77071371
_cell_length_c   13.24522382
_cell_angle_alpha   89.92528968
_cell_angle_beta   90.00000000
_cell_angle_gamma   90.00000000
_symmetry_Int_Tables_number   1
_chemical_formula_structural   Tb8BSCl12
_chemical_formula_sum   'Tb8 B1 S1 Cl12'
_cell_volume   661.83285194
_cell_formula_units_Z   1
loop_
 _symmetry_equiv_pos_site_id
 _symmetry_equiv_pos_as_xyz
  1  'x, y, z'
loop_
 _atom_site_type_symbol
 _atom_site_label
 _atom_site_symmetry_multiplicity
 _atom_site_fract_x
 _atom_site_fract_y
 _atom_site_fract_z
 _atom_site_occupancy
  Tb  Tb0  1  0.000000  0.109062  0.086387  1
  Tb  Tb1  1  0.000000  0.890938  0.913613  1
  Tb  Tb2  1  0.000000  0.605157  0.416833  1
  Tb  Tb3  1  0.000000  0.394843  0.583167  1
  Tb  Tb4  1  0.500000  0.130088  0.846996  1
  Tb  Tb5  1  0.500000  0.869912  0.153004  1
  Tb  Tb6  1  0.500000  0.625262  0.647405  1
  Tb  Tb7  1  0.500000  0.374738  0.352595  1
  B  B8  1  0.500000  0.500000  0.500000  1
  S  S9  1  0.500000  0.000000  0.000000  1
  Cl  Cl10  1  0.500000  0.267112  0.684080  1
  Cl  Cl11  1  0.500000  0.732888  0.315920  1
  Cl  Cl12  1  0.500000  0.769139  0.818210  1
  Cl  Cl13  1  0.500000  0.230861  0.181790  1
  Cl  Cl14  1  0.000000  0.255071  0.929225  1
  Cl  Cl15  1  0.000000  0.744929  0.070775  1
  Cl  Cl16  1  0.000000  0.477994  0.244497  1
  Cl  Cl17  1  0.000000  0.522006  0.755503  1
  Cl  Cl18  1  0.000000  0.977866  0.255157  1
  Cl  Cl19  1  0.000000  0.022134  0.744843  1
  Cl  Cl20  1  0.000000  0.244496  0.429340  1
  Cl  Cl21  1  0.000000  0.755504  0.570660  1
