# generated using pymatgen
data_CrGaPO5
_symmetry_space_group_name_H-M   'P 1'
_cell_length_a   5.73311927
_cell_length_b   7.34016852
_cell_length_c   10.59976402
_cell_angle_alpha   90.00214514
_cell_angle_beta   89.99618896
_cell_angle_gamma   98.08251067
_symmetry_Int_Tables_number   1
_chemical_formula_structural   CrGaPO5
_chemical_formula_sum   'Cr4 Ga4 P4 O20'
_cell_volume   441.62903874
_cell_formula_units_Z   4
loop_
 _symmetry_equiv_pos_site_id
 _symmetry_equiv_pos_as_xyz
  1  'x, y, z'
loop_
 _atom_site_type_symbol
 _atom_site_label
 _atom_site_symmetry_multiplicity
 _atom_site_fract_x
 _atom_site_fract_y
 _atom_site_fract_z
 _atom_site_occupancy
  Cr  Cr0  1  0.596687  0.025476  0.358182  1
  Cr  Cr1  1  0.903316  0.974545  0.858210  1
  Cr  Cr2  1  0.403323  0.974509  0.641809  1
  Cr  Cr3  1  0.096695  0.025455  0.141805  1
  Ga  Ga4  1  0.563297  0.362453  0.170344  1
  Ga  Ga5  1  0.936745  0.637556  0.670356  1
  Ga  Ga6  1  0.436722  0.637560  0.829642  1
  Ga  Ga7  1  0.063259  0.362447  0.329645  1
  P  P8  1  0.080044  0.781676  0.400049  1
  P  P9  1  0.419923  0.218325  0.900030  1
  P  P10  1  0.919942  0.218320  0.599961  1
  P  P11  1  0.580073  0.781675  0.099960  1
  O  O12  1  0.768715  0.264091  0.274642  1
  O  O13  1  0.731282  0.735929  0.774676  1
  O  O14  1  0.231307  0.735922  0.725342  1
  O  O15  1  0.268752  0.264101  0.225337  1
  O  O16  1  0.133730  0.614755  0.321373  1
  O  O17  1  0.366193  0.385236  0.821337  1
  O  O18  1  0.866232  0.385235  0.678651  1
  O  O19  1  0.633789  0.614761  0.178643  1
  O  O20  1  0.601639  0.282178  0.005452  1
  O  O21  1  0.898335  0.717837  0.505475  1
  O  O22  1  0.398359  0.717809  0.994542  1
  O  O23  1  0.101640  0.282152  0.494530  1
  O  O24  1  0.973750  0.919025  0.314707  1
  O  O25  1  0.526233  0.080955  0.814703  1
  O  O26  1  0.026248  0.080953  0.685290  1
  O  O27  1  0.473764  0.919023  0.185300  1
  O  O28  1  0.682995  0.124673  0.540176  1
  O  O29  1  0.817035  0.875335  0.040189  1
  O  O30  1  0.317000  0.875344  0.459812  1
  O  O31  1  0.182974  0.124691  0.959828  1
