# generated using pymatgen
data_Rb2V2CoO7
_symmetry_space_group_name_H-M   'P 1'
_cell_length_a   6.04004700
_cell_length_b   8.62811300
_cell_length_c   8.62821500
_cell_angle_alpha   90.00000000
_cell_angle_beta   90.00000000
_cell_angle_gamma   90.00000000
_symmetry_Int_Tables_number   1
_chemical_formula_structural   Rb2V2CoO7
_chemical_formula_sum   'Rb4 V4 Co2 O14'
_cell_volume   449.65259154
_cell_formula_units_Z   2
loop_
 _symmetry_equiv_pos_site_id
 _symmetry_equiv_pos_as_xyz
  1  'x, y, z'
loop_
 _atom_site_type_symbol
 _atom_site_label
 _atom_site_symmetry_multiplicity
 _atom_site_fract_x
 _atom_site_fract_y
 _atom_site_fract_z
 _atom_site_occupancy
  Rb  Rb0  1  0.509629  0.338749  0.161250  1
  Rb  Rb1  1  0.490373  0.838750  0.338749  1
  Rb  Rb2  1  0.490373  0.161250  0.661251  1
  Rb  Rb3  1  0.509629  0.661251  0.838750  1
  V  V4  1  0.044995  0.641915  0.141912  1
  V  V5  1  0.955004  0.141915  0.358088  1
  V  V6  1  0.955004  0.858085  0.641912  1
  V  V7  1  0.044995  0.358085  0.858088  1
  Co  Co8  1  0.999994  0.000000  0.000000  1
  Co  Co9  1  0.000006  0.500001  0.500001  1
  O  O10  1  0.144011  0.500001  0.000000  1
  O  O11  1  0.158284  0.820069  0.087452  1
  O  O12  1  0.766834  0.645134  0.145134  1
  O  O13  1  0.841719  0.087454  0.179937  1
  O  O14  1  0.158285  0.587453  0.320062  1
  O  O15  1  0.233166  0.145135  0.354867  1
  O  O16  1  0.841720  0.320068  0.412549  1
  O  O17  1  0.855989  0.000000  0.500001  1
  O  O18  1  0.841720  0.679932  0.587451  1
  O  O19  1  0.233166  0.854865  0.645133  1
  O  O20  1  0.158285  0.412547  0.679938  1
  O  O21  1  0.841719  0.912546  0.820063  1
  O  O22  1  0.766834  0.354866  0.854866  1
  O  O23  1  0.158284  0.179931  0.912548  1
