# generated using pymatgen
data_Ti5MnZnCo9B4
_symmetry_space_group_name_H-M   'P 1'
_cell_length_a   8.54560376
_cell_length_b   8.52138557
_cell_length_c   2.97024000
_cell_angle_alpha   90.00000000
_cell_angle_beta   90.00000000
_cell_angle_gamma   89.26998259
_symmetry_Int_Tables_number   1
_chemical_formula_structural   Ti5MnZnCo9B4
_chemical_formula_sum   'Ti5 Mn1 Zn1 Co9 B4'
_cell_volume   216.27646280
_cell_formula_units_Z   1
loop_
 _symmetry_equiv_pos_site_id
 _symmetry_equiv_pos_as_xyz
  1  'x, y, z'
loop_
 _atom_site_type_symbol
 _atom_site_label
 _atom_site_symmetry_multiplicity
 _atom_site_fract_x
 _atom_site_fract_y
 _atom_site_fract_z
 _atom_site_occupancy
  Ti  Ti0  1  0.500000  0.500000  0.000000  1
  Ti  Ti1  1  0.827906  0.321890  0.000000  1
  Ti  Ti2  1  0.327832  0.168968  0.000000  1
  Ti  Ti3  1  0.672168  0.831032  0.000000  1
  Ti  Ti4  1  0.172094  0.678110  0.000000  1
  Mn  Mn5  1  0.500000  0.000000  0.500000  1
  Zn  Zn6  1  0.000000  0.000000  0.000000  1
  Co  Co7  1  0.000000  0.500000  0.500000  1
  Co  Co8  1  0.073253  0.220902  0.500000  1
  Co  Co9  1  0.217076  0.924207  0.500000  1
  Co  Co10  1  0.782924  0.075793  0.500000  1
  Co  Co11  1  0.926747  0.779098  0.500000  1
  Co  Co12  1  0.426463  0.716497  0.500000  1
  Co  Co13  1  0.573537  0.283503  0.500000  1
  Co  Co14  1  0.720919  0.570152  0.500000  1
  Co  Co15  1  0.279081  0.429848  0.500000  1
  B  B16  1  0.624720  0.121886  0.000000  1
  B  B17  1  0.121846  0.375303  0.000000  1
  B  B18  1  0.878154  0.624697  0.000000  1
  B  B19  1  0.375280  0.878114  0.000000  1
