# generated using pymatgen
data_Ho8Al9Si7Tc12
_symmetry_space_group_name_H-M   'P 1'
_cell_length_a   6.85521964
_cell_length_b   6.91551933
_cell_length_c   13.00416500
_cell_angle_alpha   89.91612989
_cell_angle_beta   90.02468947
_cell_angle_gamma   89.95733473
_symmetry_Int_Tables_number   1
_chemical_formula_structural   Ho8Al9Si7Tc12
_chemical_formula_sum   'Ho8 Al9 Si7 Tc12'
_cell_volume   616.49281366
_cell_formula_units_Z   1
loop_
 _symmetry_equiv_pos_site_id
 _symmetry_equiv_pos_as_xyz
  1  'x, y, z'
loop_
 _atom_site_type_symbol
 _atom_site_label
 _atom_site_symmetry_multiplicity
 _atom_site_fract_x
 _atom_site_fract_y
 _atom_site_fract_z
 _atom_site_occupancy
  Ho  Ho0  1  0.491754  0.338084  0.093541  1
  Ho  Ho1  1  0.986753  0.165464  0.405755  1
  Ho  Ho2  1  0.509208  0.661284  0.596326  1
  Ho  Ho3  1  0.008373  0.836411  0.907159  1
  Ho  Ho4  1  0.516611  0.666099  0.905349  1
  Ho  Ho5  1  0.013914  0.836214  0.596065  1
  Ho  Ho6  1  0.480441  0.336276  0.404900  1
  Ho  Ho7  1  0.983804  0.165308  0.093873  1
  Al  Al8  1  0.652827  0.057391  0.553580  1
  Al  Al9  1  0.156178  0.444429  0.946530  1
  Al  Al10  1  0.345904  0.943562  0.052952  1
  Al  Al11  1  0.841777  0.554436  0.448242  1
  Al  Al12  1  0.346189  0.941325  0.445738  1
  Al  Al13  1  0.523546  0.346089  0.748704  1
  Al  Al14  1  0.023043  0.154381  0.754740  1
  Al  Al15  1  0.476122  0.658092  0.248613  1
  Al  Al16  1  0.982914  0.848758  0.252039  1
  Si  Si17  1  0.847568  0.552756  0.051728  1
  Si  Si18  1  0.652463  0.052861  0.948741  1
  Si  Si19  1  0.151587  0.446534  0.551145  1
  Si  Si20  1  0.812154  0.635606  0.750256  1
  Si  Si21  1  0.310617  0.865411  0.750803  1
  Si  Si22  1  0.189002  0.360782  0.248060  1
  Si  Si23  1  0.687770  0.137416  0.250389  1
  Tc  Tc24  1  0.829685  0.358531  0.628103  1
  Tc  Tc25  1  0.329848  0.140889  0.874371  1
  Tc  Tc26  1  0.169772  0.640304  0.125464  1
  Tc  Tc27  1  0.684233  0.858364  0.370820  1
  Tc  Tc28  1  0.179282  0.634032  0.374210  1
  Tc  Tc29  1  0.690993  0.854522  0.121571  1
  Tc  Tc30  1  0.812309  0.355202  0.878380  1
  Tc  Tc31  1  0.311887  0.149322  0.626125  1
  Tc  Tc32  1  0.665545  0.983263  0.754630  1
  Tc  Tc33  1  0.165291  0.517419  0.746599  1
  Tc  Tc34  1  0.336623  0.019098  0.248863  1
  Tc  Tc35  1  0.834013  0.484083  0.245636  1
