# generated using pymatgen
data_Lu3Zn3Cu2Pt
_symmetry_space_group_name_H-M   'P 1'
_cell_length_a   7.21584500
_cell_length_b   7.21584468
_cell_length_c   3.66113700
_cell_angle_alpha   90.00000000
_cell_angle_beta   90.00000000
_cell_angle_gamma   119.99999688
_symmetry_Int_Tables_number   1
_chemical_formula_structural   Lu3Zn3Cu2Pt
_chemical_formula_sum   'Lu3 Zn3 Cu2 Pt1'
_cell_volume   165.09008769
_cell_formula_units_Z   1
loop_
 _symmetry_equiv_pos_site_id
 _symmetry_equiv_pos_as_xyz
  1  'x, y, z'
loop_
 _atom_site_type_symbol
 _atom_site_label
 _atom_site_symmetry_multiplicity
 _atom_site_fract_x
 _atom_site_fract_y
 _atom_site_fract_z
 _atom_site_occupancy
  Lu  Lu0  1  0.408066  0.405997  0.000000  1
  Lu  Lu1  1  0.594003  0.002069  0.000000  1
  Lu  Lu2  1  0.997931  0.591934  0.000000  1
  Zn  Zn3  1  0.747526  0.752904  0.500000  1
  Zn  Zn4  1  0.247096  0.994622  0.500000  1
  Zn  Zn5  1  0.005378  0.252474  0.500000  1
  Cu  Cu6  1  0.000000  0.000000  0.000000  1
  Cu  Cu7  1  0.333333  0.666667  0.500000  1
  Pt  Pt8  1  0.666667  0.333333  0.500000  1
