# generated using pymatgen
data_Ho9Er(Bi2As)2
_symmetry_space_group_name_H-M   'P 1'
_cell_length_a   8.01173500
_cell_length_b   9.11879400
_cell_length_c   12.01452900
_cell_angle_alpha   90.00000000
_cell_angle_beta   90.00000000
_cell_angle_gamma   89.99838134
_symmetry_Int_Tables_number   1
_chemical_formula_structural   Ho9Er(Bi2As)2
_chemical_formula_sum   'Ho18 Er2 Bi8 As4'
_cell_volume   877.74978279
_cell_formula_units_Z   2
loop_
 _symmetry_equiv_pos_site_id
 _symmetry_equiv_pos_as_xyz
  1  'x, y, z'
loop_
 _atom_site_type_symbol
 _atom_site_label
 _atom_site_symmetry_multiplicity
 _atom_site_fract_x
 _atom_site_fract_y
 _atom_site_fract_z
 _atom_site_occupancy
  Ho  Ho0  1  0.182892  0.056203  0.937068  1
  Ho  Ho1  1  0.317108  0.443797  0.437068  1
  Ho  Ho2  1  0.182893  0.443818  0.937090  1
  Ho  Ho3  1  0.317107  0.056182  0.437090  1
  Ho  Ho4  1  0.817043  0.943717  0.062903  1
  Ho  Ho5  1  0.682957  0.556283  0.562903  1
  Ho  Ho6  1  0.156335  0.749967  0.210793  1
  Ho  Ho7  1  0.343665  0.750033  0.710793  1
  Ho  Ho8  1  0.843685  0.249987  0.789172  1
  Ho  Ho9  1  0.656315  0.250013  0.289172  1
  Ho  Ho10  1  0.463602  0.749984  0.999889  1
  Ho  Ho11  1  0.036398  0.750016  0.499889  1
  Ho  Ho12  1  0.536527  0.250027  0.000109  1
  Ho  Ho13  1  0.963473  0.249973  0.500109  1
  Ho  Ho14  1  0.634243  0.749962  0.292707  1
  Ho  Ho15  1  0.865757  0.750038  0.792707  1
  Ho  Ho16  1  0.365800  0.250002  0.707299  1
  Ho  Ho17  1  0.134200  0.249998  0.207299  1
  Er  Er18  1  0.817130  0.556455  0.062874  1
  Er  Er19  1  0.682870  0.943545  0.562874  1
  Bi  Bi20  1  0.925575  0.510003  0.326818  1
  Bi  Bi21  1  0.574425  0.989997  0.826818  1
  Bi  Bi22  1  0.074354  0.010013  0.673145  1
  Bi  Bi23  1  0.425646  0.489987  0.173145  1
  Bi  Bi24  1  0.074371  0.490011  0.673167  1
  Bi  Bi25  1  0.425629  0.009989  0.173167  1
  Bi  Bi26  1  0.925629  0.990016  0.326898  1
  Bi  Bi27  1  0.574371  0.509984  0.826898  1
  As  As28  1  0.412858  0.750137  0.478570  1
  As  As29  1  0.087142  0.749863  0.978570  1
  As  As30  1  0.587334  0.249744  0.521497  1
  As  As31  1  0.912666  0.250256  0.021497  1
