# generated using pymatgen
data_Cd3Ir3OsPbO14
_symmetry_space_group_name_H-M   'P 1'
_cell_length_a   7.24914391
_cell_length_b   7.24914406
_cell_length_c   7.31667161
_cell_angle_alpha   60.30482911
_cell_angle_beta   60.30483092
_cell_angle_gamma   60.00000286
_symmetry_Int_Tables_number   1
_chemical_formula_structural   Cd3Ir3OsPbO14
_chemical_formula_sum   'Cd3 Ir3 Os1 Pb1 O14'
_cell_volume   273.12266975
_cell_formula_units_Z   1
loop_
 _symmetry_equiv_pos_site_id
 _symmetry_equiv_pos_as_xyz
  1  'x, y, z'
loop_
 _atom_site_type_symbol
 _atom_site_label
 _atom_site_symmetry_multiplicity
 _atom_site_fract_x
 _atom_site_fract_y
 _atom_site_fract_z
 _atom_site_occupancy
  Cd  Cd0  1  0.125000  0.125000  0.125000  1
  Cd  Cd1  1  0.625000  0.125000  0.125000  1
  Cd  Cd2  1  0.125000  0.625000  0.125000  1
  Ir  Ir3  1  0.625000  0.625000  0.625000  1
  Ir  Ir4  1  0.125000  0.625000  0.625000  1
  Ir  Ir5  1  0.625000  0.125000  0.625000  1
  Os  Os6  1  0.625000  0.625000  0.125000  1
  Pb  Pb7  1  0.125000  0.125000  0.625000  1
  O  O8  1  0.256272  0.256272  0.231184  1
  O  O9  1  0.993728  0.993728  0.018816  1
  O  O10  1  0.545187  0.955546  0.543721  1
  O  O11  1  0.312707  0.689908  0.307476  1
  O  O12  1  0.560092  0.560092  0.942524  1
  O  O13  1  0.955546  0.545187  0.543721  1
  O  O14  1  0.560092  0.937293  0.942524  1
  O  O15  1  0.955546  0.955546  0.543721  1
  O  O16  1  0.937293  0.560092  0.942524  1
  O  O17  1  0.689908  0.312707  0.307476  1
  O  O18  1  0.294454  0.704813  0.706279  1
  O  O19  1  0.704813  0.294454  0.706279  1
  O  O20  1  0.294454  0.294454  0.706279  1
  O  O21  1  0.689908  0.689908  0.307476  1
