# generated using pymatgen
data_Pr2MnFeO6
_symmetry_space_group_name_H-M   'P 1'
_cell_length_a   5.54370500
_cell_length_b   5.76807628
_cell_length_c   7.80667312
_cell_angle_alpha   90.50259573
_cell_angle_beta   90.00000000
_cell_angle_gamma   90.00000000
_symmetry_Int_Tables_number   1
_chemical_formula_structural   Pr2MnFeO6
_chemical_formula_sum   'Pr4 Mn2 Fe2 O12'
_cell_volume   249.62058300
_cell_formula_units_Z   2
loop_
 _symmetry_equiv_pos_site_id
 _symmetry_equiv_pos_as_xyz
  1  'x, y, z'
loop_
 _atom_site_type_symbol
 _atom_site_label
 _atom_site_symmetry_multiplicity
 _atom_site_fract_x
 _atom_site_fract_y
 _atom_site_fract_z
 _atom_site_occupancy
  Pr  Pr0  1  0.013249  0.943173  0.748382  1
  Pr  Pr1  1  0.513249  0.556827  0.251618  1
  Pr  Pr2  1  0.486751  0.443173  0.748382  1
  Pr  Pr3  1  0.986751  0.056827  0.251618  1
  Mn  Mn4  1  0.000000  0.500000  0.500000  1
  Mn  Mn5  1  0.500000  0.000000  0.500000  1
  Fe  Fe6  1  0.500000  0.000000  0.000000  1
  Fe  Fe7  1  0.000000  0.500000  0.000000  1
  O  O8  1  0.718598  0.308429  0.452854  1
  O  O9  1  0.218598  0.191571  0.547146  1
  O  O10  1  0.793275  0.793757  0.047645  1
  O  O11  1  0.293275  0.706243  0.952355  1
  O  O12  1  0.281402  0.691571  0.547146  1
  O  O13  1  0.781402  0.808429  0.452854  1
  O  O14  1  0.206725  0.206243  0.952355  1
  O  O15  1  0.706725  0.293757  0.047645  1
  O  O16  1  0.089667  0.476030  0.250271  1
  O  O17  1  0.589667  0.023970  0.749729  1
  O  O18  1  0.410333  0.976030  0.250271  1
  O  O19  1  0.910333  0.523970  0.749729  1
