# generated using pymatgen
data_Li2Nd3TiIr3
_symmetry_space_group_name_H-M   'P 1'
_cell_length_a   7.34603700
_cell_length_b   7.34603701
_cell_length_c   4.07051900
_cell_angle_alpha   90.00000000
_cell_angle_beta   90.00000000
_cell_angle_gamma   120.71416810
_symmetry_Int_Tables_number   1
_chemical_formula_structural   Li2Nd3TiIr3
_chemical_formula_sum   'Li2 Nd3 Ti1 Ir3'
_cell_volume   188.84960017
_cell_formula_units_Z   1
loop_
 _symmetry_equiv_pos_site_id
 _symmetry_equiv_pos_as_xyz
  1  'x, y, z'
loop_
 _atom_site_type_symbol
 _atom_site_label
 _atom_site_symmetry_multiplicity
 _atom_site_fract_x
 _atom_site_fract_y
 _atom_site_fract_z
 _atom_site_occupancy
  Li  Li0  1  0.234547  0.993789  0.000000  1
  Li  Li1  1  0.993789  0.234547  0.000000  1
  Nd  Nd2  1  0.395516  0.395516  0.500000  1
  Nd  Nd3  1  0.586427  0.010640  0.500000  1
  Nd  Nd4  1  0.010640  0.586427  0.500000  1
  Ti  Ti5  1  0.759587  0.759587  0.000000  1
  Ir  Ir6  1  0.680670  0.375143  0.000000  1
  Ir  Ir7  1  0.375143  0.680670  0.000000  1
  Ir  Ir8  1  0.963682  0.963682  0.500000  1
