# generated using pymatgen
data_Li3Nd4LuPt4
_symmetry_space_group_name_H-M   'P 1'
_cell_length_a   4.16544100
_cell_length_b   7.36286448
_cell_length_c   8.84347367
_cell_angle_alpha   91.08035362
_cell_angle_beta   90.00000000
_cell_angle_gamma   90.00000000
_symmetry_Int_Tables_number   1
_chemical_formula_structural   Li3Nd4LuPt4
_chemical_formula_sum   'Li3 Nd4 Lu1 Pt4'
_cell_volume   271.17738756
_cell_formula_units_Z   1
loop_
 _symmetry_equiv_pos_site_id
 _symmetry_equiv_pos_as_xyz
  1  'x, y, z'
loop_
 _atom_site_type_symbol
 _atom_site_label
 _atom_site_symmetry_multiplicity
 _atom_site_fract_x
 _atom_site_fract_y
 _atom_site_fract_z
 _atom_site_occupancy
  Li  Li0  1  0.250000  0.128397  0.054440  1
  Li  Li1  1  0.250000  0.643667  0.431453  1
  Li  Li2  1  0.750000  0.875307  0.947243  1
  Nd  Nd3  1  0.250000  0.019239  0.693986  1
  Nd  Nd4  1  0.250000  0.552864  0.834485  1
  Nd  Nd5  1  0.750000  0.951038  0.313353  1
  Nd  Nd6  1  0.750000  0.462227  0.175063  1
  Lu  Lu7  1  0.750000  0.372202  0.558390  1
  Pt  Pt8  1  0.250000  0.242310  0.382626  1
  Pt  Pt9  1  0.250000  0.755643  0.119795  1
  Pt  Pt10  1  0.750000  0.741373  0.619513  1
  Pt  Pt11  1  0.750000  0.255733  0.869651  1
