# generated using pymatgen
data_Tm5TlIn4Ir
_symmetry_space_group_name_H-M   'P 1'
_cell_length_a   3.67247700
_cell_length_b   8.27139232
_cell_length_c   18.51983000
_cell_angle_alpha   89.94864335
_cell_angle_beta   90.00000000
_cell_angle_gamma   90.00000000
_symmetry_Int_Tables_number   1
_chemical_formula_structural   Tm5TlIn4Ir
_chemical_formula_sum   'Tm10 Tl2 In8 Ir2'
_cell_volume   562.56735413
_cell_formula_units_Z   2
loop_
 _symmetry_equiv_pos_site_id
 _symmetry_equiv_pos_as_xyz
  1  'x, y, z'
loop_
 _atom_site_type_symbol
 _atom_site_label
 _atom_site_symmetry_multiplicity
 _atom_site_fract_x
 _atom_site_fract_y
 _atom_site_fract_z
 _atom_site_occupancy
  Tm  Tm0  1  0.000000  0.112792  0.415286  1
  Tm  Tm1  1  0.000000  0.887208  0.584714  1
  Tm  Tm2  1  0.000000  0.373922  0.925070  1
  Tm  Tm3  1  0.000000  0.626078  0.074930  1
  Tm  Tm4  1  0.000000  0.204184  0.225491  1
  Tm  Tm5  1  0.000000  0.795816  0.774509  1
  Tm  Tm6  1  0.000000  0.225417  0.713149  1
  Tm  Tm7  1  0.000000  0.774583  0.286851  1
  Tm  Tm8  1  0.000000  0.000000  0.000000  1
  Tm  Tm9  1  0.000000  0.500000  0.500000  1
  Tl  Tl10  1  0.500000  0.476183  0.799823  1
  Tl  Tl11  1  0.500000  0.523817  0.200177  1
  In  In12  1  0.500000  0.414889  0.357711  1
  In  In13  1  0.500000  0.585111  0.642289  1
  In  In14  1  0.500000  0.074318  0.853221  1
  In  In15  1  0.500000  0.925682  0.146779  1
  In  In16  1  0.500000  0.288038  0.067352  1
  In  In17  1  0.500000  0.711962  0.932648  1
  In  In18  1  0.500000  0.206492  0.564897  1
  In  In19  1  0.500000  0.793508  0.435103  1
  Ir  Ir20  1  0.500000  0.024329  0.306593  1
  Ir  Ir21  1  0.500000  0.975671  0.693407  1
