# generated using pymatgen
data_Er7Co4Sn23Ir2
_symmetry_space_group_name_H-M   'P 1'
_cell_length_a   9.74149250
_cell_length_b   9.74149295
_cell_length_c   10.00248954
_cell_angle_alpha   90.28209550
_cell_angle_beta   89.71790147
_cell_angle_gamma   120.11760242
_symmetry_Int_Tables_number   1
_chemical_formula_structural   Er7Co4Sn23Ir2
_chemical_formula_sum   'Er7 Co4 Sn23 Ir2'
_cell_volume   821.04483151
_cell_formula_units_Z   1
loop_
 _symmetry_equiv_pos_site_id
 _symmetry_equiv_pos_as_xyz
  1  'x, y, z'
loop_
 _atom_site_type_symbol
 _atom_site_label
 _atom_site_symmetry_multiplicity
 _atom_site_fract_x
 _atom_site_fract_y
 _atom_site_fract_z
 _atom_site_occupancy
  Er  Er0  1  0.479107  0.520893  0.306727  1
  Er  Er1  1  0.520893  0.479107  0.693273  1
  Er  Er2  1  0.479484  0.958285  0.306332  1
  Er  Er3  1  0.520516  0.041715  0.693668  1
  Er  Er4  1  0.041715  0.520516  0.306332  1
  Er  Er5  1  0.958285  0.479484  0.693668  1
  Er  Er6  1  0.000000  0.000000  0.000000  1
  Co  Co7  1  0.830841  0.663627  0.197682  1
  Co  Co8  1  0.169159  0.336373  0.802318  1
  Co  Co9  1  0.336373  0.169159  0.197682  1
  Co  Co10  1  0.663627  0.830841  0.802318  1
  Sn  Sn11  1  0.117832  0.882168  0.274051  1
  Sn  Sn12  1  0.882168  0.117832  0.725949  1
  Sn  Sn13  1  0.124902  0.238368  0.278119  1
  Sn  Sn14  1  0.875098  0.761632  0.721881  1
  Sn  Sn15  1  0.761632  0.875098  0.278119  1
  Sn  Sn16  1  0.238368  0.124902  0.721881  1
  Sn  Sn17  1  0.779293  0.220707  0.457751  1
  Sn  Sn18  1  0.220707  0.779293  0.542249  1
  Sn  Sn19  1  0.780714  0.561190  0.451572  1
  Sn  Sn20  1  0.219286  0.438810  0.548428  1
  Sn  Sn21  1  0.438810  0.219286  0.451572  1
  Sn  Sn22  1  0.561190  0.780714  0.548428  1
  Sn  Sn23  1  0.351226  0.004612  0.005633  1
  Sn  Sn24  1  0.648774  0.995388  0.994367  1
  Sn  Sn25  1  0.004612  0.351226  0.994367  1
  Sn  Sn26  1  0.995388  0.648774  0.005633  1
  Sn  Sn27  1  0.654165  0.654165  0.000000  1
  Sn  Sn28  1  0.345835  0.345835  0.000000  1
  Sn  Sn29  1  0.333684  0.666316  0.119627  1
  Sn  Sn30  1  0.666316  0.333684  0.880373  1
  Sn  Sn31  1  0.336017  0.663983  0.819490  1
  Sn  Sn32  1  0.663983  0.336017  0.180510  1
  Sn  Sn33  1  0.000000  0.000000  0.500000  1
  Ir  Ir34  1  0.831683  0.168317  0.197297  1
  Ir  Ir35  1  0.168317  0.831683  0.802703  1
