# generated using pymatgen
data_Nd2OsC2
_symmetry_space_group_name_H-M   'P 1'
_cell_length_a   5.39985400
_cell_length_b   6.55163000
_cell_length_c   10.14745500
_cell_angle_alpha   90.00000000
_cell_angle_beta   90.00000000
_cell_angle_gamma   90.00000000
_symmetry_Int_Tables_number   1
_chemical_formula_structural   Nd2OsC2
_chemical_formula_sum   'Nd8 Os4 C8'
_cell_volume   358.99509482
_cell_formula_units_Z   4
loop_
 _symmetry_equiv_pos_site_id
 _symmetry_equiv_pos_as_xyz
  1  'x, y, z'
loop_
 _atom_site_type_symbol
 _atom_site_label
 _atom_site_symmetry_multiplicity
 _atom_site_fract_x
 _atom_site_fract_y
 _atom_site_fract_z
 _atom_site_occupancy
  Nd  Nd0  1  0.250000  0.480376  0.779819  1
  Nd  Nd1  1  0.750000  0.019624  0.279819  1
  Nd  Nd2  1  0.250000  0.980376  0.720181  1
  Nd  Nd3  1  0.750000  0.519624  0.220181  1
  Nd  Nd4  1  0.250000  0.806237  0.048132  1
  Nd  Nd5  1  0.750000  0.693763  0.548132  1
  Nd  Nd6  1  0.250000  0.306237  0.451868  1
  Nd  Nd7  1  0.750000  0.193763  0.951868  1
  Os  Os8  1  0.250000  0.268531  0.140960  1
  Os  Os9  1  0.750000  0.231469  0.640960  1
  Os  Os10  1  0.250000  0.768531  0.359040  1
  Os  Os11  1  0.750000  0.731469  0.859040  1
  C  C12  1  0.250000  0.685099  0.541275  1
  C  C13  1  0.750000  0.814901  0.041275  1
  C  C14  1  0.250000  0.185099  0.958725  1
  C  C15  1  0.750000  0.314901  0.458725  1
  C  C16  1  0.250000  0.030337  0.256157  1
  C  C17  1  0.750000  0.469663  0.756157  1
  C  C18  1  0.250000  0.530337  0.243843  1
  C  C19  1  0.750000  0.969663  0.743843  1
