# generated using pymatgen
data_La5Nd(HfBi5)2
_symmetry_space_group_name_H-M   'P 1'
_cell_length_a   9.80547100
_cell_length_b   9.80625280
_cell_length_c   6.59739100
_cell_angle_alpha   90.00000000
_cell_angle_beta   90.00000000
_cell_angle_gamma   119.99735940
_symmetry_Int_Tables_number   1
_chemical_formula_structural   La5Nd(HfBi5)2
_chemical_formula_sum   'La5 Nd1 Hf2 Bi10'
_cell_volume   549.39658433
_cell_formula_units_Z   1
loop_
 _symmetry_equiv_pos_site_id
 _symmetry_equiv_pos_as_xyz
  1  'x, y, z'
loop_
 _atom_site_type_symbol
 _atom_site_label
 _atom_site_symmetry_multiplicity
 _atom_site_fract_x
 _atom_site_fract_y
 _atom_site_fract_z
 _atom_site_occupancy
  La  La0  1  0.382642  0.000000  0.750000  1
  La  La1  1  0.999727  0.618192  0.250000  1
  La  La2  1  0.000149  0.382197  0.750000  1
  La  La3  1  0.381535  0.381808  0.250000  1
  La  La4  1  0.617953  0.617803  0.750000  1
  Nd  Nd5  1  0.619081  0.000000  0.250000  1
  Hf  Hf6  1  0.999682  0.000000  0.000207  1
  Hf  Hf7  1  0.999682  0.000000  0.499793  1
  Bi  Bi8  1  0.261185  0.000000  0.250000  1
  Bi  Bi9  1  0.739206  0.000000  0.750000  1
  Bi  Bi10  1  0.998147  0.259735  0.250000  1
  Bi  Bi11  1  0.999906  0.739686  0.750000  1
  Bi  Bi12  1  0.738412  0.740265  0.250000  1
  Bi  Bi13  1  0.260221  0.260314  0.750000  1
  Bi  Bi14  1  0.334543  0.667851  0.001289  1
  Bi  Bi15  1  0.666692  0.332149  0.001289  1
  Bi  Bi16  1  0.666692  0.332149  0.498711  1
  Bi  Bi17  1  0.334543  0.667851  0.498711  1
