# generated using pymatgen
data_Sc22OsRuRh6
_symmetry_space_group_name_H-M   'P 1'
_cell_length_a   9.50484413
_cell_length_b   9.50484274
_cell_length_c   9.51539300
_cell_angle_alpha   59.96326466
_cell_angle_beta   59.96326951
_cell_angle_gamma   59.99055106
_symmetry_Int_Tables_number   1
_chemical_formula_structural   Sc22OsRuRh6
_chemical_formula_sum   'Sc22 Os1 Ru1 Rh6'
_cell_volume   607.47628436
_cell_formula_units_Z   1
loop_
 _symmetry_equiv_pos_site_id
 _symmetry_equiv_pos_as_xyz
  1  'x, y, z'
loop_
 _atom_site_type_symbol
 _atom_site_label
 _atom_site_symmetry_multiplicity
 _atom_site_fract_x
 _atom_site_fract_y
 _atom_site_fract_z
 _atom_site_occupancy
  Sc  Sc0  1  0.802060  0.802060  0.197940  1
  Sc  Sc1  1  0.197367  0.802633  0.198614  1
  Sc  Sc2  1  0.802633  0.197367  0.198614  1
  Sc  Sc3  1  0.197940  0.197940  0.802060  1
  Sc  Sc4  1  0.802633  0.197367  0.801386  1
  Sc  Sc5  1  0.197367  0.802633  0.801386  1
  Sc  Sc6  1  0.616519  0.616519  0.151809  1
  Sc  Sc7  1  0.619030  0.150878  0.615047  1
  Sc  Sc8  1  0.150878  0.619030  0.615047  1
  Sc  Sc9  1  0.616519  0.616519  0.615154  1
  Sc  Sc10  1  0.383481  0.383481  0.848191  1
  Sc  Sc11  1  0.380970  0.849122  0.384953  1
  Sc  Sc12  1  0.849122  0.380970  0.384953  1
  Sc  Sc13  1  0.383481  0.383481  0.384846  1
  Sc  Sc14  1  0.843087  0.843087  0.472557  1
  Sc  Sc15  1  0.841647  0.473209  0.842572  1
  Sc  Sc16  1  0.473209  0.841647  0.842572  1
  Sc  Sc17  1  0.843087  0.843087  0.841270  1
  Sc  Sc18  1  0.156913  0.156913  0.527443  1
  Sc  Sc19  1  0.158353  0.526791  0.157428  1
  Sc  Sc20  1  0.526791  0.158353  0.157428  1
  Sc  Sc21  1  0.156913  0.156913  0.158730  1
  Os  Os22  1  0.500000  0.500000  0.500000  1
  Ru  Ru23  1  0.000000  0.000000  0.500000  1
  Rh  Rh24  1  0.000000  0.000000  0.000000  1
  Rh  Rh25  1  0.500000  0.000000  0.500000  1
  Rh  Rh26  1  0.000000  0.500000  0.500000  1
  Rh  Rh27  1  0.500000  0.500000  0.000000  1
  Rh  Rh28  1  0.000000  0.500000  0.000000  1
  Rh  Rh29  1  0.500000  0.000000  0.000000  1
