# generated using pymatgen
data_Gd5ScC2Br7
_symmetry_space_group_name_H-M   'P 1'
_cell_length_a   10.59360053
_cell_length_b   10.59360128
_cell_length_c   12.35384700
_cell_angle_alpha   57.60148882
_cell_angle_beta   57.60148624
_cell_angle_gamma   20.78462825
_symmetry_Int_Tables_number   1
_chemical_formula_structural   Gd5ScC2Br7
_chemical_formula_sum   'Gd5 Sc1 C2 Br7'
_cell_volume   412.57117344
_cell_formula_units_Z   1
loop_
 _symmetry_equiv_pos_site_id
 _symmetry_equiv_pos_as_xyz
  1  'x, y, z'
loop_
 _atom_site_type_symbol
 _atom_site_label
 _atom_site_symmetry_multiplicity
 _atom_site_fract_x
 _atom_site_fract_y
 _atom_site_fract_z
 _atom_site_occupancy
  Gd  Gd0  1  0.233897  0.233897  0.826164  1
  Gd  Gd1  1  0.312941  0.312941  0.365925  1
  Gd  Gd2  1  0.129972  0.129972  0.444394  1
  Gd  Gd3  1  0.871081  0.871081  0.551756  1
  Gd  Gd4  1  0.686964  0.686964  0.631211  1
  Sc  Sc5  1  0.762936  0.762936  0.190983  1
  C  C6  1  0.281511  0.281511  0.602327  1
  C  C7  1  0.719414  0.719414  0.394174  1
  Br  Br8  1  0.172635  0.172635  0.170464  1
  Br  Br9  1  0.841013  0.841013  0.820864  1
  Br  Br10  1  0.058390  0.058390  0.717429  1
  Br  Br11  1  0.942171  0.942171  0.278988  1
  Br  Br12  1  0.501047  0.501047  0.496760  1
  Br  Br13  1  0.373883  0.373883  0.082407  1
  Br  Br14  1  0.612148  0.612148  0.926155  1
