# generated using pymatgen
data_Ho5Ir2Rh
_symmetry_space_group_name_H-M   'P 1'
_cell_length_a   10.83148600
_cell_length_b   10.83148600
_cell_length_c   6.36498900
_cell_angle_alpha   90.00000000
_cell_angle_beta   90.00000000
_cell_angle_gamma   90.00000000
_symmetry_Int_Tables_number   1
_chemical_formula_structural   Ho5Ir2Rh
_chemical_formula_sum   'Ho20 Ir8 Rh4'
_cell_volume   746.74744075
_cell_formula_units_Z   4
loop_
 _symmetry_equiv_pos_site_id
 _symmetry_equiv_pos_as_xyz
  1  'x, y, z'
loop_
 _atom_site_type_symbol
 _atom_site_label
 _atom_site_symmetry_multiplicity
 _atom_site_fract_x
 _atom_site_fract_y
 _atom_site_fract_z
 _atom_site_occupancy
  Ho  Ho0  1  0.290408  0.088658  0.378687  1
  Ho  Ho1  1  0.290408  0.911342  0.878687  1
  Ho  Ho2  1  0.709592  0.088658  0.878687  1
  Ho  Ho3  1  0.709592  0.911342  0.378687  1
  Ho  Ho4  1  0.588658  0.790408  0.878687  1
  Ho  Ho5  1  0.588658  0.209592  0.378687  1
  Ho  Ho6  1  0.411342  0.790408  0.378687  1
  Ho  Ho7  1  0.411342  0.209592  0.878687  1
  Ho  Ho8  1  0.209592  0.411342  0.621313  1
  Ho  Ho9  1  0.209592  0.588658  0.121313  1
  Ho  Ho10  1  0.790408  0.411342  0.121313  1
  Ho  Ho11  1  0.790408  0.588658  0.621313  1
  Ho  Ho12  1  0.911342  0.709592  0.121313  1
  Ho  Ho13  1  0.911342  0.290408  0.621313  1
  Ho  Ho14  1  0.088658  0.709592  0.621313  1
  Ho  Ho15  1  0.088658  0.290408  0.121313  1
  Ho  Ho16  1  0.000000  0.000000  0.500000  1
  Ho  Ho17  1  0.000000  0.000000  0.000000  1
  Ho  Ho18  1  0.500000  0.500000  0.000000  1
  Ho  Ho19  1  0.500000  0.500000  0.500000  1
  Ir  Ir20  1  0.845908  0.154092  0.250000  1
  Ir  Ir21  1  0.845908  0.845908  0.750000  1
  Ir  Ir22  1  0.154092  0.154092  0.750000  1
  Ir  Ir23  1  0.154092  0.845908  0.250000  1
  Ir  Ir24  1  0.654092  0.345908  0.750000  1
  Ir  Ir25  1  0.654092  0.654092  0.250000  1
  Ir  Ir26  1  0.345908  0.345908  0.250000  1
  Ir  Ir27  1  0.345908  0.654092  0.750000  1
  Rh  Rh28  1  0.500000  0.000000  0.121583  1
  Rh  Rh29  1  0.500000  0.000000  0.621583  1
  Rh  Rh30  1  0.000000  0.500000  0.878417  1
  Rh  Rh31  1  0.000000  0.500000  0.378417  1
