# generated using pymatgen
data_DyHo11Th4(CdRh)4
_symmetry_space_group_name_H-M   'P 1'
_cell_length_a   9.77014706
_cell_length_b   9.77014809
_cell_length_c   9.78073800
_cell_angle_alpha   59.96413825
_cell_angle_beta   59.96413474
_cell_angle_gamma   59.92359789
_symmetry_Int_Tables_number   1
_chemical_formula_structural   DyHo11Th4(CdRh)4
_chemical_formula_sum   'Dy1 Ho11 Th4 Cd4 Rh4'
_cell_volume   659.43519163
_cell_formula_units_Z   1
loop_
 _symmetry_equiv_pos_site_id
 _symmetry_equiv_pos_as_xyz
  1  'x, y, z'
loop_
 _atom_site_type_symbol
 _atom_site_label
 _atom_site_symmetry_multiplicity
 _atom_site_fract_x
 _atom_site_fract_y
 _atom_site_fract_z
 _atom_site_occupancy
  Dy  Dy0  1  0.934525  0.934525  0.565475  1
  Ho  Ho1  1  0.812683  0.187394  0.187219  1
  Ho  Ho2  1  0.187394  0.812683  0.812703  1
  Ho  Ho3  1  0.187394  0.812683  0.187219  1
  Ho  Ho4  1  0.812683  0.187394  0.812703  1
  Ho  Ho5  1  0.187537  0.187537  0.812463  1
  Ho  Ho6  1  0.813089  0.813089  0.186911  1
  Ho  Ho7  1  0.934671  0.565691  0.565783  1
  Ho  Ho8  1  0.565691  0.934671  0.933855  1
  Ho  Ho9  1  0.565691  0.934671  0.565783  1
  Ho  Ho10  1  0.934671  0.565691  0.933855  1
  Ho  Ho11  1  0.566111  0.566111  0.933889  1
  Th  Th12  1  0.350014  0.350014  0.349190  1
  Th  Th13  1  0.350014  0.350014  0.950779  1
  Th  Th14  1  0.351010  0.949337  0.349826  1
  Th  Th15  1  0.949337  0.351010  0.349826  1
  Cd  Cd16  1  0.581926  0.581926  0.582894  1
  Cd  Cd17  1  0.581926  0.581926  0.253251  1
  Cd  Cd18  1  0.581481  0.253054  0.582732  1
  Cd  Cd19  1  0.253054  0.581481  0.582732  1
  Rh  Rh20  1  0.143971  0.143971  0.144654  1
  Rh  Rh21  1  0.143971  0.143971  0.567403  1
  Rh  Rh22  1  0.143682  0.567466  0.144425  1
  Rh  Rh23  1  0.567466  0.143682  0.144425  1
