# generated using pymatgen
data_TbHo2Hf(Al8Pt3)3
_symmetry_space_group_name_H-M   'P 1'
_cell_length_a   7.52430683
_cell_length_b   7.53107197
_cell_length_c   13.09603483
_cell_angle_alpha   84.53295053
_cell_angle_beta   79.01718919
_cell_angle_gamma   59.89241452
_symmetry_Int_Tables_number   1
_chemical_formula_structural   TbHo2Hf(Al8Pt3)3
_chemical_formula_sum   'Tb1 Ho2 Hf1 Al24 Pt9'
_cell_volume   630.22229518
_cell_formula_units_Z   1
loop_
 _symmetry_equiv_pos_site_id
 _symmetry_equiv_pos_as_xyz
  1  'x, y, z'
loop_
 _atom_site_type_symbol
 _atom_site_label
 _atom_site_symmetry_multiplicity
 _atom_site_fract_x
 _atom_site_fract_y
 _atom_site_fract_z
 _atom_site_occupancy
  Tb  Tb0  1  0.606644  0.832023  0.191217  1
  Ho  Ho1  1  0.733879  0.498552  0.807669  1
  Ho  Ho2  1  0.266773  0.501203  0.191885  1
  Hf  Hf3  1  0.393724  0.168444  0.807426  1
  Al  Al4  1  0.681535  0.836711  0.940950  1
  Al  Al5  1  0.316216  0.166863  0.053426  1
  Al  Al6  1  0.146287  0.832791  0.562646  1
  Al  Al7  1  0.853108  0.167142  0.438447  1
  Al  Al8  1  0.479967  0.166781  0.560511  1
  Al  Al9  1  0.519267  0.833901  0.441614  1
  Al  Al10  1  0.216859  0.165828  0.330102  1
  Al  Al11  1  0.779546  0.836361  0.673789  1
  Al  Al12  1  0.435916  0.504708  0.674194  1
  Al  Al13  1  0.562425  0.493370  0.329326  1
  Al  Al14  1  0.110394  0.159871  0.673049  1
  Al  Al15  1  0.890717  0.839659  0.330626  1
  Al  Al16  1  0.354539  0.495913  0.941174  1
  Al  Al17  1  0.647746  0.499685  0.055122  1
  Al  Al18  1  0.019342  0.168409  0.949272  1
  Al  Al19  1  0.985182  0.832679  0.046209  1
  Al  Al20  1  0.186845  0.499216  0.441473  1
  Al  Al21  1  0.813662  0.500284  0.559191  1
  Al  Al22  1  0.734033  0.164439  0.183477  1
  Al  Al23  1  0.265932  0.841653  0.816551  1
  Al  Al24  1  0.066228  0.626152  0.815235  1
  Al  Al25  1  0.939863  0.367923  0.184400  1
  Al  Al26  1  0.850054  0.041685  0.815747  1
  Al  Al27  1  0.144375  0.958512  0.183782  1
  Pt  Pt28  1  0.120346  0.489791  0.640071  1
  Pt  Pt29  1  0.879411  0.508352  0.361630  1
  Pt  Pt30  1  0.657443  0.171908  0.998600  1
  Pt  Pt31  1  0.343780  0.827680  0.999056  1
  Pt  Pt32  1  0.537373  0.166933  0.361819  1
  Pt  Pt33  1  0.463170  0.833431  0.639889  1
  Pt  Pt34  1  0.777002  0.176395  0.638498  1
  Pt  Pt35  1  0.220588  0.824620  0.363281  1
  Pt  Pt36  1  0.999828  0.500135  0.998645  1
