# generated using pymatgen
data_YbEu9Cd3Pd
_symmetry_space_group_name_H-M   'P 1'
_cell_length_a   10.41645500
_cell_length_b   10.41645506
_cell_length_c   10.32907500
_cell_angle_alpha   90.00000000
_cell_angle_beta   90.00000000
_cell_angle_gamma   119.99999665
_symmetry_Int_Tables_number   1
_chemical_formula_structural   YbEu9Cd3Pd
_chemical_formula_sum   'Yb2 Eu18 Cd6 Pd2'
_cell_volume   970.58139826
_cell_formula_units_Z   2
loop_
 _symmetry_equiv_pos_site_id
 _symmetry_equiv_pos_as_xyz
  1  'x, y, z'
loop_
 _atom_site_type_symbol
 _atom_site_label
 _atom_site_symmetry_multiplicity
 _atom_site_fract_x
 _atom_site_fract_y
 _atom_site_fract_z
 _atom_site_occupancy
  Yb  Yb0  1  0.000000  0.000000  0.000000  1
  Yb  Yb1  1  0.000000  0.000000  0.500000  1
  Eu  Eu2  1  0.205864  0.794136  0.939147  1
  Eu  Eu3  1  0.205864  0.411730  0.939147  1
  Eu  Eu4  1  0.588270  0.794136  0.939147  1
  Eu  Eu5  1  0.794136  0.205864  0.060853  1
  Eu  Eu6  1  0.794136  0.588270  0.060853  1
  Eu  Eu7  1  0.411730  0.205864  0.060853  1
  Eu  Eu8  1  0.794136  0.205864  0.439147  1
  Eu  Eu9  1  0.794136  0.588270  0.439147  1
  Eu  Eu10  1  0.411730  0.205864  0.439147  1
  Eu  Eu11  1  0.205864  0.794136  0.560853  1
  Eu  Eu12  1  0.205864  0.411730  0.560853  1
  Eu  Eu13  1  0.588270  0.794136  0.560853  1
  Eu  Eu14  1  0.541458  0.458542  0.750000  1
  Eu  Eu15  1  0.541458  0.082915  0.750000  1
  Eu  Eu16  1  0.917085  0.458542  0.750000  1
  Eu  Eu17  1  0.458542  0.541458  0.250000  1
  Eu  Eu18  1  0.458542  0.917085  0.250000  1
  Eu  Eu19  1  0.082915  0.541458  0.250000  1
  Cd  Cd20  1  0.885197  0.114803  0.750000  1
  Cd  Cd21  1  0.885197  0.770395  0.750000  1
  Cd  Cd22  1  0.229605  0.114803  0.750000  1
  Cd  Cd23  1  0.114803  0.885197  0.250000  1
  Cd  Cd24  1  0.114803  0.229605  0.250000  1
  Cd  Cd25  1  0.770395  0.885197  0.250000  1
  Pd  Pd26  1  0.333333  0.666667  0.750000  1
  Pd  Pd27  1  0.666667  0.333333  0.250000  1
