# generated using pymatgen
data_YCoP2Pd
_symmetry_space_group_name_H-M   'P 1'
_cell_length_a   4.04979700
_cell_length_b   4.04979700
_cell_length_c   9.31922400
_cell_angle_alpha   90.00000000
_cell_angle_beta   90.00000000
_cell_angle_gamma   90.00000000
_symmetry_Int_Tables_number   1
_chemical_formula_structural   YCoP2Pd
_chemical_formula_sum   'Y2 Co2 P4 Pd2'
_cell_volume   152.84324844
_cell_formula_units_Z   2
loop_
 _symmetry_equiv_pos_site_id
 _symmetry_equiv_pos_as_xyz
  1  'x, y, z'
loop_
 _atom_site_type_symbol
 _atom_site_label
 _atom_site_symmetry_multiplicity
 _atom_site_fract_x
 _atom_site_fract_y
 _atom_site_fract_z
 _atom_site_occupancy
  Y  Y0  1  0.000000  0.500000  0.264978  1
  Y  Y1  1  0.500000  0.000000  0.735022  1
  Co  Co2  1  0.000000  0.500000  0.604131  1
  Co  Co3  1  0.500000  0.000000  0.395869  1
  P  P4  1  0.000000  0.000000  0.500000  1
  P  P5  1  0.500000  0.500000  0.500000  1
  P  P6  1  0.000000  0.500000  0.840442  1
  P  P7  1  0.500000  0.000000  0.159558  1
  Pd  Pd8  1  0.000000  0.000000  0.000000  1
  Pd  Pd9  1  0.500000  0.500000  0.000000  1
