# generated using pymatgen
data_TbYb3MgIr
_symmetry_space_group_name_H-M   'P 1'
_cell_length_a   9.98784345
_cell_length_b   9.98784355
_cell_length_c   9.98784400
_cell_angle_alpha   59.99999851
_cell_angle_beta   59.99999818
_cell_angle_gamma   59.99999911
_symmetry_Int_Tables_number   1
_chemical_formula_structural   TbYb3MgIr
_chemical_formula_sum   'Tb4 Yb12 Mg4 Ir4'
_cell_volume   704.53114479
_cell_formula_units_Z   4
loop_
 _symmetry_equiv_pos_site_id
 _symmetry_equiv_pos_as_xyz
  1  'x, y, z'
loop_
 _atom_site_type_symbol
 _atom_site_label
 _atom_site_symmetry_multiplicity
 _atom_site_fract_x
 _atom_site_fract_y
 _atom_site_fract_z
 _atom_site_occupancy
  Tb  Tb0  1  0.340285  0.340285  0.340285  1
  Tb  Tb1  1  0.340285  0.340285  0.979147  1
  Tb  Tb2  1  0.340285  0.979147  0.340285  1
  Tb  Tb3  1  0.979147  0.340285  0.340285  1
  Yb  Yb4  1  0.808524  0.191476  0.191476  1
  Yb  Yb5  1  0.191476  0.808524  0.808524  1
  Yb  Yb6  1  0.191476  0.808524  0.191476  1
  Yb  Yb7  1  0.808524  0.191476  0.808524  1
  Yb  Yb8  1  0.191476  0.191476  0.808524  1
  Yb  Yb9  1  0.808524  0.808524  0.191476  1
  Yb  Yb10  1  0.951054  0.548946  0.548946  1
  Yb  Yb11  1  0.548946  0.951054  0.951054  1
  Yb  Yb12  1  0.548946  0.951054  0.548946  1
  Yb  Yb13  1  0.951054  0.548946  0.951054  1
  Yb  Yb14  1  0.548946  0.548946  0.951054  1
  Yb  Yb15  1  0.951054  0.951054  0.548946  1
  Mg  Mg16  1  0.577866  0.577866  0.577866  1
  Mg  Mg17  1  0.577866  0.577866  0.266403  1
  Mg  Mg18  1  0.577866  0.266403  0.577866  1
  Mg  Mg19  1  0.266403  0.577866  0.577866  1
  Ir  Ir20  1  0.141721  0.141721  0.141721  1
  Ir  Ir21  1  0.141721  0.141721  0.574836  1
  Ir  Ir22  1  0.141721  0.574836  0.141721  1
  Ir  Ir23  1  0.574836  0.141721  0.141721  1
