# generated using pymatgen
data_EuTmPt2F14
_symmetry_space_group_name_H-M   'P 1'
_cell_length_a   5.52092034
_cell_length_b   8.87386646
_cell_length_c   11.98628800
_cell_angle_alpha   62.38552325
_cell_angle_beta   90.11610847
_cell_angle_gamma   90.00139682
_symmetry_Int_Tables_number   1
_chemical_formula_structural   EuTmPt2F14
_chemical_formula_sum   'Eu2 Tm2 Pt4 F28'
_cell_volume   520.33623482
_cell_formula_units_Z   2
loop_
 _symmetry_equiv_pos_site_id
 _symmetry_equiv_pos_as_xyz
  1  'x, y, z'
loop_
 _atom_site_type_symbol
 _atom_site_label
 _atom_site_symmetry_multiplicity
 _atom_site_fract_x
 _atom_site_fract_y
 _atom_site_fract_z
 _atom_site_occupancy
  Eu  Eu0  1  0.761364  0.182496  0.235954  1
  Eu  Eu1  1  0.238636  0.817504  0.764046  1
  Tm  Tm2  1  0.261967  0.811416  0.264072  1
  Tm  Tm3  1  0.738033  0.188584  0.735928  1
  Pt  Pt4  1  0.758847  0.730215  0.045030  1
  Pt  Pt5  1  0.241153  0.269785  0.954970  1
  Pt  Pt6  1  0.258858  0.276701  0.458767  1
  Pt  Pt7  1  0.741142  0.723299  0.541233  1
  F  F8  1  0.938185  0.703147  0.412195  1
  F  F9  1  0.061815  0.296853  0.587805  1
  F  F10  1  0.432110  0.296100  0.082338  1
  F  F11  1  0.567890  0.703900  0.917662  1
  F  F12  1  0.462538  0.728070  0.137007  1
  F  F13  1  0.537462  0.271930  0.862993  1
  F  F14  1  0.964783  0.277140  0.367849  1
  F  F15  1  0.035217  0.722860  0.632151  1
  F  F16  1  0.952739  0.745991  0.177231  1
  F  F17  1  0.047261  0.254009  0.822769  1
  F  F18  1  0.444562  0.261063  0.325879  1
  F  F19  1  0.555438  0.738937  0.674121  1
  F  F20  1  0.769260  0.482565  0.142249  1
  F  F21  1  0.230740  0.517435  0.857751  1
  F  F22  1  0.270676  0.525646  0.359194  1
  F  F23  1  0.729324  0.474354  0.640806  1
  F  F24  1  0.942344  0.282037  0.037658  1
  F  F25  1  0.057656  0.717963  0.962342  1
  F  F26  1  0.437424  0.718610  0.455317  1
  F  F27  1  0.562576  0.281390  0.544683  1
  F  F28  1  0.742310  0.971488  0.452402  1
  F  F29  1  0.257690  0.028512  0.547598  1
  F  F30  1  0.240195  0.020128  0.050999  1
  F  F31  1  0.759805  0.979872  0.949001  1
  F  F32  1  0.583161  0.958389  0.231332  1
  F  F33  1  0.416839  0.041611  0.768668  1
  F  F34  1  0.098323  0.023280  0.269542  1
  F  F35  1  0.901677  0.976720  0.730458  1
