# generated using pymatgen
data_YbTh(Co3Si2)2
_symmetry_space_group_name_H-M   'P 1'
_cell_length_a   6.30185379
_cell_length_b   6.30185467
_cell_length_c   6.30185435
_cell_angle_alpha   130.23543915
_cell_angle_beta   114.19029470
_cell_angle_gamma   86.80705032
_symmetry_Int_Tables_number   1
_chemical_formula_structural   YbTh(Co3Si2)2
_chemical_formula_sum   'Yb1 Th1 Co6 Si4'
_cell_volume   166.24393091
_cell_formula_units_Z   1
loop_
 _symmetry_equiv_pos_site_id
 _symmetry_equiv_pos_as_xyz
  1  'x, y, z'
loop_
 _atom_site_type_symbol
 _atom_site_label
 _atom_site_symmetry_multiplicity
 _atom_site_fract_x
 _atom_site_fract_y
 _atom_site_fract_z
 _atom_site_occupancy
  Yb  Yb0  1  0.750000  0.460322  0.710322  1
  Th  Th1  1  0.250000  0.538322  0.288322  1
  Co  Co2  1  0.014651  0.999269  0.513920  1
  Co  Co3  1  0.485349  0.999269  0.984619  1
  Co  Co4  1  0.718851  0.998407  0.717585  1
  Co  Co5  1  0.219178  0.498734  0.717585  1
  Co  Co6  1  0.280822  0.998407  0.279556  1
  Co  Co7  1  0.781149  0.498734  0.279556  1
  Si  Si8  1  0.069035  0.870227  0.801192  1
  Si  Si9  1  0.908385  0.111460  0.203074  1
  Si  Si10  1  0.591615  0.794690  0.203074  1
  Si  Si11  1  0.430965  0.232157  0.801192  1
