# generated using pymatgen
data_Tm3Ga3CoPt2
_symmetry_space_group_name_H-M   'P 1'
_cell_length_a   7.27573400
_cell_length_b   7.27573445
_cell_length_c   3.67431300
_cell_angle_alpha   90.00000000
_cell_angle_beta   90.00000000
_cell_angle_gamma   119.99999793
_symmetry_Int_Tables_number   1
_chemical_formula_structural   Tm3Ga3CoPt2
_chemical_formula_sum   'Tm3 Ga3 Co1 Pt2'
_cell_volume   168.44589939
_cell_formula_units_Z   1
loop_
 _symmetry_equiv_pos_site_id
 _symmetry_equiv_pos_as_xyz
  1  'x, y, z'
loop_
 _atom_site_type_symbol
 _atom_site_label
 _atom_site_symmetry_multiplicity
 _atom_site_fract_x
 _atom_site_fract_y
 _atom_site_fract_z
 _atom_site_occupancy
  Tm  Tm0  1  0.402252  0.000000  0.000000  1
  Tm  Tm1  1  0.000000  0.402251  0.000000  1
  Tm  Tm2  1  0.597748  0.597749  0.000000  1
  Ga  Ga3  1  0.759020  0.000000  0.500000  1
  Ga  Ga4  1  0.240980  0.240980  0.500000  1
  Ga  Ga5  1  0.000000  0.759021  0.500000  1
  Co  Co6  1  0.000000  0.000000  0.000000  1
  Pt  Pt7  1  0.666667  0.333333  0.500000  1
  Pt  Pt8  1  0.333333  0.666666  0.500000  1
