# generated using pymatgen
data_NaDy4(PtPb2)2
_symmetry_space_group_name_H-M   'P 1'
_cell_length_a   3.65249600
_cell_length_b   8.28498700
_cell_length_c   18.47260200
_cell_angle_alpha   90.00000000
_cell_angle_beta   90.00000000
_cell_angle_gamma   90.00000000
_symmetry_Int_Tables_number   1
_chemical_formula_structural   NaDy4(PtPb2)2
_chemical_formula_sum   'Na2 Dy8 Pt4 Pb8'
_cell_volume   558.99722709
_cell_formula_units_Z   2
loop_
 _symmetry_equiv_pos_site_id
 _symmetry_equiv_pos_as_xyz
  1  'x, y, z'
loop_
 _atom_site_type_symbol
 _atom_site_label
 _atom_site_symmetry_multiplicity
 _atom_site_fract_x
 _atom_site_fract_y
 _atom_site_fract_z
 _atom_site_occupancy
  Na  Na0  1  0.000000  0.000000  0.000000  1
  Na  Na1  1  0.000000  0.500000  0.500000  1
  Dy  Dy2  1  0.000000  0.116832  0.412795  1
  Dy  Dy3  1  0.000000  0.883168  0.587205  1
  Dy  Dy4  1  0.000000  0.383168  0.912795  1
  Dy  Dy5  1  0.000000  0.616832  0.087205  1
  Dy  Dy6  1  0.000000  0.240169  0.217483  1
  Dy  Dy7  1  0.000000  0.759831  0.782517  1
  Dy  Dy8  1  0.000000  0.259831  0.717483  1
  Dy  Dy9  1  0.000000  0.740169  0.282517  1
  Pt  Pt10  1  0.500000  0.029075  0.301808  1
  Pt  Pt11  1  0.500000  0.970925  0.698192  1
  Pt  Pt12  1  0.500000  0.470925  0.801808  1
  Pt  Pt13  1  0.500000  0.529075  0.198192  1
  Pb  Pb14  1  0.500000  0.418659  0.351832  1
  Pb  Pb15  1  0.500000  0.581341  0.648168  1
  Pb  Pb16  1  0.500000  0.081341  0.851832  1
  Pb  Pb17  1  0.500000  0.918659  0.148168  1
  Pb  Pb18  1  0.500000  0.290118  0.062494  1
  Pb  Pb19  1  0.500000  0.709882  0.937506  1
  Pb  Pb20  1  0.500000  0.209882  0.562494  1
  Pb  Pb21  1  0.500000  0.790118  0.437506  1
