# generated using pymatgen
data_CsSm2ErSe5
_symmetry_space_group_name_H-M   'P 1'
_cell_length_a   4.20555600
_cell_length_b   12.81134000
_cell_length_c   22.38703300
_cell_angle_alpha   90.00000000
_cell_angle_beta   90.00000000
_cell_angle_gamma   90.00000000
_symmetry_Int_Tables_number   1
_chemical_formula_structural   CsSm2ErSe5
_chemical_formula_sum   'Cs4 Sm8 Er4 Se20'
_cell_volume   1206.18664833
_cell_formula_units_Z   4
loop_
 _symmetry_equiv_pos_site_id
 _symmetry_equiv_pos_as_xyz
  1  'x, y, z'
loop_
 _atom_site_type_symbol
 _atom_site_label
 _atom_site_symmetry_multiplicity
 _atom_site_fract_x
 _atom_site_fract_y
 _atom_site_fract_z
 _atom_site_occupancy
  Cs  Cs0  1  0.250000  0.848068  0.094334  1
  Cs  Cs1  1  0.750000  0.151932  0.905666  1
  Cs  Cs2  1  0.750000  0.348068  0.405666  1
  Cs  Cs3  1  0.250000  0.651932  0.594334  1
  Sm  Sm4  1  0.750000  0.798119  0.828864  1
  Sm  Sm5  1  0.250000  0.201881  0.171136  1
  Sm  Sm6  1  0.250000  0.298119  0.671136  1
  Sm  Sm7  1  0.750000  0.701881  0.328864  1
  Sm  Sm8  1  0.250000  0.959137  0.697859  1
  Sm  Sm9  1  0.750000  0.040863  0.302141  1
  Sm  Sm10  1  0.750000  0.459137  0.802141  1
  Sm  Sm11  1  0.250000  0.540863  0.197859  1
  Er  Er12  1  0.750000  0.394001  0.052702  1
  Er  Er13  1  0.250000  0.605999  0.947298  1
  Er  Er14  1  0.250000  0.894001  0.447298  1
  Er  Er15  1  0.750000  0.105999  0.552702  1
  Se  Se16  1  0.250000  0.952252  0.567762  1
  Se  Se17  1  0.750000  0.047748  0.432238  1
  Se  Se18  1  0.750000  0.452252  0.932238  1
  Se  Se19  1  0.250000  0.547748  0.067762  1
  Se  Se20  1  0.750000  0.755062  0.956651  1
  Se  Se21  1  0.250000  0.244938  0.043349  1
  Se  Se22  1  0.250000  0.255062  0.543349  1
  Se  Se23  1  0.750000  0.744938  0.456651  1
  Se  Se24  1  0.250000  0.950872  0.828102  1
  Se  Se25  1  0.750000  0.049128  0.171898  1
  Se  Se26  1  0.750000  0.450872  0.671898  1
  Se  Se27  1  0.250000  0.549128  0.328102  1
  Se  Se28  1  0.750000  0.127390  0.681742  1
  Se  Se29  1  0.250000  0.872610  0.318258  1
  Se  Se30  1  0.250000  0.627390  0.818258  1
  Se  Se31  1  0.750000  0.372610  0.181742  1
  Se  Se32  1  0.750000  0.692226  0.198693  1
  Se  Se33  1  0.250000  0.307774  0.801307  1
  Se  Se34  1  0.250000  0.192226  0.301307  1
  Se  Se35  1  0.750000  0.807774  0.698693  1
