# generated using pymatgen
data_K4Zr6OsBr18
_symmetry_space_group_name_H-M   'P 1'
_cell_length_a   10.64462149
_cell_length_b   10.77782435
_cell_length_c   10.88062733
_cell_angle_alpha   118.53430266
_cell_angle_beta   100.23242305
_cell_angle_gamma   103.61288638
_symmetry_Int_Tables_number   1
_chemical_formula_structural   K4Zr6OsBr18
_chemical_formula_sum   'K4 Zr6 Os1 Br18'
_cell_volume   1002.46425349
_cell_formula_units_Z   1
loop_
 _symmetry_equiv_pos_site_id
 _symmetry_equiv_pos_as_xyz
  1  'x, y, z'
loop_
 _atom_site_type_symbol
 _atom_site_label
 _atom_site_symmetry_multiplicity
 _atom_site_fract_x
 _atom_site_fract_y
 _atom_site_fract_z
 _atom_site_occupancy
  K  K0  1  0.650444  0.536769  0.226109  1
  K  K1  1  0.349556  0.463231  0.773891  1
  K  K2  1  0.685386  0.225827  0.563873  1
  K  K3  1  0.314614  0.774173  0.436127  1
  Zr  Zr4  1  0.160212  0.059562  0.244702  1
  Zr  Zr5  1  0.839788  0.940438  0.755298  1
  Zr  Zr6  1  0.853229  0.134829  0.141267  1
  Zr  Zr7  1  0.146771  0.865171  0.858733  1
  Zr  Zr8  1  0.153667  0.252939  0.047077  1
  Zr  Zr9  1  0.846333  0.747061  0.952923  1
  Os  Os10  1  0.000000  0.000000  0.000000  1
  Br  Br11  1  0.009225  0.414485  0.199837  1
  Br  Br12  1  0.990775  0.585515  0.800163  1
  Br  Br13  1  0.331097  0.335992  0.313927  1
  Br  Br14  1  0.668903  0.664008  0.686073  1
  Br  Br15  1  0.330656  0.528656  0.102732  1
  Br  Br16  1  0.669344  0.471344  0.897268  1
  Br  Br17  1  0.005704  0.793919  0.212297  1
  Br  Br18  1  0.994296  0.206081  0.787703  1
  Br  Br19  1  0.700359  0.283566  0.296150  1
  Br  Br20  1  0.299641  0.716434  0.703850  1
  Br  Br21  1  0.318220  0.127421  0.900728  1
  Br  Br22  1  0.681780  0.872579  0.099272  1
  Br  Br23  1  0.015902  0.206613  0.412495  1
  Br  Br24  1  0.984098  0.793387  0.587505  1
  Br  Br25  1  0.323071  0.919772  0.110401  1
  Br  Br26  1  0.676929  0.080228  0.889599  1
  Br  Br27  1  0.341597  0.122813  0.509780  1
  Br  Br28  1  0.658403  0.877187  0.490220  1
