# generated using pymatgen
data_Sr14LaSb11
_symmetry_space_group_name_H-M   'P 1'
_cell_length_a   17.47725707
_cell_length_b   17.47725751
_cell_length_c   17.47725700
_cell_angle_alpha   93.91138331
_cell_angle_beta   117.76805034
_cell_angle_gamma   117.76804455
_symmetry_Int_Tables_number   1
_chemical_formula_structural   Sr14LaSb11
_chemical_formula_sum   'Sr56 La4 Sb44'
_cell_volume   3892.43255551
_cell_formula_units_Z   4
loop_
 _symmetry_equiv_pos_site_id
 _symmetry_equiv_pos_as_xyz
  1  'x, y, z'
loop_
 _atom_site_type_symbol
 _atom_site_label
 _atom_site_symmetry_multiplicity
 _atom_site_fract_x
 _atom_site_fract_y
 _atom_site_fract_z
 _atom_site_occupancy
  Sr  Sr0  1  0.227582  0.976059  0.067233  1
  Sr  Sr1  1  0.727582  0.567233  0.476059  1
  Sr  Sr2  1  0.618902  0.403257  0.872610  1
  Sr  Sr3  1  0.145343  0.750000  0.895343  1
  Sr  Sr4  1  0.354657  0.250000  0.604657  1
  Sr  Sr5  1  0.272418  0.339651  0.748477  1
  Sr  Sr6  1  0.881098  0.627390  0.096743  1
  Sr  Sr7  1  0.908826  0.476059  0.248477  1
  Sr  Sr8  1  0.408826  0.748477  0.976059  1
  Sr  Sr9  1  0.645027  0.111902  0.517935  1
  Sr  Sr10  1  0.406034  0.517935  0.372909  1
  Sr  Sr11  1  0.854973  0.982065  0.388098  1
  Sr  Sr12  1  0.381098  0.596743  0.127390  1
  Sr  Sr13  1  0.727582  0.660349  0.251523  1
  Sr  Sr14  1  0.408826  0.160349  0.432767  1
  Sr  Sr15  1  0.469353  0.096743  0.715645  1
  Sr  Sr16  1  0.645027  0.033125  0.127091  1
  Sr  Sr17  1  0.145027  0.017935  0.611902  1
  Sr  Sr18  1  0.091174  0.523941  0.751523  1
  Sr  Sr19  1  0.354973  0.966875  0.872909  1
  Sr  Sr20  1  0.854657  0.104657  0.750000  1
  Sr  Sr21  1  0.091174  0.067233  0.339651  1
  Sr  Sr22  1  0.969353  0.253708  0.372610  1
  Sr  Sr23  1  0.406034  0.388098  0.033125  1
  Sr  Sr24  1  0.908826  0.932767  0.660349  1
  Sr  Sr25  1  0.227582  0.751523  0.160349  1
  Sr  Sr26  1  0.469353  0.872610  0.753708  1
  Sr  Sr27  1  0.093966  0.127091  0.982065  1
  Sr  Sr28  1  0.272418  0.432767  0.523941  1
  Sr  Sr29  1  0.645343  0.395343  0.250000  1
  Sr  Sr30  1  0.381098  0.284355  0.253708  1
  Sr  Sr31  1  0.030647  0.784355  0.403257  1
  Sr  Sr32  1  0.593966  0.611902  0.966875  1
  Sr  Sr33  1  0.969353  0.215645  0.596743  1
  Sr  Sr34  1  0.093966  0.466875  0.111902  1
  Sr  Sr35  1  0.118902  0.246292  0.215645  1
  Sr  Sr36  1  0.772418  0.248477  0.839651  1
  Sr  Sr37  1  0.145343  0.895343  0.250000  1
  Sr  Sr38  1  0.530647  0.903257  0.284355  1
  Sr  Sr39  1  0.118902  0.372610  0.903257  1
  Sr  Sr40  1  0.906034  0.533125  0.888098  1
  Sr  Sr41  1  0.645343  0.750000  0.395343  1
  Sr  Sr42  1  0.906034  0.872909  0.017935  1
  Sr  Sr43  1  0.854973  0.372909  0.466875  1
  Sr  Sr44  1  0.354657  0.604657  0.750000  1
  Sr  Sr45  1  0.145027  0.627091  0.533125  1
  Sr  Sr46  1  0.591174  0.839651  0.567233  1
  Sr  Sr47  1  0.854657  0.250000  0.104657  1
  Sr  Sr48  1  0.593966  0.482065  0.627091  1
  Sr  Sr49  1  0.030647  0.746292  0.627390  1
  Sr  Sr50  1  0.530647  0.127390  0.246292  1
  Sr  Sr51  1  0.881098  0.753708  0.784355  1
  Sr  Sr52  1  0.591174  0.251523  0.023941  1
  Sr  Sr53  1  0.354973  0.888098  0.482065  1
  Sr  Sr54  1  0.618902  0.715645  0.746292  1
  Sr  Sr55  1  0.772418  0.023941  0.932767  1
  La  La56  1  0.250000  0.125000  0.875000  1
  La  La57  1  0.750000  0.375000  0.625000  1
  La  La58  1  0.750000  0.875000  0.125000  1
  La  La59  1  0.250000  0.625000  0.375000  1
  Sb  Sb60  1  0.344099  0.521630  0.916039  1
  Sb  Sb61  1  0.889895  0.087319  0.188187  1
  Sb  Sb62  1  0.655901  0.478370  0.083961  1
  Sb  Sb63  1  0.610105  0.311813  0.412681  1
  Sb  Sb64  1  0.105590  0.177531  0.521630  1
  Sb  Sb65  1  0.100869  0.188187  0.798292  1
  Sb  Sb66  1  0.515059  0.507529  0.257529  1
  Sb  Sb67  1  0.105590  0.428059  0.583961  1
  Sb  Sb68  1  0.750000  0.125000  0.375000  1
  Sb  Sb69  1  0.600869  0.298292  0.688187  1
  Sb  Sb70  1  0.399131  0.701708  0.311813  1
  Sb  Sb71  1  0.394410  0.916039  0.071941  1
  Sb  Sb72  1  0.389895  0.201708  0.802576  1
  Sb  Sb73  1  0.894410  0.822469  0.478370  1
  Sb  Sb74  1  0.250000  0.375000  0.125000  1
  Sb  Sb75  1  0.250000  0.742471  0.757529  1
  Sb  Sb76  1  0.110105  0.697424  0.298292  1
  Sb  Sb77  1  0.610105  0.798292  0.197424  1
  Sb  Sb78  1  0.100869  0.412681  0.302576  1
  Sb  Sb79  1  0.605590  0.083961  0.928059  1
  Sb  Sb80  1  0.899131  0.811813  0.201708  1
  Sb  Sb81  1  0.894410  0.571941  0.416039  1
  Sb  Sb82  1  0.250000  0.875000  0.625000  1
  Sb  Sb83  1  0.389895  0.688187  0.587319  1
  Sb  Sb84  1  0.015059  0.757529  0.007529  1
  Sb  Sb85  1  0.600869  0.802576  0.912681  1
  Sb  Sb86  1  0.155901  0.583961  0.978370  1
  Sb  Sb87  1  0.399131  0.197424  0.087319  1
  Sb  Sb88  1  0.844099  0.928059  0.822469  1
  Sb  Sb89  1  0.484941  0.492471  0.742471  1
  Sb  Sb90  1  0.984941  0.242471  0.992471  1
  Sb  Sb91  1  0.394410  0.978370  0.322469  1
  Sb  Sb92  1  0.750000  0.992471  0.507529  1
  Sb  Sb93  1  0.605590  0.021630  0.677531  1
  Sb  Sb94  1  0.110105  0.912681  0.811813  1
  Sb  Sb95  1  0.344099  0.322469  0.428059  1
  Sb  Sb96  1  0.155901  0.071941  0.177531  1
  Sb  Sb97  1  0.750000  0.257529  0.242471  1
  Sb  Sb98  1  0.750000  0.625000  0.875000  1
  Sb  Sb99  1  0.250000  0.007529  0.492471  1
  Sb  Sb100  1  0.899131  0.587319  0.697424  1
  Sb  Sb101  1  0.655901  0.677531  0.571941  1
  Sb  Sb102  1  0.889895  0.302576  0.701708  1
  Sb  Sb103  1  0.844099  0.416039  0.021630  1
