# generated using pymatgen
data_Pr20Ir10OsRu
_symmetry_space_group_name_H-M   'P 1'
_cell_length_a   11.32177000
_cell_length_b   11.32177000
_cell_length_c   6.66656700
_cell_angle_alpha   90.00000000
_cell_angle_beta   90.00000000
_cell_angle_gamma   90.00000000
_symmetry_Int_Tables_number   1
_chemical_formula_structural   Pr20Ir10OsRu
_chemical_formula_sum   'Pr20 Ir10 Os1 Ru1'
_cell_volume   854.53706403
_cell_formula_units_Z   1
loop_
 _symmetry_equiv_pos_site_id
 _symmetry_equiv_pos_as_xyz
  1  'x, y, z'
loop_
 _atom_site_type_symbol
 _atom_site_label
 _atom_site_symmetry_multiplicity
 _atom_site_fract_x
 _atom_site_fract_y
 _atom_site_fract_z
 _atom_site_occupancy
  Pr  Pr0  1  0.294223  0.087527  0.385501  1
  Pr  Pr1  1  0.294072  0.912416  0.886810  1
  Pr  Pr2  1  0.705928  0.087584  0.886810  1
  Pr  Pr3  1  0.705777  0.912473  0.385501  1
  Pr  Pr4  1  0.587584  0.794072  0.886810  1
  Pr  Pr5  1  0.587527  0.205777  0.385501  1
  Pr  Pr6  1  0.412473  0.794223  0.385501  1
  Pr  Pr7  1  0.412416  0.205928  0.886810  1
  Pr  Pr8  1  0.208812  0.409582  0.617080  1
  Pr  Pr9  1  0.208845  0.590385  0.117152  1
  Pr  Pr10  1  0.791155  0.409615  0.117152  1
  Pr  Pr11  1  0.791188  0.590418  0.617080  1
  Pr  Pr12  1  0.909615  0.708845  0.117152  1
  Pr  Pr13  1  0.909582  0.291188  0.617080  1
  Pr  Pr14  1  0.090418  0.708812  0.617080  1
  Pr  Pr15  1  0.090385  0.291155  0.117152  1
  Pr  Pr16  1  0.000000  0.000000  0.493920  1
  Pr  Pr17  1  0.000000  0.000000  0.993663  1
  Pr  Pr18  1  0.500000  0.500000  0.993663  1
  Pr  Pr19  1  0.500000  0.500000  0.493920  1
  Ir  Ir20  1  0.848454  0.154605  0.248788  1
  Ir  Ir21  1  0.848214  0.845439  0.748515  1
  Ir  Ir22  1  0.151786  0.154561  0.748515  1
  Ir  Ir23  1  0.151546  0.845395  0.248788  1
  Ir  Ir24  1  0.654561  0.348214  0.748515  1
  Ir  Ir25  1  0.654605  0.651546  0.248788  1
  Ir  Ir26  1  0.345395  0.348454  0.248788  1
  Ir  Ir27  1  0.345439  0.651786  0.748515  1
  Ir  Ir28  1  0.000000  0.500000  0.880807  1
  Ir  Ir29  1  0.000000  0.500000  0.380704  1
  Os  Os30  1  0.500000  0.000000  0.125538  1
  Ru  Ru31  1  0.500000  0.000000  0.622408  1
