# generated using pymatgen
data_Y3Tm3Al24Os7Au
_symmetry_space_group_name_H-M   'P 1'
_cell_length_a   8.85761471
_cell_length_b   8.85418851
_cell_length_c   9.54999747
_cell_angle_alpha   89.77981716
_cell_angle_beta   90.20365137
_cell_angle_gamma   120.00262568
_symmetry_Int_Tables_number   1
_chemical_formula_structural   Y3Tm3Al24Os7Au
_chemical_formula_sum   'Y3 Tm3 Al24 Os7 Au1'
_cell_volume   648.61048940
_cell_formula_units_Z   1
loop_
 _symmetry_equiv_pos_site_id
 _symmetry_equiv_pos_as_xyz
  1  'x, y, z'
loop_
 _atom_site_type_symbol
 _atom_site_label
 _atom_site_symmetry_multiplicity
 _atom_site_fract_x
 _atom_site_fract_y
 _atom_site_fract_z
 _atom_site_occupancy
  Y  Y0  1  0.190335  0.385560  0.250742  1
  Y  Y1  1  0.809363  0.614332  0.749255  1
  Y  Y2  1  0.614546  0.809719  0.250825  1
  Tm  Tm3  1  0.388575  0.190969  0.748134  1
  Tm  Tm4  1  0.195466  0.804216  0.254432  1
  Tm  Tm5  1  0.803949  0.195677  0.745593  1
  Al  Al6  1  0.328237  0.671693  0.023170  1
  Al  Al7  1  0.671128  0.328413  0.975886  1
  Al  Al8  1  0.665910  0.333665  0.519131  1
  Al  Al9  1  0.333649  0.666033  0.481649  1
  Al  Al10  1  0.162930  0.325580  0.576243  1
  Al  Al11  1  0.837353  0.673879  0.424424  1
  Al  Al12  1  0.673999  0.837346  0.576077  1
  Al  Al13  1  0.848896  0.677423  0.079879  1
  Al  Al14  1  0.325801  0.162559  0.425034  1
  Al  Al15  1  0.151434  0.322275  0.919555  1
  Al  Al16  1  0.163485  0.837265  0.575471  1
  Al  Al17  1  0.322357  0.151128  0.079179  1
  Al  Al18  1  0.836638  0.163415  0.425198  1
  Al  Al19  1  0.677499  0.848946  0.919730  1
  Al  Al20  1  0.836456  0.163572  0.074846  1
  Al  Al21  1  0.163706  0.837252  0.924404  1
  Al  Al22  1  0.560249  0.121421  0.249211  1
  Al  Al23  1  0.439288  0.879142  0.750748  1
  Al  Al24  1  0.878505  0.439594  0.249319  1
  Al  Al25  1  0.121567  0.560466  0.750736  1
  Al  Al26  1  0.563884  0.436013  0.255945  1
  Al  Al27  1  0.435726  0.562924  0.744526  1
  Al  Al28  1  0.000856  0.999248  0.250417  1
  Al  Al29  1  0.001646  0.001980  0.749681  1
  Os  Os30  1  0.499645  0.000535  0.999181  1
  Os  Os31  1  0.999641  0.499808  0.999903  1
  Os  Os32  1  0.499532  0.000374  0.500873  1
  Os  Os33  1  0.999611  0.499755  0.500176  1
  Os  Os34  1  0.499547  0.499058  0.500859  1
  Os  Os35  1  0.999615  0.999874  0.000074  1
  Os  Os36  1  0.999570  0.999792  0.500050  1
  Au  Au37  1  0.499406  0.499096  0.999447  1
