# generated using pymatgen
data_Dy5Ho2Co6CuSn22
_symmetry_space_group_name_H-M   'P 1'
_cell_length_a   9.66292668
_cell_length_b   9.66292684
_cell_length_c   9.89270971
_cell_angle_alpha   89.96250577
_cell_angle_beta   90.03749442
_cell_angle_gamma   119.97886538
_symmetry_Int_Tables_number   1
_chemical_formula_structural   Dy5Ho2Co6CuSn22
_chemical_formula_sum   'Dy5 Ho2 Co6 Cu1 Sn22'
_cell_volume   800.12087143
_cell_formula_units_Z   1
loop_
 _symmetry_equiv_pos_site_id
 _symmetry_equiv_pos_as_xyz
  1  'x, y, z'
loop_
 _atom_site_type_symbol
 _atom_site_label
 _atom_site_symmetry_multiplicity
 _atom_site_fract_x
 _atom_site_fract_y
 _atom_site_fract_z
 _atom_site_occupancy
  Dy  Dy0  1  0.000000  0.000000  0.000000  1
  Dy  Dy1  1  0.479492  0.958896  0.306232  1
  Dy  Dy2  1  0.520508  0.041104  0.693768  1
  Dy  Dy3  1  0.041104  0.520508  0.306232  1
  Dy  Dy4  1  0.958896  0.479492  0.693768  1
  Ho  Ho5  1  0.479605  0.520395  0.306456  1
  Ho  Ho6  1  0.520395  0.479605  0.693544  1
  Co  Co7  1  0.832002  0.167998  0.197065  1
  Co  Co8  1  0.167998  0.832002  0.802935  1
  Co  Co9  1  0.831876  0.663880  0.197117  1
  Co  Co10  1  0.168124  0.336120  0.802883  1
  Co  Co11  1  0.336120  0.168124  0.197117  1
  Co  Co12  1  0.663880  0.831876  0.802883  1
  Cu  Cu13  1  0.000000  0.000000  0.500000  1
  Sn  Sn14  1  0.346157  0.000046  0.999961  1
  Sn  Sn15  1  0.653843  0.999954  0.000039  1
  Sn  Sn16  1  0.000046  0.346157  0.000039  1
  Sn  Sn17  1  0.999954  0.653843  0.999961  1
  Sn  Sn18  1  0.653867  0.653867  0.000000  1
  Sn  Sn19  1  0.346133  0.346133  0.000000  1
  Sn  Sn20  1  0.333345  0.666655  0.816785  1
  Sn  Sn21  1  0.666655  0.333345  0.183215  1
  Sn  Sn22  1  0.784246  0.215754  0.453966  1
  Sn  Sn23  1  0.215754  0.784246  0.546034  1
  Sn  Sn24  1  0.783712  0.568595  0.454111  1
  Sn  Sn25  1  0.216288  0.431405  0.545889  1
  Sn  Sn26  1  0.431405  0.216288  0.454111  1
  Sn  Sn27  1  0.568595  0.783712  0.545889  1
  Sn  Sn28  1  0.333633  0.666367  0.119907  1
  Sn  Sn29  1  0.666367  0.333633  0.880093  1
  Sn  Sn30  1  0.110956  0.889044  0.283555  1
  Sn  Sn31  1  0.889044  0.110956  0.716445  1
  Sn  Sn32  1  0.111197  0.222092  0.283612  1
  Sn  Sn33  1  0.888803  0.777908  0.716388  1
  Sn  Sn34  1  0.777908  0.888803  0.283612  1
  Sn  Sn35  1  0.222092  0.111197  0.716388  1
