# generated using pymatgen
data_YPu3CoB14
_symmetry_space_group_name_H-M   'P 1'
_cell_length_a   7.22216599
_cell_length_b   7.23246350
_cell_length_c   7.51278900
_cell_angle_alpha   90.00000000
_cell_angle_beta   90.00000000
_cell_angle_gamma   90.11506590
_symmetry_Int_Tables_number   1
_chemical_formula_structural   YPu3CoB14
_chemical_formula_sum   'Y2 Pu6 Co2 B28'
_cell_volume   392.42261947
_cell_formula_units_Z   2
loop_
 _symmetry_equiv_pos_site_id
 _symmetry_equiv_pos_as_xyz
  1  'x, y, z'
loop_
 _atom_site_type_symbol
 _atom_site_label
 _atom_site_symmetry_multiplicity
 _atom_site_fract_x
 _atom_site_fract_y
 _atom_site_fract_z
 _atom_site_occupancy
  Y  Y0  1  0.830613  0.694600  0.500000  1
  Y  Y1  1  0.169387  0.305400  0.500000  1
  Pu  Pu2  1  0.196894  0.328911  0.000000  1
  Pu  Pu3  1  0.670956  0.196633  0.000000  1
  Pu  Pu4  1  0.329044  0.803367  0.000000  1
  Pu  Pu5  1  0.695986  0.170867  0.500000  1
  Pu  Pu6  1  0.304014  0.829133  0.500000  1
  Pu  Pu7  1  0.803106  0.671089  0.000000  1
  Co  Co8  1  0.000000  0.000000  0.000000  1
  Co  Co9  1  0.500000  0.500000  0.500000  1
  B  B10  1  0.174455  0.040136  0.229428  1
  B  B11  1  0.960901  0.174331  0.229518  1
  B  B12  1  0.039099  0.825669  0.229518  1
  B  B13  1  0.674541  0.458967  0.268998  1
  B  B14  1  0.325459  0.541033  0.268998  1
  B  B15  1  0.825545  0.959864  0.229428  1
  B  B16  1  0.538676  0.674838  0.269812  1
  B  B17  1  0.461324  0.325162  0.269812  1
  B  B18  1  0.825545  0.959864  0.770572  1
  B  B19  1  0.039099  0.825669  0.770482  1
  B  B20  1  0.960901  0.174331  0.770482  1
  B  B21  1  0.325459  0.541033  0.731002  1
  B  B22  1  0.674541  0.458967  0.731002  1
  B  B23  1  0.174455  0.040136  0.770572  1
  B  B24  1  0.461324  0.325162  0.730188  1
  B  B25  1  0.538676  0.674838  0.730188  1
  B  B26  1  0.089117  0.589709  0.244630  1
  B  B27  1  0.411707  0.088237  0.248072  1
  B  B28  1  0.588293  0.911763  0.248072  1
  B  B29  1  0.910883  0.410291  0.244630  1
  B  B30  1  0.910883  0.410291  0.755370  1
  B  B31  1  0.588293  0.911763  0.751928  1
  B  B32  1  0.411707  0.088237  0.751928  1
  B  B33  1  0.089117  0.589709  0.755370  1
  B  B34  1  0.000000  0.000000  0.388994  1
  B  B35  1  0.500000  0.500000  0.111087  1
  B  B36  1  0.000000  0.000000  0.611006  1
  B  B37  1  0.500000  0.500000  0.888913  1
