# generated using pymatgen
data_VCd3P6N13
_symmetry_space_group_name_H-M   'P 1'
_cell_length_a   7.12790684
_cell_length_b   7.22973748
_cell_length_c   7.22973849
_cell_angle_alpha   109.75478571
_cell_angle_beta   109.18614922
_cell_angle_gamma   109.18615586
_symmetry_Int_Tables_number   1
_chemical_formula_structural   VCd3P6N13
_chemical_formula_sum   'V1 Cd3 P6 N13'
_cell_volume   287.80678043
_cell_formula_units_Z   1
loop_
 _symmetry_equiv_pos_site_id
 _symmetry_equiv_pos_as_xyz
  1  'x, y, z'
loop_
 _atom_site_type_symbol
 _atom_site_label
 _atom_site_symmetry_multiplicity
 _atom_site_fract_x
 _atom_site_fract_y
 _atom_site_fract_z
 _atom_site_occupancy
  V  V0  1  0.679298  0.000000  0.000000  1
  Cd  Cd1  1  0.995244  0.000000  0.714758  1
  Cd  Cd2  1  0.995244  0.714758  0.000000  1
  Cd  Cd3  1  0.280486  0.285242  0.285242  1
  P  P4  1  0.256090  0.749836  0.501960  1
  P  P5  1  0.754130  0.247877  0.498040  1
  P  P6  1  0.754130  0.498040  0.247877  1
  P  P7  1  0.256090  0.501960  0.749836  1
  P  P8  1  0.506253  0.752123  0.250164  1
  P  P9  1  0.506253  0.250164  0.752123  1
  N  N10  1  0.946216  0.000000  0.000000  1
  N  N11  1  0.716525  0.266325  0.266325  1
  N  N12  1  0.281494  0.722547  0.278616  1
  N  N13  1  0.300008  0.566509  0.566509  1
  N  N14  1  0.558947  0.556069  0.277453  1
  N  N15  1  0.450200  0.733675  0.000000  1
  N  N16  1  0.002878  0.721384  0.443931  1
  N  N17  1  0.558947  0.277453  0.556069  1
  N  N18  1  0.733499  0.000000  0.433491  1
  N  N19  1  0.450200  0.000000  0.733675  1
  N  N20  1  0.733499  0.433491  0.000000  1
  N  N21  1  0.281494  0.278616  0.722547  1
  N  N22  1  0.002878  0.443931  0.721384  1
