# generated using pymatgen
data_TbDyY2(Mo2O7)2
_symmetry_space_group_name_H-M   'P 1'
_cell_length_a   7.37109842
_cell_length_b   7.37109818
_cell_length_c   7.29165641
_cell_angle_alpha   60.41370007
_cell_angle_beta   60.41370117
_cell_angle_gamma   60.81697065
_symmetry_Int_Tables_number   1
_chemical_formula_structural   TbDyY2(Mo2O7)2
_chemical_formula_sum   'Tb1 Dy1 Y2 Mo4 O14'
_cell_volume   283.60022873
_cell_formula_units_Z   1
loop_
 _symmetry_equiv_pos_site_id
 _symmetry_equiv_pos_as_xyz
  1  'x, y, z'
loop_
 _atom_site_type_symbol
 _atom_site_label
 _atom_site_symmetry_multiplicity
 _atom_site_fract_x
 _atom_site_fract_y
 _atom_site_fract_z
 _atom_site_occupancy
  Tb  Tb0  1  0.125000  0.125000  0.625000  1
  Dy  Dy1  1  0.125000  0.125000  0.125000  1
  Y  Y2  1  0.625000  0.125000  0.125000  1
  Y  Y3  1  0.125000  0.625000  0.125000  1
  Mo  Mo4  1  0.125000  0.625000  0.625000  1
  Mo  Mo5  1  0.625000  0.125000  0.625000  1
  Mo  Mo6  1  0.625000  0.625000  0.125000  1
  Mo  Mo7  1  0.625000  0.625000  0.625000  1
  O  O8  1  0.712117  0.712117  0.288047  1
  O  O9  1  0.282437  0.282437  0.718187  1
  O  O10  1  0.717954  0.286512  0.709666  1
  O  O11  1  0.286327  0.718673  0.285510  1
  O  O12  1  0.286512  0.717954  0.709666  1
  O  O13  1  0.718673  0.286327  0.285510  1
  O  O14  1  0.537883  0.537883  0.961953  1
  O  O15  1  0.967563  0.967563  0.531813  1
  O  O16  1  0.532046  0.963488  0.540334  1
  O  O17  1  0.963673  0.531327  0.964490  1
  O  O18  1  0.963488  0.532046  0.540334  1
  O  O19  1  0.531327  0.963673  0.964490  1
  O  O20  1  0.253906  0.253906  0.245292  1
  O  O21  1  0.996094  0.996094  0.004708  1
