# generated using pymatgen
data_Eu3AlSb3
_symmetry_space_group_name_H-M   'P 1'
_cell_length_a   10.63142879
_cell_length_b   10.63142918
_cell_length_c   13.38870900
_cell_angle_alpha   90.00000000
_cell_angle_beta   90.00000000
_cell_angle_gamma   142.57292616
_symmetry_Int_Tables_number   1
_chemical_formula_structural   Eu3AlSb3
_chemical_formula_sum   'Eu12 Al4 Sb12'
_cell_volume   919.70337540
_cell_formula_units_Z   4
loop_
 _symmetry_equiv_pos_site_id
 _symmetry_equiv_pos_as_xyz
  1  'x, y, z'
loop_
 _atom_site_type_symbol
 _atom_site_label
 _atom_site_symmetry_multiplicity
 _atom_site_fract_x
 _atom_site_fract_y
 _atom_site_fract_z
 _atom_site_occupancy
  Eu  Eu0  1  0.803602  0.803602  0.355853  1
  Eu  Eu1  1  0.303602  0.303602  0.144147  1
  Eu  Eu2  1  0.696398  0.696398  0.855853  1
  Eu  Eu3  1  0.196398  0.196398  0.644147  1
  Eu  Eu4  1  0.473798  0.123325  0.870978  1
  Eu  Eu5  1  0.623325  0.973798  0.629022  1
  Eu  Eu6  1  0.026202  0.376675  0.370978  1
  Eu  Eu7  1  0.876675  0.526202  0.129022  1
  Eu  Eu8  1  0.526202  0.876675  0.129022  1
  Eu  Eu9  1  0.376675  0.026202  0.370978  1
  Eu  Eu10  1  0.973798  0.623325  0.629022  1
  Eu  Eu11  1  0.123325  0.473798  0.870978  1
  Al  Al12  1  0.086491  0.913509  0.000000  1
  Al  Al13  1  0.413509  0.586491  0.500000  1
  Al  Al14  1  0.913509  0.086491  0.000000  1
  Al  Al15  1  0.586491  0.413509  0.500000  1
  Sb  Sb16  1  0.279028  0.279028  0.388455  1
  Sb  Sb17  1  0.779028  0.779028  0.111545  1
  Sb  Sb18  1  0.220972  0.220972  0.888455  1
  Sb  Sb19  1  0.720972  0.720972  0.611545  1
  Sb  Sb20  1  0.944568  0.619861  0.874925  1
  Sb  Sb21  1  0.119861  0.444568  0.625075  1
  Sb  Sb22  1  0.555432  0.880139  0.374925  1
  Sb  Sb23  1  0.380139  0.055432  0.125075  1
  Sb  Sb24  1  0.055432  0.380139  0.125075  1
  Sb  Sb25  1  0.880139  0.555432  0.374925  1
  Sb  Sb26  1  0.444568  0.119861  0.625075  1
  Sb  Sb27  1  0.619861  0.944568  0.874925  1
