# generated using pymatgen
data_Th5P12Ru9Rh10
_symmetry_space_group_name_H-M   'P 1'
_cell_length_a   12.77052700
_cell_length_b   12.77052606
_cell_length_c   3.99858500
_cell_angle_alpha   90.00000000
_cell_angle_beta   90.00000000
_cell_angle_gamma   119.99999986
_symmetry_Int_Tables_number   1
_chemical_formula_structural   Th5P12Ru9Rh10
_chemical_formula_sum   'Th5 P12 Ru9 Rh10'
_cell_volume   564.74783139
_cell_formula_units_Z   1
loop_
 _symmetry_equiv_pos_site_id
 _symmetry_equiv_pos_as_xyz
  1  'x, y, z'
loop_
 _atom_site_type_symbol
 _atom_site_label
 _atom_site_symmetry_multiplicity
 _atom_site_fract_x
 _atom_site_fract_y
 _atom_site_fract_z
 _atom_site_occupancy
  Th  Th0  1  0.186260  0.186260  0.500000  1
  Th  Th1  1  0.813740  0.000000  0.500000  1
  Th  Th2  1  0.000000  0.813740  0.500000  1
  Th  Th3  1  0.333333  0.666667  0.000000  1
  Th  Th4  1  0.666667  0.333333  0.000000  1
  P  P5  1  0.815810  0.815810  0.000000  1
  P  P6  1  0.184190  0.000000  0.000000  1
  P  P7  1  0.000000  0.184190  0.000000  1
  P  P8  1  0.170257  0.480208  0.500000  1
  P  P9  1  0.519792  0.690048  0.500000  1
  P  P10  1  0.309952  0.829743  0.500000  1
  P  P11  1  0.690048  0.519792  0.500000  1
  P  P12  1  0.829743  0.309952  0.500000  1
  P  P13  1  0.480208  0.170257  0.500000  1
  P  P14  1  0.370562  0.370562  0.000000  1
  P  P15  1  0.629438  0.000000  0.000000  1
  P  P16  1  0.000000  0.629438  0.000000  1
  Ru  Ru17  1  0.715309  0.715309  0.500000  1
  Ru  Ru18  1  0.284691  0.000000  0.500000  1
  Ru  Ru19  1  0.000000  0.284691  0.500000  1
  Ru  Ru20  1  0.363727  0.489754  0.500000  1
  Ru  Ru21  1  0.510246  0.873974  0.500000  1
  Ru  Ru22  1  0.126026  0.636273  0.500000  1
  Ru  Ru23  1  0.873974  0.510246  0.500000  1
  Ru  Ru24  1  0.636273  0.126026  0.500000  1
  Ru  Ru25  1  0.489754  0.363727  0.500000  1
  Rh  Rh26  1  0.549171  0.549171  0.000000  1
  Rh  Rh27  1  0.450829  0.000000  0.000000  1
  Rh  Rh28  1  0.000000  0.450829  0.000000  1
  Rh  Rh29  1  0.182021  0.376589  0.000000  1
  Rh  Rh30  1  0.623411  0.805433  0.000000  1
  Rh  Rh31  1  0.194567  0.817979  0.000000  1
  Rh  Rh32  1  0.805433  0.623411  0.000000  1
  Rh  Rh33  1  0.817979  0.194567  0.000000  1
  Rh  Rh34  1  0.376589  0.182021  0.000000  1
  Rh  Rh35  1  0.000000  0.000000  0.000000  1
