# generated using pymatgen
data_Ho2Si6PIr12
_symmetry_space_group_name_H-M   'P 1'
_cell_length_a   9.76369272
_cell_length_b   9.70971804
_cell_length_c   3.88635002
_cell_angle_alpha   89.97320557
_cell_angle_beta   90.06584983
_cell_angle_gamma   119.96866064
_symmetry_Int_Tables_number   1
_chemical_formula_structural   Ho2Si6PIr12
_chemical_formula_sum   'Ho2 Si6 P1 Ir12'
_cell_volume   319.17585994
_cell_formula_units_Z   1
loop_
 _symmetry_equiv_pos_site_id
 _symmetry_equiv_pos_as_xyz
  1  'x, y, z'
loop_
 _atom_site_type_symbol
 _atom_site_label
 _atom_site_symmetry_multiplicity
 _atom_site_fract_x
 _atom_site_fract_y
 _atom_site_fract_z
 _atom_site_occupancy
  Ho  Ho0  1  0.334799  0.667722  0.747789  1
  Ho  Ho1  1  0.664605  0.332565  0.251221  1
  Si  Si2  1  0.000472  0.999652  0.506685  1
  Si  Si3  1  0.405175  0.289020  0.750858  1
  Si  Si4  1  0.708614  0.115411  0.752283  1
  Si  Si5  1  0.882364  0.593518  0.752141  1
  Si  Si6  1  0.596116  0.711032  0.248340  1
  Si  Si7  1  0.290560  0.884060  0.247600  1
  P  P8  1  0.116574  0.405122  0.245419  1
  Ir  Ir9  1  0.443155  0.062111  0.751109  1
  Ir  Ir10  1  0.932701  0.379715  0.751587  1
  Ir  Ir11  1  0.616664  0.555578  0.751114  1
  Ir  Ir12  1  0.557743  0.938375  0.249136  1
  Ir  Ir13  1  0.065061  0.614212  0.248520  1
  Ir  Ir14  1  0.378158  0.446009  0.247829  1
  Ir  Ir15  1  0.146936  0.266504  0.746373  1
  Ir  Ir16  1  0.739084  0.884337  0.746049  1
  Ir  Ir17  1  0.117753  0.852363  0.745209  1
  Ir  Ir18  1  0.855358  0.735109  0.253573  1
  Ir  Ir19  1  0.261014  0.117167  0.252667  1
  Ir  Ir20  1  0.887093  0.150419  0.254500  1
