# generated using pymatgen
data_La5Pr5Nd2(PtI3)4
_symmetry_space_group_name_H-M   'P 1'
_cell_length_a   11.00100121
_cell_length_b   10.99952512
_cell_length_c   11.00067572
_cell_angle_alpha   109.53058799
_cell_angle_beta   109.45699338
_cell_angle_gamma   109.33240794
_symmetry_Int_Tables_number   1
_chemical_formula_structural   La5Pr5Nd2(PtI3)4
_chemical_formula_sum   'La5 Pr5 Nd2 Pt4 I12'
_cell_volume   1025.89679836
_cell_formula_units_Z   1
loop_
 _symmetry_equiv_pos_site_id
 _symmetry_equiv_pos_as_xyz
  1  'x, y, z'
loop_
 _atom_site_type_symbol
 _atom_site_label
 _atom_site_symmetry_multiplicity
 _atom_site_fract_x
 _atom_site_fract_y
 _atom_site_fract_z
 _atom_site_occupancy
  La  La0  1  0.481693  0.753771  0.023074  1
  La  La1  1  0.482525  0.228527  0.461140  1
  La  La2  1  0.018686  0.481478  0.750569  1
  La  La3  1  0.267559  0.020724  0.038527  1
  La  La4  1  0.229487  0.268698  0.747900  1
  Pr  Pr5  1  0.457292  0.480031  0.228585  1
  Pr  Pr6  1  0.754654  0.230689  0.272605  1
  Pr  Pr7  1  0.749257  0.019507  0.479677  1
  Pr  Pr8  1  0.230155  0.457757  0.476112  1
  Pr  Pr9  1  0.267767  0.747360  0.230149  1
  Nd  Nd10  1  0.041737  0.271148  0.021429  1
  Nd  Nd11  1  0.020559  0.041919  0.271123  1
  Pt  Pt12  1  0.249876  0.247374  0.249096  1
  Pt  Pt13  1  0.498035  0.999828  0.249560  1
  Pt  Pt14  1  0.001638  0.250791  0.502373  1
  Pt  Pt15  1  0.247964  0.499249  0.997399  1
  I  I16  1  0.250372  0.757432  0.738513  1
  I  I17  1  0.517271  0.510898  0.756990  1
  I  I18  1  0.982097  0.742889  0.996415  1
  I  I19  1  0.742798  0.246701  0.760961  1
  I  I20  1  0.986742  0.983120  0.740502  1
  I  I21  1  0.245903  0.986635  0.503675  1
  I  I22  1  0.757329  0.516887  0.503757  1
  I  I23  1  0.512958  0.253654  0.996365  1
  I  I24  1  0.759947  0.743073  0.253131  1
  I  I25  1  0.745864  0.995026  0.985056  1
  I  I26  1  0.992257  0.507188  0.249859  1
  I  I27  1  0.507576  0.757643  0.515460  1
