# generated using pymatgen
data_Tb3Ho5TaTi11Si16
_symmetry_space_group_name_H-M   'P 1'
_cell_length_a   7.04782446
_cell_length_b   7.04857840
_cell_length_c   12.96646469
_cell_angle_alpha   89.99038811
_cell_angle_beta   90.01746171
_cell_angle_gamma   89.98524358
_symmetry_Int_Tables_number   1
_chemical_formula_structural   Tb3Ho5TaTi11Si16
_chemical_formula_sum   'Tb3 Ho5 Ta1 Ti11 Si16'
_cell_volume   644.13686334
_cell_formula_units_Z   1
loop_
 _symmetry_equiv_pos_site_id
 _symmetry_equiv_pos_as_xyz
  1  'x, y, z'
loop_
 _atom_site_type_symbol
 _atom_site_label
 _atom_site_symmetry_multiplicity
 _atom_site_fract_x
 _atom_site_fract_y
 _atom_site_fract_z
 _atom_site_occupancy
  Tb  Tb0  1  0.659920  0.997235  0.966762  1
  Tb  Tb1  1  0.003324  0.339480  0.533149  1
  Tb  Tb2  1  0.997197  0.659896  0.033237  1
  Ho  Ho3  1  0.340102  0.002370  0.466692  1
  Ho  Ho4  1  0.497394  0.839704  0.716649  1
  Ho  Ho5  1  0.501893  0.159443  0.216601  1
  Ho  Ho6  1  0.839533  0.497358  0.283298  1
  Ho  Ho7  1  0.159541  0.502018  0.783498  1
  Ta  Ta8  1  0.326970  0.326972  0.999991  1
  Ti  Ti9  1  0.173845  0.826805  0.250196  1
  Ti  Ti10  1  0.826645  0.173558  0.749835  1
  Ti  Ti11  1  0.672496  0.673073  0.500005  1
  Ti  Ti12  1  0.154620  0.008662  0.876489  1
  Ti  Ti13  1  0.491260  0.651376  0.125769  1
  Ti  Ti14  1  0.508012  0.348663  0.626352  1
  Ti  Ti15  1  0.651219  0.491185  0.874328  1
  Ti  Ti16  1  0.348714  0.508342  0.373664  1
  Ti  Ti17  1  0.847052  0.992404  0.376299  1
  Ti  Ti18  1  0.008812  0.154566  0.123517  1
  Ti  Ti19  1  0.992395  0.846979  0.623608  1
  Si  Si20  1  0.202698  0.129539  0.684747  1
  Si  Si21  1  0.369996  0.701787  0.934117  1
  Si  Si22  1  0.629122  0.297664  0.434398  1
  Si  Si23  1  0.701804  0.369956  0.065857  1
  Si  Si24  1  0.298443  0.630602  0.565410  1
  Si  Si25  1  0.797185  0.870419  0.185341  1
  Si  Si26  1  0.130135  0.201959  0.315421  1
  Si  Si27  1  0.870346  0.797241  0.814673  1
  Si  Si28  1  0.291260  0.953663  0.065288  1
  Si  Si29  1  0.546567  0.791924  0.315056  1
  Si  Si30  1  0.453734  0.207927  0.813698  1
  Si  Si31  1  0.791437  0.547023  0.685272  1
  Si  Si32  1  0.207935  0.453581  0.186293  1
  Si  Si33  1  0.708151  0.045850  0.564809  1
  Si  Si34  1  0.953600  0.291238  0.934700  1
  Si  Si35  1  0.046646  0.709535  0.434983  1
