# generated using pymatgen
data_Tb3Er5Re3RuC8
_symmetry_space_group_name_H-M   'P 1'
_cell_length_a   5.09014900
_cell_length_b   6.55774682
_cell_length_c   9.80194133
_cell_angle_alpha   89.96355516
_cell_angle_beta   90.00000000
_cell_angle_gamma   90.00000000
_symmetry_Int_Tables_number   1
_chemical_formula_structural   Tb3Er5Re3RuC8
_chemical_formula_sum   'Tb3 Er5 Re3 Ru1 C8'
_cell_volume   327.18783757
_cell_formula_units_Z   1
loop_
 _symmetry_equiv_pos_site_id
 _symmetry_equiv_pos_as_xyz
  1  'x, y, z'
loop_
 _atom_site_type_symbol
 _atom_site_label
 _atom_site_symmetry_multiplicity
 _atom_site_fract_x
 _atom_site_fract_y
 _atom_site_fract_z
 _atom_site_occupancy
  Tb  Tb0  1  0.250000  0.032872  0.285618  1
  Tb  Tb1  1  0.750000  0.968840  0.716171  1
  Tb  Tb2  1  0.250000  0.530422  0.212388  1
  Er  Er3  1  0.750000  0.827054  0.055129  1
  Er  Er4  1  0.250000  0.677697  0.557017  1
  Er  Er5  1  0.750000  0.320882  0.443017  1
  Er  Er6  1  0.250000  0.178320  0.942245  1
  Er  Er7  1  0.750000  0.467997  0.784306  1
  Re  Re8  1  0.250000  0.222584  0.633352  1
  Re  Re9  1  0.750000  0.777840  0.365913  1
  Re  Re10  1  0.250000  0.722017  0.866506  1
  Ru  Ru11  1  0.750000  0.277949  0.134243  1
  C  C12  1  0.750000  0.174127  0.949940  1
  C  C13  1  0.250000  0.824803  0.051457  1
  C  C14  1  0.750000  0.672207  0.550823  1
  C  C15  1  0.250000  0.325356  0.448696  1
  C  C16  1  0.750000  0.043602  0.260410  1
  C  C17  1  0.250000  0.455046  0.760076  1
  C  C18  1  0.750000  0.546085  0.242674  1
  C  C19  1  0.250000  0.954295  0.740016  1
