# generated using pymatgen
data_Dy7Ho2Th5Rh6
_symmetry_space_group_name_H-M   'P 1'
_cell_length_a   9.72432684
_cell_length_b   9.72432521
_cell_length_c   6.38969483
_cell_angle_alpha   89.77942105
_cell_angle_beta   90.22057786
_cell_angle_gamma   119.25481777
_symmetry_Int_Tables_number   1
_chemical_formula_structural   Dy7Ho2Th5Rh6
_chemical_formula_sum   'Dy7 Ho2 Th5 Rh6'
_cell_volume   527.15436861
_cell_formula_units_Z   1
loop_
 _symmetry_equiv_pos_site_id
 _symmetry_equiv_pos_as_xyz
  1  'x, y, z'
loop_
 _atom_site_type_symbol
 _atom_site_label
 _atom_site_symmetry_multiplicity
 _atom_site_fract_x
 _atom_site_fract_y
 _atom_site_fract_z
 _atom_site_occupancy
  Dy  Dy0  1  0.127901  0.872099  0.256197  1
  Dy  Dy1  1  0.460137  0.921748  0.549237  1
  Dy  Dy2  1  0.078252  0.539863  0.549237  1
  Dy  Dy3  1  0.460173  0.539827  0.549860  1
  Dy  Dy4  1  0.537554  0.076495  0.053352  1
  Dy  Dy5  1  0.923505  0.462446  0.053352  1
  Dy  Dy6  1  0.539230  0.460770  0.051839  1
  Ho  Ho7  1  0.666773  0.333227  0.529811  1
  Ho  Ho8  1  0.332708  0.667292  0.028055  1
  Th  Th9  1  0.873712  0.744326  0.757305  1
  Th  Th10  1  0.255674  0.126288  0.757305  1
  Th  Th11  1  0.871053  0.128947  0.756365  1
  Th  Th12  1  0.130387  0.255585  0.258030  1
  Th  Th13  1  0.744415  0.869613  0.258030  1
  Rh  Rh14  1  0.183881  0.366717  0.795494  1
  Rh  Rh15  1  0.633283  0.816119  0.795494  1
  Rh  Rh16  1  0.184036  0.815964  0.790905  1
  Rh  Rh17  1  0.808334  0.628279  0.299003  1
  Rh  Rh18  1  0.371721  0.191666  0.299003  1
  Rh  Rh19  1  0.817273  0.182727  0.293564  1
