# generated using pymatgen
data_Zr10Sn6Cl
_symmetry_space_group_name_H-M   'P 1'
_cell_length_a   5.85162404
_cell_length_b   8.60847714
_cell_length_c   8.60846502
_cell_angle_alpha   120.00004984
_cell_angle_beta   90.00632290
_cell_angle_gamma   89.98735469
_symmetry_Int_Tables_number   1
_chemical_formula_structural   Zr10Sn6Cl
_chemical_formula_sum   'Zr10 Sn6 Cl1'
_cell_volume   375.54230509
_cell_formula_units_Z   1
loop_
 _symmetry_equiv_pos_site_id
 _symmetry_equiv_pos_as_xyz
  1  'x, y, z'
loop_
 _atom_site_type_symbol
 _atom_site_label
 _atom_site_symmetry_multiplicity
 _atom_site_fract_x
 _atom_site_fract_y
 _atom_site_fract_z
 _atom_site_occupancy
  Zr  Zr0  1  0.500000  0.333314  0.666628  1
  Zr  Zr1  1  0.500000  0.666685  0.333372  1
  Zr  Zr2  1  0.000002  0.666634  0.333268  1
  Zr  Zr3  1  0.000002  0.333366  0.666732  1
  Zr  Zr4  1  0.762645  0.257022  0.000000  1
  Zr  Zr5  1  0.762506  0.742997  0.742980  1
  Zr  Zr6  1  0.762506  0.000016  0.257020  1
  Zr  Zr7  1  0.237356  0.742977  0.000000  1
  Zr  Zr8  1  0.237495  0.257007  0.257022  1
  Zr  Zr9  1  0.237495  0.999985  0.742978  1
  Sn  Sn10  1  0.748667  0.608754  0.000000  1
  Sn  Sn11  1  0.748829  0.391280  0.391288  1
  Sn  Sn12  1  0.748829  0.999992  0.608712  1
  Sn  Sn13  1  0.251335  0.391245  0.000000  1
  Sn  Sn14  1  0.251172  0.608721  0.608711  1
  Sn  Sn15  1  0.251172  0.000010  0.391289  1
  Cl  Cl16  1  0.499990  0.999998  0.000000  1
