# generated using pymatgen
data_Zr5P12Ir9Ru10
_symmetry_space_group_name_H-M   'P 1'
_cell_length_a   12.52582368
_cell_length_b   12.47867019
_cell_length_c   3.91615900
_cell_angle_alpha   90.00000000
_cell_angle_beta   90.00000000
_cell_angle_gamma   119.80500416
_symmetry_Int_Tables_number   1
_chemical_formula_structural   Zr5P12Ir9Ru10
_chemical_formula_sum   'Zr5 P12 Ir9 Ru10'
_cell_volume   531.14799660
_cell_formula_units_Z   1
loop_
 _symmetry_equiv_pos_site_id
 _symmetry_equiv_pos_as_xyz
  1  'x, y, z'
loop_
 _atom_site_type_symbol
 _atom_site_label
 _atom_site_symmetry_multiplicity
 _atom_site_fract_x
 _atom_site_fract_y
 _atom_site_fract_z
 _atom_site_occupancy
  Zr  Zr0  1  0.666440  0.330719  0.000000  1
  Zr  Zr1  1  0.334322  0.668271  0.000000  1
  Zr  Zr2  1  0.816936  0.000188  0.500000  1
  Zr  Zr3  1  0.177510  0.180152  0.500000  1
  Zr  Zr4  1  0.001490  0.820691  0.500000  1
  P  P5  1  0.637970  0.999335  0.000000  1
  P  P6  1  0.360397  0.366174  0.000000  1
  P  P7  1  0.005252  0.639079  0.000000  1
  P  P8  1  0.689270  0.519249  0.500000  1
  P  P9  1  0.829707  0.307453  0.500000  1
  P  P10  1  0.312816  0.828640  0.500000  1
  P  P11  1  0.515942  0.686533  0.500000  1
  P  P12  1  0.178151  0.001186  0.000000  1
  P  P13  1  0.822270  0.821927  0.000000  1
  P  P14  1  0.996328  0.177568  0.000000  1
  P  P15  1  0.480109  0.167475  0.500000  1
  P  P16  1  0.172789  0.485460  0.500000  1
  Ir  Ir17  1  0.628967  0.809384  0.000000  1
  Ir  Ir18  1  0.179516  0.371732  0.000000  1
  Ir  Ir19  1  0.369216  0.184716  0.000000  1
  Ir  Ir20  1  0.191766  0.820461  0.000000  1
  Ir  Ir21  1  0.814299  0.629181  0.000000  1
  Ir  Ir22  1  0.865826  0.503445  0.500000  1
  Ir  Ir23  1  0.495652  0.360354  0.500000  1
  Ir  Ir24  1  0.638161  0.130586  0.500000  1
  Ir  Ir25  1  0.999812  0.000137  0.000000  1
  Ru  Ru26  1  0.129642  0.639922  0.500000  1
  Ru  Ru27  1  0.360562  0.489556  0.500000  1
  Ru  Ru28  1  0.508158  0.868045  0.500000  1
  Ru  Ru29  1  0.714272  0.713310  0.500000  1
  Ru  Ru30  1  0.001547  0.289129  0.500000  1
  Ru  Ru31  1  0.454694  0.001282  0.000000  1
  Ru  Ru32  1  0.547582  0.544671  0.000000  1
  Ru  Ru33  1  0.998398  0.451480  0.000000  1
  Ru  Ru34  1  0.818065  0.191530  0.000000  1
  Ru  Ru35  1  0.286166  0.000977  0.500000  1
