# generated using pymatgen
data_Dy4Al24Pt8Au
_symmetry_space_group_name_H-M   'P 1'
_cell_length_a   7.55083465
_cell_length_b   7.56928810
_cell_length_c   13.16886528
_cell_angle_alpha   84.54748702
_cell_angle_beta   79.02168714
_cell_angle_gamma   59.89778185
_symmetry_Int_Tables_number   1
_chemical_formula_structural   Dy4Al24Pt8Au
_chemical_formula_sum   'Dy4 Al24 Pt8 Au1'
_cell_volume   639.23295038
_cell_formula_units_Z   1
loop_
 _symmetry_equiv_pos_site_id
 _symmetry_equiv_pos_as_xyz
  1  'x, y, z'
loop_
 _atom_site_type_symbol
 _atom_site_label
 _atom_site_symmetry_multiplicity
 _atom_site_fract_x
 _atom_site_fract_y
 _atom_site_fract_z
 _atom_site_occupancy
  Dy  Dy0  1  0.392914  0.169057  0.808646  1
  Dy  Dy1  1  0.606041  0.831814  0.192359  1
  Dy  Dy2  1  0.734025  0.499035  0.808449  1
  Dy  Dy3  1  0.266694  0.501105  0.191769  1
  Al  Al4  1  0.683407  0.833932  0.945291  1
  Al  Al5  1  0.315539  0.166173  0.055870  1
  Al  Al6  1  0.146945  0.838482  0.560040  1
  Al  Al7  1  0.854099  0.167322  0.436868  1
  Al  Al8  1  0.487497  0.160252  0.557563  1
  Al  Al9  1  0.520116  0.833518  0.439955  1
  Al  Al10  1  0.217607  0.165140  0.329366  1
  Al  Al11  1  0.777585  0.839137  0.672506  1
  Al  Al12  1  0.440859  0.506854  0.672632  1
  Al  Al13  1  0.562778  0.493549  0.329149  1
  Al  Al14  1  0.108971  0.154690  0.671504  1
  Al  Al15  1  0.890233  0.839931  0.330342  1
  Al  Al16  1  0.353233  0.498942  0.945234  1
  Al  Al17  1  0.647216  0.500575  0.055800  1
  Al  Al18  1  0.015115  0.167734  0.953766  1
  Al  Al19  1  0.984414  0.832463  0.047295  1
  Al  Al20  1  0.188004  0.499549  0.436580  1
  Al  Al21  1  0.807505  0.500298  0.557513  1
  Al  Al22  1  0.734133  0.163904  0.183616  1
  Al  Al23  1  0.266519  0.835523  0.816661  1
  Al  Al24  1  0.060739  0.633317  0.817923  1
  Al  Al25  1  0.938296  0.368863  0.184958  1
  Al  Al26  1  0.854406  0.041881  0.816141  1
  Al  Al27  1  0.144711  0.958304  0.184109  1
  Pt  Pt28  1  0.879423  0.508337  0.361557  1
  Pt  Pt29  1  0.657505  0.171250  0.999457  1
  Pt  Pt30  1  0.342764  0.828548  0.999690  1
  Pt  Pt31  1  0.537440  0.166713  0.361658  1
  Pt  Pt32  1  0.462441  0.833387  0.637850  1
  Pt  Pt33  1  0.779381  0.175109  0.636599  1
  Pt  Pt34  1  0.220987  0.824773  0.362851  1
  Pt  Pt35  1  0.999959  0.499847  0.000233  1
  Au  Au36  1  0.120498  0.490695  0.638201  1
