# generated using pymatgen
data_Tb14Pr2Cd4IrPd3
_symmetry_space_group_name_H-M   'P 1'
_cell_length_a   9.79090510
_cell_length_b   9.75733134
_cell_length_c   9.74577700
_cell_angle_alpha   60.03916770
_cell_angle_beta   60.15235724
_cell_angle_gamma   60.00067869
_symmetry_Int_Tables_number   1
_chemical_formula_structural   Tb14Pr2Cd4IrPd3
_chemical_formula_sum   'Tb14 Pr2 Cd4 Ir1 Pd3'
_cell_volume   659.30118701
_cell_formula_units_Z   1
loop_
 _symmetry_equiv_pos_site_id
 _symmetry_equiv_pos_as_xyz
  1  'x, y, z'
loop_
 _atom_site_type_symbol
 _atom_site_label
 _atom_site_symmetry_multiplicity
 _atom_site_fract_x
 _atom_site_fract_y
 _atom_site_fract_z
 _atom_site_occupancy
  Tb  Tb0  1  0.354731  0.348973  0.346748  1
  Tb  Tb1  1  0.354731  0.348973  0.949548  1
  Tb  Tb2  1  0.356497  0.944488  0.349507  1
  Tb  Tb3  1  0.934401  0.356190  0.354704  1
  Tb  Tb4  1  0.807076  0.188862  0.188725  1
  Tb  Tb5  1  0.191838  0.810453  0.808907  1
  Tb  Tb6  1  0.191838  0.810453  0.188804  1
  Tb  Tb7  1  0.807076  0.188862  0.815338  1
  Tb  Tb8  1  0.193128  0.189146  0.808864  1
  Tb  Tb9  1  0.807431  0.815556  0.188507  1
  Tb  Tb10  1  0.939618  0.560963  0.562901  1
  Tb  Tb11  1  0.564195  0.938930  0.937989  1
  Tb  Tb12  1  0.564195  0.938930  0.558886  1
  Tb  Tb13  1  0.939618  0.560963  0.936517  1
  Pr  Pr14  1  0.569719  0.565617  0.932332  1
  Pr  Pr15  1  0.935050  0.932943  0.566003  1
  Cd  Cd16  1  0.580723  0.582731  0.579156  1
  Cd  Cd17  1  0.580723  0.582731  0.257388  1
  Cd  Cd18  1  0.576710  0.255954  0.583667  1
  Cd  Cd19  1  0.258208  0.577119  0.582336  1
  Ir  Ir20  1  0.571251  0.139171  0.144788  1
  Pd  Pd21  1  0.141618  0.146382  0.144259  1
  Pd  Pd22  1  0.141618  0.146382  0.567739  1
  Pd  Pd23  1  0.137997  0.569228  0.146387  1
