# generated using pymatgen
data_Ba3CaBi6S13
_symmetry_space_group_name_H-M   'P 1'
_cell_length_a   4.11737800
_cell_length_b   16.71478850
_cell_length_c   17.99397200
_cell_angle_alpha   89.36222857
_cell_angle_beta   90.00000000
_cell_angle_gamma   90.00000000
_symmetry_Int_Tables_number   1
_chemical_formula_structural   Ba3CaBi6S13
_chemical_formula_sum   'Ba6 Ca2 Bi12 S26'
_cell_volume   1238.28827229
_cell_formula_units_Z   2
loop_
 _symmetry_equiv_pos_site_id
 _symmetry_equiv_pos_as_xyz
  1  'x, y, z'
loop_
 _atom_site_type_symbol
 _atom_site_label
 _atom_site_symmetry_multiplicity
 _atom_site_fract_x
 _atom_site_fract_y
 _atom_site_fract_z
 _atom_site_occupancy
  Ba  Ba0  1  0.250000  0.249966  0.734955  1
  Ba  Ba1  1  0.750000  0.263029  0.178144  1
  Ba  Ba2  1  0.750000  0.750034  0.265045  1
  Ba  Ba3  1  0.250000  0.518042  0.655526  1
  Ba  Ba4  1  0.750000  0.481958  0.344474  1
  Ba  Ba5  1  0.250000  0.736971  0.821856  1
  Ca  Ca6  1  0.750000  0.012714  0.247412  1
  Ca  Ca7  1  0.250000  0.987286  0.752588  1
  Bi  Bi8  1  0.750000  0.080183  0.578493  1
  Bi  Bi9  1  0.250000  0.919817  0.421507  1
  Bi  Bi10  1  0.250000  0.673275  0.474729  1
  Bi  Bi11  1  0.250000  0.898223  0.022586  1
  Bi  Bi12  1  0.250000  0.489952  0.117100  1
  Bi  Bi13  1  0.750000  0.101777  0.977414  1
  Bi  Bi14  1  0.250000  0.170014  0.380300  1
  Bi  Bi15  1  0.750000  0.510048  0.882900  1
  Bi  Bi16  1  0.750000  0.688244  0.043561  1
  Bi  Bi17  1  0.750000  0.829986  0.619700  1
  Bi  Bi18  1  0.750000  0.326725  0.525271  1
  Bi  Bi19  1  0.250000  0.311756  0.956439  1
  S  S20  1  0.250000  0.424396  0.486199  1
  S  S21  1  0.250000  0.194764  0.556608  1
  S  S22  1  0.750000  0.805236  0.443392  1
  S  S23  1  0.750000  0.274190  0.361936  1
  S  S24  1  0.750000  0.373363  0.663871  1
  S  S25  1  0.250000  0.898753  0.277708  1
  S  S26  1  0.250000  0.188917  0.055433  1
  S  S27  1  0.250000  0.130050  0.240176  1
  S  S28  1  0.250000  0.605698  0.964337  1
  S  S29  1  0.250000  0.961316  0.593210  1
  S  S30  1  0.750000  0.575604  0.513801  1
  S  S31  1  0.250000  0.395583  0.232016  1
  S  S32  1  0.750000  0.101247  0.722292  1
  S  S33  1  0.250000  0.421236  0.827475  1
  S  S34  1  0.250000  0.725810  0.638064  1
  S  S35  1  0.750000  0.811083  0.944567  1
  S  S36  1  0.750000  0.578764  0.172525  1
  S  S37  1  0.750000  0.234185  0.877005  1
  S  S38  1  0.750000  0.869950  0.759824  1
  S  S39  1  0.750000  0.604417  0.767984  1
  S  S40  1  0.250000  0.626637  0.336129  1
  S  S41  1  0.750000  0.982118  0.091818  1
  S  S42  1  0.750000  0.394302  0.035663  1
  S  S43  1  0.250000  0.017882  0.908182  1
  S  S44  1  0.250000  0.765815  0.122995  1
  S  S45  1  0.750000  0.038684  0.406790  1
