# generated using pymatgen
data_Yb2Pr5Ho3Sn8
_symmetry_space_group_name_H-M   'P 1'
_cell_length_a   8.05994800
_cell_length_b   8.40187469
_cell_length_c   15.92709950
_cell_angle_alpha   90.24836728
_cell_angle_beta   90.00000000
_cell_angle_gamma   90.00000000
_symmetry_Int_Tables_number   1
_chemical_formula_structural   Yb2Pr5Ho3Sn8
_chemical_formula_sum   'Yb4 Pr10 Ho6 Sn16'
_cell_volume   1078.55191073
_cell_formula_units_Z   2
loop_
 _symmetry_equiv_pos_site_id
 _symmetry_equiv_pos_as_xyz
  1  'x, y, z'
loop_
 _atom_site_type_symbol
 _atom_site_label
 _atom_site_symmetry_multiplicity
 _atom_site_fract_x
 _atom_site_fract_y
 _atom_site_fract_z
 _atom_site_occupancy
  Yb  Yb0  1  0.825885  0.501597  0.749725  1
  Yb  Yb1  1  0.325885  0.998403  0.750275  1
  Yb  Yb2  1  0.175772  0.498339  0.248929  1
  Yb  Yb3  1  0.675772  0.001661  0.251071  1
  Pr  Pr4  1  0.654833  0.172247  0.879013  1
  Pr  Pr5  1  0.154833  0.327753  0.620987  1
  Pr  Pr6  1  0.500421  0.678415  0.594932  1
  Pr  Pr7  1  0.000421  0.821585  0.905068  1
  Pr  Pr8  1  0.497539  0.317831  0.097978  1
  Pr  Pr9  1  0.997539  0.182169  0.402022  1
  Pr  Pr10  1  0.498802  0.322916  0.402660  1
  Pr  Pr11  1  0.998802  0.177084  0.097340  1
  Pr  Pr12  1  0.501983  0.682861  0.905000  1
  Pr  Pr13  1  0.001983  0.817139  0.595000  1
  Ho  Ho14  1  0.658651  0.170982  0.623287  1
  Ho  Ho15  1  0.158651  0.329018  0.876713  1
  Ho  Ho16  1  0.343996  0.829598  0.124850  1
  Ho  Ho17  1  0.843996  0.670402  0.375150  1
  Ho  Ho18  1  0.342504  0.829063  0.373791  1
  Ho  Ho19  1  0.842504  0.670937  0.126209  1
  Sn  Sn20  1  0.678533  0.960075  0.461437  1
  Sn  Sn21  1  0.178533  0.539925  0.038563  1
  Sn  Sn22  1  0.310363  0.040199  0.965485  1
  Sn  Sn23  1  0.810363  0.459801  0.534515  1
  Sn  Sn24  1  0.328338  0.034865  0.535325  1
  Sn  Sn25  1  0.828338  0.465135  0.964675  1
  Sn  Sn26  1  0.681061  0.955331  0.041433  1
  Sn  Sn27  1  0.181061  0.544669  0.458567  1
  Sn  Sn28  1  0.457138  0.388028  0.751251  1
  Sn  Sn29  1  0.957138  0.111972  0.748749  1
  Sn  Sn30  1  0.543100  0.618181  0.249725  1
  Sn  Sn31  1  0.043100  0.881819  0.250275  1
  Sn  Sn32  1  0.697758  0.862155  0.749135  1
  Sn  Sn33  1  0.197758  0.637845  0.750865  1
  Sn  Sn34  1  0.303324  0.134694  0.249992  1
  Sn  Sn35  1  0.803324  0.365306  0.250008  1
