# generated using pymatgen
data_Th8Sc12Si15Ir
_symmetry_space_group_name_H-M   'P 1'
_cell_length_a   7.25569382
_cell_length_b   7.53739482
_cell_length_c   14.14056100
_cell_angle_alpha   90.00000000
_cell_angle_beta   90.00000000
_cell_angle_gamma   89.67186200
_symmetry_Int_Tables_number   1
_chemical_formula_structural   Th8Sc12Si15Ir
_chemical_formula_sum   'Th8 Sc12 Si15 Ir1'
_cell_volume   773.32086863
_cell_formula_units_Z   1
loop_
 _symmetry_equiv_pos_site_id
 _symmetry_equiv_pos_as_xyz
  1  'x, y, z'
loop_
 _atom_site_type_symbol
 _atom_site_label
 _atom_site_symmetry_multiplicity
 _atom_site_fract_x
 _atom_site_fract_y
 _atom_site_fract_z
 _atom_site_occupancy
  Th  Th0  1  0.999707  0.674006  0.597216  1
  Th  Th1  1  0.003471  0.323749  0.404810  1
  Th  Th2  1  0.502221  0.172436  0.403925  1
  Th  Th3  1  0.003471  0.323749  0.095190  1
  Th  Th4  1  0.498994  0.826668  0.595736  1
  Th  Th5  1  0.999707  0.674006  0.902784  1
  Th  Th6  1  0.498994  0.826668  0.904264  1
  Th  Th7  1  0.502221  0.172436  0.096075  1
  Sc  Sc8  1  0.163755  0.000870  0.750000  1
  Sc  Sc9  1  0.832141  0.001358  0.250000  1
  Sc  Sc10  1  0.332890  0.494905  0.250000  1
  Sc  Sc11  1  0.673679  0.498354  0.750000  1
  Sc  Sc12  1  0.330046  0.329293  0.627182  1
  Sc  Sc13  1  0.663346  0.672296  0.372897  1
  Sc  Sc14  1  0.161318  0.824363  0.375806  1
  Sc  Sc15  1  0.663346  0.672296  0.127103  1
  Sc  Sc16  1  0.842362  0.178626  0.626742  1
  Sc  Sc17  1  0.330046  0.329293  0.872818  1
  Sc  Sc18  1  0.842362  0.178626  0.873258  1
  Sc  Sc19  1  0.161318  0.824363  0.124194  1
  Si  Si20  1  0.962187  0.620102  0.250000  1
  Si  Si21  1  0.455300  0.877513  0.250000  1
  Si  Si22  1  0.540129  0.117592  0.750000  1
  Si  Si23  1  0.299270  0.628748  0.750000  1
  Si  Si24  1  0.705044  0.371998  0.250000  1
  Si  Si25  1  0.202819  0.119404  0.250000  1
  Si  Si26  1  0.791373  0.880597  0.750000  1
  Si  Si27  1  0.166655  0.035723  0.540459  1
  Si  Si28  1  0.833434  0.960568  0.460561  1
  Si  Si29  1  0.339983  0.535840  0.460531  1
  Si  Si30  1  0.833434  0.960568  0.039439  1
  Si  Si31  1  0.660669  0.463303  0.537882  1
  Si  Si32  1  0.166655  0.035723  0.959541  1
  Si  Si33  1  0.660669  0.463303  0.962118  1
  Si  Si34  1  0.339983  0.535840  0.039469  1
  Ir  Ir35  1  0.037003  0.394817  0.750000  1
