# generated using pymatgen
data_Pr8Ho11ScGa16
_symmetry_space_group_name_H-M   'P 1'
_cell_length_a   7.60351767
_cell_length_b   7.98354969
_cell_length_c   15.32058900
_cell_angle_alpha   90.00000000
_cell_angle_beta   90.00000000
_cell_angle_gamma   90.04777004
_symmetry_Int_Tables_number   1
_chemical_formula_structural   Pr8Ho11ScGa16
_chemical_formula_sum   'Pr8 Ho11 Sc1 Ga16'
_cell_volume   930.00632678
_cell_formula_units_Z   1
loop_
 _symmetry_equiv_pos_site_id
 _symmetry_equiv_pos_as_xyz
  1  'x, y, z'
loop_
 _atom_site_type_symbol
 _atom_site_label
 _atom_site_symmetry_multiplicity
 _atom_site_fract_x
 _atom_site_fract_y
 _atom_site_fract_z
 _atom_site_occupancy
  Pr  Pr0  1  0.014863  0.178092  0.406258  1
  Pr  Pr1  1  0.515112  0.321282  0.405828  1
  Pr  Pr2  1  0.483696  0.676851  0.903220  1
  Pr  Pr3  1  0.483696  0.676851  0.596780  1
  Pr  Pr4  1  0.986586  0.819154  0.596063  1
  Pr  Pr5  1  0.986586  0.819154  0.903937  1
  Pr  Pr6  1  0.515112  0.321282  0.094172  1
  Pr  Pr7  1  0.014863  0.178092  0.093742  1
  Ho  Ho8  1  0.326795  0.176392  0.623020  1
  Ho  Ho9  1  0.672969  0.825697  0.378486  1
  Ho  Ho10  1  0.663513  0.990567  0.750000  1
  Ho  Ho11  1  0.172924  0.674179  0.378752  1
  Ho  Ho12  1  0.828364  0.328084  0.876120  1
  Ho  Ho13  1  0.828364  0.328084  0.623880  1
  Ho  Ho14  1  0.835143  0.490881  0.250000  1
  Ho  Ho15  1  0.335257  0.008960  0.250000  1
  Ho  Ho16  1  0.326795  0.176392  0.876980  1
  Ho  Ho17  1  0.172924  0.674179  0.121248  1
  Ho  Ho18  1  0.672969  0.825697  0.121514  1
  Sc  Sc19  1  0.162723  0.504647  0.750000  1
  Ga  Ga20  1  0.275549  0.872272  0.750000  1
  Ga  Ga21  1  0.465412  0.614595  0.250000  1
  Ga  Ga22  1  0.035201  0.116910  0.750000  1
  Ga  Ga23  1  0.527233  0.391615  0.750000  1
  Ga  Ga24  1  0.155530  0.467886  0.541472  1
  Ga  Ga25  1  0.965669  0.885590  0.250000  1
  Ga  Ga26  1  0.722315  0.121947  0.250000  1
  Ga  Ga27  1  0.844499  0.532956  0.039091  1
  Ga  Ga28  1  0.344654  0.966989  0.038670  1
  Ga  Ga29  1  0.155530  0.467886  0.958528  1
  Ga  Ga30  1  0.655673  0.033934  0.540248  1
  Ga  Ga31  1  0.344654  0.966989  0.461330  1
  Ga  Ga32  1  0.844499  0.532956  0.460909  1
  Ga  Ga33  1  0.786772  0.621053  0.750000  1
  Ga  Ga34  1  0.221885  0.377970  0.250000  1
  Ga  Ga35  1  0.655673  0.033934  0.959752  1
