# generated using pymatgen
data_Re2Cl7F5
_symmetry_space_group_name_H-M   'P 1'
_cell_length_a   5.88768584
_cell_length_b   11.04508006
_cell_length_c   11.39024833
_cell_angle_alpha   91.13313980
_cell_angle_beta   89.49453902
_cell_angle_gamma   89.09836298
_symmetry_Int_Tables_number   1
_chemical_formula_structural   Re2Cl7F5
_chemical_formula_sum   'Re4 Cl14 F10'
_cell_volume   740.43996099
_cell_formula_units_Z   2
loop_
 _symmetry_equiv_pos_site_id
 _symmetry_equiv_pos_as_xyz
  1  'x, y, z'
loop_
 _atom_site_type_symbol
 _atom_site_label
 _atom_site_symmetry_multiplicity
 _atom_site_fract_x
 _atom_site_fract_y
 _atom_site_fract_z
 _atom_site_occupancy
  Re  Re0  1  0.919130  0.753851  0.627117  1
  Re  Re1  1  0.080870  0.246149  0.372883  1
  Re  Re2  1  0.424179  0.246200  0.870960  1
  Re  Re3  1  0.575821  0.753800  0.129040  1
  Cl  Cl4  1  0.759313  0.605569  0.513690  1
  Cl  Cl5  1  0.240687  0.394431  0.486310  1
  Cl  Cl6  1  0.268605  0.395421  0.984668  1
  Cl  Cl7  1  0.246438  0.101514  0.485194  1
  Cl  Cl8  1  0.731395  0.604579  0.015332  1
  Cl  Cl9  1  0.753562  0.898486  0.514806  1
  Cl  Cl10  1  0.732735  0.898883  0.015419  1
  Cl  Cl11  1  0.267265  0.101117  0.984581  1
  Cl  Cl12  1  0.083611  0.609219  0.741456  1
  Cl  Cl13  1  0.916389  0.390781  0.258544  1
  Cl  Cl14  1  0.589797  0.383035  0.751250  1
  Cl  Cl15  1  0.918781  0.099420  0.259315  1
  Cl  Cl16  1  0.410203  0.616965  0.248750  1
  Cl  Cl17  1  0.081219  0.900580  0.740685  1
  F  F18  1  0.175421  0.749930  0.528003  1
  F  F19  1  0.824579  0.250070  0.471997  1
  F  F20  1  0.686534  0.240820  0.961927  1
  F  F21  1  0.313466  0.759180  0.038073  1
  F  F22  1  0.662830  0.755592  0.726575  1
  F  F23  1  0.337170  0.244408  0.273425  1
  F  F24  1  0.170941  0.242534  0.773369  1
  F  F25  1  0.829059  0.757466  0.226631  1
  F  F26  1  0.444245  0.879672  0.225773  1
  F  F27  1  0.555755  0.120328  0.774227  1
