# generated using pymatgen
data_NdTm6Co6Sn23
_symmetry_space_group_name_H-M   'P 1'
_cell_length_a   9.68102600
_cell_length_b   9.68102598
_cell_length_c   9.95800500
_cell_angle_alpha   90.00000000
_cell_angle_beta   90.00000000
_cell_angle_gamma   119.99999325
_symmetry_Int_Tables_number   1
_chemical_formula_structural   NdTm6Co6Sn23
_chemical_formula_sum   'Nd1 Tm6 Co6 Sn23'
_cell_volume   808.25011140
_cell_formula_units_Z   1
loop_
 _symmetry_equiv_pos_site_id
 _symmetry_equiv_pos_as_xyz
  1  'x, y, z'
loop_
 _atom_site_type_symbol
 _atom_site_label
 _atom_site_symmetry_multiplicity
 _atom_site_fract_x
 _atom_site_fract_y
 _atom_site_fract_z
 _atom_site_occupancy
  Nd  Nd0  1  0.000000  0.000000  0.000000  1
  Tm  Tm1  1  0.479389  0.520611  0.306183  1
  Tm  Tm2  1  0.520611  0.479389  0.693817  1
  Tm  Tm3  1  0.479389  0.958777  0.306183  1
  Tm  Tm4  1  0.520611  0.041223  0.693817  1
  Tm  Tm5  1  0.041223  0.520611  0.306183  1
  Tm  Tm6  1  0.958777  0.479389  0.693817  1
  Co  Co7  1  0.831580  0.168420  0.197642  1
  Co  Co8  1  0.168420  0.831580  0.802358  1
  Co  Co9  1  0.831580  0.663158  0.197642  1
  Co  Co10  1  0.168420  0.336842  0.802358  1
  Co  Co11  1  0.336842  0.168420  0.197642  1
  Co  Co12  1  0.663158  0.831580  0.802358  1
  Sn  Sn13  1  0.347118  0.000000  0.000000  1
  Sn  Sn14  1  0.652882  0.000000  0.000000  1
  Sn  Sn15  1  0.000000  0.347118  0.000000  1
  Sn  Sn16  1  0.000000  0.652882  0.000000  1
  Sn  Sn17  1  0.652882  0.652882  0.000000  1
  Sn  Sn18  1  0.347118  0.347118  0.000000  1
  Sn  Sn19  1  0.333333  0.666667  0.817823  1
  Sn  Sn20  1  0.666667  0.333333  0.182177  1
  Sn  Sn21  1  0.000000  0.000000  0.500000  1
  Sn  Sn22  1  0.780823  0.219177  0.451626  1
  Sn  Sn23  1  0.219177  0.780823  0.548374  1
  Sn  Sn24  1  0.780823  0.561646  0.451626  1
  Sn  Sn25  1  0.219177  0.438354  0.548374  1
  Sn  Sn26  1  0.438354  0.219177  0.451626  1
  Sn  Sn27  1  0.561646  0.780823  0.548374  1
  Sn  Sn28  1  0.333333  0.666667  0.121348  1
  Sn  Sn29  1  0.666667  0.333333  0.878652  1
  Sn  Sn30  1  0.119021  0.880979  0.275447  1
  Sn  Sn31  1  0.880979  0.119021  0.724553  1
  Sn  Sn32  1  0.119021  0.238041  0.275447  1
  Sn  Sn33  1  0.880979  0.761959  0.724553  1
  Sn  Sn34  1  0.761959  0.880979  0.275447  1
  Sn  Sn35  1  0.238041  0.119021  0.724553  1
