# generated using pymatgen
data_Ho4Sc3InPt4
_symmetry_space_group_name_H-M   'P 1'
_cell_length_a   4.52769400
_cell_length_b   7.08350278
_cell_length_c   8.38729314
_cell_angle_alpha   93.99078355
_cell_angle_beta   90.00000000
_cell_angle_gamma   90.00000000
_symmetry_Int_Tables_number   1
_chemical_formula_structural   Ho4Sc3InPt4
_chemical_formula_sum   'Ho4 Sc3 In1 Pt4'
_cell_volume   268.34445640
_cell_formula_units_Z   1
loop_
 _symmetry_equiv_pos_site_id
 _symmetry_equiv_pos_as_xyz
  1  'x, y, z'
loop_
 _atom_site_type_symbol
 _atom_site_label
 _atom_site_symmetry_multiplicity
 _atom_site_fract_x
 _atom_site_fract_y
 _atom_site_fract_z
 _atom_site_occupancy
  Ho  Ho0  1  0.250000  0.034005  0.832006  1
  Ho  Ho1  1  0.250000  0.522146  0.682167  1
  Ho  Ho2  1  0.750000  0.991946  0.162408  1
  Ho  Ho3  1  0.750000  0.466066  0.317876  1
  Sc  Sc4  1  0.250000  0.127260  0.428990  1
  Sc  Sc5  1  0.250000  0.644406  0.067004  1
  Sc  Sc6  1  0.750000  0.861133  0.570773  1
  In  In7  1  0.750000  0.359815  0.928616  1
  Pt  Pt8  1  0.250000  0.741267  0.401655  1
  Pt  Pt9  1  0.250000  0.259617  0.128832  1
  Pt  Pt10  1  0.750000  0.240840  0.596599  1
  Pt  Pt11  1  0.750000  0.751500  0.883075  1
