# generated using pymatgen
data_LiSm3SiS7
_symmetry_space_group_name_H-M   'P 1'
_cell_length_a   10.08641107
_cell_length_b   10.08548991
_cell_length_c   5.71062300
_cell_angle_alpha   90.00000000
_cell_angle_beta   90.00000000
_cell_angle_gamma   119.99105838
_symmetry_Int_Tables_number   1
_chemical_formula_structural   LiSm3SiS7
_chemical_formula_sum   'Li2 Sm6 Si2 S14'
_cell_volume   503.13775640
_cell_formula_units_Z   2
loop_
 _symmetry_equiv_pos_site_id
 _symmetry_equiv_pos_as_xyz
  1  'x, y, z'
loop_
 _atom_site_type_symbol
 _atom_site_label
 _atom_site_symmetry_multiplicity
 _atom_site_fract_x
 _atom_site_fract_y
 _atom_site_fract_z
 _atom_site_occupancy
  Li  Li0  1  0.000008  0.999992  0.000199  1
  Li  Li1  1  0.999992  0.000008  0.500201  1
  Sm  Sm2  1  0.767793  0.642954  0.261956  1
  Sm  Sm3  1  0.357103  0.124935  0.262002  1
  Sm  Sm4  1  0.875121  0.232172  0.261940  1
  Sm  Sm5  1  0.232207  0.357047  0.761956  1
  Sm  Sm6  1  0.642897  0.875065  0.762002  1
  Sm  Sm7  1  0.124879  0.767829  0.761940  1
  Si  Si8  1  0.333336  0.666678  0.348064  1
  Si  Si9  1  0.666664  0.333322  0.848064  1
  S  S10  1  0.160040  0.246125  0.240513  1
  S  S11  1  0.753887  0.913860  0.240479  1
  S  S12  1  0.086121  0.840008  0.240495  1
  S  S13  1  0.666715  0.333372  0.479090  1
  S  S14  1  0.411593  0.889789  0.494425  1
  S  S15  1  0.478219  0.588504  0.494389  1
  S  S16  1  0.110112  0.521709  0.494547  1
  S  S17  1  0.839960  0.753875  0.740513  1
  S  S18  1  0.246113  0.086139  0.740479  1
  S  S19  1  0.913879  0.159992  0.740494  1
  S  S20  1  0.333285  0.666628  0.979090  1
  S  S21  1  0.588407  0.110210  0.994425  1
  S  S22  1  0.521781  0.411496  0.994389  1
  S  S23  1  0.889889  0.478292  0.994547  1
