# generated using pymatgen
data_SmGd18ErSn16
_symmetry_space_group_name_H-M   'P 1'
_cell_length_a   8.12425700
_cell_length_b   8.28199298
_cell_length_c   15.67680700
_cell_angle_alpha   90.00000000
_cell_angle_beta   90.00000000
_cell_angle_gamma   90.02785925
_symmetry_Int_Tables_number   1
_chemical_formula_structural   SmGd18ErSn16
_chemical_formula_sum   'Sm1 Gd18 Er1 Sn16'
_cell_volume   1054.81445250
_cell_formula_units_Z   1
loop_
 _symmetry_equiv_pos_site_id
 _symmetry_equiv_pos_as_xyz
  1  'x, y, z'
loop_
 _atom_site_type_symbol
 _atom_site_label
 _atom_site_symmetry_multiplicity
 _atom_site_fract_x
 _atom_site_fract_y
 _atom_site_fract_z
 _atom_site_occupancy
  Sm  Sm0  1  0.803069  0.497094  0.250000  1
  Gd  Gd1  1  0.367367  0.836816  0.878378  1
  Gd  Gd2  1  0.868743  0.662781  0.621066  1
  Gd  Gd3  1  0.631369  0.163481  0.379840  1
  Gd  Gd4  1  0.131407  0.336709  0.119121  1
  Gd  Gd5  1  0.631369  0.163481  0.120160  1
  Gd  Gd6  1  0.131407  0.336709  0.380879  1
  Gd  Gd7  1  0.367367  0.836816  0.621622  1
  Gd  Gd8  1  0.868743  0.662781  0.878934  1
  Gd  Gd9  1  0.519309  0.319462  0.900827  1
  Gd  Gd10  1  0.019906  0.180606  0.599452  1
  Gd  Gd11  1  0.481231  0.681302  0.402955  1
  Gd  Gd12  1  0.980501  0.819814  0.097394  1
  Gd  Gd13  1  0.481231  0.681302  0.097045  1
  Gd  Gd14  1  0.980501  0.819814  0.402606  1
  Gd  Gd15  1  0.519309  0.319462  0.599173  1
  Gd  Gd16  1  0.019906  0.180606  0.900548  1
  Gd  Gd17  1  0.698217  0.997825  0.750000  1
  Gd  Gd18  1  0.302717  0.002716  0.250000  1
  Er  Er19  1  0.199400  0.501969  0.750000  1
  Sn  Sn20  1  0.291463  0.034954  0.041510  1
  Sn  Sn21  1  0.790645  0.465370  0.458906  1
  Sn  Sn22  1  0.708816  0.964498  0.542598  1
  Sn  Sn23  1  0.208175  0.533767  0.955539  1
  Sn  Sn24  1  0.708816  0.964498  0.957402  1
  Sn  Sn25  1  0.208175  0.533767  0.544461  1
  Sn  Sn26  1  0.291463  0.034954  0.458490  1
  Sn  Sn27  1  0.790645  0.465370  0.041094  1
  Sn  Sn28  1  0.565549  0.617507  0.750000  1
  Sn  Sn29  1  0.064745  0.880502  0.750000  1
  Sn  Sn30  1  0.431715  0.383192  0.250000  1
  Sn  Sn31  1  0.934826  0.116470  0.250000  1
  Sn  Sn32  1  0.324660  0.146308  0.750000  1
  Sn  Sn33  1  0.826807  0.356898  0.750000  1
  Sn  Sn34  1  0.675304  0.856856  0.250000  1
  Sn  Sn35  1  0.175127  0.643541  0.250000  1
