# generated using pymatgen
data_Sr2Yb2Sb2O
_symmetry_space_group_name_H-M   'P 1'
_cell_length_a   4.76761924
_cell_length_b   4.76761928
_cell_length_c   9.18690997
_cell_angle_alpha   105.03914844
_cell_angle_beta   105.03914993
_cell_angle_gamma   89.99999892
_symmetry_Int_Tables_number   1
_chemical_formula_structural   Sr2Yb2Sb2O
_chemical_formula_sum   'Sr2 Yb2 Sb2 O1'
_cell_volume   194.25236358
_cell_formula_units_Z   1
loop_
 _symmetry_equiv_pos_site_id
 _symmetry_equiv_pos_as_xyz
  1  'x, y, z'
loop_
 _atom_site_type_symbol
 _atom_site_label
 _atom_site_symmetry_multiplicity
 _atom_site_fract_x
 _atom_site_fract_y
 _atom_site_fract_z
 _atom_site_occupancy
  Sr  Sr0  1  0.665273  0.665273  0.330546  1
  Sr  Sr1  1  0.334727  0.334727  0.669454  1
  Yb  Yb2  1  0.500000  0.000000  0.000000  1
  Yb  Yb3  1  0.000000  0.500000  0.000000  1
  Sb  Sb4  1  0.132621  0.132621  0.265241  1
  Sb  Sb5  1  0.867379  0.867379  0.734759  1
  O  O6  1  0.500000  0.500000  0.000000  1
