# generated using pymatgen
data_TbCdCuNiPt2
_symmetry_space_group_name_H-M   'P 1'
_cell_length_a   5.07382364
_cell_length_b   5.22442911
_cell_length_c   5.22442813
_cell_angle_alpha   62.97480427
_cell_angle_beta   60.38949033
_cell_angle_gamma   60.38949287
_symmetry_Int_Tables_number   1
_chemical_formula_structural   TbCdCuNiPt2
_chemical_formula_sum   'Tb1 Cd1 Cu1 Ni1 Pt2'
_cell_volume   100.54731970
_cell_formula_units_Z   1
loop_
 _symmetry_equiv_pos_site_id
 _symmetry_equiv_pos_as_xyz
  1  'x, y, z'
loop_
 _atom_site_type_symbol
 _atom_site_label
 _atom_site_symmetry_multiplicity
 _atom_site_fract_x
 _atom_site_fract_y
 _atom_site_fract_z
 _atom_site_occupancy
  Tb  Tb0  1  0.250740  0.250547  0.250547  1
  Cd  Cd1  1  0.006725  0.993007  0.993007  1
  Cu  Cu2  1  0.122773  0.627840  0.627840  1
  Ni  Ni3  1  0.621738  0.628167  0.628167  1
  Pt  Pt4  1  0.624013  0.626262  0.124175  1
  Pt  Pt5  1  0.624013  0.124175  0.626262  1
