# generated using pymatgen
data_Tb7DyRe3TcB24
_symmetry_space_group_name_H-M   'P 1'
_cell_length_a   3.70152000
_cell_length_b   9.20155329
_cell_length_c   11.59421501
_cell_angle_alpha   90.03317913
_cell_angle_beta   90.00000000
_cell_angle_gamma   90.00000000
_symmetry_Int_Tables_number   1
_chemical_formula_structural   Tb7DyRe3TcB24
_chemical_formula_sum   'Tb7 Dy1 Re3 Tc1 B24'
_cell_volume   394.89580756
_cell_formula_units_Z   1
loop_
 _symmetry_equiv_pos_site_id
 _symmetry_equiv_pos_as_xyz
  1  'x, y, z'
loop_
 _atom_site_type_symbol
 _atom_site_label
 _atom_site_symmetry_multiplicity
 _atom_site_fract_x
 _atom_site_fract_y
 _atom_site_fract_z
 _atom_site_occupancy
  Tb  Tb0  1  0.000000  0.323940  0.413846  1
  Tb  Tb1  1  0.000000  0.676256  0.586021  1
  Tb  Tb2  1  0.000000  0.823844  0.085911  1
  Tb  Tb3  1  0.000000  0.176487  0.913974  1
  Tb  Tb4  1  0.000000  0.941808  0.369517  1
  Tb  Tb5  1  0.000000  0.057049  0.629928  1
  Tb  Tb6  1  0.000000  0.443402  0.130747  1
  Dy  Dy7  1  0.000000  0.557236  0.870038  1
  Re  Re8  1  0.000000  0.361890  0.679300  1
  Re  Re9  1  0.000000  0.138372  0.179200  1
  Re  Re10  1  0.000000  0.861493  0.820856  1
  Tc  Tc11  1  0.000000  0.638428  0.320739  1
  B  B12  1  0.500000  0.553507  0.432514  1
  B  B13  1  0.500000  0.446697  0.567294  1
  B  B14  1  0.500000  0.053516  0.067309  1
  B  B15  1  0.500000  0.946673  0.932583  1
  B  B16  1  0.500000  0.748003  0.418121  1
  B  B17  1  0.500000  0.251579  0.581718  1
  B  B18  1  0.500000  0.248598  0.081913  1
  B  B19  1  0.500000  0.751424  0.918201  1
  B  B20  1  0.500000  0.791031  0.265474  1
  B  B21  1  0.500000  0.208692  0.734296  1
  B  B22  1  0.500000  0.291241  0.234545  1
  B  B23  1  0.500000  0.708413  0.765723  1
  B  B24  1  0.500000  0.631081  0.186182  1
  B  B25  1  0.500000  0.369410  0.814067  1
  B  B26  1  0.500000  0.130628  0.313937  1
  B  B27  1  0.500000  0.869021  0.686063  1
  B  B28  1  0.500000  0.982753  0.211638  1
  B  B29  1  0.500000  0.017180  0.788157  1
  B  B30  1  0.500000  0.483042  0.288435  1
  B  B31  1  0.500000  0.517428  0.712006  1
  B  B32  1  0.500000  0.600601  0.028011  1
  B  B33  1  0.500000  0.399945  0.971981  1
  B  B34  1  0.500000  0.100101  0.471682  1
  B  B35  1  0.500000  0.899233  0.528070  1
