# generated using pymatgen
data_Hf3Te(AsO4)6
_symmetry_space_group_name_H-M   'P 1'
_cell_length_a   9.49372565
_cell_length_b   9.49372650
_cell_length_c   9.49372600
_cell_angle_alpha   58.12743581
_cell_angle_beta   58.12743973
_cell_angle_gamma   58.12744614
_symmetry_Int_Tables_number   1
_chemical_formula_structural   Hf3Te(AsO4)6
_chemical_formula_sum   'Hf3 Te1 As6 O24'
_cell_volume   579.08349087
_cell_formula_units_Z   1
loop_
 _symmetry_equiv_pos_site_id
 _symmetry_equiv_pos_as_xyz
  1  'x, y, z'
loop_
 _atom_site_type_symbol
 _atom_site_label
 _atom_site_symmetry_multiplicity
 _atom_site_fract_x
 _atom_site_fract_y
 _atom_site_fract_z
 _atom_site_occupancy
  Hf  Hf0  1  0.142414  0.142414  0.142414  1
  Hf  Hf1  1  0.356350  0.356350  0.356350  1
  Hf  Hf2  1  0.639606  0.639606  0.639606  1
  Te  Te3  1  0.854309  0.854309  0.854309  1
  As  As4  1  0.031159  0.475833  0.742504  1
  As  As5  1  0.475833  0.742504  0.031159  1
  As  As6  1  0.742504  0.031159  0.475833  1
  As  As7  1  0.237204  0.969581  0.540033  1
  As  As8  1  0.540033  0.237204  0.969581  1
  As  As9  1  0.969581  0.540033  0.237204  1
  O  O10  1  0.151942  0.515116  0.252878  1
  O  O11  1  0.252878  0.151942  0.515116  1
  O  O12  1  0.062778  0.301909  0.926196  1
  O  O13  1  0.515116  0.252878  0.151942  1
  O  O14  1  0.209828  0.455128  0.558913  1
  O  O15  1  0.013825  0.677166  0.736248  1
  O  O16  1  0.301909  0.926196  0.062778  1
  O  O17  1  0.455128  0.558913  0.209828  1
  O  O18  1  0.558913  0.209828  0.455128  1
  O  O19  1  0.225004  0.992165  0.357955  1
  O  O20  1  0.031110  0.970088  0.717914  1
  O  O21  1  0.357955  0.225004  0.992165  1
  O  O22  1  0.677166  0.736248  0.013825  1
  O  O23  1  0.926196  0.062778  0.301909  1
  O  O24  1  0.736248  0.013825  0.677166  1
  O  O25  1  0.403531  0.779998  0.592628  1
  O  O26  1  0.592628  0.403531  0.779998  1
  O  O27  1  0.717914  0.031110  0.970088  1
  O  O28  1  0.992165  0.357955  0.225004  1
  O  O29  1  0.779998  0.592628  0.403531  1
  O  O30  1  0.499864  0.729880  0.848941  1
  O  O31  1  0.970088  0.717914  0.031110  1
  O  O32  1  0.729880  0.848941  0.499864  1
  O  O33  1  0.848941  0.499864  0.729880  1
