# generated using pymatgen
data_Gd4HgPt4Au
_symmetry_space_group_name_H-M   'P 1'
_cell_length_a   7.83781500
_cell_length_b   7.83781500
_cell_length_c   3.73707100
_cell_angle_alpha   90.00000000
_cell_angle_beta   90.00000000
_cell_angle_gamma   90.00000000
_symmetry_Int_Tables_number   1
_chemical_formula_structural   Gd4HgPt4Au
_chemical_formula_sum   'Gd4 Hg1 Pt4 Au1'
_cell_volume   229.57329406
_cell_formula_units_Z   1
loop_
 _symmetry_equiv_pos_site_id
 _symmetry_equiv_pos_as_xyz
  1  'x, y, z'
loop_
 _atom_site_type_symbol
 _atom_site_label
 _atom_site_symmetry_multiplicity
 _atom_site_fract_x
 _atom_site_fract_y
 _atom_site_fract_z
 _atom_site_occupancy
  Gd  Gd0  1  0.183137  0.345119  0.500000  1
  Gd  Gd1  1  0.345119  0.816863  0.500000  1
  Gd  Gd2  1  0.816863  0.654881  0.500000  1
  Gd  Gd3  1  0.654881  0.183137  0.500000  1
  Hg  Hg4  1  0.000000  0.000000  0.000000  1
  Pt  Pt5  1  0.635704  0.875593  0.000000  1
  Pt  Pt6  1  0.124407  0.635704  0.000000  1
  Pt  Pt7  1  0.875593  0.364296  0.000000  1
  Pt  Pt8  1  0.364296  0.124407  0.000000  1
  Au  Au9  1  0.500000  0.500000  0.000000  1
