# generated using pymatgen
data_Lu2Sc2BiSb
_symmetry_space_group_name_H-M   'P 1'
_cell_length_a   4.35744600
_cell_length_b   4.35744600
_cell_length_c   8.11565100
_cell_angle_alpha   90.00000000
_cell_angle_beta   90.00000000
_cell_angle_gamma   90.00000000
_symmetry_Int_Tables_number   1
_chemical_formula_structural   Lu2Sc2BiSb
_chemical_formula_sum   'Lu2 Sc2 Bi1 Sb1'
_cell_volume   154.09458950
_cell_formula_units_Z   1
loop_
 _symmetry_equiv_pos_site_id
 _symmetry_equiv_pos_as_xyz
  1  'x, y, z'
loop_
 _atom_site_type_symbol
 _atom_site_label
 _atom_site_symmetry_multiplicity
 _atom_site_fract_x
 _atom_site_fract_y
 _atom_site_fract_z
 _atom_site_occupancy
  Lu  Lu0  1  0.000000  0.500000  0.339571  1
  Lu  Lu1  1  0.500000  0.000000  0.650480  1
  Sc  Sc2  1  0.000000  0.000000  0.005467  1
  Sc  Sc3  1  0.500000  0.500000  0.005467  1
  Bi  Bi4  1  0.000000  0.500000  0.726425  1
  Sb  Sb5  1  0.500000  0.000000  0.272590  1
