# generated using pymatgen
data_TbTi4BiO12
_symmetry_space_group_name_H-M   'P 1'
_cell_length_a   5.30795683
_cell_length_b   6.64027437
_cell_length_c   7.47597823
_cell_angle_alpha   67.13546345
_cell_angle_beta   68.55441341
_cell_angle_gamma   81.29194685
_symmetry_Int_Tables_number   1
_chemical_formula_structural   TbTi4BiO12
_chemical_formula_sum   'Tb1 Ti4 Bi1 O12'
_cell_volume   225.97288702
_cell_formula_units_Z   1
loop_
 _symmetry_equiv_pos_site_id
 _symmetry_equiv_pos_as_xyz
  1  'x, y, z'
loop_
 _atom_site_type_symbol
 _atom_site_label
 _atom_site_symmetry_multiplicity
 _atom_site_fract_x
 _atom_site_fract_y
 _atom_site_fract_z
 _atom_site_occupancy
  Tb  Tb0  1  0.743763  0.493298  0.749941  1
  Ti  Ti1  1  0.290989  0.887226  0.466391  1
  Ti  Ti2  1  0.797209  0.895047  0.969236  1
  Ti  Ti3  1  0.705041  0.104653  0.530530  1
  Ti  Ti4  1  0.208915  0.112003  0.035173  1
  Bi  Bi5  1  0.252025  0.500887  0.250129  1
  O  O6  1  0.189624  0.604829  0.504401  1
  O  O7  1  0.850235  0.388344  0.456912  1
  O  O8  1  0.013373  0.066117  0.317841  1
  O  O9  1  0.958429  0.888025  0.694192  1
  O  O10  1  0.306534  0.393842  0.999843  1
  O  O11  1  0.651432  0.613324  0.037397  1
  O  O12  1  0.548825  0.811648  0.592569  1
  O  O13  1  0.421119  0.195913  0.416419  1
  O  O14  1  0.486171  0.930457  0.183074  1
  O  O15  1  0.544139  0.121997  0.803975  1
  O  O16  1  0.950524  0.188213  0.910206  1
  O  O17  1  0.081652  0.804178  0.081772  1
