# generated using pymatgen
data_Er4SiAsS2
_symmetry_space_group_name_H-M   'P 1'
_cell_length_a   6.89553755
_cell_length_b   6.89553791
_cell_length_c   6.89553800
_cell_angle_alpha   132.06694843
_cell_angle_beta   132.06695108
_cell_angle_gamma   70.12330680
_symmetry_Int_Tables_number   1
_chemical_formula_structural   Er4SiAsS2
_chemical_formula_sum   'Er4 Si1 As1 S2'
_cell_volume   177.12801346
_cell_formula_units_Z   1
loop_
 _symmetry_equiv_pos_site_id
 _symmetry_equiv_pos_as_xyz
  1  'x, y, z'
loop_
 _atom_site_type_symbol
 _atom_site_label
 _atom_site_symmetry_multiplicity
 _atom_site_fract_x
 _atom_site_fract_y
 _atom_site_fract_z
 _atom_site_occupancy
  Er  Er0  1  0.752190  0.752190  0.000000  1
  Er  Er1  1  0.247811  0.247811  0.000000  1
  Er  Er2  1  0.999318  0.499318  0.500000  1
  Er  Er3  1  0.500682  0.000682  0.500000  1
  Si  Si4  1  0.000000  0.000000  0.000000  1
  As  As5  1  0.250000  0.750000  0.500000  1
  S  S6  1  0.500000  0.500000  0.000000  1
  S  S7  1  0.750000  0.250000  0.500000  1
