# generated using pymatgen
data_Y12GaCo4Pd
_symmetry_space_group_name_H-M   'P 1'
_cell_length_a   8.32779448
_cell_length_b   8.32779409
_cell_length_c   8.32779315
_cell_angle_alpha   107.03997857
_cell_angle_beta   110.65555100
_cell_angle_gamma   110.74516461
_symmetry_Int_Tables_number   1
_chemical_formula_structural   Y12GaCo4Pd
_chemical_formula_sum   'Y12 Ga1 Co4 Pd1'
_cell_volume   444.00101326
_cell_formula_units_Z   1
loop_
 _symmetry_equiv_pos_site_id
 _symmetry_equiv_pos_as_xyz
  1  'x, y, z'
loop_
 _atom_site_type_symbol
 _atom_site_label
 _atom_site_symmetry_multiplicity
 _atom_site_fract_x
 _atom_site_fract_y
 _atom_site_fract_z
 _atom_site_occupancy
  Y  Y0  1  0.697734  0.279279  0.977012  1
  Y  Y1  1  0.302266  0.720721  0.022988  1
  Y  Y2  1  0.697734  0.720721  0.418455  1
  Y  Y3  1  0.302266  0.279279  0.581545  1
  Y  Y4  1  0.802523  0.118759  0.316236  1
  Y  Y5  1  0.802523  0.486287  0.683764  1
  Y  Y6  1  0.197477  0.881241  0.683764  1
  Y  Y7  1  0.197477  0.513713  0.316236  1
  Y  Y8  1  0.603945  0.790639  0.813306  1
  Y  Y9  1  0.977334  0.790639  0.186694  1
  Y  Y10  1  0.022666  0.209361  0.813306  1
  Y  Y11  1  0.396055  0.209361  0.186694  1
  Ga  Ga12  1  0.500000  0.000000  0.500000  1
  Co  Co13  1  0.879579  0.500000  0.379579  1
  Co  Co14  1  0.120421  0.500000  0.620421  1
  Co  Co15  1  0.000000  0.111316  0.111316  1
  Co  Co16  1  0.000000  0.888684  0.888684  1
  Pd  Pd17  1  0.500000  0.500000  0.000000  1
