# generated using pymatgen
data_Sc12Co4AsRh
_symmetry_space_group_name_H-M   'P 1'
_cell_length_a   7.66886377
_cell_length_b   7.66886288
_cell_length_c   7.66886318
_cell_angle_alpha   111.29488148
_cell_angle_beta   109.93778260
_cell_angle_gamma   107.20746191
_symmetry_Int_Tables_number   1
_chemical_formula_structural   Sc12Co4AsRh
_chemical_formula_sum   'Sc12 Co4 As1 Rh1'
_cell_volume   346.73787775
_cell_formula_units_Z   1
loop_
 _symmetry_equiv_pos_site_id
 _symmetry_equiv_pos_as_xyz
  1  'x, y, z'
loop_
 _atom_site_type_symbol
 _atom_site_label
 _atom_site_symmetry_multiplicity
 _atom_site_fract_x
 _atom_site_fract_y
 _atom_site_fract_z
 _atom_site_occupancy
  Sc  Sc0  1  0.428231  0.229651  0.198579  1
  Sc  Sc1  1  0.571769  0.770349  0.801421  1
  Sc  Sc2  1  0.031072  0.229651  0.801421  1
  Sc  Sc3  1  0.968928  0.770349  0.198579  1
  Sc  Sc4  1  0.323265  0.627701  0.304435  1
  Sc  Sc5  1  0.676735  0.372299  0.695565  1
  Sc  Sc6  1  0.323265  0.018830  0.695565  1
  Sc  Sc7  1  0.676735  0.981170  0.304435  1
  Sc  Sc8  1  0.181627  0.276820  0.458448  1
  Sc  Sc9  1  0.818373  0.723179  0.541552  1
  Sc  Sc10  1  0.181627  0.723179  0.904805  1
  Sc  Sc11  1  0.818373  0.276820  0.095195  1
  Co  Co12  1  0.347423  0.000000  0.347423  1
  Co  Co13  1  0.652577  0.000000  0.652577  1
  Co  Co14  1  0.121047  0.621047  0.500000  1
  Co  Co15  1  0.878953  0.378953  0.500000  1
  As  As16  1  0.500000  0.500000  0.000000  1
  Rh  Rh17  1  0.000000  0.000000  0.000000  1
