# generated using pymatgen
data_Er4Al18Co5Pt
_symmetry_space_group_name_H-M   'P 1'
_cell_length_a   7.41057234
_cell_length_b   7.41057303
_cell_length_c   9.31193337
_cell_angle_alpha   89.84761476
_cell_angle_beta   89.84761491
_cell_angle_gamma   119.15466778
_symmetry_Int_Tables_number   1
_chemical_formula_structural   Er4Al18Co5Pt
_chemical_formula_sum   'Er4 Al18 Co5 Pt1'
_cell_volume   446.58563557
_cell_formula_units_Z   1
loop_
 _symmetry_equiv_pos_site_id
 _symmetry_equiv_pos_as_xyz
  1  'x, y, z'
loop_
 _atom_site_type_symbol
 _atom_site_label
 _atom_site_symmetry_multiplicity
 _atom_site_fract_x
 _atom_site_fract_y
 _atom_site_fract_z
 _atom_site_occupancy
  Er  Er0  1  0.994488  0.675321  0.251187  1
  Er  Er1  1  0.005512  0.324679  0.748813  1
  Er  Er2  1  0.675321  0.994488  0.251187  1
  Er  Er3  1  0.324679  0.005512  0.748813  1
  Al  Al4  1  0.131805  0.131805  0.258428  1
  Al  Al5  1  0.868195  0.868195  0.741572  1
  Al  Al6  1  0.331909  0.331909  0.542691  1
  Al  Al7  1  0.660204  0.660204  0.047537  1
  Al  Al8  1  0.339796  0.339796  0.952463  1
  Al  Al9  1  0.668091  0.668091  0.457309  1
  Al  Al10  1  0.339837  0.556568  0.251240  1
  Al  Al11  1  0.660163  0.443432  0.748760  1
  Al  Al12  1  0.556568  0.339837  0.251240  1
  Al  Al13  1  0.443432  0.660163  0.748760  1
  Al  Al14  1  0.999280  0.344313  0.074671  1
  Al  Al15  1  0.003272  0.663887  0.571019  1
  Al  Al16  1  0.336113  0.996728  0.428981  1
  Al  Al17  1  0.655687  0.000720  0.925329  1
  Al  Al18  1  0.000720  0.655687  0.925329  1
  Al  Al19  1  0.996728  0.336113  0.428981  1
  Al  Al20  1  0.663887  0.003272  0.571019  1
  Al  Al21  1  0.344313  0.999280  0.074671  1
  Co  Co22  1  0.000000  0.000000  0.500000  1
  Co  Co23  1  0.671092  0.328908  0.000000  1
  Co  Co24  1  0.328827  0.671173  0.500000  1
  Co  Co25  1  0.328908  0.671092  0.000000  1
  Co  Co26  1  0.671173  0.328827  0.500000  1
  Pt  Pt27  1  0.000000  0.000000  0.000000  1
