# generated using pymatgen
data_Tb2SmZnAg3Ge2
_symmetry_space_group_name_H-M   'P 1'
_cell_length_a   7.28890212
_cell_length_b   7.28890173
_cell_length_c   4.17802000
_cell_angle_alpha   90.00000000
_cell_angle_beta   90.00000000
_cell_angle_gamma   120.13806216
_symmetry_Int_Tables_number   1
_chemical_formula_structural   Tb2SmZnAg3Ge2
_chemical_formula_sum   'Tb2 Sm1 Zn1 Ag3 Ge2'
_cell_volume   191.96386426
_cell_formula_units_Z   1
loop_
 _symmetry_equiv_pos_site_id
 _symmetry_equiv_pos_as_xyz
  1  'x, y, z'
loop_
 _atom_site_type_symbol
 _atom_site_label
 _atom_site_symmetry_multiplicity
 _atom_site_fract_x
 _atom_site_fract_y
 _atom_site_fract_z
 _atom_site_occupancy
  Tb  Tb0  1  0.582842  0.000431  0.000000  1
  Tb  Tb1  1  0.000431  0.582842  0.000000  1
  Sm  Sm2  1  0.416931  0.416931  0.000000  1
  Zn  Zn3  1  0.998469  0.998469  0.000000  1
  Ag  Ag4  1  0.247129  0.998928  0.500000  1
  Ag  Ag5  1  0.998928  0.247129  0.500000  1
  Ag  Ag6  1  0.754093  0.754093  0.500000  1
  Ge  Ge7  1  0.332594  0.668581  0.500000  1
  Ge  Ge8  1  0.668581  0.332594  0.500000  1
