# generated using pymatgen
data_La4Nd2Al3Sn7
_symmetry_space_group_name_H-M   'P 1'
_cell_length_a   6.57525959
_cell_length_b   6.57526022
_cell_length_c   10.36707200
_cell_angle_alpha   90.08702517
_cell_angle_beta   90.08703390
_cell_angle_gamma   102.39496401
_symmetry_Int_Tables_number   1
_chemical_formula_structural   La4Nd2Al3Sn7
_chemical_formula_sum   'La4 Nd2 Al3 Sn7'
_cell_volume   437.76187805
_cell_formula_units_Z   1
loop_
 _symmetry_equiv_pos_site_id
 _symmetry_equiv_pos_as_xyz
  1  'x, y, z'
loop_
 _atom_site_type_symbol
 _atom_site_label
 _atom_site_symmetry_multiplicity
 _atom_site_fract_x
 _atom_site_fract_y
 _atom_site_fract_z
 _atom_site_occupancy
  La  La0  1  0.204081  0.799767  0.500689  1
  La  La1  1  0.203227  0.795402  0.001371  1
  La  La2  1  0.799767  0.204081  0.500689  1
  La  La3  1  0.795402  0.203227  0.001371  1
  Nd  Nd4  1  0.639631  0.639631  0.241850  1
  Nd  Nd5  1  0.361417  0.361417  0.750264  1
  Al  Al6  1  0.316561  0.316561  0.048368  1
  Al  Al7  1  0.681110  0.681110  0.948699  1
  Al  Al8  1  0.312263  0.312263  0.449827  1
  Sn  Sn9  1  0.026355  0.026355  0.249762  1
  Sn  Sn10  1  0.976292  0.976292  0.754263  1
  Sn  Sn11  1  0.674025  0.674025  0.540930  1
  Sn  Sn12  1  0.491320  0.094353  0.250368  1
  Sn  Sn13  1  0.915756  0.508437  0.755590  1
  Sn  Sn14  1  0.508437  0.915756  0.755590  1
  Sn  Sn15  1  0.094353  0.491320  0.250368  1
