# generated using pymatgen
data_Ho8Er2(BiPb)3
_symmetry_space_group_name_H-M   'P 1'
_cell_length_a   9.09648400
_cell_length_b   9.09648517
_cell_length_c   6.44352700
_cell_angle_alpha   90.00000000
_cell_angle_beta   90.00000000
_cell_angle_gamma   120.00000303
_symmetry_Int_Tables_number   1
_chemical_formula_structural   Ho8Er2(BiPb)3
_chemical_formula_sum   'Ho8 Er2 Bi3 Pb3'
_cell_volume   461.74419770
_cell_formula_units_Z   1
loop_
 _symmetry_equiv_pos_site_id
 _symmetry_equiv_pos_as_xyz
  1  'x, y, z'
loop_
 _atom_site_type_symbol
 _atom_site_label
 _atom_site_symmetry_multiplicity
 _atom_site_fract_x
 _atom_site_fract_y
 _atom_site_fract_z
 _atom_site_occupancy
  Ho  Ho0  1  0.666667  0.333333  0.002818  1
  Ho  Ho1  1  0.333333  0.666667  0.002818  1
  Ho  Ho2  1  0.761856  0.761856  0.749956  1
  Ho  Ho3  1  0.238144  0.000000  0.749956  1
  Ho  Ho4  1  0.000000  0.238144  0.749956  1
  Ho  Ho5  1  0.238447  0.238447  0.250036  1
  Ho  Ho6  1  0.761553  0.000000  0.250036  1
  Ho  Ho7  1  0.000000  0.761553  0.250036  1
  Er  Er8  1  0.333333  0.666667  0.497163  1
  Er  Er9  1  0.666667  0.333333  0.497163  1
  Bi  Bi10  1  0.392983  0.392983  0.749885  1
  Bi  Bi11  1  0.607017  0.000000  0.749885  1
  Bi  Bi12  1  0.000000  0.607017  0.749885  1
  Pb  Pb13  1  0.607427  0.607427  0.250135  1
  Pb  Pb14  1  0.392573  0.000000  0.250135  1
  Pb  Pb15  1  0.000000  0.392573  0.250135  1
