# generated using pymatgen
data_Lu10In2Sn3Bi
_symmetry_space_group_name_H-M   'P 1'
_cell_length_a   8.78822575
_cell_length_b   8.78822651
_cell_length_c   6.44241700
_cell_angle_alpha   90.00000000
_cell_angle_beta   90.00000000
_cell_angle_gamma   119.48645775
_symmetry_Int_Tables_number   1
_chemical_formula_structural   Lu10In2Sn3Bi
_chemical_formula_sum   'Lu10 In2 Sn3 Bi1'
_cell_volume   433.11788101
_cell_formula_units_Z   1
loop_
 _symmetry_equiv_pos_site_id
 _symmetry_equiv_pos_as_xyz
  1  'x, y, z'
loop_
 _atom_site_type_symbol
 _atom_site_label
 _atom_site_symmetry_multiplicity
 _atom_site_fract_x
 _atom_site_fract_y
 _atom_site_fract_z
 _atom_site_occupancy
  Lu  Lu0  1  0.673119  0.331536  0.000601  1
  Lu  Lu1  1  0.331536  0.673119  0.000601  1
  Lu  Lu2  1  0.331536  0.673119  0.499399  1
  Lu  Lu3  1  0.673119  0.331536  0.499399  1
  Lu  Lu4  1  0.765217  0.765217  0.750000  1
  Lu  Lu5  1  0.230717  0.988547  0.750000  1
  Lu  Lu6  1  0.988547  0.230717  0.750000  1
  Lu  Lu7  1  0.238212  0.238212  0.250000  1
  Lu  Lu8  1  0.766098  0.003734  0.250000  1
  Lu  Lu9  1  0.003734  0.766098  0.250000  1
  In  In10  1  0.600457  0.997991  0.750000  1
  In  In11  1  0.997991  0.600457  0.750000  1
  Sn  Sn12  1  0.606037  0.606037  0.250000  1
  Sn  Sn13  1  0.398870  0.004792  0.250000  1
  Sn  Sn14  1  0.004792  0.398870  0.250000  1
  Bi  Bi15  1  0.390021  0.390021  0.750000  1
