# generated using pymatgen
data_La8ZrSc11Sn16
_symmetry_space_group_name_H-M   'P 1'
_cell_length_a   7.98228100
_cell_length_b   8.17766513
_cell_length_c   15.32175200
_cell_angle_alpha   90.00000000
_cell_angle_beta   90.00000000
_cell_angle_gamma   90.09017908
_symmetry_Int_Tables_number   1
_chemical_formula_structural   La8ZrSc11Sn16
_chemical_formula_sum   'La8 Zr1 Sc11 Sn16'
_cell_volume   1000.14789496
_cell_formula_units_Z   1
loop_
 _symmetry_equiv_pos_site_id
 _symmetry_equiv_pos_as_xyz
  1  'x, y, z'
loop_
 _atom_site_type_symbol
 _atom_site_label
 _atom_site_symmetry_multiplicity
 _atom_site_fract_x
 _atom_site_fract_y
 _atom_site_fract_z
 _atom_site_occupancy
  La  La0  1  0.506647  0.326973  0.904824  1
  La  La1  1  0.007141  0.172307  0.595376  1
  La  La2  1  0.493142  0.673616  0.405168  1
  La  La3  1  0.992343  0.828150  0.095341  1
  La  La4  1  0.493142  0.673616  0.094832  1
  La  La5  1  0.992343  0.828150  0.404659  1
  La  La6  1  0.506647  0.326973  0.595176  1
  La  La7  1  0.007141  0.172307  0.904624  1
  Zr  Zr8  1  0.330020  0.008159  0.250000  1
  Sc  Sc9  1  0.340383  0.839510  0.873055  1
  Sc  Sc10  1  0.841034  0.662100  0.627900  1
  Sc  Sc11  1  0.658732  0.159864  0.372206  1
  Sc  Sc12  1  0.158729  0.337717  0.129214  1
  Sc  Sc13  1  0.658732  0.159864  0.127794  1
  Sc  Sc14  1  0.158729  0.337717  0.370786  1
  Sc  Sc15  1  0.340383  0.839510  0.626945  1
  Sc  Sc16  1  0.841034  0.662100  0.872100  1
  Sc  Sc17  1  0.171214  0.506402  0.750000  1
  Sc  Sc18  1  0.672259  0.994336  0.750000  1
  Sc  Sc19  1  0.829202  0.491868  0.250000  1
  Sn  Sn20  1  0.324693  0.045557  0.047197  1
  Sn  Sn21  1  0.825877  0.453705  0.455872  1
  Sn  Sn22  1  0.675251  0.953752  0.544296  1
  Sn  Sn23  1  0.174138  0.545579  0.956559  1
  Sn  Sn24  1  0.675251  0.953752  0.955704  1
  Sn  Sn25  1  0.174138  0.545579  0.543441  1
  Sn  Sn26  1  0.324693  0.045557  0.452803  1
  Sn  Sn27  1  0.825877  0.453705  0.044128  1
  Sn  Sn28  1  0.533115  0.635397  0.750000  1
  Sn  Sn29  1  0.034978  0.865027  0.750000  1
  Sn  Sn30  1  0.467023  0.364990  0.250000  1
  Sn  Sn31  1  0.964739  0.132064  0.250000  1
  Sn  Sn32  1  0.314069  0.140779  0.750000  1
  Sn  Sn33  1  0.814112  0.359586  0.750000  1
  Sn  Sn34  1  0.683797  0.859864  0.250000  1
  Sn  Sn35  1  0.189254  0.643868  0.250000  1
