# generated using pymatgen
data_Ho8VSi16W11
_symmetry_space_group_name_H-M   'P 1'
_cell_length_a   6.91192125
_cell_length_b   6.91467869
_cell_length_c   12.81091200
_cell_angle_alpha   90.06400192
_cell_angle_beta   90.06357153
_cell_angle_gamma   89.96378500
_symmetry_Int_Tables_number   1
_chemical_formula_structural   Ho8VSi16W11
_chemical_formula_sum   'Ho8 V1 Si16 W11'
_cell_volume   612.28019125
_cell_formula_units_Z   1
loop_
 _symmetry_equiv_pos_site_id
 _symmetry_equiv_pos_as_xyz
  1  'x, y, z'
loop_
 _atom_site_type_symbol
 _atom_site_label
 _atom_site_symmetry_multiplicity
 _atom_site_fract_x
 _atom_site_fract_y
 _atom_site_fract_z
 _atom_site_occupancy
  Ho  Ho0  1  0.002974  0.662620  0.030197  1
  Ho  Ho1  1  0.997704  0.336750  0.531412  1
  Ho  Ho2  1  0.663841  0.002466  0.969176  1
  Ho  Ho3  1  0.162874  0.497685  0.780654  1
  Ho  Ho4  1  0.836797  0.503085  0.280621  1
  Ho  Ho5  1  0.496640  0.162397  0.218613  1
  Ho  Ho6  1  0.503671  0.837165  0.719700  1
  Ho  Ho7  1  0.336777  0.996827  0.469740  1
  V  V8  1  0.164172  0.002347  0.874621  1
  Si  Si9  1  0.035011  0.711326  0.436379  1
  Si  Si10  1  0.965758  0.286415  0.935283  1
  Si  Si11  1  0.711266  0.034928  0.563530  1
  Si  Si12  1  0.211298  0.464856  0.186096  1
  Si  Si13  1  0.788697  0.536578  0.686946  1
  Si  Si14  1  0.461312  0.209234  0.814913  1
  Si  Si15  1  0.535336  0.788839  0.313168  1
  Si  Si16  1  0.287476  0.964668  0.061349  1
  Si  Si17  1  0.879555  0.800157  0.817460  1
  Si  Si18  1  0.125061  0.202403  0.316755  1
  Si  Si19  1  0.797855  0.874943  0.182965  1
  Si  Si20  1  0.297974  0.624052  0.567066  1
  Si  Si21  1  0.703189  0.374833  0.066122  1
  Si  Si22  1  0.625095  0.297587  0.433538  1
  Si  Si23  1  0.372649  0.705377  0.932399  1
  Si  Si24  1  0.201321  0.123137  0.686058  1
  W  W25  1  0.334532  0.499647  0.376564  1
  W  W26  1  0.834261  0.001185  0.372938  1
  W  W27  1  0.000277  0.165088  0.126021  1
  W  W28  1  0.999988  0.833359  0.626431  1
  W  W29  1  0.664434  0.500683  0.876430  1
  W  W30  1  0.501278  0.334191  0.624206  1
  W  W31  1  0.500793  0.664736  0.122765  1
  W  W32  1  0.665508  0.665499  0.499762  1
  W  W33  1  0.834173  0.165912  0.750314  1
  W  W34  1  0.165960  0.834054  0.249946  1
  W  W35  1  0.334491  0.334973  0.999864  1
