# generated using pymatgen
data_Y3Ho9(ThSn2)8
_symmetry_space_group_name_H-M   'P 1'
_cell_length_a   8.11685800
_cell_length_b   8.23161915
_cell_length_c   15.50318700
_cell_angle_alpha   90.00000000
_cell_angle_beta   90.00000000
_cell_angle_gamma   89.98922522
_symmetry_Int_Tables_number   1
_chemical_formula_structural   Y3Ho9(ThSn2)8
_chemical_formula_sum   'Y3 Ho9 Th8 Sn16'
_cell_volume   1035.84361829
_cell_formula_units_Z   1
loop_
 _symmetry_equiv_pos_site_id
 _symmetry_equiv_pos_as_xyz
  1  'x, y, z'
loop_
 _atom_site_type_symbol
 _atom_site_label
 _atom_site_symmetry_multiplicity
 _atom_site_fract_x
 _atom_site_fract_y
 _atom_site_fract_z
 _atom_site_occupancy
  Y  Y0  1  0.186843  0.497930  0.750000  1
  Y  Y1  1  0.686781  0.001998  0.750000  1
  Y  Y2  1  0.813182  0.502120  0.250000  1
  Ho  Ho3  1  0.357359  0.837052  0.875622  1
  Ho  Ho4  1  0.857346  0.662939  0.624572  1
  Ho  Ho5  1  0.642835  0.162846  0.375843  1
  Ho  Ho6  1  0.142899  0.337023  0.124386  1
  Ho  Ho7  1  0.642835  0.162846  0.124157  1
  Ho  Ho8  1  0.142899  0.337023  0.375614  1
  Ho  Ho9  1  0.357359  0.837052  0.624378  1
  Ho  Ho10  1  0.857346  0.662939  0.875428  1
  Ho  Ho11  1  0.313265  0.998023  0.250000  1
  Th  Th12  1  0.515890  0.321370  0.904473  1
  Th  Th13  1  0.016075  0.178609  0.595622  1
  Th  Th14  1  0.483961  0.678682  0.404478  1
  Th  Th15  1  0.983741  0.821383  0.095443  1
  Th  Th16  1  0.483961  0.678682  0.095522  1
  Th  Th17  1  0.983741  0.821383  0.404557  1
  Th  Th18  1  0.515890  0.321370  0.595527  1
  Th  Th19  1  0.016075  0.178609  0.904378  1
  Sn  Sn20  1  0.301416  0.040280  0.042012  1
  Sn  Sn21  1  0.801731  0.459728  0.458207  1
  Sn  Sn22  1  0.698612  0.959327  0.541945  1
  Sn  Sn23  1  0.198176  0.540479  0.958119  1
  Sn  Sn24  1  0.698612  0.959327  0.958055  1
  Sn  Sn25  1  0.198176  0.540479  0.541881  1
  Sn  Sn26  1  0.301416  0.040280  0.457988  1
  Sn  Sn27  1  0.801731  0.459728  0.041793  1
  Sn  Sn28  1  0.552943  0.621319  0.750000  1
  Sn  Sn29  1  0.053134  0.878730  0.750000  1
  Sn  Sn30  1  0.447185  0.377985  0.250000  1
  Sn  Sn31  1  0.947409  0.121601  0.250000  1
  Sn  Sn32  1  0.321627  0.143834  0.750000  1
  Sn  Sn33  1  0.821069  0.356138  0.750000  1
  Sn  Sn34  1  0.677965  0.856560  0.250000  1
  Sn  Sn35  1  0.178518  0.644329  0.250000  1
