# generated using pymatgen
data_Pu2Be25B
_symmetry_space_group_name_H-M   'P 1'
_cell_length_a   7.16450273
_cell_length_b   7.16450394
_cell_length_c   7.16450300
_cell_angle_alpha   59.99999972
_cell_angle_beta   59.99999412
_cell_angle_gamma   59.99999901
_symmetry_Int_Tables_number   1
_chemical_formula_structural   Pu2Be25B
_chemical_formula_sum   'Pu2 Be25 B1'
_cell_volume   260.04183719
_cell_formula_units_Z   1
loop_
 _symmetry_equiv_pos_site_id
 _symmetry_equiv_pos_as_xyz
  1  'x, y, z'
loop_
 _atom_site_type_symbol
 _atom_site_label
 _atom_site_symmetry_multiplicity
 _atom_site_fract_x
 _atom_site_fract_y
 _atom_site_fract_z
 _atom_site_occupancy
  Pu  Pu0  1  0.250000  0.250000  0.250000  1
  Pu  Pu1  1  0.750000  0.750000  0.750000  1
  Be  Be2  1  0.000000  0.000000  0.000000  1
  Be  Be3  1  0.215553  0.784447  0.439004  1
  Be  Be4  1  0.938913  0.293088  0.706912  1
  Be  Be5  1  0.706912  0.061087  0.938913  1
  Be  Be6  1  0.938913  0.061087  0.293088  1
  Be  Be7  1  0.061087  0.938913  0.706912  1
  Be  Be8  1  0.061087  0.293088  0.938913  1
  Be  Be9  1  0.706912  0.938913  0.293088  1
  Be  Be10  1  0.439004  0.784447  0.560996  1
  Be  Be11  1  0.560996  0.784447  0.215553  1
  Be  Be12  1  0.784447  0.560996  0.439004  1
  Be  Be13  1  0.560996  0.215553  0.439004  1
  Be  Be14  1  0.784447  0.439004  0.215553  1
  Be  Be15  1  0.439004  0.215553  0.784447  1
  Be  Be16  1  0.215553  0.560996  0.784447  1
  Be  Be17  1  0.215553  0.439004  0.560996  1
  Be  Be18  1  0.706912  0.293088  0.061087  1
  Be  Be19  1  0.293088  0.938913  0.061087  1
  Be  Be20  1  0.293088  0.061087  0.706912  1
  Be  Be21  1  0.938913  0.706912  0.061087  1
  Be  Be22  1  0.061087  0.706912  0.293088  1
  Be  Be23  1  0.293088  0.706912  0.938913  1
  Be  Be24  1  0.439004  0.560996  0.215553  1
  Be  Be25  1  0.784447  0.215553  0.560996  1
  Be  Be26  1  0.560996  0.439004  0.784447  1
  B  B27  1  0.500000  0.500000  0.500000  1
