# generated using pymatgen
data_Pr4ErMg(P2Ru3)6
_symmetry_space_group_name_H-M   'P 1'
_cell_length_a   12.57777825
_cell_length_b   12.73155327
_cell_length_c   4.01943100
_cell_angle_alpha   90.00000000
_cell_angle_beta   90.00000000
_cell_angle_gamma   119.57833302
_symmetry_Int_Tables_number   1
_chemical_formula_structural   Pr4ErMg(P2Ru3)6
_chemical_formula_sum   'Pr4 Er1 Mg1 P12 Ru18'
_cell_volume   559.77076489
_cell_formula_units_Z   1
loop_
 _symmetry_equiv_pos_site_id
 _symmetry_equiv_pos_as_xyz
  1  'x, y, z'
loop_
 _atom_site_type_symbol
 _atom_site_label
 _atom_site_symmetry_multiplicity
 _atom_site_fract_x
 _atom_site_fract_y
 _atom_site_fract_z
 _atom_site_occupancy
  Pr  Pr0  1  0.819101  0.999740  0.500000  1
  Pr  Pr1  1  0.999943  0.815371  0.500000  1
  Pr  Pr2  1  0.184669  0.183792  0.500000  1
  Pr  Pr3  1  0.670817  0.340034  0.000000  1
  Er  Er4  1  0.331550  0.659781  0.000000  1
  Mg  Mg5  1  0.438070  0.999739  0.000000  1
  P  P6  1  0.191924  0.998427  0.000000  1
  P  P7  1  0.001413  0.187986  0.000000  1
  P  P8  1  0.811823  0.813867  0.000000  1
  P  P9  1  0.517483  0.692587  0.500000  1
  P  P10  1  0.298578  0.815050  0.500000  1
  P  P11  1  0.170830  0.476239  0.500000  1
  P  P12  1  0.478882  0.180987  0.500000  1
  P  P13  1  0.693883  0.527408  0.500000  1
  P  P14  1  0.829824  0.307814  0.500000  1
  P  P15  1  0.637374  0.000912  0.000000  1
  P  P16  1  0.998692  0.622732  0.000000  1
  P  P17  1  0.376185  0.377327  0.000000  1
  Ru  Ru18  1  0.998967  0.444215  0.000000  1
  Ru  Ru19  1  0.554605  0.556087  0.000000  1
  Ru  Ru20  1  0.287600  0.998333  0.500000  1
  Ru  Ru21  1  0.000115  0.285389  0.500000  1
  Ru  Ru22  1  0.711983  0.716095  0.500000  1
  Ru  Ru23  1  0.616265  0.803277  0.000000  1
  Ru  Ru24  1  0.196234  0.810902  0.000000  1
  Ru  Ru25  1  0.185367  0.379015  0.000000  1
  Ru  Ru26  1  0.380958  0.185684  0.000000  1
  Ru  Ru27  1  0.807370  0.625096  0.000000  1
  Ru  Ru28  1  0.816475  0.196603  0.000000  1
  Ru  Ru29  1  0.505829  0.873386  0.500000  1
  Ru  Ru30  1  0.122572  0.628815  0.500000  1
  Ru  Ru31  1  0.365394  0.495101  0.500000  1
  Ru  Ru32  1  0.488762  0.369969  0.500000  1
  Ru  Ru33  1  0.873730  0.509213  0.500000  1
  Ru  Ru34  1  0.633564  0.122772  0.500000  1
  Ru  Ru35  1  0.003167  0.000257  0.000000  1
