# generated using pymatgen
data_LiDy3Hg4Pt
_symmetry_space_group_name_H-M   'P 1'
_cell_length_a   8.05785300
_cell_length_b   8.05785341
_cell_length_c   3.74229100
_cell_angle_alpha   90.00000000
_cell_angle_beta   90.00000000
_cell_angle_gamma   120.00001065
_symmetry_Int_Tables_number   1
_chemical_formula_structural   LiDy3Hg4Pt
_chemical_formula_sum   'Li1 Dy3 Hg4 Pt1'
_cell_volume   210.42960628
_cell_formula_units_Z   1
loop_
 _symmetry_equiv_pos_site_id
 _symmetry_equiv_pos_as_xyz
  1  'x, y, z'
loop_
 _atom_site_type_symbol
 _atom_site_label
 _atom_site_symmetry_multiplicity
 _atom_site_fract_x
 _atom_site_fract_y
 _atom_site_fract_z
 _atom_site_occupancy
  Li  Li0  1  0.666667  0.333333  0.500000  1
  Dy  Dy1  1  0.059618  0.300707  0.500000  1
  Dy  Dy2  1  0.699293  0.758910  0.500000  1
  Dy  Dy3  1  0.241090  0.940382  0.500000  1
  Hg  Hg4  1  0.662902  0.077721  0.000000  1
  Hg  Hg5  1  0.922279  0.585182  0.000000  1
  Hg  Hg6  1  0.414818  0.337098  0.000000  1
  Hg  Hg7  1  0.333333  0.666667  0.000000  1
  Pt  Pt8  1  0.000000  0.000000  0.000000  1
