# generated using pymatgen
data_Hf4Zr5ScSn6
_symmetry_space_group_name_H-M   'P 1'
_cell_length_a   8.50540977
_cell_length_b   8.50541034
_cell_length_c   5.79992200
_cell_angle_alpha   90.00000000
_cell_angle_beta   90.00000000
_cell_angle_gamma   119.98344263
_symmetry_Int_Tables_number   1
_chemical_formula_structural   Hf4Zr5ScSn6
_chemical_formula_sum   'Hf4 Zr5 Sc1 Sn6'
_cell_volume   363.42578055
_cell_formula_units_Z   1
loop_
 _symmetry_equiv_pos_site_id
 _symmetry_equiv_pos_as_xyz
  1  'x, y, z'
loop_
 _atom_site_type_symbol
 _atom_site_label
 _atom_site_symmetry_multiplicity
 _atom_site_fract_x
 _atom_site_fract_y
 _atom_site_fract_z
 _atom_site_occupancy
  Hf  Hf0  1  0.665813  0.331349  0.000208  1
  Hf  Hf1  1  0.331349  0.665813  0.000208  1
  Hf  Hf2  1  0.331349  0.665813  0.499792  1
  Hf  Hf3  1  0.665813  0.331349  0.499792  1
  Zr  Zr4  1  0.247759  0.001404  0.750000  1
  Zr  Zr5  1  0.001404  0.247759  0.750000  1
  Zr  Zr6  1  0.244026  0.244026  0.250000  1
  Zr  Zr7  1  0.755053  0.000226  0.250000  1
  Zr  Zr8  1  0.000226  0.755053  0.250000  1
  Sc  Sc9  1  0.756199  0.756199  0.750000  1
  Sn  Sn10  1  0.395293  0.395293  0.750000  1
  Sn  Sn11  1  0.607374  0.997817  0.750000  1
  Sn  Sn12  1  0.997817  0.607374  0.750000  1
  Sn  Sn13  1  0.607183  0.607183  0.250000  1
  Sn  Sn14  1  0.393409  0.999934  0.250000  1
  Sn  Sn15  1  0.999934  0.393409  0.250000  1
