# generated using pymatgen
data_Dy8Cd2IrOs
_symmetry_space_group_name_H-M   'P 1'
_cell_length_a   9.64205510
_cell_length_b   9.64205503
_cell_length_c   9.69450300
_cell_angle_alpha   59.81990247
_cell_angle_beta   59.81990272
_cell_angle_gamma   59.66735229
_symmetry_Int_Tables_number   1
_chemical_formula_structural   Dy8Cd2IrOs
_chemical_formula_sum   'Dy16 Cd4 Ir2 Os2'
_cell_volume   633.96370496
_cell_formula_units_Z   2
loop_
 _symmetry_equiv_pos_site_id
 _symmetry_equiv_pos_as_xyz
  1  'x, y, z'
loop_
 _atom_site_type_symbol
 _atom_site_label
 _atom_site_symmetry_multiplicity
 _atom_site_fract_x
 _atom_site_fract_y
 _atom_site_fract_z
 _atom_site_occupancy
  Dy  Dy0  1  0.598198  0.598198  0.597481  1
  Dy  Dy1  1  0.598198  0.598198  0.206123  1
  Dy  Dy2  1  0.597394  0.208609  0.596998  1
  Dy  Dy3  1  0.208609  0.597394  0.596998  1
  Dy  Dy4  1  0.060900  0.438404  0.440484  1
  Dy  Dy5  1  0.438404  0.060900  0.060213  1
  Dy  Dy6  1  0.438404  0.060900  0.440484  1
  Dy  Dy7  1  0.060900  0.438404  0.060213  1
  Dy  Dy8  1  0.438804  0.438804  0.061196  1
  Dy  Dy9  1  0.059553  0.059553  0.440447  1
  Dy  Dy10  1  0.189024  0.808053  0.813055  1
  Dy  Dy11  1  0.808053  0.189024  0.189869  1
  Dy  Dy12  1  0.808053  0.189024  0.813055  1
  Dy  Dy13  1  0.189024  0.808053  0.189869  1
  Dy  Dy14  1  0.812048  0.812048  0.187952  1
  Dy  Dy15  1  0.190482  0.190482  0.809518  1
  Cd  Cd16  1  0.830354  0.830354  0.831022  1
  Cd  Cd17  1  0.830354  0.830354  0.508271  1
  Cd  Cd18  1  0.830442  0.507271  0.831143  1
  Cd  Cd19  1  0.507271  0.830442  0.831143  1
  Ir  Ir20  1  0.393480  0.828188  0.389166  1
  Ir  Ir21  1  0.828188  0.393480  0.389166  1
  Os  Os22  1  0.391932  0.391932  0.387276  1
  Os  Os23  1  0.391932  0.391932  0.828859  1
