# generated using pymatgen
data_Dy4Lu2Al24ZnRu7
_symmetry_space_group_name_H-M   'P 1'
_cell_length_a   8.82052774
_cell_length_b   8.82765975
_cell_length_c   9.52161687
_cell_angle_alpha   89.97059913
_cell_angle_beta   89.95803581
_cell_angle_gamma   119.98534263
_symmetry_Int_Tables_number   1
_chemical_formula_structural   Dy4Lu2Al24ZnRu7
_chemical_formula_sum   'Dy4 Lu2 Al24 Zn1 Ru7'
_cell_volume   642.16299350
_cell_formula_units_Z   1
loop_
 _symmetry_equiv_pos_site_id
 _symmetry_equiv_pos_as_xyz
  1  'x, y, z'
loop_
 _atom_site_type_symbol
 _atom_site_label
 _atom_site_symmetry_multiplicity
 _atom_site_fract_x
 _atom_site_fract_y
 _atom_site_fract_z
 _atom_site_occupancy
  Dy  Dy0  1  0.613601  0.806460  0.252711  1
  Dy  Dy1  1  0.805838  0.193681  0.753485  1
  Dy  Dy2  1  0.806889  0.614483  0.747276  1
  Dy  Dy3  1  0.385443  0.193131  0.746993  1
  Lu  Lu4  1  0.195902  0.803976  0.246229  1
  Lu  Lu5  1  0.194027  0.389316  0.251981  1
  Al  Al6  1  0.562323  0.435667  0.245741  1
  Al  Al7  1  0.560106  0.120415  0.251359  1
  Al  Al8  1  0.880739  0.439611  0.251278  1
  Al  Al9  1  0.436158  0.563631  0.754813  1
  Al  Al10  1  0.438368  0.878629  0.748682  1
  Al  Al11  1  0.121382  0.561452  0.748441  1
  Al  Al12  1  0.321205  0.150017  0.416693  1
  Al  Al13  1  0.838124  0.163198  0.420726  1
  Al  Al14  1  0.850532  0.678518  0.416999  1
  Al  Al15  1  0.677256  0.848959  0.581614  1
  Al  Al16  1  0.162631  0.837125  0.577036  1
  Al  Al17  1  0.150867  0.322390  0.580833  1
  Al  Al18  1  0.675149  0.837630  0.923977  1
  Al  Al19  1  0.162468  0.837679  0.922642  1
  Al  Al20  1  0.162234  0.324545  0.924569  1
  Al  Al21  1  0.323650  0.161898  0.077676  1
  Al  Al22  1  0.838248  0.162793  0.079549  1
  Al  Al23  1  0.838436  0.675876  0.077498  1
  Al  Al24  1  0.670809  0.329014  0.520770  1
  Al  Al25  1  0.328562  0.670498  0.476992  1
  Al  Al26  1  0.332993  0.665789  0.017724  1
  Al  Al27  1  0.665992  0.333599  0.984097  1
  Al  Al28  1  0.001532  0.002060  0.249679  1
  Al  Al29  1  0.000944  0.999106  0.750400  1
  Zn  Zn30  1  0.499873  0.499991  0.500048  1
  Ru  Ru31  1  0.999721  0.999953  0.500077  1
  Ru  Ru32  1  0.999791  0.999975  0.000017  1
  Ru  Ru33  1  0.499098  0.999339  0.499498  1
  Ru  Ru34  1  0.000786  0.500314  0.498857  1
  Ru  Ru35  1  0.498885  0.499797  0.000831  1
  Ru  Ru36  1  0.498539  0.998727  0.001013  1
  Ru  Ru37  1  0.000899  0.500755  0.001193  1
