# generated using pymatgen
data_Sc6In2C
_symmetry_space_group_name_H-M   'P 1'
_cell_length_a   6.44067770
_cell_length_b   6.44067768
_cell_length_c   6.44067700
_cell_angle_alpha   60.00000865
_cell_angle_beta   60.00000875
_cell_angle_gamma   60.00001167
_symmetry_Int_Tables_number   1
_chemical_formula_structural   Sc6In2C
_chemical_formula_sum   'Sc6 In2 C1'
_cell_volume   188.92078898
_cell_formula_units_Z   1
loop_
 _symmetry_equiv_pos_site_id
 _symmetry_equiv_pos_as_xyz
  1  'x, y, z'
loop_
 _atom_site_type_symbol
 _atom_site_label
 _atom_site_symmetry_multiplicity
 _atom_site_fract_x
 _atom_site_fract_y
 _atom_site_fract_z
 _atom_site_occupancy
  Sc  Sc0  1  0.755050  0.755050  0.244949  1
  Sc  Sc1  1  0.755049  0.244950  0.244949  1
  Sc  Sc2  1  0.244950  0.755049  0.244949  1
  Sc  Sc3  1  0.244950  0.244950  0.755049  1
  Sc  Sc4  1  0.755051  0.244948  0.755051  1
  Sc  Sc5  1  0.244948  0.755051  0.755051  1
  In  In6  1  0.250000  0.250000  0.250000  1
  In  In7  1  0.749999  0.749999  0.749999  1
  C  C8  1  0.000000  0.000000  0.000000  1
