# generated using pymatgen
data_Ho11Tm9(Bi2Os)4
_symmetry_space_group_name_H-M   'P 1'
_cell_length_a   7.89393330
_cell_length_b   8.99065300
_cell_length_c   12.45778647
_cell_angle_alpha   90.00000000
_cell_angle_beta   89.96854079
_cell_angle_gamma   90.00000000
_symmetry_Int_Tables_number   1
_chemical_formula_structural   Ho11Tm9(Bi2Os)4
_chemical_formula_sum   'Ho11 Tm9 Bi8 Os4'
_cell_volume   884.14909282
_cell_formula_units_Z   1
loop_
 _symmetry_equiv_pos_site_id
 _symmetry_equiv_pos_as_xyz
  1  'x, y, z'
loop_
 _atom_site_type_symbol
 _atom_site_label
 _atom_site_symmetry_multiplicity
 _atom_site_fract_x
 _atom_site_fract_y
 _atom_site_fract_z
 _atom_site_occupancy
  Ho  Ho0  1  0.160166  0.250000  0.208362  1
  Ho  Ho1  1  0.339770  0.250000  0.708290  1
  Ho  Ho2  1  0.660145  0.750000  0.291675  1
  Ho  Ho3  1  0.375698  0.750000  0.690258  1
  Ho  Ho4  1  0.624576  0.250000  0.309822  1
  Ho  Ho5  1  0.875434  0.250000  0.809747  1
  Ho  Ho6  1  0.124491  0.750000  0.190240  1
  Ho  Ho7  1  0.942948  0.750000  0.504723  1
  Ho  Ho8  1  0.056792  0.250000  0.495501  1
  Ho  Ho9  1  0.443235  0.250000  0.995421  1
  Ho  Ho10  1  0.557516  0.750000  0.004278  1
  Tm  Tm11  1  0.840152  0.750000  0.792365  1
  Tm  Tm12  1  0.672125  0.041931  0.564609  1
  Tm  Tm13  1  0.327968  0.957937  0.435475  1
  Tm  Tm14  1  0.171750  0.957629  0.935288  1
  Tm  Tm15  1  0.327968  0.542063  0.435475  1
  Tm  Tm16  1  0.827949  0.041899  0.064444  1
  Tm  Tm17  1  0.672125  0.458069  0.564609  1
  Tm  Tm18  1  0.827949  0.458101  0.064444  1
  Tm  Tm19  1  0.171750  0.542371  0.935288  1
  Bi  Bi20  1  0.566270  0.493867  0.827386  1
  Bi  Bi21  1  0.434146  0.506519  0.172554  1
  Bi  Bi22  1  0.065294  0.507014  0.672736  1
  Bi  Bi23  1  0.434146  0.993481  0.172554  1
  Bi  Bi24  1  0.934260  0.493474  0.327505  1
  Bi  Bi25  1  0.566270  0.006133  0.827386  1
  Bi  Bi26  1  0.934260  0.006526  0.327505  1
  Bi  Bi27  1  0.065294  0.992986  0.672736  1
  Os  Os28  1  0.574041  0.750000  0.509090  1
  Os  Os29  1  0.425971  0.250000  0.490939  1
  Os  Os30  1  0.073993  0.250000  0.990908  1
  Os  Os31  1  0.925550  0.750000  0.008389  1
