# generated using pymatgen
data_La5Al2IrOs2
_symmetry_space_group_name_H-M   'P 1'
_cell_length_a   8.69104290
_cell_length_b   8.69122968
_cell_length_c   8.69127839
_cell_angle_alpha   109.51275658
_cell_angle_beta   109.58064994
_cell_angle_gamma   109.32040460
_symmetry_Int_Tables_number   1
_chemical_formula_structural   La5Al2IrOs2
_chemical_formula_sum   'La10 Al4 Ir2 Os4'
_cell_volume   505.37328916
_cell_formula_units_Z   2
loop_
 _symmetry_equiv_pos_site_id
 _symmetry_equiv_pos_as_xyz
  1  'x, y, z'
loop_
 _atom_site_type_symbol
 _atom_site_label
 _atom_site_symmetry_multiplicity
 _atom_site_fract_x
 _atom_site_fract_y
 _atom_site_fract_z
 _atom_site_occupancy
  La  La0  1  0.249995  0.686816  0.436801  1
  La  La1  1  0.749981  0.813180  0.063162  1
  La  La2  1  0.435868  0.249968  0.685856  1
  La  La3  1  0.687498  0.437503  0.250037  1
  La  La4  1  0.064104  0.749972  0.814068  1
  La  La5  1  0.812539  0.062508  0.750025  1
  La  La6  1  0.208561  0.211125  0.211997  1
  La  La7  1  0.499130  0.996566  0.287975  1
  La  La8  1  0.291455  0.503432  0.002586  1
  La  La9  1  0.000850  0.288838  0.497446  1
  Al  Al10  1  0.500422  0.998929  0.910028  1
  Al  Al11  1  0.588873  0.590386  0.589973  1
  Al  Al12  1  0.911119  0.501092  0.001502  1
  Al  Al13  1  0.999577  0.909615  0.498496  1
  Ir  Ir14  1  0.250000  0.115135  0.865128  1
  Ir  Ir15  1  0.749997  0.384888  0.634882  1
  Os  Os16  1  0.864788  0.250025  0.114789  1
  Os  Os17  1  0.118822  0.868828  0.249998  1
  Os  Os18  1  0.635266  0.750027  0.385255  1
  Os  Os19  1  0.381158  0.631169  0.749998  1
