# generated using pymatgen
data_Rb2Nb6PbCl18
_symmetry_space_group_name_H-M   'P 1'
_cell_length_a   10.47685829
_cell_length_b   10.47685765
_cell_length_c   10.47685820
_cell_angle_alpha   54.75836878
_cell_angle_beta   54.75837176
_cell_angle_gamma   54.75836800
_symmetry_Int_Tables_number   1
_chemical_formula_structural   Rb2Nb6PbCl18
_chemical_formula_sum   'Rb2 Nb6 Pb1 Cl18'
_cell_volume   713.89613535
_cell_formula_units_Z   1
loop_
 _symmetry_equiv_pos_site_id
 _symmetry_equiv_pos_as_xyz
  1  'x, y, z'
loop_
 _atom_site_type_symbol
 _atom_site_label
 _atom_site_symmetry_multiplicity
 _atom_site_fract_x
 _atom_site_fract_y
 _atom_site_fract_z
 _atom_site_occupancy
  Rb  Rb0  1  0.723020  0.723020  0.723020  1
  Rb  Rb1  1  0.276980  0.276980  0.276980  1
  Nb  Nb2  1  0.580254  0.353324  0.701447  1
  Nb  Nb3  1  0.353324  0.701447  0.580254  1
  Nb  Nb4  1  0.701447  0.580254  0.353324  1
  Nb  Nb5  1  0.646676  0.298553  0.419746  1
  Nb  Nb6  1  0.419746  0.646676  0.298553  1
  Nb  Nb7  1  0.298553  0.419746  0.646676  1
  Pb  Pb8  1  0.000000  0.000000  0.000000  1
  Cl  Cl9  1  0.908471  0.358355  0.231982  1
  Cl  Cl10  1  0.832314  0.421797  0.565331  1
  Cl  Cl11  1  0.768018  0.091529  0.641645  1
  Cl  Cl12  1  0.091529  0.641645  0.768018  1
  Cl  Cl13  1  0.675833  0.172679  0.960214  1
  Cl  Cl14  1  0.231982  0.908471  0.358355  1
  Cl  Cl15  1  0.434669  0.167686  0.578203  1
  Cl  Cl16  1  0.641645  0.768018  0.091529  1
  Cl  Cl17  1  0.578203  0.434669  0.167686  1
  Cl  Cl18  1  0.039786  0.324167  0.827321  1
  Cl  Cl19  1  0.565331  0.832314  0.421797  1
  Cl  Cl20  1  0.358355  0.231982  0.908471  1
  Cl  Cl21  1  0.960214  0.675833  0.172679  1
  Cl  Cl22  1  0.167686  0.578203  0.434669  1
  Cl  Cl23  1  0.827321  0.039786  0.324167  1
  Cl  Cl24  1  0.421797  0.565331  0.832314  1
  Cl  Cl25  1  0.172679  0.960214  0.675833  1
  Cl  Cl26  1  0.324167  0.827321  0.039786  1
