# generated using pymatgen
data_TbGaCoNi2B
_symmetry_space_group_name_H-M   'P 1'
_cell_length_a   5.18219092
_cell_length_b   5.18187593
_cell_length_c   6.76039500
_cell_angle_alpha   90.00000000
_cell_angle_beta   90.00000000
_cell_angle_gamma   120.22619214
_symmetry_Int_Tables_number   1
_chemical_formula_structural   TbGaCoNi2B
_chemical_formula_sum   'Tb2 Ga2 Co2 Ni4 B2'
_cell_volume   156.85874394
_cell_formula_units_Z   2
loop_
 _symmetry_equiv_pos_site_id
 _symmetry_equiv_pos_as_xyz
  1  'x, y, z'
loop_
 _atom_site_type_symbol
 _atom_site_label
 _atom_site_symmetry_multiplicity
 _atom_site_fract_x
 _atom_site_fract_y
 _atom_site_fract_z
 _atom_site_occupancy
  Tb  Tb0  1  0.999979  0.000001  0.000000  1
  Tb  Tb1  1  0.999986  0.000000  0.500000  1
  Ga  Ga2  1  0.336804  0.663333  0.000000  1
  Ga  Ga3  1  0.663153  0.336669  0.000000  1
  Co  Co4  1  0.499983  0.499998  0.298620  1
  Co  Co5  1  0.499983  0.499998  0.701380  1
  Ni  Ni6  1  0.499986  0.999999  0.294666  1
  Ni  Ni7  1  0.999985  0.500000  0.294736  1
  Ni  Ni8  1  0.499986  0.999999  0.705334  1
  Ni  Ni9  1  0.999985  0.500000  0.705264  1
  B  B10  1  0.337833  0.662127  0.500000  1
  B  B11  1  0.662135  0.337873  0.500000  1
