# generated using pymatgen
data_CaYb11(SmSn2)8
_symmetry_space_group_name_H-M   'P 1'
_cell_length_a   7.93870901
_cell_length_b   8.49346905
_cell_length_c   16.24341707
_cell_angle_alpha   90.01038969
_cell_angle_beta   90.00224007
_cell_angle_gamma   90.00647125
_symmetry_Int_Tables_number   1
_chemical_formula_structural   CaYb11(SmSn2)8
_chemical_formula_sum   'Ca1 Yb11 Sm8 Sn16'
_cell_volume   1095.24776933
_cell_formula_units_Z   1
loop_
 _symmetry_equiv_pos_site_id
 _symmetry_equiv_pos_as_xyz
  1  'x, y, z'
loop_
 _atom_site_type_symbol
 _atom_site_label
 _atom_site_symmetry_multiplicity
 _atom_site_fract_x
 _atom_site_fract_y
 _atom_site_fract_z
 _atom_site_occupancy
  Ca  Ca0  1  0.506673  0.688848  0.593203  1
  Yb  Yb1  1  0.006681  0.811011  0.906654  1
  Yb  Yb2  1  0.493310  0.311006  0.093346  1
  Yb  Yb3  1  0.993334  0.188950  0.406653  1
  Yb  Yb4  1  0.493290  0.311012  0.406639  1
  Yb  Yb5  1  0.993329  0.188984  0.093351  1
  Yb  Yb6  1  0.506690  0.688993  0.906649  1
  Yb  Yb7  1  0.006695  0.811069  0.593358  1
  Yb  Yb8  1  0.839708  0.511024  0.750040  1
  Yb  Yb9  1  0.339578  0.989035  0.750057  1
  Yb  Yb10  1  0.160388  0.488932  0.249998  1
  Yb  Yb11  1  0.660368  0.011052  0.249992  1
  Sm  Sm12  1  0.674035  0.167155  0.622080  1
  Sm  Sm13  1  0.174022  0.332875  0.877921  1
  Sm  Sm14  1  0.325963  0.832903  0.122075  1
  Sm  Sm15  1  0.825966  0.667104  0.377918  1
  Sm  Sm16  1  0.325887  0.832970  0.377855  1
  Sm  Sm17  1  0.825964  0.667082  0.122073  1
  Sm  Sm18  1  0.674036  0.167099  0.877923  1
  Sm  Sm19  1  0.173905  0.332760  0.622124  1
  Sn  Sn20  1  0.669484  0.966665  0.458618  1
  Sn  Sn21  1  0.169382  0.533617  0.041252  1
  Sn  Sn22  1  0.330615  0.033633  0.958752  1
  Sn  Sn23  1  0.831098  0.465996  0.541185  1
  Sn  Sn24  1  0.330437  0.034025  0.541152  1
  Sn  Sn25  1  0.830634  0.466392  0.958750  1
  Sn  Sn26  1  0.669394  0.966391  0.041247  1
  Sn  Sn27  1  0.169276  0.533566  0.458672  1
  Sn  Sn28  1  0.473173  0.381625  0.750116  1
  Sn  Sn29  1  0.973289  0.118165  0.749988  1
  Sn  Sn30  1  0.526741  0.618145  0.249991  1
  Sn  Sn31  1  0.026743  0.881862  0.249996  1
  Sn  Sn32  1  0.719196  0.870224  0.750215  1
  Sn  Sn33  1  0.218690  0.629818  0.750149  1
  Sn  Sn34  1  0.281017  0.129924  0.250003  1
  Sn  Sn35  1  0.781008  0.370088  0.250007  1
