# generated using pymatgen
data_La2Nd6SiPd24
_symmetry_space_group_name_H-M   'P 1'
_cell_length_a   8.48645351
_cell_length_b   8.48645351
_cell_length_c   8.48645351
_cell_angle_alpha   89.97187005
_cell_angle_beta   89.97187005
_cell_angle_gamma   89.97187005
_symmetry_Int_Tables_number   1
_chemical_formula_structural   La2Nd6SiPd24
_chemical_formula_sum   'La2 Nd6 Si1 Pd24'
_cell_volume   611.19325461
_cell_formula_units_Z   1
loop_
 _symmetry_equiv_pos_site_id
 _symmetry_equiv_pos_as_xyz
  1  'x, y, z'
loop_
 _atom_site_type_symbol
 _atom_site_label
 _atom_site_symmetry_multiplicity
 _atom_site_fract_x
 _atom_site_fract_y
 _atom_site_fract_z
 _atom_site_occupancy
  La  La0  1  0.254006  0.254006  0.254006  1
  La  La1  1  0.745994  0.745994  0.745994  1
  Nd  Nd2  1  0.746433  0.746433  0.253424  1
  Nd  Nd3  1  0.746433  0.253424  0.746433  1
  Nd  Nd4  1  0.253567  0.253567  0.746576  1
  Nd  Nd5  1  0.253567  0.746576  0.253567  1
  Nd  Nd6  1  0.253424  0.746433  0.746433  1
  Nd  Nd7  1  0.746576  0.253567  0.253567  1
  Si  Si8  1  0.000000  0.000000  0.000000  1
  Pd  Pd9  1  0.256681  0.500200  0.999854  1
  Pd  Pd10  1  0.743319  0.499800  0.000146  1
  Pd  Pd11  1  0.999854  0.256681  0.500200  1
  Pd  Pd12  1  0.500200  0.256681  0.999854  1
  Pd  Pd13  1  0.000146  0.743319  0.499800  1
  Pd  Pd14  1  0.499800  0.743319  0.000146  1
  Pd  Pd15  1  0.500200  0.999854  0.256681  1
  Pd  Pd16  1  0.256681  0.999854  0.500200  1
  Pd  Pd17  1  0.499800  0.000146  0.743319  1
  Pd  Pd18  1  0.743319  0.000146  0.499800  1
  Pd  Pd19  1  0.999854  0.500200  0.256681  1
  Pd  Pd20  1  0.000146  0.499800  0.743319  1
  Pd  Pd21  1  0.251627  0.500172  0.500172  1
  Pd  Pd22  1  0.748373  0.499828  0.499828  1
  Pd  Pd23  1  0.500172  0.251627  0.500172  1
  Pd  Pd24  1  0.499828  0.748373  0.499828  1
  Pd  Pd25  1  0.500172  0.500172  0.251627  1
  Pd  Pd26  1  0.499828  0.499828  0.748373  1
  Pd  Pd27  1  0.280092  0.999614  0.999614  1
  Pd  Pd28  1  0.719908  0.000386  0.000386  1
  Pd  Pd29  1  0.999614  0.280092  0.999614  1
  Pd  Pd30  1  0.000386  0.719908  0.000386  1
  Pd  Pd31  1  0.999614  0.999614  0.280092  1
  Pd  Pd32  1  0.000386  0.000386  0.719908  1
