# generated using pymatgen
data_YPu4Re2C7
_symmetry_space_group_name_H-M   'P 1'
_cell_length_a   8.40982220
_cell_length_b   8.40982270
_cell_length_c   3.43372600
_cell_angle_alpha   90.00000000
_cell_angle_beta   90.00000000
_cell_angle_gamma   124.76499141
_symmetry_Int_Tables_number   1
_chemical_formula_structural   YPu4Re2C7
_chemical_formula_sum   'Y1 Pu4 Re2 C7'
_cell_volume   199.50127699
_cell_formula_units_Z   1
loop_
 _symmetry_equiv_pos_site_id
 _symmetry_equiv_pos_as_xyz
  1  'x, y, z'
loop_
 _atom_site_type_symbol
 _atom_site_label
 _atom_site_symmetry_multiplicity
 _atom_site_fract_x
 _atom_site_fract_y
 _atom_site_fract_z
 _atom_site_occupancy
  Y  Y0  1  0.500000  0.500000  0.000000  1
  Pu  Pu1  1  0.061278  0.322129  0.500000  1
  Pu  Pu2  1  0.938722  0.677871  0.500000  1
  Pu  Pu3  1  0.677871  0.938722  0.500000  1
  Pu  Pu4  1  0.322129  0.061278  0.500000  1
  Re  Re5  1  0.711551  0.288449  0.000000  1
  Re  Re6  1  0.288449  0.711551  0.000000  1
  C  C7  1  0.628051  0.371949  0.500000  1
  C  C8  1  0.371949  0.628051  0.500000  1
  C  C9  1  0.000000  0.000000  0.000000  1
  C  C10  1  0.174579  0.174579  0.000000  1
  C  C11  1  0.825421  0.825421  0.000000  1
  C  C12  1  0.000000  0.500000  0.000000  1
  C  C13  1  0.500000  0.000000  0.000000  1
