# generated using pymatgen
data_Dy10Si16Rh
_symmetry_space_group_name_H-M   'P 1'
_cell_length_a   6.77718090
_cell_length_b   8.19825753
_cell_length_c   11.13246448
_cell_angle_alpha   111.60550948
_cell_angle_beta   107.72135295
_cell_angle_gamma   89.99999683
_symmetry_Int_Tables_number   1
_chemical_formula_structural   Dy10Si16Rh
_chemical_formula_sum   'Dy10 Si16 Rh1'
_cell_volume   543.38154512
_cell_formula_units_Z   1
loop_
 _symmetry_equiv_pos_site_id
 _symmetry_equiv_pos_as_xyz
  1  'x, y, z'
loop_
 _atom_site_type_symbol
 _atom_site_label
 _atom_site_symmetry_multiplicity
 _atom_site_fract_x
 _atom_site_fract_y
 _atom_site_fract_z
 _atom_site_occupancy
  Dy  Dy0  1  0.241445  0.242827  0.000000  1
  Dy  Dy1  1  0.241445  0.757173  0.000000  1
  Dy  Dy2  1  0.832881  0.353544  0.204180  1
  Dy  Dy3  1  0.832881  0.850637  0.204180  1
  Dy  Dy4  1  0.437642  0.449499  0.399279  1
  Dy  Dy5  1  0.437642  0.949781  0.399279  1
  Dy  Dy6  1  0.038362  0.050219  0.600722  1
  Dy  Dy7  1  0.038362  0.550501  0.600722  1
  Dy  Dy8  1  0.628700  0.149363  0.795819  1
  Dy  Dy9  1  0.628700  0.646457  0.795819  1
  Si  Si10  1  0.913095  0.000000  0.000000  1
  Si  Si11  1  0.610496  0.500000  0.000000  1
  Si  Si12  1  0.128671  0.582950  0.165900  1
  Si  Si13  1  0.498654  0.599756  0.199513  1
  Si  Si14  1  0.501551  0.102015  0.204030  1
  Si  Si15  1  0.163289  0.113220  0.226440  1
  Si  Si16  1  0.801509  0.202113  0.404227  1
  Si  Si17  1  0.098172  0.697211  0.394422  1
  Si  Si18  1  0.759423  0.711887  0.423775  1
  Si  Si19  1  0.335649  0.288113  0.576225  1
  Si  Si20  1  0.703750  0.302789  0.605577  1
  Si  Si21  1  0.397282  0.797887  0.595773  1
  Si  Si22  1  0.936849  0.886780  0.773560  1
  Si  Si23  1  0.297520  0.897984  0.795969  1
  Si  Si24  1  0.299141  0.400244  0.800488  1
  Si  Si25  1  0.962771  0.417050  0.834100  1
  Rh  Rh26  1  0.572620  0.000000  0.000000  1
