# generated using pymatgen
data_SmBe11Cu2
_symmetry_space_group_name_H-M   'P 1'
_cell_length_a   7.40165568
_cell_length_b   7.39097890
_cell_length_c   7.36241881
_cell_angle_alpha   60.22357906
_cell_angle_beta   60.07945369
_cell_angle_gamma   59.69696416
_symmetry_Int_Tables_number   1
_chemical_formula_structural   SmBe11Cu2
_chemical_formula_sum   'Sm2 Be22 Cu4'
_cell_volume   284.78479433
_cell_formula_units_Z   2
loop_
 _symmetry_equiv_pos_site_id
 _symmetry_equiv_pos_as_xyz
  1  'x, y, z'
loop_
 _atom_site_type_symbol
 _atom_site_label
 _atom_site_symmetry_multiplicity
 _atom_site_fract_x
 _atom_site_fract_y
 _atom_site_fract_z
 _atom_site_occupancy
  Sm  Sm0  1  0.250000  0.250000  0.250000  1
  Sm  Sm1  1  0.750000  0.750000  0.750000  1
  Be  Be2  1  0.000000  0.000000  0.000000  1
  Be  Be3  1  0.500000  0.500000  0.500000  1
  Be  Be4  1  0.931488  0.293083  0.068512  1
  Be  Be5  1  0.214190  0.440672  0.785810  1
  Be  Be6  1  0.068512  0.706917  0.931488  1
  Be  Be7  1  0.785810  0.559328  0.214190  1
  Be  Be8  1  0.706917  0.068512  0.293083  1
  Be  Be9  1  0.440672  0.214190  0.559328  1
  Be  Be10  1  0.293083  0.931488  0.706917  1
  Be  Be11  1  0.559328  0.785810  0.440672  1
  Be  Be12  1  0.060880  0.939120  0.297099  1
  Be  Be13  1  0.568849  0.220424  0.779576  1
  Be  Be14  1  0.939120  0.060880  0.702901  1
  Be  Be15  1  0.431151  0.779576  0.220424  1
  Be  Be16  1  0.702901  0.297099  0.939120  1
  Be  Be17  1  0.220424  0.568849  0.431151  1
  Be  Be18  1  0.297099  0.702901  0.060880  1
  Be  Be19  1  0.779576  0.431151  0.568849  1
  Be  Be20  1  0.785409  0.214591  0.434067  1
  Be  Be21  1  0.214591  0.785409  0.565933  1
  Be  Be22  1  0.565933  0.434067  0.214591  1
  Be  Be23  1  0.434067  0.565933  0.785409  1
  Cu  Cu24  1  0.303359  0.058400  0.941600  1
  Cu  Cu25  1  0.696641  0.941600  0.058400  1
  Cu  Cu26  1  0.058400  0.303359  0.696641  1
  Cu  Cu27  1  0.941600  0.696641  0.303359  1
