# generated using pymatgen
data_MnS(ClO)2
_symmetry_space_group_name_H-M   'P 1'
_cell_length_a   6.50824840
_cell_length_b   6.50824692
_cell_length_c   7.24230600
_cell_angle_alpha   89.99985938
_cell_angle_beta   90.00010235
_cell_angle_gamma   97.23820998
_symmetry_Int_Tables_number   1
_chemical_formula_structural   MnS(ClO)2
_chemical_formula_sum   'Mn2 S2 Cl4 O4'
_cell_volume   304.31980090
_cell_formula_units_Z   2
loop_
 _symmetry_equiv_pos_site_id
 _symmetry_equiv_pos_as_xyz
  1  'x, y, z'
loop_
 _atom_site_type_symbol
 _atom_site_label
 _atom_site_symmetry_multiplicity
 _atom_site_fract_x
 _atom_site_fract_y
 _atom_site_fract_z
 _atom_site_occupancy
  Mn  Mn0  1  0.000000  0.000000  0.000000  1
  Mn  Mn1  1  0.999999  0.999999  0.500000  1
  S  S2  1  0.688756  0.311244  0.250000  1
  S  S3  1  0.311244  0.688756  0.750000  1
  Cl  Cl4  1  0.154772  0.241660  0.750000  1
  Cl  Cl5  1  0.845228  0.758340  0.250000  1
  Cl  Cl6  1  0.241660  0.154772  0.250000  1
  Cl  Cl7  1  0.758340  0.845228  0.750000  1
  O  O8  1  0.229975  0.770025  0.920421  1
  O  O9  1  0.770026  0.229975  0.420421  1
  O  O10  1  0.770025  0.229975  0.079579  1
  O  O11  1  0.229974  0.770026  0.579579  1
