# generated using pymatgen
data_CaCd2O3
_symmetry_space_group_name_H-M   'P 1'
_cell_length_a   5.88024814
_cell_length_b   5.88024867
_cell_length_c   5.89768784
_cell_angle_alpha   80.55295903
_cell_angle_beta   80.55296172
_cell_angle_gamma   120.32997271
_symmetry_Int_Tables_number   1
_chemical_formula_structural   CaCd2O3
_chemical_formula_sum   'Ca2 Cd4 O6'
_cell_volume   166.15997060
_cell_formula_units_Z   2
loop_
 _symmetry_equiv_pos_site_id
 _symmetry_equiv_pos_as_xyz
  1  'x, y, z'
loop_
 _atom_site_type_symbol
 _atom_site_label
 _atom_site_symmetry_multiplicity
 _atom_site_fract_x
 _atom_site_fract_y
 _atom_site_fract_z
 _atom_site_occupancy
  Ca  Ca0  1  0.086216  0.913784  0.250000  1
  Ca  Ca1  1  0.913784  0.086216  0.750000  1
  Cd  Cd2  1  0.747810  0.252190  0.250000  1
  Cd  Cd3  1  0.416753  0.583247  0.250000  1
  Cd  Cd4  1  0.252190  0.747810  0.750000  1
  Cd  Cd5  1  0.583247  0.416753  0.750000  1
  O  O6  1  0.834122  0.667977  0.999090  1
  O  O7  1  0.667977  0.834122  0.499090  1
  O  O8  1  0.000000  0.500000  0.500000  1
  O  O9  1  0.332023  0.165878  0.500910  1
  O  O10  1  0.500000  0.000000  0.000000  1
  O  O11  1  0.165878  0.332023  0.000910  1
