# generated using pymatgen
data_Dy7Ho13(Ga2Bi)4
_symmetry_space_group_name_H-M   'P 1'
_cell_length_a   8.20322108
_cell_length_b   8.20363008
_cell_length_c   12.67340201
_cell_angle_alpha   90.00206273
_cell_angle_beta   89.99794915
_cell_angle_gamma   90.01596628
_symmetry_Int_Tables_number   1
_chemical_formula_structural   Dy7Ho13(Ga2Bi)4
_chemical_formula_sum   'Dy7 Ho13 Ga8 Bi4'
_cell_volume   852.87165054
_cell_formula_units_Z   1
loop_
 _symmetry_equiv_pos_site_id
 _symmetry_equiv_pos_as_xyz
  1  'x, y, z'
loop_
 _atom_site_type_symbol
 _atom_site_label
 _atom_site_symmetry_multiplicity
 _atom_site_fract_x
 _atom_site_fract_y
 _atom_site_fract_z
 _atom_site_occupancy
  Dy  Dy0  1  0.652330  0.652046  0.607991  1
  Dy  Dy1  1  0.652613  0.347660  0.107404  1
  Dy  Dy2  1  0.847621  0.847883  0.392224  1
  Dy  Dy3  1  0.152144  0.848133  0.892455  1
  Dy  Dy4  1  0.347705  0.347942  0.607992  1
  Dy  Dy5  1  0.347783  0.651966  0.107572  1
  Dy  Dy6  1  0.152371  0.152118  0.392223  1
  Ho  Ho7  1  0.999905  0.499871  0.750322  1
  Ho  Ho8  1  0.000024  0.500015  0.250237  1
  Ho  Ho9  1  0.499979  0.999980  0.249798  1
  Ho  Ho10  1  0.500110  0.000093  0.749887  1
  Ho  Ho11  1  0.847984  0.151748  0.891610  1
  Ho  Ho12  1  0.652321  0.347209  0.391650  1
  Ho  Ho13  1  0.347666  0.347328  0.891533  1
  Ho  Ho14  1  0.152239  0.847276  0.608353  1
  Ho  Ho15  1  0.847585  0.847357  0.108064  1
  Ho  Ho16  1  0.347726  0.652758  0.391623  1
  Ho  Ho17  1  0.652208  0.652780  0.891524  1
  Ho  Ho18  1  0.847776  0.152673  0.608408  1
  Ho  Ho19  1  0.152172  0.152878  0.108065  1
  Ga  Ga20  1  0.852157  0.852696  0.750284  1
  Ga  Ga21  1  0.852255  0.147643  0.249955  1
  Ga  Ga22  1  0.647773  0.647628  0.249990  1
  Ga  Ga23  1  0.351948  0.647961  0.750151  1
  Ga  Ga24  1  0.147389  0.147758  0.750280  1
  Ga  Ga25  1  0.147781  0.852306  0.249864  1
  Ga  Ga26  1  0.352275  0.352324  0.249982  1
  Ga  Ga27  1  0.648207  0.351890  0.750443  1
  Bi  Bi28  1  0.000002  0.500105  0.500139  1
  Bi  Bi29  1  0.999764  0.499732  0.000130  1
  Bi  Bi30  1  0.499882  0.999996  0.499934  1
  Bi  Bi31  1  0.500304  0.000247  0.999912  1
