# generated using pymatgen
data_Y18Th2ZnSi14Pt
_symmetry_space_group_name_H-M   'P 1'
_cell_length_a   7.46226731
_cell_length_b   7.84233029
_cell_length_c   14.73580300
_cell_angle_alpha   89.66312008
_cell_angle_beta   90.01650016
_cell_angle_gamma   89.96204756
_symmetry_Int_Tables_number   1
_chemical_formula_structural   Y18Th2ZnSi14Pt
_chemical_formula_sum   'Y18 Th2 Zn1 Si14 Pt1'
_cell_volume   862.34711989
_cell_formula_units_Z   1
loop_
 _symmetry_equiv_pos_site_id
 _symmetry_equiv_pos_as_xyz
  1  'x, y, z'
loop_
 _atom_site_type_symbol
 _atom_site_label
 _atom_site_symmetry_multiplicity
 _atom_site_fract_x
 _atom_site_fract_y
 _atom_site_fract_z
 _atom_site_occupancy
  Y  Y0  1  0.808556  0.579520  0.874806  1
  Y  Y1  1  0.318169  0.426484  0.125569  1
  Y  Y2  1  0.183368  0.927810  0.373994  1
  Y  Y3  1  0.683723  0.070772  0.626577  1
  Y  Y4  1  0.181209  0.926798  0.627034  1
  Y  Y5  1  0.680544  0.071940  0.373009  1
  Y  Y6  1  0.810928  0.576102  0.125831  1
  Y  Y7  1  0.322083  0.430300  0.873642  1
  Y  Y8  1  0.647507  0.232124  0.999421  1
  Y  Y9  1  0.157876  0.770247  0.000770  1
  Y  Y10  1  0.349509  0.261839  0.499980  1
  Y  Y11  1  0.849610  0.737092  0.500111  1
  Y  Y12  1  0.475832  0.933354  0.845128  1
  Y  Y13  1  0.971654  0.060885  0.155971  1
  Y  Y14  1  0.476834  0.931609  0.156312  1
  Y  Y15  1  0.974001  0.064297  0.842043  1
  Y  Y16  1  0.526360  0.562475  0.651590  1
  Y  Y17  1  0.025663  0.434696  0.346852  1
  Th  Th18  1  0.525074  0.566215  0.346197  1
  Th  Th19  1  0.024292  0.430187  0.655279  1
  Zn  Zn20  1  0.017923  0.349915  0.999202  1
  Si  Si21  1  0.478738  0.853469  0.499892  1
  Si  Si22  1  0.979198  0.145838  0.500094  1
  Si  Si23  1  0.654833  0.276875  0.789894  1
  Si  Si24  1  0.152929  0.720822  0.210827  1
  Si  Si25  1  0.352156  0.221307  0.290576  1
  Si  Si26  1  0.850670  0.776890  0.709353  1
  Si  Si27  1  0.356793  0.221033  0.709702  1
  Si  Si28  1  0.855145  0.778116  0.290304  1
  Si  Si29  1  0.649572  0.273231  0.207878  1
  Si  Si30  1  0.147116  0.723919  0.791491  1
  Si  Si31  1  0.769501  0.881521  0.001014  1
  Si  Si32  1  0.262738  0.127039  0.998988  1
  Si  Si33  1  0.230434  0.620855  0.502218  1
  Si  Si34  1  0.731392  0.378320  0.498216  1
  Pt  Pt35  1  0.518073  0.656104  0.000237  1
