# generated using pymatgen
data_CeTh(MnSi)2
_symmetry_space_group_name_H-M   'P 1'
_cell_length_a   4.12256900
_cell_length_b   4.12256900
_cell_length_c   6.73421300
_cell_angle_alpha   90.00000000
_cell_angle_beta   90.00000000
_cell_angle_gamma   90.00000000
_symmetry_Int_Tables_number   1
_chemical_formula_structural   CeTh(MnSi)2
_chemical_formula_sum   'Ce1 Th1 Mn2 Si2'
_cell_volume   114.45182318
_cell_formula_units_Z   1
loop_
 _symmetry_equiv_pos_site_id
 _symmetry_equiv_pos_as_xyz
  1  'x, y, z'
loop_
 _atom_site_type_symbol
 _atom_site_label
 _atom_site_symmetry_multiplicity
 _atom_site_fract_x
 _atom_site_fract_y
 _atom_site_fract_z
 _atom_site_occupancy
  Ce  Ce0  1  0.000000  0.500000  0.303455  1
  Th  Th1  1  0.500000  0.000000  0.687975  1
  Mn  Mn2  1  0.000000  0.000000  0.001957  1
  Mn  Mn3  1  0.500000  0.500000  0.001957  1
  Si  Si4  1  0.500000  0.000000  0.183840  1
  Si  Si5  1  0.000000  0.500000  0.820815  1
