# generated using pymatgen
data_Ta4Al2(ZnCr)3
_symmetry_space_group_name_H-M   'P 1'
_cell_length_a   4.95314700
_cell_length_b   4.95314800
_cell_length_c   8.30420700
_cell_angle_alpha   90.00000000
_cell_angle_beta   90.00000000
_cell_angle_gamma   119.99999998
_symmetry_Int_Tables_number   1
_chemical_formula_structural   Ta4Al2(ZnCr)3
_chemical_formula_sum   'Ta4 Al2 Zn3 Cr3'
_cell_volume   176.43767266
_cell_formula_units_Z   1
loop_
 _symmetry_equiv_pos_site_id
 _symmetry_equiv_pos_as_xyz
  1  'x, y, z'
loop_
 _atom_site_type_symbol
 _atom_site_label
 _atom_site_symmetry_multiplicity
 _atom_site_fract_x
 _atom_site_fract_y
 _atom_site_fract_z
 _atom_site_occupancy
  Ta  Ta0  1  0.333333  0.666667  0.429013  1
  Ta  Ta1  1  0.666667  0.333333  0.548488  1
  Ta  Ta2  1  0.666667  0.333333  0.951512  1
  Ta  Ta3  1  0.333333  0.666667  0.070987  1
  Al  Al4  1  0.000000  0.000000  0.498479  1
  Al  Al5  1  0.000000  0.000000  0.001521  1
  Zn  Zn6  1  0.171498  0.828502  0.750000  1
  Zn  Zn7  1  0.171498  0.342997  0.750000  1
  Zn  Zn8  1  0.657003  0.828502  0.750000  1
  Cr  Cr9  1  0.827251  0.172749  0.250000  1
  Cr  Cr10  1  0.827251  0.654501  0.250000  1
  Cr  Cr11  1  0.345499  0.172749  0.250000  1
