# generated using pymatgen
data_Pr8DyHo11Pb16
_symmetry_space_group_name_H-M   'P 1'
_cell_length_a   8.30156313
_cell_length_b   8.39157813
_cell_length_c   15.84171001
_cell_angle_alpha   89.99702472
_cell_angle_beta   89.99606159
_cell_angle_gamma   89.98039463
_symmetry_Int_Tables_number   1
_chemical_formula_structural   Pr8DyHo11Pb16
_chemical_formula_sum   'Pr8 Dy1 Ho11 Pb16'
_cell_volume   1103.58439058
_cell_formula_units_Z   1
loop_
 _symmetry_equiv_pos_site_id
 _symmetry_equiv_pos_as_xyz
  1  'x, y, z'
loop_
 _atom_site_type_symbol
 _atom_site_label
 _atom_site_symmetry_multiplicity
 _atom_site_fract_x
 _atom_site_fract_y
 _atom_site_fract_z
 _atom_site_occupancy
  Pr  Pr0  1  0.475952  0.677671  0.597328  1
  Pr  Pr1  1  0.975941  0.822238  0.902683  1
  Pr  Pr2  1  0.524065  0.322271  0.097329  1
  Pr  Pr3  1  0.024026  0.177698  0.402683  1
  Pr  Pr4  1  0.524009  0.322305  0.402590  1
  Pr  Pr5  1  0.024064  0.177737  0.097328  1
  Pr  Pr6  1  0.475932  0.677718  0.902700  1
  Pr  Pr7  1  0.975998  0.822213  0.597310  1
  Dy  Dy8  1  0.632956  0.158265  0.622247  1
  Ho  Ho9  1  0.132945  0.341810  0.877701  1
  Ho  Ho10  1  0.367016  0.841782  0.122306  1
  Ho  Ho11  1  0.867027  0.658209  0.377667  1
  Ho  Ho12  1  0.367029  0.841824  0.377716  1
  Ho  Ho13  1  0.867023  0.658190  0.122295  1
  Ho  Ho14  1  0.632962  0.158175  0.877711  1
  Ho  Ho15  1  0.132988  0.341774  0.622314  1
  Ho  Ho16  1  0.798774  0.494744  0.750046  1
  Ho  Ho17  1  0.298612  0.005369  0.750044  1
  Ho  Ho18  1  0.201313  0.505349  0.249986  1
  Ho  Ho19  1  0.701307  0.994595  0.249983  1
  Pb  Pb20  1  0.706101  0.959200  0.456355  1
  Pb  Pb21  1  0.206047  0.540726  0.043558  1
  Pb  Pb22  1  0.293955  0.040700  0.956457  1
  Pb  Pb23  1  0.794114  0.459471  0.543489  1
  Pb  Pb24  1  0.293780  0.040657  0.543530  1
  Pb  Pb25  1  0.793963  0.459277  0.956454  1
  Pb  Pb26  1  0.706055  0.959294  0.043549  1
  Pb  Pb27  1  0.206017  0.540728  0.456458  1
  Pb  Pb28  1  0.436384  0.370797  0.750068  1
  Pb  Pb29  1  0.936568  0.129353  0.750048  1
  Pb  Pb30  1  0.563508  0.629325  0.249998  1
  Pb  Pb31  1  0.063544  0.870696  0.250000  1
  Pb  Pb32  1  0.663077  0.850534  0.750061  1
  Pb  Pb33  1  0.163089  0.649297  0.750002  1
  Pb  Pb34  1  0.336941  0.149328  0.249999  1
  Pb  Pb35  1  0.836919  0.350681  0.250005  1
