# generated using pymatgen
data_ErTmFeCo3
_symmetry_space_group_name_H-M   'P 1'
_cell_length_a   4.97587865
_cell_length_b   4.97587943
_cell_length_c   4.97587901
_cell_angle_alpha   62.40866556
_cell_angle_beta   62.40867004
_cell_angle_gamma   62.40868023
_symmetry_Int_Tables_number   1
_chemical_formula_structural   ErTmFeCo3
_chemical_formula_sum   'Er1 Tm1 Fe1 Co3'
_cell_volume   91.79465978
_cell_formula_units_Z   1
loop_
 _symmetry_equiv_pos_site_id
 _symmetry_equiv_pos_as_xyz
  1  'x, y, z'
loop_
 _atom_site_type_symbol
 _atom_site_label
 _atom_site_symmetry_multiplicity
 _atom_site_fract_x
 _atom_site_fract_y
 _atom_site_fract_z
 _atom_site_occupancy
  Er  Er0  1  0.373135  0.373135  0.373135  1
  Tm  Tm1  1  0.626937  0.626937  0.626937  1
  Fe  Fe2  1  0.999951  0.999951  0.999951  1
  Co  Co3  1  0.999916  0.500145  0.999916  1
  Co  Co4  1  0.500145  0.999916  0.999916  1
  Co  Co5  1  0.999916  0.999916  0.500145  1
