# generated using pymatgen
data_LiCaYNi11As7
_symmetry_space_group_name_H-M   'P 1'
_cell_length_a   3.84916800
_cell_length_b   9.36908124
_cell_length_c   9.42989917
_cell_angle_alpha   120.40349686
_cell_angle_beta   90.00000000
_cell_angle_gamma   90.00000000
_symmetry_Int_Tables_number   1
_chemical_formula_structural   LiCaYNi11As7
_chemical_formula_sum   'Li1 Ca1 Y1 Ni11 As7'
_cell_volume   293.30627570
_cell_formula_units_Z   1
loop_
 _symmetry_equiv_pos_site_id
 _symmetry_equiv_pos_as_xyz
  1  'x, y, z'
loop_
 _atom_site_type_symbol
 _atom_site_label
 _atom_site_symmetry_multiplicity
 _atom_site_fract_x
 _atom_site_fract_y
 _atom_site_fract_z
 _atom_site_occupancy
  Li  Li0  1  0.500000  0.107667  0.894238  1
  Ca  Ca1  1  0.500000  0.331602  0.663885  1
  Y  Y2  1  0.000000  0.671291  0.339225  1
  Ni  Ni3  1  0.000000  0.876556  0.724223  1
  Ni  Ni4  1  0.000000  0.283106  0.155785  1
  Ni  Ni5  1  0.000000  0.840478  0.126838  1
  Ni  Ni6  1  0.500000  0.949661  0.569303  1
  Ni  Ni7  1  0.500000  0.428621  0.379451  1
  Ni  Ni8  1  0.500000  0.619339  0.045916  1
  Ni  Ni9  1  0.000000  0.380882  0.948086  1
  Ni  Ni10  1  0.000000  0.053377  0.430029  1
  Ni  Ni11  1  0.000000  0.565373  0.618655  1
  Ni  Ni12  1  0.500000  0.094937  0.207365  1
  Ni  Ni13  1  0.500000  0.793891  0.892867  1
  As  As14  1  0.500000  0.707944  0.600743  1
  As  As15  1  0.500000  0.412622  0.115443  1
  As  As16  1  0.500000  0.889766  0.294268  1
  As  As17  1  0.000000  0.997362  0.005313  1
  As  As18  1  0.000000  0.114696  0.703430  1
  As  As19  1  0.000000  0.289109  0.404379  1
  As  As20  1  0.000000  0.591721  0.880561  1
