# generated using pymatgen
data_La3Ho2P12Ru19
_symmetry_space_group_name_H-M   'P 1'
_cell_length_a   12.62865900
_cell_length_b   12.62865967
_cell_length_c   4.02099500
_cell_angle_alpha   90.00000000
_cell_angle_beta   90.00000000
_cell_angle_gamma   120.00000085
_symmetry_Int_Tables_number   1
_chemical_formula_structural   La3Ho2P12Ru19
_chemical_formula_sum   'La3 Ho2 P12 Ru19'
_cell_volume   555.36519311
_cell_formula_units_Z   1
loop_
 _symmetry_equiv_pos_site_id
 _symmetry_equiv_pos_as_xyz
  1  'x, y, z'
loop_
 _atom_site_type_symbol
 _atom_site_label
 _atom_site_symmetry_multiplicity
 _atom_site_fract_x
 _atom_site_fract_y
 _atom_site_fract_z
 _atom_site_occupancy
  La  La0  1  0.000000  0.183340  0.500000  1
  La  La1  1  0.816660  0.816660  0.500000  1
  La  La2  1  0.183340  0.000000  0.500000  1
  Ho  Ho3  1  0.666667  0.333333  0.000000  1
  Ho  Ho4  1  0.333333  0.666667  0.000000  1
  P  P5  1  0.000000  0.809428  0.000000  1
  P  P6  1  0.190572  0.190572  0.000000  1
  P  P7  1  0.809428  0.000000  0.000000  1
  P  P8  1  0.695583  0.174759  0.500000  1
  P  P9  1  0.825241  0.520823  0.500000  1
  P  P10  1  0.479177  0.304417  0.500000  1
  P  P11  1  0.174759  0.695583  0.500000  1
  P  P12  1  0.520823  0.825241  0.500000  1
  P  P13  1  0.304417  0.479177  0.500000  1
  P  P14  1  0.000000  0.374940  0.000000  1
  P  P15  1  0.625060  0.625060  0.000000  1
  P  P16  1  0.374940  0.000000  0.000000  1
  Ru  Ru17  1  0.000000  0.553814  0.000000  1
  Ru  Ru18  1  0.446186  0.446186  0.000000  1
  Ru  Ru19  1  0.553814  0.000000  0.000000  1
  Ru  Ru20  1  0.000000  0.711156  0.500000  1
  Ru  Ru21  1  0.288844  0.288844  0.500000  1
  Ru  Ru22  1  0.711156  0.000000  0.500000  1
  Ru  Ru23  1  0.803402  0.185785  0.000000  1
  Ru  Ru24  1  0.814215  0.617617  0.000000  1
  Ru  Ru25  1  0.382383  0.196598  0.000000  1
  Ru  Ru26  1  0.185785  0.803402  0.000000  1
  Ru  Ru27  1  0.617617  0.814215  0.000000  1
  Ru  Ru28  1  0.196598  0.382383  0.000000  1
  Ru  Ru29  1  0.874103  0.368236  0.500000  1
  Ru  Ru30  1  0.631764  0.505867  0.500000  1
  Ru  Ru31  1  0.494133  0.125897  0.500000  1
  Ru  Ru32  1  0.368236  0.874103  0.500000  1
  Ru  Ru33  1  0.505867  0.631764  0.500000  1
  Ru  Ru34  1  0.125897  0.494133  0.500000  1
  Ru  Ru35  1  0.000000  0.000000  0.000000  1
