# generated using pymatgen
data_Th5Ta3(P3Ir4)4
_symmetry_space_group_name_H-M   'P 1'
_cell_length_a   12.86499500
_cell_length_b   12.86499519
_cell_length_c   4.06614400
_cell_angle_alpha   90.00000000
_cell_angle_beta   90.00000000
_cell_angle_gamma   119.99999693
_symmetry_Int_Tables_number   1
_chemical_formula_structural   Th5Ta3(P3Ir4)4
_chemical_formula_sum   'Th5 Ta3 P12 Ir16'
_cell_volume   582.81758897
_cell_formula_units_Z   1
loop_
 _symmetry_equiv_pos_site_id
 _symmetry_equiv_pos_as_xyz
  1  'x, y, z'
loop_
 _atom_site_type_symbol
 _atom_site_label
 _atom_site_symmetry_multiplicity
 _atom_site_fract_x
 _atom_site_fract_y
 _atom_site_fract_z
 _atom_site_occupancy
  Th  Th0  1  0.333333  0.666667  0.500000  1
  Th  Th1  1  0.666667  0.333333  0.500000  1
  Th  Th2  1  0.000000  0.814842  0.000000  1
  Th  Th3  1  0.185158  0.185158  0.000000  1
  Th  Th4  1  0.814842  0.000000  0.000000  1
  Ta  Ta5  1  0.000000  0.453200  0.500000  1
  Ta  Ta6  1  0.546800  0.546800  0.500000  1
  Ta  Ta7  1  0.453200  0.000000  0.500000  1
  P  P8  1  0.000000  0.638273  0.500000  1
  P  P9  1  0.361727  0.361727  0.500000  1
  P  P10  1  0.638273  0.000000  0.500000  1
  P  P11  1  0.519048  0.684291  0.000000  1
  P  P12  1  0.315709  0.834757  0.000000  1
  P  P13  1  0.165243  0.480952  0.000000  1
  P  P14  1  0.480952  0.165243  0.000000  1
  P  P15  1  0.684291  0.519048  0.000000  1
  P  P16  1  0.834757  0.315709  0.000000  1
  P  P17  1  0.000000  0.177880  0.500000  1
  P  P18  1  0.822120  0.822120  0.500000  1
  P  P19  1  0.177880  0.000000  0.500000  1
  Ir  Ir20  1  0.508600  0.866254  0.000000  1
  Ir  Ir21  1  0.133746  0.642348  0.000000  1
  Ir  Ir22  1  0.357652  0.491400  0.000000  1
  Ir  Ir23  1  0.491400  0.357652  0.000000  1
  Ir  Ir24  1  0.866254  0.508600  0.000000  1
  Ir  Ir25  1  0.642348  0.133746  0.000000  1
  Ir  Ir26  1  0.000000  0.286623  0.000000  1
  Ir  Ir27  1  0.713377  0.713377  0.000000  1
  Ir  Ir28  1  0.286623  0.000000  0.000000  1
  Ir  Ir29  1  0.626513  0.804020  0.500000  1
  Ir  Ir30  1  0.195980  0.822493  0.500000  1
  Ir  Ir31  1  0.177507  0.373487  0.500000  1
  Ir  Ir32  1  0.373487  0.177507  0.500000  1
  Ir  Ir33  1  0.804020  0.626513  0.500000  1
  Ir  Ir34  1  0.822493  0.195980  0.500000  1
  Ir  Ir35  1  0.000000  0.000000  0.500000  1
