# generated using pymatgen
data_K7MnO6
_symmetry_space_group_name_H-M   'P 1'
_cell_length_a   11.84345200
_cell_length_b   6.71505500
_cell_length_c   13.66548100
_cell_angle_alpha   90.00000000
_cell_angle_beta   90.00000000
_cell_angle_gamma   90.00000000
_symmetry_Int_Tables_number   1
_chemical_formula_structural   K7MnO6
_chemical_formula_sum   'K28 Mn4 O24'
_cell_volume   1086.80793606
_cell_formula_units_Z   4
loop_
 _symmetry_equiv_pos_site_id
 _symmetry_equiv_pos_as_xyz
  1  'x, y, z'
loop_
 _atom_site_type_symbol
 _atom_site_label
 _atom_site_symmetry_multiplicity
 _atom_site_fract_x
 _atom_site_fract_y
 _atom_site_fract_z
 _atom_site_occupancy
  K  K0  1  0.034704  0.734240  0.978928  1
  K  K1  1  0.465296  0.765760  0.478928  1
  K  K2  1  0.534704  0.765760  0.021072  1
  K  K3  1  0.965296  0.734240  0.521072  1
  K  K4  1  0.965296  0.265760  0.021072  1
  K  K5  1  0.534704  0.234240  0.521072  1
  K  K6  1  0.465296  0.234240  0.978928  1
  K  K7  1  0.034704  0.265760  0.478928  1
  K  K8  1  0.236865  0.842986  0.617613  1
  K  K9  1  0.263135  0.657014  0.117613  1
  K  K10  1  0.736865  0.657014  0.382387  1
  K  K11  1  0.763135  0.842986  0.882387  1
  K  K12  1  0.763135  0.157014  0.382387  1
  K  K13  1  0.736865  0.342986  0.882387  1
  K  K14  1  0.263135  0.342986  0.617613  1
  K  K15  1  0.236865  0.157014  0.117613  1
  K  K16  1  0.288526  0.622455  0.879001  1
  K  K17  1  0.211474  0.877545  0.379001  1
  K  K18  1  0.788526  0.877545  0.120999  1
  K  K19  1  0.711474  0.622455  0.620999  1
  K  K20  1  0.711474  0.377545  0.120999  1
  K  K21  1  0.788526  0.122455  0.620999  1
  K  K22  1  0.211474  0.122455  0.879001  1
  K  K23  1  0.288526  0.377545  0.379001  1
  K  K24  1  0.000000  0.438856  0.750000  1
  K  K25  1  0.500000  0.061144  0.250000  1
  K  K26  1  0.000000  0.561144  0.250000  1
  K  K27  1  0.500000  0.938856  0.750000  1
  Mn  Mn28  1  0.000000  0.934090  0.750000  1
  Mn  Mn29  1  0.500000  0.565910  0.250000  1
  Mn  Mn30  1  0.000000  0.065910  0.250000  1
  Mn  Mn31  1  0.500000  0.434090  0.750000  1
  O  O32  1  0.110898  0.783644  0.785030  1
  O  O33  1  0.389102  0.716356  0.285030  1
  O  O34  1  0.610898  0.716356  0.214970  1
  O  O35  1  0.889102  0.783644  0.714970  1
  O  O36  1  0.889102  0.216356  0.214970  1
  O  O37  1  0.610898  0.283644  0.714970  1
  O  O38  1  0.389102  0.283644  0.785030  1
  O  O39  1  0.110898  0.216356  0.285030  1
  O  O40  1  0.163806  0.584715  0.496156  1
  O  O41  1  0.336194  0.915285  0.996156  1
  O  O42  1  0.663806  0.915285  0.503844  1
  O  O43  1  0.836194  0.584715  0.003844  1
  O  O44  1  0.836194  0.415285  0.503844  1
  O  O45  1  0.663806  0.084715  0.003844  1
  O  O46  1  0.336194  0.084715  0.496156  1
  O  O47  1  0.163806  0.415285  0.996156  1
  O  O48  1  0.456442  0.584327  0.655024  1
  O  O49  1  0.043558  0.915673  0.155024  1
  O  O50  1  0.956442  0.915673  0.344976  1
  O  O51  1  0.543558  0.584327  0.844976  1
  O  O52  1  0.543558  0.415673  0.344976  1
  O  O53  1  0.956442  0.084327  0.844976  1
  O  O54  1  0.043558  0.084327  0.655024  1
  O  O55  1  0.456442  0.415673  0.155024  1
