# generated using pymatgen
data_Er6LuVO12
_symmetry_space_group_name_H-M   'P 1'
_cell_length_a   6.57588934
_cell_length_b   6.57589016
_cell_length_c   6.57589000
_cell_angle_alpha   93.17884616
_cell_angle_beta   93.17885528
_cell_angle_gamma   93.17885333
_symmetry_Int_Tables_number   1
_chemical_formula_structural   Er6LuVO12
_chemical_formula_sum   'Er6 Lu1 V1 O12'
_cell_volume   282.99341322
_cell_formula_units_Z   1
loop_
 _symmetry_equiv_pos_site_id
 _symmetry_equiv_pos_as_xyz
  1  'x, y, z'
loop_
 _atom_site_type_symbol
 _atom_site_label
 _atom_site_symmetry_multiplicity
 _atom_site_fract_x
 _atom_site_fract_y
 _atom_site_fract_z
 _atom_site_occupancy
  Er  Er0  1  0.740614  0.924969  0.435228  1
  Er  Er1  1  0.924969  0.435228  0.740614  1
  Er  Er2  1  0.435228  0.740614  0.924969  1
  Er  Er3  1  0.259386  0.075031  0.564772  1
  Er  Er4  1  0.075031  0.564772  0.259386  1
  Er  Er5  1  0.564772  0.259386  0.075031  1
  Lu  Lu6  1  0.000000  0.000000  0.000000  1
  V  V7  1  0.500000  0.500000  0.500000  1
  O  O8  1  0.590154  0.462132  0.802486  1
  O  O9  1  0.462132  0.802486  0.590154  1
  O  O10  1  0.802486  0.590154  0.462132  1
  O  O11  1  0.409846  0.537868  0.197514  1
  O  O12  1  0.537868  0.197514  0.409846  1
  O  O13  1  0.197514  0.409846  0.537868  1
  O  O14  1  0.068720  0.910243  0.315866  1
  O  O15  1  0.910243  0.315866  0.068720  1
  O  O16  1  0.684134  0.931280  0.089757  1
  O  O17  1  0.089757  0.684134  0.931280  1
  O  O18  1  0.931280  0.089757  0.684134  1
  O  O19  1  0.315866  0.068720  0.910243  1
