# generated using pymatgen
data_Nb6Al4CuNiC2
_symmetry_space_group_name_H-M   'P 1'
_cell_length_a   8.30757476
_cell_length_b   8.29974103
_cell_length_c   8.29974138
_cell_angle_alpha   59.95913618
_cell_angle_beta   59.96877295
_cell_angle_gamma   59.96877919
_symmetry_Int_Tables_number   1
_chemical_formula_structural   Nb6Al4CuNiC2
_chemical_formula_sum   'Nb12 Al8 Cu2 Ni2 C4'
_cell_volume   404.34219106
_cell_formula_units_Z   2
loop_
 _symmetry_equiv_pos_site_id
 _symmetry_equiv_pos_as_xyz
  1  'x, y, z'
loop_
 _atom_site_type_symbol
 _atom_site_label
 _atom_site_symmetry_multiplicity
 _atom_site_fract_x
 _atom_site_fract_y
 _atom_site_fract_z
 _atom_site_occupancy
  Nb  Nb0  1  0.814686  0.814819  0.185991  1
  Nb  Nb1  1  0.184504  0.185991  0.814819  1
  Nb  Nb2  1  0.814686  0.185991  0.814819  1
  Nb  Nb3  1  0.184504  0.814819  0.185991  1
  Nb  Nb4  1  0.186076  0.813924  0.813924  1
  Nb  Nb5  1  0.815400  0.184600  0.184600  1
  Nb  Nb6  1  0.435314  0.435181  0.064009  1
  Nb  Nb7  1  0.065496  0.064009  0.435181  1
  Nb  Nb8  1  0.435314  0.064009  0.435181  1
  Nb  Nb9  1  0.065496  0.435181  0.064009  1
  Nb  Nb10  1  0.063924  0.436076  0.436076  1
  Nb  Nb11  1  0.434600  0.065400  0.065400  1
  Al  Al12  1  0.749970  0.418590  0.418590  1
  Al  Al13  1  0.415406  0.748064  0.421124  1
  Al  Al14  1  0.415406  0.421124  0.748064  1
  Al  Al15  1  0.412849  0.418590  0.418590  1
  Al  Al16  1  0.500030  0.831410  0.831410  1
  Al  Al17  1  0.834594  0.501936  0.828876  1
  Al  Al18  1  0.834594  0.828876  0.501936  1
  Al  Al19  1  0.837151  0.831410  0.831410  1
  Cu  Cu20  1  0.625000  0.125000  0.625000  1
  Cu  Cu21  1  0.625000  0.625000  0.125000  1
  Ni  Ni22  1  0.125000  0.625000  0.625000  1
  Ni  Ni23  1  0.625000  0.625000  0.625000  1
  C  C24  1  0.625000  0.125000  0.125000  1
  C  C25  1  0.125000  0.625000  0.125000  1
  C  C26  1  0.125000  0.125000  0.625000  1
  C  C27  1  0.125000  0.125000  0.125000  1
