# generated using pymatgen
data_Zr2Ta2Mn5(FeP2)3
_symmetry_space_group_name_H-M   'P 1'
_cell_length_a   3.62072700
_cell_length_b   10.53789400
_cell_length_c   12.22273000
_cell_angle_alpha   90.00000000
_cell_angle_beta   90.00000000
_cell_angle_gamma   90.00000000
_symmetry_Int_Tables_number   1
_chemical_formula_structural   Zr2Ta2Mn5(FeP2)3
_chemical_formula_sum   'Zr4 Ta4 Mn10 Fe6 P12'
_cell_volume   466.35627487
_cell_formula_units_Z   2
loop_
 _symmetry_equiv_pos_site_id
 _symmetry_equiv_pos_as_xyz
  1  'x, y, z'
loop_
 _atom_site_type_symbol
 _atom_site_label
 _atom_site_symmetry_multiplicity
 _atom_site_fract_x
 _atom_site_fract_y
 _atom_site_fract_z
 _atom_site_occupancy
  Zr  Zr0  1  0.250000  0.580085  0.711087  1
  Zr  Zr1  1  0.250000  0.919915  0.211087  1
  Zr  Zr2  1  0.750000  0.414966  0.289522  1
  Zr  Zr3  1  0.750000  0.085034  0.789522  1
  Ta  Ta4  1  0.250000  0.706017  0.986743  1
  Ta  Ta5  1  0.250000  0.793983  0.486743  1
  Ta  Ta6  1  0.750000  0.296695  0.011534  1
  Ta  Ta7  1  0.750000  0.203305  0.511534  1
  Mn  Mn8  1  0.250000  0.406283  0.492516  1
  Mn  Mn9  1  0.250000  0.093717  0.992516  1
  Mn  Mn10  1  0.750000  0.587564  0.508268  1
  Mn  Mn11  1  0.750000  0.912436  0.008268  1
  Mn  Mn12  1  0.250000  0.219181  0.174686  1
  Mn  Mn13  1  0.250000  0.280819  0.674686  1
  Mn  Mn14  1  0.750000  0.782644  0.822768  1
  Mn  Mn15  1  0.750000  0.717356  0.322768  1
  Mn  Mn16  1  0.250000  0.876721  0.701156  1
  Mn  Mn17  1  0.250000  0.623279  0.201156  1
  Fe  Fe18  1  0.750000  0.121424  0.299519  1
  Fe  Fe19  1  0.750000  0.378576  0.799519  1
  Fe  Fe20  1  0.250000  0.463410  0.932921  1
  Fe  Fe21  1  0.250000  0.036590  0.432921  1
  Fe  Fe22  1  0.750000  0.539007  0.069560  1
  Fe  Fe23  1  0.750000  0.960993  0.569560  1
  P  P24  1  0.250000  0.428175  0.116335  1
  P  P25  1  0.250000  0.071825  0.616335  1
  P  P26  1  0.750000  0.570451  0.883893  1
  P  P27  1  0.750000  0.929549  0.383893  1
  P  P28  1  0.250000  0.266310  0.861555  1
  P  P29  1  0.250000  0.233690  0.361555  1
  P  P30  1  0.750000  0.741446  0.134816  1
  P  P31  1  0.750000  0.758554  0.634816  1
  P  P32  1  0.250000  0.582650  0.383643  1
  P  P33  1  0.250000  0.917350  0.883643  1
  P  P34  1  0.750000  0.412435  0.619479  1
  P  P35  1  0.750000  0.087565  0.119479  1
