# generated using pymatgen
data_Y2Co12SiP6
_symmetry_space_group_name_H-M   'P 1'
_cell_length_a   9.03647700
_cell_length_b   9.03647669
_cell_length_c   3.58429800
_cell_angle_alpha   90.00000000
_cell_angle_beta   90.00000000
_cell_angle_gamma   120.00000478
_symmetry_Int_Tables_number   1
_chemical_formula_structural   Y2Co12SiP6
_chemical_formula_sum   'Y2 Co12 Si1 P6'
_cell_volume   253.47375643
_cell_formula_units_Z   1
loop_
 _symmetry_equiv_pos_site_id
 _symmetry_equiv_pos_as_xyz
  1  'x, y, z'
loop_
 _atom_site_type_symbol
 _atom_site_label
 _atom_site_symmetry_multiplicity
 _atom_site_fract_x
 _atom_site_fract_y
 _atom_site_fract_z
 _atom_site_occupancy
  Y  Y0  1  0.000000  0.000000  0.000000  1
  Y  Y1  1  0.333333  0.666667  0.500000  1
  Co  Co2  1  0.100931  0.393038  0.000000  1
  Co  Co3  1  0.606962  0.707892  0.000000  1
  Co  Co4  1  0.292108  0.899069  0.000000  1
  Co  Co5  1  0.051269  0.768880  0.500000  1
  Co  Co6  1  0.231120  0.282389  0.500000  1
  Co  Co7  1  0.717611  0.948731  0.500000  1
  Co  Co8  1  0.824159  0.613609  0.000000  1
  Co  Co9  1  0.386391  0.210550  0.000000  1
  Co  Co10  1  0.789450  0.175841  0.000000  1
  Co  Co11  1  0.900639  0.436221  0.500000  1
  Co  Co12  1  0.563779  0.464419  0.500000  1
  Co  Co13  1  0.535581  0.099361  0.500000  1
  Si  Si14  1  0.666667  0.333333  0.000000  1
  P  P15  1  0.777355  0.734930  0.500000  1
  P  P16  1  0.265070  0.042425  0.500000  1
  P  P17  1  0.957575  0.222645  0.500000  1
  P  P18  1  0.071648  0.626302  0.000000  1
  P  P19  1  0.373698  0.445345  0.000000  1
  P  P20  1  0.554655  0.928352  0.000000  1
