# generated using pymatgen
data_Dy3Ho3Al24Ir5Ru3
_symmetry_space_group_name_H-M   'P 1'
_cell_length_a   8.80964182
_cell_length_b   8.76366972
_cell_length_c   9.55027701
_cell_angle_alpha   89.99999879
_cell_angle_beta   90.10371371
_cell_angle_gamma   119.82752461
_symmetry_Int_Tables_number   1
_chemical_formula_structural   Dy3Ho3Al24Ir5Ru3
_chemical_formula_sum   'Dy3 Ho3 Al24 Ir5 Ru3'
_cell_volume   639.64952427
_cell_formula_units_Z   1
loop_
 _symmetry_equiv_pos_site_id
 _symmetry_equiv_pos_as_xyz
  1  'x, y, z'
loop_
 _atom_site_type_symbol
 _atom_site_label
 _atom_site_symmetry_multiplicity
 _atom_site_fract_x
 _atom_site_fract_y
 _atom_site_fract_z
 _atom_site_occupancy
  Dy  Dy0  1  0.809393  0.194041  0.749848  1
  Dy  Dy1  1  0.809393  0.615352  0.749848  1
  Dy  Dy2  1  0.385146  0.192574  0.750263  1
  Ho  Ho3  1  0.191124  0.805287  0.250081  1
  Ho  Ho4  1  0.191124  0.385837  0.250081  1
  Ho  Ho5  1  0.613792  0.806896  0.249693  1
  Al  Al6  1  0.561398  0.436773  0.250215  1
  Al  Al7  1  0.561398  0.124626  0.250215  1
  Al  Al8  1  0.875489  0.437744  0.248744  1
  Al  Al9  1  0.438442  0.563319  0.749835  1
  Al  Al10  1  0.438442  0.875123  0.749835  1
  Al  Al11  1  0.124712  0.562356  0.751278  1
  Al  Al12  1  0.325491  0.162746  0.422892  1
  Al  Al13  1  0.835599  0.162415  0.422668  1
  Al  Al14  1  0.835599  0.673183  0.422668  1
  Al  Al15  1  0.674145  0.837073  0.576239  1
  Al  Al16  1  0.164570  0.837373  0.576406  1
  Al  Al17  1  0.164570  0.327198  0.576406  1
  Al  Al18  1  0.673401  0.836700  0.924581  1
  Al  Al19  1  0.162701  0.835343  0.923796  1
  Al  Al20  1  0.162701  0.327358  0.923796  1
  Al  Al21  1  0.326256  0.163128  0.076361  1
  Al  Al22  1  0.837479  0.164471  0.077142  1
  Al  Al23  1  0.837479  0.673008  0.077142  1
  Al  Al24  1  0.667127  0.333562  0.528831  1
  Al  Al25  1  0.332929  0.666465  0.470179  1
  Al  Al26  1  0.330598  0.665299  0.029176  1
  Al  Al27  1  0.669376  0.334687  0.971762  1
  Al  Al28  1  0.998237  0.999118  0.250017  1
  Al  Al29  1  0.001822  0.000912  0.749982  1
  Ir  Ir30  1  0.499880  0.500097  0.499549  1
  Ir  Ir31  1  0.499880  0.999783  0.499549  1
  Ir  Ir32  1  0.000329  0.500164  0.499440  1
  Ir  Ir33  1  0.499932  0.500156  0.000580  1
  Ir  Ir34  1  0.499932  0.999776  0.000580  1
  Ru  Ru35  1  0.999993  0.999997  0.500032  1
  Ru  Ru36  1  0.000042  0.000021  0.999969  1
  Ru  Ru37  1  0.000076  0.500038  0.000324  1
