# generated using pymatgen
data_Tb3YAl12Pd
_symmetry_space_group_name_H-M   'P 1'
_cell_length_a   7.50690456
_cell_length_b   7.50690441
_cell_length_c   7.51005500
_cell_angle_alpha   109.47972533
_cell_angle_beta   109.47972492
_cell_angle_gamma   109.46271542
_symmetry_Int_Tables_number   1
_chemical_formula_structural   Tb3YAl12Pd
_chemical_formula_sum   'Tb3 Y1 Al12 Pd1'
_cell_volume   325.75974046
_cell_formula_units_Z   1
loop_
 _symmetry_equiv_pos_site_id
 _symmetry_equiv_pos_as_xyz
  1  'x, y, z'
loop_
 _atom_site_type_symbol
 _atom_site_label
 _atom_site_symmetry_multiplicity
 _atom_site_fract_x
 _atom_site_fract_y
 _atom_site_fract_z
 _atom_site_occupancy
  Tb  Tb0  1  0.000000  0.500000  0.000000  1
  Tb  Tb1  1  0.500000  0.000000  0.000000  1
  Tb  Tb2  1  0.500000  0.500000  0.500000  1
  Y  Y3  1  0.000000  0.000000  0.500000  1
  Al  Al4  1  0.750036  0.249964  0.500000  1
  Al  Al5  1  0.750036  0.500072  0.250036  1
  Al  Al6  1  0.499928  0.249964  0.749964  1
  Al  Al7  1  0.249964  0.499928  0.749964  1
  Al  Al8  1  0.249964  0.750036  0.500000  1
  Al  Al9  1  0.500072  0.750036  0.250036  1
  Al  Al10  1  0.705914  0.705914  0.000025  1
  Al  Al11  1  0.294086  0.000000  0.294111  1
  Al  Al12  1  0.000000  0.294086  0.294111  1
  Al  Al13  1  0.294086  0.294086  0.999975  1
  Al  Al14  1  0.705914  0.000000  0.705889  1
  Al  Al15  1  0.000000  0.705914  0.705889  1
  Pd  Pd16  1  0.000000  0.000000  0.000000  1
