# generated using pymatgen
data_MgNb6CrSe12
_symmetry_space_group_name_H-M   'P 1'
_cell_length_a   6.07002000
_cell_length_b   6.07002128
_cell_length_c   13.26923700
_cell_angle_alpha   90.00000000
_cell_angle_beta   90.00000000
_cell_angle_gamma   119.99999302
_symmetry_Int_Tables_number   1
_chemical_formula_structural   MgNb6CrSe12
_chemical_formula_sum   'Mg1 Nb6 Cr1 Se12'
_cell_volume   423.40594239
_cell_formula_units_Z   1
loop_
 _symmetry_equiv_pos_site_id
 _symmetry_equiv_pos_as_xyz
  1  'x, y, z'
loop_
 _atom_site_type_symbol
 _atom_site_label
 _atom_site_symmetry_multiplicity
 _atom_site_fract_x
 _atom_site_fract_y
 _atom_site_fract_z
 _atom_site_occupancy
  Mg  Mg0  1  0.333333  0.666667  0.250000  1
  Nb  Nb1  1  0.000000  0.000000  0.510819  1
  Nb  Nb2  1  0.000000  0.000000  0.989181  1
  Nb  Nb3  1  0.333333  0.666667  0.988619  1
  Nb  Nb4  1  0.666667  0.333333  0.989637  1
  Nb  Nb5  1  0.666667  0.333333  0.510363  1
  Nb  Nb6  1  0.333333  0.666667  0.511381  1
  Cr  Cr7  1  0.666667  0.333333  0.750000  1
  Se  Se8  1  0.332516  0.329498  0.383501  1
  Se  Se9  1  0.670502  0.003019  0.383501  1
  Se  Se10  1  0.996981  0.667484  0.383501  1
  Se  Se11  1  0.330538  0.333075  0.636492  1
  Se  Se12  1  0.002537  0.669462  0.636492  1
  Se  Se13  1  0.666925  0.997463  0.636492  1
  Se  Se14  1  0.666925  0.669462  0.863508  1
  Se  Se15  1  0.330538  0.997463  0.863508  1
  Se  Se16  1  0.002537  0.333075  0.863508  1
  Se  Se17  1  0.670502  0.667484  0.116499  1
  Se  Se18  1  0.996981  0.329498  0.116499  1
  Se  Se19  1  0.332516  0.003019  0.116499  1
