# generated using pymatgen
data_Tb3Er(Ga8Pd3)3
_symmetry_space_group_name_H-M   'P 1'
_cell_length_a   7.51831588
_cell_length_b   7.58746740
_cell_length_c   13.46950154
_cell_angle_alpha   84.84579668
_cell_angle_beta   79.74578813
_cell_angle_gamma   60.26879170
_symmetry_Int_Tables_number   1
_chemical_formula_structural   Tb3Er(Ga8Pd3)3
_chemical_formula_sum   'Tb3 Er1 Ga24 Pd9'
_cell_volume   656.56249043
_cell_formula_units_Z   1
loop_
 _symmetry_equiv_pos_site_id
 _symmetry_equiv_pos_as_xyz
  1  'x, y, z'
loop_
 _atom_site_type_symbol
 _atom_site_label
 _atom_site_symmetry_multiplicity
 _atom_site_fract_x
 _atom_site_fract_y
 _atom_site_fract_z
 _atom_site_occupancy
  Tb  Tb0  1  0.393958  0.168688  0.811230  1
  Tb  Tb1  1  0.605999  0.831355  0.188904  1
  Tb  Tb2  1  0.732160  0.496956  0.811423  1
  Er  Er3  1  0.267432  0.502998  0.189122  1
  Ga  Ga4  1  0.687064  0.833631  0.940056  1
  Ga  Ga5  1  0.313004  0.167386  0.060681  1
  Ga  Ga6  1  0.145078  0.834739  0.557808  1
  Ga  Ga7  1  0.854963  0.165311  0.441760  1
  Ga  Ga8  1  0.478409  0.167160  0.555904  1
  Ga  Ga9  1  0.521659  0.832854  0.443850  1
  Ga  Ga10  1  0.218957  0.165314  0.325691  1
  Ga  Ga11  1  0.781261  0.834939  0.673611  1
  Ga  Ga12  1  0.436889  0.504667  0.673032  1
  Ga  Ga13  1  0.562947  0.495260  0.326214  1
  Ga  Ga14  1  0.108214  0.161629  0.672202  1
  Ga  Ga15  1  0.892384  0.838002  0.327168  1
  Ga  Ga16  1  0.355290  0.499450  0.941414  1
  Ga  Ga17  1  0.642891  0.500719  0.059995  1
  Ga  Ga18  1  0.018637  0.167477  0.946657  1
  Ga  Ga19  1  0.981927  0.831563  0.054334  1
  Ga  Ga20  1  0.187065  0.499772  0.443130  1
  Ga  Ga21  1  0.813200  0.500134  0.556508  1
  Ga  Ga22  1  0.733369  0.164573  0.182631  1
  Ga  Ga23  1  0.265795  0.836423  0.817469  1
  Ga  Ga24  1  0.060884  0.630302  0.816674  1
  Ga  Ga25  1  0.940291  0.369394  0.183367  1
  Ga  Ga26  1  0.856296  0.040718  0.816708  1
  Ga  Ga27  1  0.143546  0.958332  0.183283  1
  Pd  Pd28  1  0.116807  0.496402  0.638604  1
  Pd  Pd29  1  0.883592  0.503679  0.360860  1
  Pd  Pd30  1  0.659865  0.169335  0.999456  1
  Pd  Pd31  1  0.340447  0.830791  0.000926  1
  Pd  Pd32  1  0.541817  0.167271  0.360318  1
  Pd  Pd33  1  0.458163  0.832877  0.639224  1
  Pd  Pd34  1  0.778721  0.172220  0.637783  1
  Pd  Pd35  1  0.221620  0.827492  0.361705  1
  Pd  Pd36  1  0.999401  0.500188  0.000299  1
