# generated using pymatgen
data_ScU3(SnRu2)2
_symmetry_space_group_name_H-M   'P 1'
_cell_length_a   7.53181071
_cell_length_b   7.53181071
_cell_length_c   3.49462300
_cell_angle_alpha   90.00000000
_cell_angle_beta   90.00000000
_cell_angle_gamma   86.80154482
_symmetry_Int_Tables_number   1
_chemical_formula_structural   ScU3(SnRu2)2
_chemical_formula_sum   'Sc1 U3 Sn2 Ru4'
_cell_volume   197.93476618
_cell_formula_units_Z   1
loop_
 _symmetry_equiv_pos_site_id
 _symmetry_equiv_pos_as_xyz
  1  'x, y, z'
loop_
 _atom_site_type_symbol
 _atom_site_label
 _atom_site_symmetry_multiplicity
 _atom_site_fract_x
 _atom_site_fract_y
 _atom_site_fract_z
 _atom_site_occupancy
  Sc  Sc0  1  0.330519  0.830519  0.500000  1
  U  U1  1  0.833682  0.672353  0.500000  1
  U  U2  1  0.172353  0.333682  0.500000  1
  U  U3  1  0.666700  0.166700  0.500000  1
  Sn  Sn4  1  0.016511  0.995825  0.000000  1
  Sn  Sn5  1  0.495825  0.516511  0.000000  1
  Ru  Ru6  1  0.368469  0.151997  0.000000  1
  Ru  Ru7  1  0.852125  0.352125  0.000000  1
  Ru  Ru8  1  0.111821  0.611821  0.000000  1
  Ru  Ru9  1  0.651997  0.868469  0.000000  1
