# generated using pymatgen
data_Hf10Ga6S
_symmetry_space_group_name_H-M   'P 1'
_cell_length_a   8.08666300
_cell_length_b   8.08666411
_cell_length_c   5.74216500
_cell_angle_alpha   90.00000000
_cell_angle_beta   90.00000000
_cell_angle_gamma   120.00000775
_symmetry_Int_Tables_number   1
_chemical_formula_structural   Hf10Ga6S
_chemical_formula_sum   'Hf10 Ga6 S1'
_cell_volume   325.19586493
_cell_formula_units_Z   1
loop_
 _symmetry_equiv_pos_site_id
 _symmetry_equiv_pos_as_xyz
  1  'x, y, z'
loop_
 _atom_site_type_symbol
 _atom_site_label
 _atom_site_symmetry_multiplicity
 _atom_site_fract_x
 _atom_site_fract_y
 _atom_site_fract_z
 _atom_site_occupancy
  Hf  Hf0  1  0.000000  0.747969  0.238537  1
  Hf  Hf1  1  0.252031  0.252031  0.238537  1
  Hf  Hf2  1  0.747969  0.000000  0.238537  1
  Hf  Hf3  1  0.000000  0.252031  0.761463  1
  Hf  Hf4  1  0.747969  0.747969  0.761463  1
  Hf  Hf5  1  0.252031  0.000000  0.761463  1
  Hf  Hf6  1  0.333333  0.666667  0.500000  1
  Hf  Hf7  1  0.666667  0.333333  0.500000  1
  Hf  Hf8  1  0.666667  0.333333  0.000000  1
  Hf  Hf9  1  0.333333  0.666667  0.000000  1
  Ga  Ga10  1  0.000000  0.393125  0.248669  1
  Ga  Ga11  1  0.606875  0.606875  0.248669  1
  Ga  Ga12  1  0.393125  0.000000  0.248669  1
  Ga  Ga13  1  0.000000  0.606875  0.751331  1
  Ga  Ga14  1  0.393125  0.393125  0.751331  1
  Ga  Ga15  1  0.606875  0.000000  0.751331  1
  S  S16  1  0.000000  0.000000  0.500000  1
