# generated using pymatgen
data_Mn11Nb12OsN4
_symmetry_space_group_name_H-M   'P 1'
_cell_length_a   8.12417323
_cell_length_b   8.12349278
_cell_length_c   8.12337208
_cell_angle_alpha   59.50276879
_cell_angle_beta   59.50432350
_cell_angle_gamma   59.49779435
_symmetry_Int_Tables_number   1
_chemical_formula_structural   Mn11Nb12OsN4
_chemical_formula_sum   'Mn11 Nb12 Os1 N4'
_cell_volume   374.79417944
_cell_formula_units_Z   1
loop_
 _symmetry_equiv_pos_site_id
 _symmetry_equiv_pos_as_xyz
  1  'x, y, z'
loop_
 _atom_site_type_symbol
 _atom_site_label
 _atom_site_symmetry_multiplicity
 _atom_site_fract_x
 _atom_site_fract_y
 _atom_site_fract_z
 _atom_site_occupancy
  Mn  Mn0  1  0.125000  0.625000  0.625000  1
  Mn  Mn1  1  0.625000  0.125000  0.625000  1
  Mn  Mn2  1  0.625000  0.625000  0.125000  1
  Mn  Mn3  1  0.730484  0.419027  0.418944  1
  Mn  Mn4  1  0.419080  0.730481  0.418923  1
  Mn  Mn5  1  0.419069  0.418992  0.730440  1
  Mn  Mn6  1  0.422491  0.422418  0.422342  1
  Mn  Mn7  1  0.519516  0.830973  0.831056  1
  Mn  Mn8  1  0.830920  0.519519  0.831077  1
  Mn  Mn9  1  0.830931  0.831008  0.519560  1
  Mn  Mn10  1  0.827509  0.827582  0.827658  1
  Nb  Nb11  1  0.805791  0.805768  0.194010  1
  Nb  Nb12  1  0.194980  0.194925  0.804881  1
  Nb  Nb13  1  0.805844  0.194013  0.805761  1
  Nb  Nb14  1  0.195048  0.804873  0.194900  1
  Nb  Nb15  1  0.194019  0.805850  0.805790  1
  Nb  Nb16  1  0.804858  0.195046  0.194950  1
  Nb  Nb17  1  0.444209  0.444232  0.055990  1
  Nb  Nb18  1  0.055020  0.055075  0.445119  1
  Nb  Nb19  1  0.444156  0.055987  0.444239  1
  Nb  Nb20  1  0.054952  0.445127  0.055100  1
  Nb  Nb21  1  0.055981  0.444150  0.444210  1
  Nb  Nb22  1  0.445142  0.054954  0.055050  1
  Os  Os23  1  0.625000  0.625000  0.625000  1
  N  N24  1  0.625000  0.125000  0.125000  1
  N  N25  1  0.125000  0.625000  0.125000  1
  N  N26  1  0.125000  0.125000  0.625000  1
  N  N27  1  0.125000  0.125000  0.125000  1
