# generated using pymatgen
data_Tb5Ho3(ErRu2)2
_symmetry_space_group_name_H-M   'P 1'
_cell_length_a   6.35394020
_cell_length_b   7.27481821
_cell_length_c   8.47876325
_cell_angle_alpha   96.72253576
_cell_angle_beta   112.04568695
_cell_angle_gamma   89.89868527
_symmetry_Int_Tables_number   1
_chemical_formula_structural   Tb5Ho3(ErRu2)2
_chemical_formula_sum   'Tb5 Ho3 Er2 Ru4'
_cell_volume   360.38867105
_cell_formula_units_Z   1
loop_
 _symmetry_equiv_pos_site_id
 _symmetry_equiv_pos_as_xyz
  1  'x, y, z'
loop_
 _atom_site_type_symbol
 _atom_site_label
 _atom_site_symmetry_multiplicity
 _atom_site_fract_x
 _atom_site_fract_y
 _atom_site_fract_z
 _atom_site_occupancy
  Tb  Tb0  1  0.791546  0.583915  0.813419  1
  Tb  Tb1  1  0.977422  0.916019  0.186500  1
  Tb  Tb2  1  0.208889  0.415777  0.186544  1
  Tb  Tb3  1  0.022229  0.084315  0.813530  1
  Tb  Tb4  1  0.206355  0.685313  0.566120  1
  Ho  Ho5  1  0.640261  0.815279  0.433802  1
  Ho  Ho6  1  0.793467  0.314790  0.433609  1
  Ho  Ho7  1  0.359928  0.184795  0.566022  1
  Er  Er8  1  0.420997  0.749887  0.000247  1
  Er  Er9  1  0.579192  0.250177  0.000089  1
  Ru  Ru10  1  0.602934  0.924923  0.779914  1
  Ru  Ru11  1  0.822012  0.575828  0.219710  1
  Ru  Ru12  1  0.397596  0.075365  0.220402  1
  Ru  Ru13  1  0.177174  0.423618  0.780091  1
