# generated using pymatgen
data_Zr12Al4RuRh7N4
_symmetry_space_group_name_H-M   'P 1'
_cell_length_a   8.57666825
_cell_length_b   8.56909796
_cell_length_c   8.56909800
_cell_angle_alpha   59.99999985
_cell_angle_beta   60.02919374
_cell_angle_gamma   60.02919125
_symmetry_Int_Tables_number   1
_chemical_formula_structural   Zr12Al4RuRh7N4
_chemical_formula_sum   'Zr12 Al4 Ru1 Rh7 N4'
_cell_volume   445.51806622
_cell_formula_units_Z   1
loop_
 _symmetry_equiv_pos_site_id
 _symmetry_equiv_pos_as_xyz
  1  'x, y, z'
loop_
 _atom_site_type_symbol
 _atom_site_label
 _atom_site_symmetry_multiplicity
 _atom_site_fract_x
 _atom_site_fract_y
 _atom_site_fract_z
 _atom_site_occupancy
  Zr  Zr0  1  0.810813  0.809128  0.190030  1
  Zr  Zr1  1  0.190330  0.190466  0.809602  1
  Zr  Zr2  1  0.810813  0.190030  0.809128  1
  Zr  Zr3  1  0.190330  0.809602  0.190466  1
  Zr  Zr4  1  0.190330  0.809602  0.809602  1
  Zr  Zr5  1  0.810813  0.190030  0.190030  1
  Zr  Zr6  1  0.439614  0.439459  0.060464  1
  Zr  Zr7  1  0.056519  0.063475  0.440003  1
  Zr  Zr8  1  0.439614  0.060464  0.439459  1
  Zr  Zr9  1  0.056519  0.440003  0.063475  1
  Zr  Zr10  1  0.056519  0.440003  0.440003  1
  Zr  Zr11  1  0.439614  0.060464  0.060464  1
  Al  Al12  1  0.125626  0.624791  0.624791  1
  Al  Al13  1  0.626123  0.123719  0.625079  1
  Al  Al14  1  0.626123  0.625079  0.123719  1
  Al  Al15  1  0.626123  0.625079  0.625079  1
  Ru  Ru16  1  0.749650  0.416783  0.416783  1
  Rh  Rh17  1  0.416802  0.751985  0.415606  1
  Rh  Rh18  1  0.416802  0.415606  0.751985  1
  Rh  Rh19  1  0.416802  0.415606  0.415606  1
  Rh  Rh20  1  0.497212  0.834263  0.834263  1
  Rh  Rh21  1  0.834832  0.497392  0.833889  1
  Rh  Rh22  1  0.834832  0.833889  0.497392  1
  Rh  Rh23  1  0.834832  0.833889  0.833889  1
  N  N24  1  0.624299  0.125234  0.125234  1
  N  N25  1  0.126040  0.624961  0.124500  1
  N  N26  1  0.126040  0.124500  0.624961  1
  N  N27  1  0.126040  0.124500  0.124500  1
