# generated using pymatgen
data_Nd7Th(SiI6)2
_symmetry_space_group_name_H-M   'P 1'
_cell_length_a   4.35334000
_cell_length_b   14.41848651
_cell_length_c   15.24426175
_cell_angle_alpha   89.90943369
_cell_angle_beta   90.00000000
_cell_angle_gamma   90.00000000
_symmetry_Int_Tables_number   1
_chemical_formula_structural   Nd7Th(SiI6)2
_chemical_formula_sum   'Nd7 Th1 Si2 I12'
_cell_volume   956.85937756
_cell_formula_units_Z   1
loop_
 _symmetry_equiv_pos_site_id
 _symmetry_equiv_pos_as_xyz
  1  'x, y, z'
loop_
 _atom_site_type_symbol
 _atom_site_label
 _atom_site_symmetry_multiplicity
 _atom_site_fract_x
 _atom_site_fract_y
 _atom_site_fract_z
 _atom_site_occupancy
  Nd  Nd0  1  0.500000  0.114086  0.347502  1
  Nd  Nd1  1  0.500000  0.886023  0.652669  1
  Nd  Nd2  1  0.500000  0.615430  0.154270  1
  Nd  Nd3  1  0.500000  0.385978  0.847374  1
  Nd  Nd4  1  0.000000  0.889068  0.425734  1
  Nd  Nd5  1  0.000000  0.613538  0.924149  1
  Nd  Nd6  1  0.000000  0.386583  0.075970  1
  Th  Th7  1  0.000000  0.109002  0.572685  1
  Si  Si8  1  0.500000  0.001084  0.500799  1
  Si  Si9  1  0.500000  0.500331  0.000451  1
  I  I10  1  0.500000  0.244408  0.162414  1
  I  I11  1  0.500000  0.755955  0.837864  1
  I  I12  1  0.500000  0.744348  0.338130  1
  I  I13  1  0.500000  0.253941  0.660173  1
  I  I14  1  0.000000  0.259009  0.414632  1
  I  I15  1  0.000000  0.741222  0.585718  1
  I  I16  1  0.000000  0.758625  0.085577  1
  I  I17  1  0.000000  0.241404  0.914098  1
  I  I18  1  0.000000  0.998704  0.240265  1
  I  I19  1  0.000000  0.001739  0.759650  1
  I  I20  1  0.000000  0.498565  0.259545  1
  I  I21  1  0.000000  0.500958  0.740330  1
