# generated using pymatgen
data_Sr2Al9IrPd2
_symmetry_space_group_name_H-M   'P 1'
_cell_length_a   7.71224464
_cell_length_b   7.71224490
_cell_length_c   9.80445273
_cell_angle_alpha   89.97132635
_cell_angle_beta   89.97135923
_cell_angle_gamma   119.29529775
_symmetry_Int_Tables_number   1
_chemical_formula_structural   Sr2Al9IrPd2
_chemical_formula_sum   'Sr4 Al18 Ir2 Pd4'
_cell_volume   508.57585406
_cell_formula_units_Z   2
loop_
 _symmetry_equiv_pos_site_id
 _symmetry_equiv_pos_as_xyz
  1  'x, y, z'
loop_
 _atom_site_type_symbol
 _atom_site_label
 _atom_site_symmetry_multiplicity
 _atom_site_fract_x
 _atom_site_fract_y
 _atom_site_fract_z
 _atom_site_occupancy
  Sr  Sr0  1  0.996058  0.671456  0.250323  1
  Sr  Sr1  1  0.003942  0.328544  0.749677  1
  Sr  Sr2  1  0.671456  0.996058  0.250323  1
  Sr  Sr3  1  0.328544  0.003942  0.749677  1
  Al  Al4  1  0.137140  0.137140  0.251308  1
  Al  Al5  1  0.862860  0.862860  0.748692  1
  Al  Al6  1  0.007276  0.335418  0.073237  1
  Al  Al7  1  0.992724  0.664582  0.926763  1
  Al  Al8  1  0.997803  0.660390  0.569359  1
  Al  Al9  1  0.339610  0.002197  0.430641  1
  Al  Al10  1  0.002197  0.339610  0.430641  1
  Al  Al11  1  0.660390  0.997803  0.569359  1
  Al  Al12  1  0.664583  0.992724  0.926763  1
  Al  Al13  1  0.335417  0.007276  0.073237  1
  Al  Al14  1  0.336912  0.336912  0.541189  1
  Al  Al15  1  0.663088  0.663088  0.458811  1
  Al  Al16  1  0.662042  0.662042  0.050677  1
  Al  Al17  1  0.337958  0.337958  0.949323  1
  Al  Al18  1  0.338267  0.542518  0.254523  1
  Al  Al19  1  0.661733  0.457482  0.745477  1
  Al  Al20  1  0.542518  0.338267  0.254523  1
  Al  Al21  1  0.457482  0.661733  0.745477  1
  Ir  Ir22  1  0.330125  0.669875  0.500000  1
  Ir  Ir23  1  0.669875  0.330125  0.500000  1
  Pd  Pd24  1  0.670588  0.329412  0.000000  1
  Pd  Pd25  1  0.329412  0.670588  0.000000  1
  Pd  Pd26  1  0.000000  0.000000  0.000000  1
  Pd  Pd27  1  0.000000  0.000000  0.500000  1
