# generated using pymatgen
data_Ho6Al24GaOs7
_symmetry_space_group_name_H-M   'P 1'
_cell_length_a   8.85909669
_cell_length_b   8.85909696
_cell_length_c   9.54906746
_cell_angle_alpha   90.07109618
_cell_angle_beta   89.92890062
_cell_angle_gamma   119.81144972
_symmetry_Int_Tables_number   1
_chemical_formula_structural   Ho6Al24GaOs7
_chemical_formula_sum   'Ho6 Al24 Ga1 Os7'
_cell_volume   650.26750649
_cell_formula_units_Z   1
loop_
 _symmetry_equiv_pos_site_id
 _symmetry_equiv_pos_as_xyz
  1  'x, y, z'
loop_
 _atom_site_type_symbol
 _atom_site_label
 _atom_site_symmetry_multiplicity
 _atom_site_fract_x
 _atom_site_fract_y
 _atom_site_fract_z
 _atom_site_occupancy
  Ho  Ho0  1  0.191133  0.386020  0.246647  1
  Ho  Ho1  1  0.808867  0.613980  0.753353  1
  Ho  Ho2  1  0.613980  0.808867  0.246647  1
  Ho  Ho3  1  0.386020  0.191133  0.753353  1
  Ho  Ho4  1  0.194825  0.805175  0.254772  1
  Ho  Ho5  1  0.805175  0.194825  0.745228  1
  Al  Al6  1  0.327513  0.672487  0.021732  1
  Al  Al7  1  0.672487  0.327513  0.978268  1
  Al  Al8  1  0.666143  0.333857  0.518183  1
  Al  Al9  1  0.333857  0.666143  0.481817  1
  Al  Al10  1  0.162479  0.325278  0.572664  1
  Al  Al11  1  0.837521  0.674722  0.427336  1
  Al  Al12  1  0.674722  0.837521  0.572664  1
  Al  Al13  1  0.852344  0.678864  0.081722  1
  Al  Al14  1  0.325278  0.162479  0.427336  1
  Al  Al15  1  0.147656  0.321136  0.918278  1
  Al  Al16  1  0.163075  0.836925  0.575806  1
  Al  Al17  1  0.321136  0.147656  0.081722  1
  Al  Al18  1  0.836925  0.163075  0.424194  1
  Al  Al19  1  0.678864  0.852344  0.918278  1
  Al  Al20  1  0.836899  0.163101  0.077750  1
  Al  Al21  1  0.163101  0.836899  0.922250  1
  Al  Al22  1  0.561806  0.121420  0.249507  1
  Al  Al23  1  0.438194  0.878580  0.750493  1
  Al  Al24  1  0.878580  0.438194  0.249507  1
  Al  Al25  1  0.121420  0.561806  0.750493  1
  Al  Al26  1  0.565194  0.434806  0.257690  1
  Al  Al27  1  0.434806  0.565194  0.742310  1
  Al  Al28  1  0.998743  0.001257  0.250729  1
  Al  Al29  1  0.001257  0.998743  0.749271  1
  Ga  Ga30  1  0.500000  0.500000  0.000000  1
  Os  Os31  1  0.500000  0.000000  0.000000  1
  Os  Os32  1  0.000000  0.500000  0.000000  1
  Os  Os33  1  0.500000  0.000000  0.500000  1
  Os  Os34  1  0.000000  0.500000  0.500000  1
  Os  Os35  1  0.500000  0.500000  0.500000  1
  Os  Os36  1  0.000000  0.000000  0.000000  1
  Os  Os37  1  0.000000  0.000000  0.500000  1
