# generated using pymatgen
data_La16Cd4TcNi3
_symmetry_space_group_name_H-M   'P 1'
_cell_length_a   10.12527865
_cell_length_b   10.12491449
_cell_length_c   10.12811081
_cell_angle_alpha   59.34306494
_cell_angle_beta   59.33740494
_cell_angle_gamma   59.32224240
_symmetry_Int_Tables_number   1
_chemical_formula_structural   La16Cd4TcNi3
_chemical_formula_sum   'La16 Cd4 Tc1 Ni3'
_cell_volume   723.06783875
_cell_formula_units_Z   1
loop_
 _symmetry_equiv_pos_site_id
 _symmetry_equiv_pos_as_xyz
  1  'x, y, z'
loop_
 _atom_site_type_symbol
 _atom_site_label
 _atom_site_symmetry_multiplicity
 _atom_site_fract_x
 _atom_site_fract_y
 _atom_site_fract_z
 _atom_site_occupancy
  La  La0  1  0.597472  0.597471  0.597439  1
  La  La1  1  0.596373  0.596339  0.212273  1
  La  La2  1  0.596520  0.212017  0.596336  1
  La  La3  1  0.211951  0.596486  0.596359  1
  La  La4  1  0.062774  0.438975  0.438936  1
  La  La5  1  0.441893  0.058426  0.058280  1
  La  La6  1  0.438973  0.062816  0.438849  1
  La  La7  1  0.058464  0.441847  0.058292  1
  La  La8  1  0.438921  0.438888  0.062698  1
  La  La9  1  0.058514  0.058396  0.441778  1
  La  La10  1  0.186457  0.811538  0.811576  1
  La  La11  1  0.805095  0.189401  0.189503  1
  La  La12  1  0.811571  0.186357  0.811632  1
  La  La13  1  0.189410  0.805142  0.189466  1
  La  La14  1  0.811614  0.811645  0.186361  1
  La  La15  1  0.189395  0.189411  0.805256  1
  Cd  Cd16  1  0.828979  0.828983  0.829083  1
  Cd  Cd17  1  0.829085  0.829090  0.512985  1
  Cd  Cd18  1  0.829036  0.512998  0.829189  1
  Cd  Cd19  1  0.513044  0.829029  0.829171  1
  Tc  Tc20  1  0.391315  0.391235  0.391226  1
  Ni  Ni21  1  0.392367  0.392656  0.828339  1
  Ni  Ni22  1  0.392410  0.828319  0.392547  1
  Ni  Ni23  1  0.828369  0.392537  0.392430  1
