# generated using pymatgen
data_Na2Cu2F7
_symmetry_space_group_name_H-M   'P 1'
_cell_length_a   7.30649283
_cell_length_b   7.30649310
_cell_length_c   7.30649260
_cell_angle_alpha   118.66553271
_cell_angle_beta   119.88644260
_cell_angle_gamma   91.26184753
_symmetry_Int_Tables_number   1
_chemical_formula_structural   Na2Cu2F7
_chemical_formula_sum   'Na4 Cu4 F14'
_cell_volume   278.71785135
_cell_formula_units_Z   2
loop_
 _symmetry_equiv_pos_site_id
 _symmetry_equiv_pos_as_xyz
  1  'x, y, z'
loop_
 _atom_site_type_symbol
 _atom_site_label
 _atom_site_symmetry_multiplicity
 _atom_site_fract_x
 _atom_site_fract_y
 _atom_site_fract_z
 _atom_site_occupancy
  Na  Na0  1  0.111602  0.248470  0.863132  1
  Na  Na1  1  0.614663  0.751530  0.863132  1
  Na  Na2  1  0.611494  0.250411  0.861906  1
  Na  Na3  1  0.611494  0.749589  0.361083  1
  Cu  Cu4  1  0.612520  0.250207  0.362312  1
  Cu  Cu5  1  0.112105  0.749793  0.362312  1
  Cu  Cu6  1  0.111811  0.250298  0.362109  1
  Cu  Cu7  1  0.111811  0.749702  0.861512  1
  F  F8  1  0.480213  0.344384  0.135828  1
  F  F9  1  0.791444  0.655616  0.135828  1
  F  F10  1  0.799233  0.573760  0.635156  1
  F  F11  1  0.061396  0.426240  0.225472  1
  F  F12  1  0.061396  0.835923  0.635156  1
  F  F13  1  0.799233  0.164077  0.225472  1
  F  F14  1  0.425433  0.336069  0.499417  1
  F  F15  1  0.163348  0.663931  0.089365  1
  F  F16  1  0.163348  0.073983  0.499417  1
  F  F17  1  0.425433  0.926017  0.089365  1
  F  F18  1  0.016196  0.000000  0.016196  1
  F  F19  1  0.744006  0.155315  0.588691  1
  F  F20  1  0.433375  0.844685  0.588691  1
  F  F21  1  0.207944  0.500000  0.707944  1
