# generated using pymatgen
data_K6Rb2Zr6MnI20
_symmetry_space_group_name_H-M   'P 1'
_cell_length_a   12.73366942
_cell_length_b   12.73367014
_cell_length_c   12.73367018
_cell_angle_alpha   59.79965476
_cell_angle_beta   59.79965256
_cell_angle_gamma   59.79965455
_symmetry_Int_Tables_number   1
_chemical_formula_structural   K6Rb2Zr6MnI20
_chemical_formula_sum   'K6 Rb2 Zr6 Mn1 I20'
_cell_volume   1453.33613865
_cell_formula_units_Z   1
loop_
 _symmetry_equiv_pos_site_id
 _symmetry_equiv_pos_as_xyz
  1  'x, y, z'
loop_
 _atom_site_type_symbol
 _atom_site_label
 _atom_site_symmetry_multiplicity
 _atom_site_fract_x
 _atom_site_fract_y
 _atom_site_fract_z
 _atom_site_occupancy
  K  K0  1  0.361031  0.361031  0.916006  1
  K  K1  1  0.361031  0.916006  0.361031  1
  K  K2  1  0.638969  0.638969  0.083994  1
  K  K3  1  0.638969  0.083994  0.638969  1
  K  K4  1  0.916006  0.361031  0.361031  1
  K  K5  1  0.083994  0.638969  0.638969  1
  Rb  Rb6  1  0.359695  0.359695  0.359695  1
  Rb  Rb7  1  0.640305  0.640305  0.640305  1
  Zr  Zr8  1  0.862190  0.137639  0.137639  1
  Zr  Zr9  1  0.137810  0.862361  0.862361  1
  Zr  Zr10  1  0.137639  0.862190  0.137639  1
  Zr  Zr11  1  0.862361  0.137810  0.862361  1
  Zr  Zr12  1  0.137639  0.137639  0.862190  1
  Zr  Zr13  1  0.862361  0.862361  0.137810  1
  Mn  Mn14  1  0.000000  0.000000  0.000000  1
  I  I15  1  0.326532  0.999185  0.999185  1
  I  I16  1  0.673468  0.000815  0.000815  1
  I  I17  1  0.000000  0.327715  0.672285  1
  I  I18  1  0.000000  0.672285  0.327715  1
  I  I19  1  0.999185  0.326532  0.999185  1
  I  I20  1  0.672285  0.000000  0.327715  1
  I  I21  1  0.000815  0.673468  0.000815  1
  I  I22  1  0.327715  0.000000  0.672285  1
  I  I23  1  0.999185  0.999185  0.326532  1
  I  I24  1  0.000815  0.000815  0.673468  1
  I  I25  1  0.672285  0.327715  0.000000  1
  I  I26  1  0.327715  0.672285  0.000000  1
  I  I27  1  0.687987  0.316142  0.316142  1
  I  I28  1  0.312013  0.683858  0.683858  1
  I  I29  1  0.316142  0.687987  0.316142  1
  I  I30  1  0.683858  0.312013  0.683858  1
  I  I31  1  0.316142  0.316142  0.687987  1
  I  I32  1  0.683858  0.683858  0.312013  1
  I  I33  1  0.245839  0.245839  0.245839  1
  I  I34  1  0.754161  0.754161  0.754161  1
