# generated using pymatgen
data_Os(RhO3)2
_symmetry_space_group_name_H-M   'P 1'
_cell_length_a   4.56731100
_cell_length_b   4.56731100
_cell_length_c   9.43412000
_cell_angle_alpha   90.00000000
_cell_angle_beta   90.00000000
_cell_angle_gamma   90.00000000
_symmetry_Int_Tables_number   1
_chemical_formula_structural   Os(RhO3)2
_chemical_formula_sum   'Os2 Rh4 O12'
_cell_volume   196.79885430
_cell_formula_units_Z   2
loop_
 _symmetry_equiv_pos_site_id
 _symmetry_equiv_pos_as_xyz
  1  'x, y, z'
loop_
 _atom_site_type_symbol
 _atom_site_label
 _atom_site_symmetry_multiplicity
 _atom_site_fract_x
 _atom_site_fract_y
 _atom_site_fract_z
 _atom_site_occupancy
  Os  Os0  1  0.000000  0.000000  0.000000  1
  Os  Os1  1  0.500000  0.500000  0.500000  1
  Rh  Rh2  1  0.000000  0.000000  0.333247  1
  Rh  Rh3  1  0.000000  0.000000  0.666753  1
  Rh  Rh4  1  0.500000  0.500000  0.833247  1
  Rh  Rh5  1  0.500000  0.500000  0.166753  1
  O  O6  1  0.297308  0.297308  0.000000  1
  O  O7  1  0.702692  0.702692  0.000000  1
  O  O8  1  0.202692  0.797308  0.500000  1
  O  O9  1  0.797308  0.202692  0.500000  1
  O  O10  1  0.311163  0.311163  0.336643  1
  O  O11  1  0.688837  0.688837  0.663357  1
  O  O12  1  0.688837  0.688837  0.336643  1
  O  O13  1  0.188837  0.811163  0.836643  1
  O  O14  1  0.188837  0.811163  0.163357  1
  O  O15  1  0.311163  0.311163  0.663357  1
  O  O16  1  0.811163  0.188837  0.163357  1
  O  O17  1  0.811163  0.188837  0.836643  1
