# generated using pymatgen
data_DyTh3(Al3Rh)6
_symmetry_space_group_name_H-M   'P 1'
_cell_length_a   7.64250504
_cell_length_b   7.64806624
_cell_length_c   9.52617800
_cell_angle_alpha   90.00000000
_cell_angle_beta   90.00000000
_cell_angle_gamma   119.50413519
_symmetry_Int_Tables_number   1
_chemical_formula_structural   DyTh3(Al3Rh)6
_chemical_formula_sum   'Dy1 Th3 Al18 Rh6'
_cell_volume   484.60189384
_cell_formula_units_Z   1
loop_
 _symmetry_equiv_pos_site_id
 _symmetry_equiv_pos_as_xyz
  1  'x, y, z'
loop_
 _atom_site_type_symbol
 _atom_site_label
 _atom_site_symmetry_multiplicity
 _atom_site_fract_x
 _atom_site_fract_y
 _atom_site_fract_z
 _atom_site_occupancy
  Dy  Dy0  1  0.329202  0.005555  0.250000  1
  Th  Th1  1  0.995150  0.670603  0.750000  1
  Th  Th2  1  0.004087  0.329731  0.250000  1
  Th  Th3  1  0.669740  0.994551  0.750000  1
  Al  Al4  1  0.133983  0.131906  0.750000  1
  Al  Al5  1  0.871476  0.870397  0.250000  1
  Al  Al6  1  0.005604  0.335268  0.574018  1
  Al  Al7  1  0.000386  0.669705  0.422857  1
  Al  Al8  1  0.000386  0.669705  0.077143  1
  Al  Al9  1  0.334791  0.004197  0.931275  1
  Al  Al10  1  0.005604  0.335268  0.925982  1
  Al  Al11  1  0.660115  0.995539  0.077110  1
  Al  Al12  1  0.660115  0.995539  0.422890  1
  Al  Al13  1  0.334791  0.004197  0.568725  1
  Al  Al14  1  0.336280  0.332809  0.052509  1
  Al  Al15  1  0.663225  0.663257  0.954996  1
  Al  Al16  1  0.663225  0.663257  0.545004  1
  Al  Al17  1  0.336280  0.332809  0.447491  1
  Al  Al18  1  0.340779  0.544249  0.750000  1
  Al  Al19  1  0.657476  0.450481  0.250000  1
  Al  Al20  1  0.543854  0.338470  0.750000  1
  Al  Al21  1  0.453225  0.662229  0.250000  1
  Rh  Rh22  1  0.673650  0.328338  0.500255  1
  Rh  Rh23  1  0.327527  0.671502  0.500322  1
  Rh  Rh24  1  0.327527  0.671502  0.999678  1
  Rh  Rh25  1  0.673650  0.328338  0.999745  1
  Rh  Rh26  1  0.998936  0.000298  0.500379  1
  Rh  Rh27  1  0.998936  0.000298  0.999621  1
