# generated using pymatgen
data_TcAs5(PbO3)8
_symmetry_space_group_name_H-M   'P 1'
_cell_length_a   9.46152130
_cell_length_b   9.46152070
_cell_length_c   9.46152086
_cell_angle_alpha   109.40228445
_cell_angle_beta   109.40227917
_cell_angle_gamma   109.60917747
_symmetry_Int_Tables_number   1
_chemical_formula_structural   TcAs5(PbO3)8
_chemical_formula_sum   'Tc1 As5 Pb8 O24'
_cell_volume   652.01732364
_cell_formula_units_Z   1
loop_
 _symmetry_equiv_pos_site_id
 _symmetry_equiv_pos_as_xyz
  1  'x, y, z'
loop_
 _atom_site_type_symbol
 _atom_site_label
 _atom_site_symmetry_multiplicity
 _atom_site_fract_x
 _atom_site_fract_y
 _atom_site_fract_z
 _atom_site_occupancy
  Tc  Tc0  1  0.124994  0.874990  0.249992  1
  As  As1  1  0.374999  0.624990  0.749994  1
  As  As2  1  0.879868  0.258133  0.127011  1
  As  As3  1  0.631122  0.752846  0.372988  1
  As  As4  1  0.247142  0.120133  0.878271  1
  As  As5  1  0.741859  0.368873  0.621724  1
  Pb  Pb6  1  0.358244  0.370621  0.345055  1
  Pb  Pb7  1  0.155765  0.489201  0.988950  1
  Pb  Pb8  1  0.000246  0.166829  0.511081  1
  Pb  Pb9  1  0.833177  0.844221  0.833427  1
  Pb  Pb10  1  0.525556  0.013182  0.154942  1
  Pb  Pb11  1  0.629415  0.474469  0.987656  1
  Pb  Pb12  1  0.510794  0.999746  0.666563  1
  Pb  Pb13  1  0.986815  0.641755  0.512355  1
  O  O14  1  0.307531  0.151392  0.083463  1
  O  O15  1  0.190890  0.265995  0.840863  1
  O  O16  1  0.925136  0.350039  0.659133  1
  O  O17  1  0.148193  0.078823  0.299756  1
  O  O18  1  0.802858  0.573410  0.646374  1
  O  O19  1  0.567928  0.224068  0.416539  1
  O  O20  1  0.279072  0.848445  0.200245  1
  O  O21  1  0.686278  0.338367  0.768763  1
  O  O22  1  0.349843  0.658501  0.928550  1
  O  O23  1  0.427034  0.156487  0.853625  1
  O  O24  1  0.229952  0.421286  0.571451  1
  O  O25  1  0.069602  0.917518  0.731234  1
  O  O26  1  0.082483  0.313722  0.152088  1
  O  O27  1  0.649961  0.809103  0.575099  1
  O  O28  1  0.661638  0.930400  0.347924  1
  O  O29  1  0.848620  0.432074  0.156141  1
  O  O30  1  0.426584  0.572968  0.229448  1
  O  O31  1  0.734000  0.074865  0.924898  1
  O  O32  1  0.843528  0.197143  0.270553  1
  O  O33  1  0.775927  0.692459  0.343855  1
  O  O34  1  0.578713  0.650159  0.808666  1
  O  O35  1  0.341493  0.770038  0.691330  1
  O  O36  1  0.921185  0.720939  0.069373  1
  O  O37  1  0.151555  0.851808  0.430617  1
