# generated using pymatgen
data_MnCrFeMoP2
_symmetry_space_group_name_H-M   'P 1'
_cell_length_a   3.56925900
_cell_length_b   5.93993000
_cell_length_c   6.71735100
_cell_angle_alpha   90.00000000
_cell_angle_beta   90.00000000
_cell_angle_gamma   90.00000000
_symmetry_Int_Tables_number   1
_chemical_formula_structural   MnCrFeMoP2
_chemical_formula_sum   'Mn2 Cr2 Fe2 Mo2 P4'
_cell_volume   142.41555683
_cell_formula_units_Z   2
loop_
 _symmetry_equiv_pos_site_id
 _symmetry_equiv_pos_as_xyz
  1  'x, y, z'
loop_
 _atom_site_type_symbol
 _atom_site_label
 _atom_site_symmetry_multiplicity
 _atom_site_fract_x
 _atom_site_fract_y
 _atom_site_fract_z
 _atom_site_occupancy
  Mn  Mn0  1  0.250000  0.855350  0.944540  1
  Mn  Mn1  1  0.250000  0.355350  0.555460  1
  Cr  Cr2  1  0.250000  0.974633  0.324756  1
  Cr  Cr3  1  0.250000  0.474633  0.175244  1
  Fe  Fe4  1  0.750000  0.144846  0.064571  1
  Fe  Fe5  1  0.750000  0.644846  0.435429  1
  Mo  Mo6  1  0.750000  0.025448  0.670218  1
  Mo  Mo7  1  0.750000  0.525448  0.829782  1
  P  P8  1  0.250000  0.227422  0.884525  1
  P  P9  1  0.250000  0.727422  0.615475  1
  P  P10  1  0.750000  0.772301  0.130561  1
  P  P11  1  0.750000  0.272301  0.369439  1
