# generated using pymatgen
data_SrSm2(GaRh2)3
_symmetry_space_group_name_H-M   'P 1'
_cell_length_a   5.71587200
_cell_length_b   5.71587256
_cell_length_c   15.90490100
_cell_angle_alpha   90.00000000
_cell_angle_beta   90.00000000
_cell_angle_gamma   119.99999678
_symmetry_Int_Tables_number   1
_chemical_formula_structural   SrSm2(GaRh2)3
_chemical_formula_sum   'Sr2 Sm4 Ga6 Rh12'
_cell_volume   450.01464537
_cell_formula_units_Z   2
loop_
 _symmetry_equiv_pos_site_id
 _symmetry_equiv_pos_as_xyz
  1  'x, y, z'
loop_
 _atom_site_type_symbol
 _atom_site_label
 _atom_site_symmetry_multiplicity
 _atom_site_fract_x
 _atom_site_fract_y
 _atom_site_fract_z
 _atom_site_occupancy
  Sr  Sr0  1  0.333333  0.666667  0.750000  1
  Sr  Sr1  1  0.666667  0.333333  0.250000  1
  Sm  Sm2  1  0.333333  0.666667  0.541286  1
  Sm  Sm3  1  0.666667  0.333333  0.458714  1
  Sm  Sm4  1  0.666667  0.333333  0.041286  1
  Sm  Sm5  1  0.333333  0.666667  0.958714  1
  Ga  Ga6  1  0.000000  0.000000  0.250000  1
  Ga  Ga7  1  0.000000  0.000000  0.750000  1
  Ga  Ga8  1  0.333333  0.666667  0.250000  1
  Ga  Ga9  1  0.666667  0.333333  0.750000  1
  Ga  Ga10  1  0.000000  0.000000  0.000000  1
  Ga  Ga11  1  0.000000  0.000000  0.500000  1
  Rh  Rh12  1  0.168611  0.337221  0.125114  1
  Rh  Rh13  1  0.831389  0.662779  0.874886  1
  Rh  Rh14  1  0.662779  0.831389  0.125114  1
  Rh  Rh15  1  0.831389  0.662779  0.625114  1
  Rh  Rh16  1  0.337221  0.168611  0.874886  1
  Rh  Rh17  1  0.168611  0.337221  0.374886  1
  Rh  Rh18  1  0.168611  0.831389  0.125114  1
  Rh  Rh19  1  0.337221  0.168611  0.625114  1
  Rh  Rh20  1  0.831389  0.168611  0.874886  1
  Rh  Rh21  1  0.662779  0.831389  0.374886  1
  Rh  Rh22  1  0.831389  0.168611  0.625114  1
  Rh  Rh23  1  0.168611  0.831389  0.374886  1
