# generated using pymatgen
data_Tb7Dy3(In2Ir)4
_symmetry_space_group_name_H-M   'P 1'
_cell_length_a   3.68169400
_cell_length_b   8.02947752
_cell_length_c   18.31170709
_cell_angle_alpha   90.04809426
_cell_angle_beta   90.00000000
_cell_angle_gamma   90.00000000
_symmetry_Int_Tables_number   1
_chemical_formula_structural   Tb7Dy3(In2Ir)4
_chemical_formula_sum   'Tb7 Dy3 In8 Ir4'
_cell_volume   541.33194509
_cell_formula_units_Z   1
loop_
 _symmetry_equiv_pos_site_id
 _symmetry_equiv_pos_as_xyz
  1  'x, y, z'
loop_
 _atom_site_type_symbol
 _atom_site_label
 _atom_site_symmetry_multiplicity
 _atom_site_fract_x
 _atom_site_fract_y
 _atom_site_fract_z
 _atom_site_occupancy
  Tb  Tb0  1  0.500000  0.384054  0.589156  1
  Tb  Tb1  1  0.500000  0.883037  0.910600  1
  Tb  Tb2  1  0.500000  0.116531  0.089993  1
  Tb  Tb3  1  0.500000  0.757651  0.720870  1
  Tb  Tb4  1  0.500000  0.257125  0.778677  1
  Tb  Tb5  1  0.500000  0.499721  0.000345  1
  Tb  Tb6  1  0.500000  0.000383  0.499792  1
  Dy  Dy7  1  0.500000  0.742882  0.221592  1
  Dy  Dy8  1  0.500000  0.242382  0.278994  1
  Dy  Dy9  1  0.500000  0.616016  0.409838  1
  In  In10  1  0.000000  0.793738  0.068469  1
  In  In11  1  0.000000  0.927904  0.350073  1
  In  In12  1  0.000000  0.072481  0.649851  1
  In  In13  1  0.000000  0.571016  0.850004  1
  In  In14  1  0.000000  0.706429  0.567115  1
  In  In15  1  0.000000  0.206042  0.932156  1
  In  In16  1  0.000000  0.294292  0.431872  1
  In  In17  1  0.000000  0.428726  0.150404  1
  Ir  Ir18  1  0.000000  0.982046  0.804272  1
  Ir  Ir19  1  0.000000  0.517320  0.304291  1
  Ir  Ir20  1  0.000000  0.482857  0.695381  1
  Ir  Ir21  1  0.000000  0.017369  0.196253  1
