# generated using pymatgen
data_Er2TaOs3
_symmetry_space_group_name_H-M   'P 1'
_cell_length_a   5.53665600
_cell_length_b   5.53665572
_cell_length_c   8.46978100
_cell_angle_alpha   90.00000000
_cell_angle_beta   90.00000000
_cell_angle_gamma   119.99998973
_symmetry_Int_Tables_number   1
_chemical_formula_structural   Er2TaOs3
_chemical_formula_sum   'Er4 Ta2 Os6'
_cell_volume   224.85260204
_cell_formula_units_Z   2
loop_
 _symmetry_equiv_pos_site_id
 _symmetry_equiv_pos_as_xyz
  1  'x, y, z'
loop_
 _atom_site_type_symbol
 _atom_site_label
 _atom_site_symmetry_multiplicity
 _atom_site_fract_x
 _atom_site_fract_y
 _atom_site_fract_z
 _atom_site_occupancy
  Er  Er0  1  0.333333  0.666667  0.434783  1
  Er  Er1  1  0.666667  0.333333  0.565217  1
  Er  Er2  1  0.666667  0.333333  0.934783  1
  Er  Er3  1  0.333333  0.666667  0.065217  1
  Ta  Ta4  1  0.000000  0.000000  0.000000  1
  Ta  Ta5  1  0.000000  0.000000  0.500000  1
  Os  Os6  1  0.173731  0.347463  0.750000  1
  Os  Os7  1  0.173731  0.826269  0.750000  1
  Os  Os8  1  0.347463  0.173731  0.250000  1
  Os  Os9  1  0.826269  0.652537  0.250000  1
  Os  Os10  1  0.652537  0.826269  0.750000  1
  Os  Os11  1  0.826269  0.173731  0.250000  1
