# generated using pymatgen
data_Hf6ZnAs2(PRu2)3
_symmetry_space_group_name_H-M   'P 1'
_cell_length_a   7.56589953
_cell_length_b   7.59453410
_cell_length_c   7.55534595
_cell_angle_alpha   128.32625602
_cell_angle_beta   120.05810669
_cell_angle_gamma   82.96235757
_symmetry_Int_Tables_number   1
_chemical_formula_structural   Hf6ZnAs2(PRu2)3
_chemical_formula_sum   'Hf6 Zn1 As2 P3 Ru6'
_cell_volume   283.23254285
_cell_formula_units_Z   1
loop_
 _symmetry_equiv_pos_site_id
 _symmetry_equiv_pos_as_xyz
  1  'x, y, z'
loop_
 _atom_site_type_symbol
 _atom_site_label
 _atom_site_symmetry_multiplicity
 _atom_site_fract_x
 _atom_site_fract_y
 _atom_site_fract_z
 _atom_site_occupancy
  Hf  Hf0  1  0.457974  0.680912  0.720605  1
  Hf  Hf1  1  0.531681  0.250711  0.226092  1
  Hf  Hf2  1  0.735225  0.835722  0.577736  1
  Hf  Hf3  1  0.265317  0.828472  0.095914  1
  Hf  Hf4  1  0.058800  0.260816  0.701452  1
  Hf  Hf5  1  0.956921  0.668063  0.213036  1
  Zn  Zn6  1  0.268684  0.257402  0.483882  1
  As  As7  1  0.160754  0.923236  0.756681  1
  As  As8  1  0.838293  0.592503  0.760303  1
  P  P9  1  0.731716  0.235352  0.001962  1
  P  P10  1  0.328439  0.581131  0.250484  1
  P  P11  1  0.675672  0.922414  0.260306  1
  Ru  Ru12  1  0.513682  0.499667  0.015032  1
  Ru  Ru13  1  0.982217  0.497893  0.480142  1
  Ru  Ru14  1  0.083449  0.262891  0.093203  1
  Ru  Ru15  1  0.874855  0.011653  0.137724  1
  Ru  Ru16  1  0.374419  0.002624  0.622108  1
  Ru  Ru17  1  0.661900  0.248135  0.662939  1
