# generated using pymatgen
data_Dy3Er3Al24Os5Rh3
_symmetry_space_group_name_H-M   'P 1'
_cell_length_a   8.76978141
_cell_length_b   8.79031095
_cell_length_c   9.55641020
_cell_angle_alpha   89.99049509
_cell_angle_beta   89.82561197
_cell_angle_gamma   119.35943086
_symmetry_Int_Tables_number   1
_chemical_formula_structural   Dy3Er3Al24Os5Rh3
_chemical_formula_sum   'Dy3 Er3 Al24 Os5 Rh3'
_cell_volume   642.07073108
_cell_formula_units_Z   1
loop_
 _symmetry_equiv_pos_site_id
 _symmetry_equiv_pos_as_xyz
  1  'x, y, z'
loop_
 _atom_site_type_symbol
 _atom_site_label
 _atom_site_symmetry_multiplicity
 _atom_site_fract_x
 _atom_site_fract_y
 _atom_site_fract_z
 _atom_site_occupancy
  Dy  Dy0  1  0.186956  0.383929  0.251875  1
  Dy  Dy1  1  0.813131  0.616142  0.748122  1
  Dy  Dy2  1  0.613860  0.814398  0.251384  1
  Er  Er3  1  0.387586  0.186036  0.748619  1
  Er  Er4  1  0.196786  0.808698  0.251865  1
  Er  Er5  1  0.802995  0.191091  0.748112  1
  Al  Al6  1  0.333345  0.667697  0.024752  1
  Al  Al7  1  0.666370  0.332210  0.974840  1
  Al  Al8  1  0.667400  0.332606  0.522900  1
  Al  Al9  1  0.332386  0.667282  0.477513  1
  Al  Al10  1  0.162033  0.325705  0.577386  1
  Al  Al11  1  0.838101  0.674145  0.422957  1
  Al  Al12  1  0.673114  0.836798  0.576735  1
  Al  Al13  1  0.835910  0.674203  0.077336  1
  Al  Al14  1  0.326731  0.163172  0.423829  1
  Al  Al15  1  0.164245  0.325654  0.922295  1
  Al  Al16  1  0.164039  0.834648  0.575886  1
  Al  Al17  1  0.326549  0.162906  0.076266  1
  Al  Al18  1  0.836089  0.165773  0.424435  1
  Al  Al19  1  0.673339  0.837109  0.923215  1
  Al  Al20  1  0.833871  0.163255  0.075984  1
  Al  Al21  1  0.166258  0.837232  0.923676  1
  Al  Al22  1  0.561223  0.126542  0.249567  1
  Al  Al23  1  0.438549  0.873802  0.750440  1
  Al  Al24  1  0.875748  0.439752  0.250029  1
  Al  Al25  1  0.124331  0.560246  0.749997  1
  Al  Al26  1  0.560501  0.440049  0.249645  1
  Al  Al27  1  0.439339  0.559386  0.750358  1
  Al  Al28  1  0.999421  0.001602  0.250064  1
  Al  Al29  1  0.001577  0.998902  0.749934  1
  Os  Os30  1  0.499856  0.000295  0.999630  1
  Os  Os31  1  0.499818  0.000288  0.500373  1
  Os  Os32  1  0.999796  0.499944  0.500112  1
  Os  Os33  1  0.999936  0.000005  0.999966  1
  Os  Os34  1  0.999948  0.999980  0.500033  1
  Rh  Rh35  1  0.999667  0.499963  0.999819  1
  Rh  Rh36  1  0.499623  0.499346  0.999540  1
  Rh  Rh37  1  0.499576  0.499208  0.500511  1
