# generated using pymatgen
data_Lu4TaB4SbRu10
_symmetry_space_group_name_H-M   'P 1'
_cell_length_a   9.63603200
_cell_length_b   9.63603200
_cell_length_c   3.10683200
_cell_angle_alpha   90.00000000
_cell_angle_beta   90.00000000
_cell_angle_gamma   90.00000000
_symmetry_Int_Tables_number   1
_chemical_formula_structural   Lu4TaB4SbRu10
_chemical_formula_sum   'Lu4 Ta1 B4 Sb1 Ru10'
_cell_volume   288.47902185
_cell_formula_units_Z   1
loop_
 _symmetry_equiv_pos_site_id
 _symmetry_equiv_pos_as_xyz
  1  'x, y, z'
loop_
 _atom_site_type_symbol
 _atom_site_label
 _atom_site_symmetry_multiplicity
 _atom_site_fract_x
 _atom_site_fract_y
 _atom_site_fract_z
 _atom_site_occupancy
  Lu  Lu0  1  0.826141  0.675446  0.000000  1
  Lu  Lu1  1  0.173859  0.324554  0.000000  1
  Lu  Lu2  1  0.324554  0.826141  0.000000  1
  Lu  Lu3  1  0.675446  0.173859  0.000000  1
  Ta  Ta4  1  0.000000  0.000000  0.000000  1
  B  B5  1  0.620504  0.880716  0.000000  1
  B  B6  1  0.379496  0.119284  0.000000  1
  B  B7  1  0.119284  0.620504  0.000000  1
  B  B8  1  0.880716  0.379496  0.000000  1
  Sb  Sb9  1  0.500000  0.500000  0.000000  1
  Ru  Ru10  1  0.571799  0.720375  0.500000  1
  Ru  Ru11  1  0.428201  0.279625  0.500000  1
  Ru  Ru12  1  0.070393  0.781638  0.500000  1
  Ru  Ru13  1  0.929607  0.218362  0.500000  1
  Ru  Ru14  1  0.279625  0.571799  0.500000  1
  Ru  Ru15  1  0.720375  0.428201  0.500000  1
  Ru  Ru16  1  0.218362  0.070393  0.500000  1
  Ru  Ru17  1  0.781638  0.929607  0.500000  1
  Ru  Ru18  1  0.500000  0.000000  0.500000  1
  Ru  Ru19  1  0.000000  0.500000  0.500000  1
