# generated using pymatgen
data_Tb12InSi4Os
_symmetry_space_group_name_H-M   'P 1'
_cell_length_a   8.53078542
_cell_length_b   8.53078530
_cell_length_c   8.53078400
_cell_angle_alpha   112.03822052
_cell_angle_beta   111.15867988
_cell_angle_gamma   105.29702377
_symmetry_Int_Tables_number   1
_chemical_formula_structural   Tb12InSi4Os
_chemical_formula_sum   'Tb12 In1 Si4 Os1'
_cell_volume   475.99416903
_cell_formula_units_Z   1
loop_
 _symmetry_equiv_pos_site_id
 _symmetry_equiv_pos_as_xyz
  1  'x, y, z'
loop_
 _atom_site_type_symbol
 _atom_site_label
 _atom_site_symmetry_multiplicity
 _atom_site_fract_x
 _atom_site_fract_y
 _atom_site_fract_z
 _atom_site_occupancy
  Tb  Tb0  1  0.040182  0.731856  0.307837  1
  Tb  Tb1  1  0.959818  0.268144  0.692163  1
  Tb  Tb2  1  0.575980  0.268144  0.308325  1
  Tb  Tb3  1  0.424020  0.731856  0.691675  1
  Tb  Tb4  1  0.680583  0.882590  0.202007  1
  Tb  Tb5  1  0.319538  0.521439  0.201900  1
  Tb  Tb6  1  0.319417  0.117410  0.797993  1
  Tb  Tb7  1  0.680462  0.478561  0.798100  1
  Tb  Tb8  1  0.174008  0.237075  0.411385  1
  Tb  Tb9  1  0.825689  0.237075  0.063067  1
  Tb  Tb10  1  0.174311  0.762925  0.936933  1
  Tb  Tb11  1  0.825992  0.762925  0.588615  1
  In  In12  1  0.500000  0.000000  0.500000  1
  Si  Si13  1  0.631619  0.500000  0.131619  1
  Si  Si14  1  0.368381  0.500000  0.868381  1
  Si  Si15  1  0.883690  0.883642  0.999952  1
  Si  Si16  1  0.116310  0.116358  0.000048  1
  Os  Os17  1  0.000000  0.500000  0.500000  1
