# generated using pymatgen
data_Li7Ca6In9N
_symmetry_space_group_name_H-M   'P 1'
_cell_length_a   8.83741987
_cell_length_b   8.82777071
_cell_length_c   8.82777097
_cell_angle_alpha   109.32132288
_cell_angle_beta   109.52400979
_cell_angle_gamma   109.52401217
_symmetry_Int_Tables_number   1
_chemical_formula_structural   Li7Ca6In9N
_chemical_formula_sum   'Li7 Ca6 In9 N1'
_cell_volume   530.44656801
_cell_formula_units_Z   1
loop_
 _symmetry_equiv_pos_site_id
 _symmetry_equiv_pos_as_xyz
  1  'x, y, z'
loop_
 _atom_site_type_symbol
 _atom_site_label
 _atom_site_symmetry_multiplicity
 _atom_site_fract_x
 _atom_site_fract_y
 _atom_site_fract_z
 _atom_site_occupancy
  Li  Li0  1  0.675919  0.337960  0.337960  1
  Li  Li1  1  0.347673  0.004694  0.663284  1
  Li  Li2  1  0.347673  0.684388  0.342981  1
  Li  Li3  1  0.347673  0.342981  0.684388  1
  Li  Li4  1  0.347673  0.663284  0.004694  1
  Li  Li5  1  0.004515  0.344943  0.659572  1
  Li  Li6  1  0.004515  0.659572  0.344943  1
  Ca  Ca7  1  0.997569  0.238856  0.238856  1
  Ca  Ca8  1  0.236736  0.998778  0.237959  1
  Ca  Ca9  1  0.760125  0.000290  0.759836  1
  Ca  Ca10  1  0.760125  0.759836  0.000290  1
  Ca  Ca11  1  0.236736  0.237959  0.998778  1
  Ca  Ca12  1  0.997569  0.758713  0.758713  1
  In  In13  1  0.489145  0.491905  0.491905  1
  In  In14  1  0.489145  0.997240  0.997240  1
  In  In15  1  0.019208  0.509603  0.009603  1
  In  In16  1  0.019208  0.009603  0.509603  1
  In  In17  1  0.659778  0.653424  0.308094  1
  In  In18  1  0.659778  0.006355  0.351685  1
  In  In19  1  0.659778  0.351685  0.006355  1
  In  In20  1  0.659778  0.308094  0.653424  1
  In  In21  1  0.286137  0.643068  0.643068  1
  N  N22  1  0.993539  0.996770  0.996770  1
