# generated using pymatgen
data_Li2HoCr2Ni9P7
_symmetry_space_group_name_H-M   'P 1'
_cell_length_a   9.07767843
_cell_length_b   9.06150099
_cell_length_c   3.63167000
_cell_angle_alpha   90.00000000
_cell_angle_beta   90.00000000
_cell_angle_gamma   119.35192736
_symmetry_Int_Tables_number   1
_chemical_formula_structural   Li2HoCr2Ni9P7
_chemical_formula_sum   'Li2 Ho1 Cr2 Ni9 P7'
_cell_volume   260.38213566
_cell_formula_units_Z   1
loop_
 _symmetry_equiv_pos_site_id
 _symmetry_equiv_pos_as_xyz
  1  'x, y, z'
loop_
 _atom_site_type_symbol
 _atom_site_label
 _atom_site_symmetry_multiplicity
 _atom_site_fract_x
 _atom_site_fract_y
 _atom_site_fract_z
 _atom_site_occupancy
  Li  Li0  1  0.221580  0.105244  0.500000  1
  Li  Li1  1  0.667093  0.334659  0.500000  1
  Ho  Ho2  1  0.330882  0.663350  0.000000  1
  Cr  Cr3  1  0.878538  0.782488  0.500000  1
  Cr  Cr4  1  0.900656  0.120678  0.500000  1
  Ni  Ni5  1  0.713306  0.877167  0.000000  1
  Ni  Ni6  1  0.162528  0.277245  0.000000  1
  Ni  Ni7  1  0.122970  0.845169  0.000000  1
  Ni  Ni8  1  0.630836  0.568322  0.000000  1
  Ni  Ni9  1  0.936562  0.369622  0.000000  1
  Ni  Ni10  1  0.434174  0.061639  0.000000  1
  Ni  Ni11  1  0.563395  0.951562  0.500000  1
  Ni  Ni12  1  0.389582  0.433552  0.500000  1
  Ni  Ni13  1  0.047493  0.610881  0.500000  1
  P  P14  1  0.595565  0.710561  0.500000  1
  P  P15  1  0.113574  0.401288  0.500000  1
  P  P16  1  0.288169  0.879316  0.500000  1
  P  P17  1  0.991599  0.997176  0.000000  1
  P  P18  1  0.882548  0.586744  0.000000  1
  P  P19  1  0.703416  0.120637  0.000000  1
  P  P20  1  0.425536  0.302701  0.000000  1
