# generated using pymatgen
data_TbErMn8(CoP3)2
_symmetry_space_group_name_H-M   'P 1'
_cell_length_a   3.59841300
_cell_length_b   10.53958600
_cell_length_c   12.17404200
_cell_angle_alpha   90.00000000
_cell_angle_beta   90.00000000
_cell_angle_gamma   90.00000000
_symmetry_Int_Tables_number   1
_chemical_formula_structural   TbErMn8(CoP3)2
_chemical_formula_sum   'Tb2 Er2 Mn16 Co4 P12'
_cell_volume   461.71007850
_cell_formula_units_Z   2
loop_
 _symmetry_equiv_pos_site_id
 _symmetry_equiv_pos_as_xyz
  1  'x, y, z'
loop_
 _atom_site_type_symbol
 _atom_site_label
 _atom_site_symmetry_multiplicity
 _atom_site_fract_x
 _atom_site_fract_y
 _atom_site_fract_z
 _atom_site_occupancy
  Tb  Tb0  1  0.750000  0.415679  0.292102  1
  Tb  Tb1  1  0.750000  0.084321  0.792102  1
  Er  Er2  1  0.250000  0.584088  0.707783  1
  Er  Er3  1  0.250000  0.915912  0.207783  1
  Mn  Mn4  1  0.250000  0.712435  0.988042  1
  Mn  Mn5  1  0.250000  0.787565  0.488042  1
  Mn  Mn6  1  0.750000  0.287530  0.012157  1
  Mn  Mn7  1  0.750000  0.212470  0.512157  1
  Mn  Mn8  1  0.250000  0.407455  0.493313  1
  Mn  Mn9  1  0.250000  0.092545  0.993313  1
  Mn  Mn10  1  0.750000  0.592831  0.507773  1
  Mn  Mn11  1  0.750000  0.907169  0.007773  1
  Mn  Mn12  1  0.250000  0.216035  0.176597  1
  Mn  Mn13  1  0.250000  0.283965  0.676597  1
  Mn  Mn14  1  0.750000  0.782786  0.823239  1
  Mn  Mn15  1  0.750000  0.717214  0.323239  1
  Mn  Mn16  1  0.250000  0.877531  0.697590  1
  Mn  Mn17  1  0.250000  0.622469  0.197590  1
  Mn  Mn18  1  0.750000  0.120893  0.302171  1
  Mn  Mn19  1  0.750000  0.379107  0.802171  1
  Co  Co20  1  0.250000  0.464902  0.933541  1
  Co  Co21  1  0.250000  0.035098  0.433541  1
  Co  Co22  1  0.750000  0.535783  0.065765  1
  Co  Co23  1  0.750000  0.964217  0.565765  1
  P  P24  1  0.250000  0.420318  0.111212  1
  P  P25  1  0.250000  0.079682  0.611212  1
  P  P26  1  0.750000  0.579797  0.887616  1
  P  P27  1  0.750000  0.920203  0.387616  1
  P  P28  1  0.250000  0.267002  0.872261  1
  P  P29  1  0.250000  0.232998  0.372261  1
  P  P30  1  0.750000  0.734447  0.128177  1
  P  P31  1  0.750000  0.765553  0.628177  1
  P  P32  1  0.250000  0.593762  0.386711  1
  P  P33  1  0.250000  0.906238  0.886711  1
  P  P34  1  0.750000  0.407492  0.613947  1
  P  P35  1  0.750000  0.092508  0.113947  1
