# generated using pymatgen
data_Tb5YAl24Os7Ru
_symmetry_space_group_name_H-M   'P 1'
_cell_length_a   8.83898600
_cell_length_b   8.84281028
_cell_length_c   9.57910400
_cell_angle_alpha   89.99991968
_cell_angle_beta   90.00000000
_cell_angle_gamma   119.98569493
_symmetry_Int_Tables_number   1
_chemical_formula_structural   Tb5YAl24Os7Ru
_chemical_formula_sum   'Tb5 Y1 Al24 Os7 Ru1'
_cell_volume   648.50131038
_cell_formula_units_Z   1
loop_
 _symmetry_equiv_pos_site_id
 _symmetry_equiv_pos_as_xyz
  1  'x, y, z'
loop_
 _atom_site_type_symbol
 _atom_site_label
 _atom_site_symmetry_multiplicity
 _atom_site_fract_x
 _atom_site_fract_y
 _atom_site_fract_z
 _atom_site_occupancy
  Tb  Tb0  1  0.806819  0.613639  0.750493  1
  Tb  Tb1  1  0.613823  0.806942  0.249495  1
  Tb  Tb2  1  0.386308  0.193170  0.750503  1
  Tb  Tb3  1  0.193120  0.806942  0.249495  1
  Tb  Tb4  1  0.806861  0.193170  0.750503  1
  Y  Y5  1  0.193170  0.386338  0.249534  1
  Al  Al6  1  0.333313  0.666626  0.014611  1
  Al  Al7  1  0.666660  0.333318  0.985390  1
  Al  Al8  1  0.666665  0.333329  0.514606  1
  Al  Al9  1  0.333312  0.666625  0.485400  1
  Al  Al10  1  0.162374  0.324747  0.575879  1
  Al  Al11  1  0.837647  0.675295  0.424026  1
  Al  Al12  1  0.675247  0.837603  0.575914  1
  Al  Al13  1  0.837602  0.675207  0.075935  1
  Al  Al14  1  0.324728  0.162404  0.424098  1
  Al  Al15  1  0.162425  0.324848  0.924163  1
  Al  Al16  1  0.162357  0.837603  0.575914  1
  Al  Al17  1  0.324840  0.162463  0.075855  1
  Al  Al18  1  0.837675  0.162404  0.424098  1
  Al  Al19  1  0.675141  0.837550  0.924131  1
  Al  Al20  1  0.837621  0.162463  0.075855  1
  Al  Al21  1  0.162411  0.837550  0.924131  1
  Al  Al22  1  0.560640  0.121281  0.249781  1
  Al  Al23  1  0.439365  0.878729  0.750215  1
  Al  Al24  1  0.878884  0.439407  0.249787  1
  Al  Al25  1  0.121304  0.560631  0.750210  1
  Al  Al26  1  0.560522  0.439407  0.249787  1
  Al  Al27  1  0.439328  0.560631  0.750210  1
  Al  Al28  1  0.999959  0.999918  0.248293  1
  Al  Al29  1  0.999992  0.999983  0.751708  1
  Os  Os30  1  0.499968  0.999935  0.000049  1
  Os  Os31  1  0.000008  0.499974  0.000016  1
  Os  Os32  1  0.499966  0.999932  0.499943  1
  Os  Os33  1  0.499966  0.499974  0.000016  1
  Os  Os34  1  0.000007  0.499972  0.499980  1
  Os  Os35  1  0.499966  0.499972  0.499980  1
  Os  Os36  1  0.000003  0.000005  0.499935  1
  Ru  Ru37  1  0.000006  0.000012  0.000060  1
