# generated using pymatgen
data_NdTh(SiTc2)4
_symmetry_space_group_name_H-M   'P 1'
_cell_length_a   4.17404300
_cell_length_b   7.19293374
_cell_length_c   15.64645769
_cell_angle_alpha   89.65984053
_cell_angle_beta   90.00000000
_cell_angle_gamma   90.00000000
_symmetry_Int_Tables_number   1
_chemical_formula_structural   NdTh(SiTc2)4
_chemical_formula_sum   'Nd2 Th2 Si8 Tc16'
_cell_volume   469.75493875
_cell_formula_units_Z   2
loop_
 _symmetry_equiv_pos_site_id
 _symmetry_equiv_pos_as_xyz
  1  'x, y, z'
loop_
 _atom_site_type_symbol
 _atom_site_label
 _atom_site_symmetry_multiplicity
 _atom_site_fract_x
 _atom_site_fract_y
 _atom_site_fract_z
 _atom_site_occupancy
  Nd  Nd0  1  0.500000  0.088742  0.383846  1
  Nd  Nd1  1  0.500000  0.911258  0.616154  1
  Th  Th2  1  0.000000  0.590655  0.117914  1
  Th  Th3  1  0.000000  0.409345  0.882086  1
  Si  Si4  1  0.000000  0.825781  0.473519  1
  Si  Si5  1  0.000000  0.174219  0.526481  1
  Si  Si6  1  0.500000  0.326947  0.026618  1
  Si  Si7  1  0.500000  0.673053  0.973382  1
  Si  Si8  1  0.000000  0.305513  0.275175  1
  Si  Si9  1  0.000000  0.694487  0.724825  1
  Si  Si10  1  0.500000  0.811051  0.227766  1
  Si  Si11  1  0.500000  0.188949  0.772234  1
  Tc  Tc12  1  0.000000  0.141113  0.051026  1
  Tc  Tc13  1  0.000000  0.858887  0.948974  1
  Tc  Tc14  1  0.500000  0.638872  0.447711  1
  Tc  Tc15  1  0.500000  0.361128  0.552289  1
  Tc  Tc16  1  0.000000  0.735337  0.319891  1
  Tc  Tc17  1  0.000000  0.264663  0.680109  1
  Tc  Tc18  1  0.500000  0.236635  0.180045  1
  Tc  Tc19  1  0.500000  0.763365  0.819955  1
  Tc  Tc20  1  0.000000  0.436313  0.420690  1
  Tc  Tc21  1  0.000000  0.563687  0.579310  1
  Tc  Tc22  1  0.500000  0.931844  0.079303  1
  Tc  Tc23  1  0.500000  0.068156  0.920697  1
  Tc  Tc24  1  0.000000  0.002826  0.205946  1
  Tc  Tc25  1  0.000000  0.997174  0.794054  1
  Tc  Tc26  1  0.500000  0.501713  0.294167  1
  Tc  Tc27  1  0.500000  0.498287  0.705833  1
