# generated using pymatgen
data_Ho9Tm(Sn3P)2
_symmetry_space_group_name_H-M   'P 1'
_cell_length_a   9.02919600
_cell_length_b   9.02919627
_cell_length_c   6.64343500
_cell_angle_alpha   90.00000000
_cell_angle_beta   90.00000000
_cell_angle_gamma   119.99999169
_symmetry_Int_Tables_number   1
_chemical_formula_structural   Ho9Tm(Sn3P)2
_chemical_formula_sum   'Ho9 Tm1 Sn6 P2'
_cell_volume   469.05258336
_cell_formula_units_Z   1
loop_
 _symmetry_equiv_pos_site_id
 _symmetry_equiv_pos_as_xyz
  1  'x, y, z'
loop_
 _atom_site_type_symbol
 _atom_site_label
 _atom_site_symmetry_multiplicity
 _atom_site_fract_x
 _atom_site_fract_y
 _atom_site_fract_z
 _atom_site_occupancy
  Ho  Ho0  1  0.666667  0.333333  0.000000  1
  Ho  Ho1  1  0.333333  0.666667  0.000000  1
  Ho  Ho2  1  0.333333  0.666667  0.500000  1
  Ho  Ho3  1  0.758072  0.758017  0.749965  1
  Ho  Ho4  1  0.241983  0.000055  0.749965  1
  Ho  Ho5  1  0.999945  0.241928  0.749965  1
  Ho  Ho6  1  0.241983  0.241928  0.250035  1
  Ho  Ho7  1  0.758072  0.000055  0.250035  1
  Ho  Ho8  1  0.999945  0.758017  0.250035  1
  Tm  Tm9  1  0.666667  0.333333  0.500000  1
  Sn  Sn10  1  0.398641  0.398508  0.749889  1
  Sn  Sn11  1  0.601492  0.000132  0.749889  1
  Sn  Sn12  1  0.999868  0.601359  0.749889  1
  Sn  Sn13  1  0.601492  0.601359  0.250111  1
  Sn  Sn14  1  0.398641  0.000132  0.250111  1
  Sn  Sn15  1  0.999868  0.398508  0.250111  1
  P  P16  1  0.000000  0.000000  0.000000  1
  P  P17  1  0.000000  0.000000  0.500000  1
