# generated using pymatgen
data_NdZnHgPt3
_symmetry_space_group_name_H-M   'P 1'
_cell_length_a   5.30016461
_cell_length_b   5.54585681
_cell_length_c   5.54585800
_cell_angle_alpha   60.00000481
_cell_angle_beta   58.45435138
_cell_angle_gamma   58.45433883
_symmetry_Int_Tables_number   1
_chemical_formula_structural   NdZnHgPt3
_chemical_formula_sum   'Nd1 Zn1 Hg1 Pt3'
_cell_volume   112.50199257
_cell_formula_units_Z   1
loop_
 _symmetry_equiv_pos_site_id
 _symmetry_equiv_pos_as_xyz
  1  'x, y, z'
loop_
 _atom_site_type_symbol
 _atom_site_label
 _atom_site_symmetry_multiplicity
 _atom_site_fract_x
 _atom_site_fract_y
 _atom_site_fract_z
 _atom_site_occupancy
  Nd  Nd0  1  0.736872  0.754376  0.754376  1
  Zn  Zn1  1  0.880940  0.373020  0.373020  1
  Hg  Hg2  1  0.993948  0.002017  0.002017  1
  Pt  Pt3  1  0.379413  0.874816  0.372885  1
  Pt  Pt4  1  0.379413  0.372885  0.372885  1
  Pt  Pt5  1  0.379413  0.372885  0.874816  1
