# generated using pymatgen
data_Pr3Sc7(Co2Si5)4
_symmetry_space_group_name_H-M   'P 1'
_cell_length_a   12.25688959
_cell_length_b   12.25689057
_cell_length_c   4.02123000
_cell_angle_alpha   90.00000000
_cell_angle_beta   90.00000000
_cell_angle_gamma   90.12235726
_symmetry_Int_Tables_number   1
_chemical_formula_structural   Pr3Sc7(Co2Si5)4
_chemical_formula_sum   'Pr3 Sc7 Co8 Si20'
_cell_volume   604.11345194
_cell_formula_units_Z   1
loop_
 _symmetry_equiv_pos_site_id
 _symmetry_equiv_pos_as_xyz
  1  'x, y, z'
loop_
 _atom_site_type_symbol
 _atom_site_label
 _atom_site_symmetry_multiplicity
 _atom_site_fract_x
 _atom_site_fract_y
 _atom_site_fract_z
 _atom_site_occupancy
  Pr  Pr0  1  0.114508  0.613578  0.500000  1
  Pr  Pr1  1  0.886422  0.385492  0.500000  1
  Pr  Pr2  1  0.611973  0.888027  0.500000  1
  Sc  Sc3  1  0.387224  0.112776  0.500000  1
  Sc  Sc4  1  0.673277  0.176370  0.500000  1
  Sc  Sc5  1  0.323630  0.826723  0.500000  1
  Sc  Sc6  1  0.179016  0.320984  0.500000  1
  Sc  Sc7  1  0.823624  0.676376  0.500000  1
  Sc  Sc8  1  0.002054  0.000294  0.000000  1
  Sc  Sc9  1  0.499706  0.497946  0.000000  1
  Co  Co10  1  0.026788  0.239267  0.000000  1
  Co  Co11  1  0.975298  0.759951  0.000000  1
  Co  Co12  1  0.244486  0.977692  0.000000  1
  Co  Co13  1  0.522308  0.255514  0.000000  1
  Co  Co14  1  0.756995  0.025420  0.000000  1
  Co  Co15  1  0.474580  0.743005  0.000000  1
  Co  Co16  1  0.740049  0.524702  0.000000  1
  Co  Co17  1  0.260733  0.473212  0.000000  1
  Si  Si18  1  0.566345  0.073264  0.000000  1
  Si  Si19  1  0.426736  0.933655  0.000000  1
  Si  Si20  1  0.073277  0.426723  0.000000  1
  Si  Si21  1  0.928346  0.571654  0.000000  1
  Si  Si22  1  0.199307  0.156213  0.000000  1
  Si  Si23  1  0.806389  0.844197  0.000000  1
  Si  Si24  1  0.157678  0.808136  0.000000  1
  Si  Si25  1  0.691864  0.342322  0.000000  1
  Si  Si26  1  0.843391  0.192660  0.000000  1
  Si  Si27  1  0.307340  0.656609  0.000000  1
  Si  Si28  1  0.655803  0.693611  0.000000  1
  Si  Si29  1  0.343787  0.300693  0.000000  1
  Si  Si30  1  0.009608  0.158976  0.500000  1
  Si  Si31  1  0.991529  0.840384  0.500000  1
  Si  Si32  1  0.165089  0.998228  0.500000  1
  Si  Si33  1  0.501772  0.334911  0.500000  1
  Si  Si34  1  0.839829  0.011398  0.500000  1
  Si  Si35  1  0.488602  0.660171  0.500000  1
  Si  Si36  1  0.659616  0.508471  0.500000  1
  Si  Si37  1  0.341024  0.490392  0.500000  1
