# generated using pymatgen
data_Th2Si4GeRh3
_symmetry_space_group_name_H-M   'P 1'
_cell_length_a   8.29265326
_cell_length_b   8.29265166
_cell_length_c   8.29265261
_cell_angle_alpha   137.48203559
_cell_angle_beta   105.97398001
_cell_angle_gamma   89.29718242
_symmetry_Int_Tables_number   1
_chemical_formula_structural   Th2Si4GeRh3
_chemical_formula_sum   'Th4 Si8 Ge2 Rh6'
_cell_volume   354.22191401
_cell_formula_units_Z   2
loop_
 _symmetry_equiv_pos_site_id
 _symmetry_equiv_pos_as_xyz
  1  'x, y, z'
loop_
 _atom_site_type_symbol
 _atom_site_label
 _atom_site_symmetry_multiplicity
 _atom_site_fract_x
 _atom_site_fract_y
 _atom_site_fract_z
 _atom_site_occupancy
  Th  Th0  1  0.865172  0.631756  0.233418  1
  Th  Th1  1  0.134828  0.368244  0.766582  1
  Th  Th2  1  0.398338  0.131756  0.266582  1
  Th  Th3  1  0.601662  0.868244  0.733418  1
  Si  Si4  1  0.224812  0.974812  0.750000  1
  Si  Si5  1  0.775188  0.525188  0.750000  1
  Si  Si6  1  0.775188  0.025188  0.250000  1
  Si  Si7  1  0.224812  0.474812  0.250000  1
  Si  Si8  1  0.041816  0.892485  0.149332  1
  Si  Si9  1  0.958184  0.107515  0.850668  1
  Si  Si10  1  0.743152  0.392485  0.350668  1
  Si  Si11  1  0.256848  0.607515  0.649332  1
  Ge  Ge12  1  0.500000  0.750000  0.250000  1
  Ge  Ge13  1  0.500000  0.250000  0.750000  1
  Rh  Rh14  1  0.000000  0.750000  0.750000  1
  Rh  Rh15  1  0.000000  0.250000  0.250000  1
  Rh  Rh16  1  0.241034  0.855708  0.385326  1
  Rh  Rh17  1  0.758966  0.144292  0.614674  1
  Rh  Rh18  1  0.470383  0.355708  0.114674  1
  Rh  Rh19  1  0.529617  0.644292  0.885326  1
