# generated using pymatgen
data_SbRuI18
_symmetry_space_group_name_H-M   'P 1'
_cell_length_a   10.21184343
_cell_length_b   10.23062798
_cell_length_c   10.20699470
_cell_angle_alpha   89.22612895
_cell_angle_beta   89.34782780
_cell_angle_gamma   89.28887240
_symmetry_Int_Tables_number   1
_chemical_formula_structural   SbRuI18
_chemical_formula_sum   'Sb1 Ru1 I18'
_cell_volume   1066.11472489
_cell_formula_units_Z   1
loop_
 _symmetry_equiv_pos_site_id
 _symmetry_equiv_pos_as_xyz
  1  'x, y, z'
loop_
 _atom_site_type_symbol
 _atom_site_label
 _atom_site_symmetry_multiplicity
 _atom_site_fract_x
 _atom_site_fract_y
 _atom_site_fract_z
 _atom_site_occupancy
  Sb  Sb0  1  0.000000  0.000000  0.000000  1
  Ru  Ru1  1  0.500000  0.500000  0.500000  1
  I  I2  1  0.764248  0.484765  0.502760  1
  I  I3  1  0.501757  0.763874  0.483983  1
  I  I4  1  0.483917  0.502125  0.764090  1
  I  I5  1  0.235752  0.515235  0.497240  1
  I  I6  1  0.498243  0.236126  0.516017  1
  I  I7  1  0.516083  0.497875  0.235910  1
  I  I8  1  0.879952  0.385822  0.744676  1
  I  I9  1  0.743743  0.879303  0.385438  1
  I  I10  1  0.385732  0.744000  0.879520  1
  I  I11  1  0.120048  0.614178  0.255324  1
  I  I12  1  0.256257  0.120697  0.614562  1
  I  I13  1  0.614268  0.256000  0.120480  1
  I  I14  1  0.020036  0.973146  0.701475  1
  I  I15  1  0.701239  0.020653  0.972287  1
  I  I16  1  0.972123  0.701660  0.019399  1
  I  I17  1  0.979964  0.026854  0.298525  1
  I  I18  1  0.298761  0.979347  0.027713  1
  I  I19  1  0.027877  0.298340  0.980601  1
