# generated using pymatgen
data_Nd3(SnRu)2
_symmetry_space_group_name_H-M   'P 1'
_cell_length_a   5.89496600
_cell_length_b   8.46020300
_cell_length_c   14.06385300
_cell_angle_alpha   90.00000000
_cell_angle_beta   90.00000000
_cell_angle_gamma   90.00000000
_symmetry_Int_Tables_number   1
_chemical_formula_structural   Nd3(SnRu)2
_chemical_formula_sum   'Nd12 Sn8 Ru8'
_cell_volume   701.40104224
_cell_formula_units_Z   4
loop_
 _symmetry_equiv_pos_site_id
 _symmetry_equiv_pos_as_xyz
  1  'x, y, z'
loop_
 _atom_site_type_symbol
 _atom_site_label
 _atom_site_symmetry_multiplicity
 _atom_site_fract_x
 _atom_site_fract_y
 _atom_site_fract_z
 _atom_site_occupancy
  Nd  Nd0  1  0.839804  0.905959  0.593189  1
  Nd  Nd1  1  0.160196  0.405959  0.906811  1
  Nd  Nd2  1  0.839804  0.594041  0.093189  1
  Nd  Nd3  1  0.622754  0.279541  0.750000  1
  Nd  Nd4  1  0.622754  0.220459  0.250000  1
  Nd  Nd5  1  0.839804  0.594041  0.406811  1
  Nd  Nd6  1  0.377246  0.720459  0.250000  1
  Nd  Nd7  1  0.160196  0.094041  0.093189  1
  Nd  Nd8  1  0.160196  0.094041  0.406811  1
  Nd  Nd9  1  0.377246  0.779541  0.750000  1
  Nd  Nd10  1  0.160196  0.405959  0.593189  1
  Nd  Nd11  1  0.839804  0.905959  0.906811  1
  Sn  Sn12  1  0.363626  0.750000  0.500000  1
  Sn  Sn13  1  0.363626  0.750000  0.000000  1
  Sn  Sn14  1  0.118397  0.120044  0.750000  1
  Sn  Sn15  1  0.636374  0.250000  0.500000  1
  Sn  Sn16  1  0.118397  0.379956  0.250000  1
  Sn  Sn17  1  0.881603  0.879956  0.250000  1
  Sn  Sn18  1  0.881603  0.620044  0.750000  1
  Sn  Sn19  1  0.636374  0.250000  0.000000  1
  Ru  Ru20  1  0.351153  0.033199  0.909377  1
  Ru  Ru21  1  0.351153  0.466801  0.090623  1
  Ru  Ru22  1  0.648847  0.966801  0.090623  1
  Ru  Ru23  1  0.648847  0.533199  0.909377  1
  Ru  Ru24  1  0.648847  0.966801  0.409377  1
  Ru  Ru25  1  0.648847  0.533199  0.590623  1
  Ru  Ru26  1  0.351153  0.466801  0.409377  1
  Ru  Ru27  1  0.351153  0.033199  0.590623  1
