# generated using pymatgen
data_Ho3Er7(PtPb3)2
_symmetry_space_group_name_H-M   'P 1'
_cell_length_a   9.15592400
_cell_length_b   9.15592383
_cell_length_c   6.78598200
_cell_angle_alpha   90.00000000
_cell_angle_beta   90.00000000
_cell_angle_gamma   120.00000786
_symmetry_Int_Tables_number   1
_chemical_formula_structural   Ho3Er7(PtPb3)2
_chemical_formula_sum   'Ho3 Er7 Pt2 Pb6'
_cell_volume   492.66039481
_cell_formula_units_Z   1
loop_
 _symmetry_equiv_pos_site_id
 _symmetry_equiv_pos_as_xyz
  1  'x, y, z'
loop_
 _atom_site_type_symbol
 _atom_site_label
 _atom_site_symmetry_multiplicity
 _atom_site_fract_x
 _atom_site_fract_y
 _atom_site_fract_z
 _atom_site_occupancy
  Ho  Ho0  1  0.333333  0.666667  0.000000  1
  Ho  Ho1  1  0.666667  0.333333  0.000000  1
  Ho  Ho2  1  0.666667  0.333333  0.500000  1
  Er  Er3  1  0.244925  0.999975  0.250080  1
  Er  Er4  1  0.755050  0.999975  0.749920  1
  Er  Er5  1  0.000025  0.244950  0.250080  1
  Er  Er6  1  0.000025  0.755075  0.749920  1
  Er  Er7  1  0.755050  0.755075  0.250080  1
  Er  Er8  1  0.244925  0.244950  0.749920  1
  Er  Er9  1  0.333333  0.666667  0.500000  1
  Pt  Pt10  1  0.000000  0.000000  0.000000  1
  Pt  Pt11  1  0.000000  0.000000  0.500000  1
  Pb  Pb12  1  0.600379  0.999861  0.250129  1
  Pb  Pb13  1  0.399483  0.999861  0.749871  1
  Pb  Pb14  1  0.000139  0.600517  0.250129  1
  Pb  Pb15  1  0.000139  0.399621  0.749871  1
  Pb  Pb16  1  0.399483  0.399621  0.250129  1
  Pb  Pb17  1  0.600379  0.600517  0.749871  1
