# generated using pymatgen
data_NbZn3(InRh3)2
_symmetry_space_group_name_H-M   'P 1'
_cell_length_a   4.44030535
_cell_length_b   6.24304349
_cell_length_c   13.34144800
_cell_angle_alpha   89.99917050
_cell_angle_beta   89.99966923
_cell_angle_gamma   90.04539716
_symmetry_Int_Tables_number   1
_chemical_formula_structural   NbZn3(InRh3)2
_chemical_formula_sum   'Nb2 Zn6 In4 Rh12'
_cell_volume   369.83842270
_cell_formula_units_Z   2
loop_
 _symmetry_equiv_pos_site_id
 _symmetry_equiv_pos_as_xyz
  1  'x, y, z'
loop_
 _atom_site_type_symbol
 _atom_site_label
 _atom_site_symmetry_multiplicity
 _atom_site_fract_x
 _atom_site_fract_y
 _atom_site_fract_z
 _atom_site_occupancy
  Nb  Nb0  1  0.000051  0.000011  0.664680  1
  Nb  Nb1  1  0.500075  0.499990  0.835296  1
  Zn  Zn2  1  0.000003  0.499981  0.999451  1
  Zn  Zn3  1  0.499920  0.000003  0.168727  1
  Zn  Zn4  1  0.999936  0.499998  0.331291  1
  Zn  Zn5  1  0.500001  0.000019  0.500560  1
  Zn  Zn6  1  0.000059  0.499988  0.668601  1
  Zn  Zn7  1  0.500083  0.000008  0.831375  1
  In  In8  1  0.999980  0.000045  0.000323  1
  In  In9  1  0.499942  0.500006  0.166798  1
  In  In10  1  0.999949  0.999992  0.333218  1
  In  In11  1  0.499997  0.499954  0.499688  1
  Rh  Rh12  1  0.500138  0.254943  0.993796  1
  Rh  Rh13  1  0.499868  0.745023  0.993763  1
  Rh  Rh14  1  0.999860  0.249803  0.164908  1
  Rh  Rh15  1  0.999999  0.750194  0.164898  1
  Rh  Rh16  1  0.500008  0.250189  0.335121  1
  Rh  Rh17  1  0.499872  0.749817  0.335133  1
  Rh  Rh18  1  0.999865  0.245054  0.506202  1
  Rh  Rh19  1  0.000137  0.754987  0.506240  1
  Rh  Rh20  1  0.500152  0.249658  0.669879  1
  Rh  Rh21  1  0.499955  0.750310  0.669870  1
  Rh  Rh22  1  0.999973  0.250262  0.830089  1
  Rh  Rh23  1  0.000176  0.749768  0.830094  1
