# generated using pymatgen
data_DyEr4V3(Co4P3)4
_symmetry_space_group_name_H-M   'P 1'
_cell_length_a   12.03010700
_cell_length_b   12.03010601
_cell_length_c   3.65914000
_cell_angle_alpha   90.00000000
_cell_angle_beta   90.00000000
_cell_angle_gamma   119.99999446
_symmetry_Int_Tables_number   1
_chemical_formula_structural   DyEr4V3(Co4P3)4
_chemical_formula_sum   'Dy1 Er4 V3 Co16 P12'
_cell_volume   458.61539230
_cell_formula_units_Z   1
loop_
 _symmetry_equiv_pos_site_id
 _symmetry_equiv_pos_as_xyz
  1  'x, y, z'
loop_
 _atom_site_type_symbol
 _atom_site_label
 _atom_site_symmetry_multiplicity
 _atom_site_fract_x
 _atom_site_fract_y
 _atom_site_fract_z
 _atom_site_occupancy
  Dy  Dy0  1  0.333333  0.666667  0.000000  1
  Er  Er1  1  0.666667  0.333333  0.000000  1
  Er  Er2  1  0.186188  0.186205  0.500000  1
  Er  Er3  1  0.813795  0.999984  0.500000  1
  Er  Er4  1  0.000016  0.813812  0.500000  1
  V  V5  1  0.556691  0.556500  0.000000  1
  V  V6  1  0.443500  0.000191  0.000000  1
  V  V7  1  0.999809  0.443309  0.000000  1
  Co  Co8  1  0.823033  0.199393  0.000000  1
  Co  Co9  1  0.800607  0.623641  0.000000  1
  Co  Co10  1  0.376359  0.176967  0.000000  1
  Co  Co11  1  0.199262  0.823452  0.000000  1
  Co  Co12  1  0.624190  0.800738  0.000000  1
  Co  Co13  1  0.176548  0.375810  0.000000  1
  Co  Co14  1  0.644817  0.126516  0.500000  1
  Co  Co15  1  0.873484  0.518301  0.500000  1
  Co  Co16  1  0.481699  0.355183  0.500000  1
  Co  Co17  1  0.125691  0.644805  0.500000  1
  Co  Co18  1  0.519115  0.874309  0.500000  1
  Co  Co19  1  0.355195  0.480885  0.500000  1
  Co  Co20  1  0.718723  0.718388  0.500000  1
  Co  Co21  1  0.281612  0.000335  0.500000  1
  Co  Co22  1  0.999665  0.281277  0.500000  1
  Co  Co23  1  0.000000  0.000000  0.000000  1
  P  P24  1  0.362796  0.362777  0.000000  1
  P  P25  1  0.637223  0.000019  0.000000  1
  P  P26  1  0.999981  0.637204  0.000000  1
  P  P27  1  0.835400  0.316060  0.500000  1
  P  P28  1  0.683940  0.519340  0.500000  1
  P  P29  1  0.480660  0.164600  0.500000  1
  P  P30  1  0.316100  0.836229  0.500000  1
  P  P31  1  0.520128  0.683900  0.500000  1
  P  P32  1  0.163771  0.479872  0.500000  1
  P  P33  1  0.821179  0.821009  0.000000  1
  P  P34  1  0.178991  0.000170  0.000000  1
  P  P35  1  0.999830  0.178821  0.000000  1
