# generated using pymatgen
data_PrAl6Cu7
_symmetry_space_group_name_H-M   'P 1'
_cell_length_a   8.39019195
_cell_length_b   8.39018965
_cell_length_c   8.39019038
_cell_angle_alpha   121.85813220
_cell_angle_beta   118.47664568
_cell_angle_gamma   89.73538633
_symmetry_Int_Tables_number   1
_chemical_formula_structural   PrAl6Cu7
_chemical_formula_sum   'Pr2 Al12 Cu14'
_cell_volume   416.12086844
_cell_formula_units_Z   2
loop_
 _symmetry_equiv_pos_site_id
 _symmetry_equiv_pos_as_xyz
  1  'x, y, z'
loop_
 _atom_site_type_symbol
 _atom_site_label
 _atom_site_symmetry_multiplicity
 _atom_site_fract_x
 _atom_site_fract_y
 _atom_site_fract_z
 _atom_site_occupancy
  Pr  Pr0  1  0.250000  0.750000  0.500000  1
  Pr  Pr1  1  0.750000  0.250000  0.500000  1
  Al  Al2  1  0.555187  0.546788  0.357990  1
  Al  Al3  1  0.444813  0.453212  0.642010  1
  Al  Al4  1  0.188798  0.197198  0.642010  1
  Al  Al5  1  0.311202  0.953212  0.008399  1
  Al  Al6  1  0.811202  0.802802  0.357990  1
  Al  Al7  1  0.688798  0.046788  0.991601  1
  Al  Al8  1  0.944813  0.302802  0.991601  1
  Al  Al9  1  0.055187  0.697198  0.008399  1
  Al  Al10  1  0.052489  0.309929  0.362418  1
  Al  Al11  1  0.947511  0.690071  0.637582  1
  Al  Al12  1  0.552489  0.190071  0.742559  1
  Al  Al13  1  0.447511  0.809929  0.257441  1
  Cu  Cu14  1  0.285642  0.298511  0.232612  1
  Cu  Cu15  1  0.714358  0.701489  0.767388  1
  Cu  Cu16  1  0.065899  0.053030  0.767388  1
  Cu  Cu17  1  0.434101  0.201489  0.987131  1
  Cu  Cu18  1  0.934101  0.946970  0.232612  1
  Cu  Cu19  1  0.565899  0.798511  0.012869  1
  Cu  Cu20  1  0.214358  0.446970  0.012869  1
  Cu  Cu21  1  0.785642  0.553030  0.987131  1
  Cu  Cu22  1  0.000000  0.000000  0.000000  1
  Cu  Cu23  1  0.500000  0.500000  0.000000  1
  Cu  Cu24  1  0.286596  0.065538  0.352135  1
  Cu  Cu25  1  0.713404  0.934462  0.647865  1
  Cu  Cu26  1  0.786596  0.434462  0.221058  1
  Cu  Cu27  1  0.213404  0.565538  0.778942  1
