# generated using pymatgen
data_KAgS5
_symmetry_space_group_name_H-M   'P 1'
_cell_length_a   10.58331692
_cell_length_b   10.58331576
_cell_length_c   10.58331612
_cell_angle_alpha   130.30406576
_cell_angle_beta   117.67666390
_cell_angle_gamma   83.60828453
_symmetry_Int_Tables_number   1
_chemical_formula_structural   KAgS5
_chemical_formula_sum   'K4 Ag4 S20'
_cell_volume   768.54898071
_cell_formula_units_Z   4
loop_
 _symmetry_equiv_pos_site_id
 _symmetry_equiv_pos_as_xyz
  1  'x, y, z'
loop_
 _atom_site_type_symbol
 _atom_site_label
 _atom_site_symmetry_multiplicity
 _atom_site_fract_x
 _atom_site_fract_y
 _atom_site_fract_z
 _atom_site_occupancy
  K  K0  1  0.250000  0.250000  0.000000  1
  K  K1  1  0.750000  0.750000  0.000000  1
  K  K2  1  0.000000  0.500000  0.500000  1
  K  K3  1  0.500000  0.000000  0.500000  1
  Ag  Ag4  1  0.884217  0.250000  0.634217  1
  Ag  Ag5  1  0.615783  0.250000  0.365783  1
  Ag  Ag6  1  0.115783  0.750000  0.365783  1
  Ag  Ag7  1  0.384217  0.750000  0.634217  1
  S  S8  1  0.425049  0.402152  0.612121  1
  S  S9  1  0.074951  0.687072  0.977103  1
  S  S10  1  0.709969  0.097848  0.022897  1
  S  S11  1  0.790031  0.812928  0.387879  1
  S  S12  1  0.574951  0.597848  0.387879  1
  S  S13  1  0.925049  0.312928  0.022897  1
  S  S14  1  0.290031  0.902152  0.977103  1
  S  S15  1  0.209969  0.187072  0.612121  1
  S  S16  1  0.988399  0.151803  0.436859  1
  S  S17  1  0.511601  0.948460  0.163404  1
  S  S18  1  0.785056  0.348197  0.836596  1
  S  S19  1  0.714944  0.551540  0.563141  1
  S  S20  1  0.011601  0.848197  0.563141  1
  S  S21  1  0.488399  0.051540  0.836596  1
  S  S22  1  0.214944  0.651803  0.163404  1
  S  S23  1  0.285056  0.448460  0.436859  1
  S  S24  1  0.337871  0.426811  0.764681  1
  S  S25  1  0.162129  0.926811  0.088939  1
  S  S26  1  0.837871  0.073189  0.911061  1
  S  S27  1  0.662129  0.573189  0.235319  1
