# generated using pymatgen
data_YbSn5SbRu4
_symmetry_space_group_name_H-M   'P 1'
_cell_length_a   6.97876577
_cell_length_b   6.97876651
_cell_length_c   6.97876634
_cell_angle_alpha   120.45608311
_cell_angle_beta   121.06995660
_cell_angle_gamma   88.68425980
_symmetry_Int_Tables_number   1
_chemical_formula_structural   YbSn5SbRu4
_chemical_formula_sum   'Yb1 Sn5 Sb1 Ru4'
_cell_volume   237.48864429
_cell_formula_units_Z   1
loop_
 _symmetry_equiv_pos_site_id
 _symmetry_equiv_pos_as_xyz
  1  'x, y, z'
loop_
 _atom_site_type_symbol
 _atom_site_label
 _atom_site_symmetry_multiplicity
 _atom_site_fract_x
 _atom_site_fract_y
 _atom_site_fract_z
 _atom_site_occupancy
  Yb  Yb0  1  0.000000  0.000000  0.000000  1
  Sn  Sn1  1  0.464705  0.466565  0.348817  1
  Sn  Sn2  1  0.535295  0.884112  0.001860  1
  Sn  Sn3  1  0.882252  0.533435  0.998140  1
  Sn  Sn4  1  0.117748  0.115888  0.651183  1
  Sn  Sn5  1  0.500000  0.000000  0.500000  1
  Sb  Sb6  1  0.000000  0.500000  0.500000  1
  Ru  Ru7  1  0.404632  0.408789  0.656790  1
  Ru  Ru8  1  0.752000  0.747844  0.343210  1
  Ru  Ru9  1  0.248000  0.591211  0.995843  1
  Ru  Ru10  1  0.595368  0.252156  0.004157  1
