# generated using pymatgen
data_AcEuGa12Cu
_symmetry_space_group_name_H-M   'P 1'
_cell_length_a   6.24412600
_cell_length_b   6.24412600
_cell_length_c   15.58399800
_cell_angle_alpha   90.00000000
_cell_angle_beta   90.00000000
_cell_angle_gamma   90.00000000
_symmetry_Int_Tables_number   1
_chemical_formula_structural   AcEuGa12Cu
_chemical_formula_sum   'Ac2 Eu2 Ga24 Cu2'
_cell_volume   607.60620453
_cell_formula_units_Z   2
loop_
 _symmetry_equiv_pos_site_id
 _symmetry_equiv_pos_as_xyz
  1  'x, y, z'
loop_
 _atom_site_type_symbol
 _atom_site_label
 _atom_site_symmetry_multiplicity
 _atom_site_fract_x
 _atom_site_fract_y
 _atom_site_fract_z
 _atom_site_occupancy
  Ac  Ac0  1  0.000000  0.500000  0.246352  1
  Ac  Ac1  1  0.500000  0.000000  0.246352  1
  Eu  Eu2  1  0.000000  0.500000  0.755950  1
  Eu  Eu3  1  0.500000  0.000000  0.755950  1
  Ga  Ga4  1  0.677794  0.177794  0.433168  1
  Ga  Ga5  1  0.675702  0.824298  0.572662  1
  Ga  Ga6  1  0.175702  0.675702  0.572662  1
  Ga  Ga7  1  0.824298  0.324298  0.572662  1
  Ga  Ga8  1  0.500000  0.500000  0.176848  1
  Ga  Ga9  1  0.500000  0.500000  0.819356  1
  Ga  Ga10  1  0.000000  0.000000  0.819356  1
  Ga  Ga11  1  0.000000  0.000000  0.176848  1
  Ga  Ga12  1  0.500000  0.500000  0.343326  1
  Ga  Ga13  1  0.500000  0.500000  0.659482  1
  Ga  Ga14  1  0.000000  0.000000  0.659482  1
  Ga  Ga15  1  0.000000  0.000000  0.343326  1
  Ga  Ga16  1  0.249790  0.749790  0.913490  1
  Ga  Ga17  1  0.250210  0.249790  0.913490  1
  Ga  Ga18  1  0.749790  0.750210  0.913490  1
  Ga  Ga19  1  0.250312  0.249688  0.080936  1
  Ga  Ga20  1  0.749688  0.750312  0.080936  1
  Ga  Ga21  1  0.750210  0.250210  0.913490  1
  Ga  Ga22  1  0.750312  0.250312  0.080936  1
  Ga  Ga23  1  0.249688  0.749688  0.080936  1
  Ga  Ga24  1  0.322206  0.822206  0.433168  1
  Ga  Ga25  1  0.177794  0.322206  0.433168  1
  Ga  Ga26  1  0.822206  0.677794  0.433168  1
  Ga  Ga27  1  0.324298  0.175702  0.572662  1
  Cu  Cu28  1  0.500000  0.000000  0.998174  1
  Cu  Cu29  1  0.000000  0.500000  0.998174  1
