# generated using pymatgen
data_Ho5Mg3(P3Ir4)4
_symmetry_space_group_name_H-M   'P 1'
_cell_length_a   12.79040100
_cell_length_b   12.79040058
_cell_length_c   3.97669000
_cell_angle_alpha   90.00000000
_cell_angle_beta   90.00000000
_cell_angle_gamma   119.99999849
_symmetry_Int_Tables_number   1
_chemical_formula_structural   Ho5Mg3(P3Ir4)4
_chemical_formula_sum   'Ho5 Mg3 P12 Ir16'
_cell_volume   563.40498135
_cell_formula_units_Z   1
loop_
 _symmetry_equiv_pos_site_id
 _symmetry_equiv_pos_as_xyz
  1  'x, y, z'
loop_
 _atom_site_type_symbol
 _atom_site_label
 _atom_site_symmetry_multiplicity
 _atom_site_fract_x
 _atom_site_fract_y
 _atom_site_fract_z
 _atom_site_occupancy
  Ho  Ho0  1  0.333333  0.666667  0.500000  1
  Ho  Ho1  1  0.666667  0.333333  0.500000  1
  Ho  Ho2  1  0.000000  0.809678  0.000000  1
  Ho  Ho3  1  0.190322  0.190322  0.000000  1
  Ho  Ho4  1  0.809678  0.000000  0.000000  1
  Mg  Mg5  1  0.000000  0.446036  0.500000  1
  Mg  Mg6  1  0.553964  0.553964  0.500000  1
  Mg  Mg7  1  0.446036  0.000000  0.500000  1
  P  P8  1  0.000000  0.642353  0.500000  1
  P  P9  1  0.357647  0.357647  0.500000  1
  P  P10  1  0.642353  0.000000  0.500000  1
  P  P11  1  0.515917  0.688013  0.000000  1
  P  P12  1  0.311987  0.827904  0.000000  1
  P  P13  1  0.172096  0.484083  0.000000  1
  P  P14  1  0.484083  0.172096  0.000000  1
  P  P15  1  0.688013  0.515917  0.000000  1
  P  P16  1  0.827904  0.311987  0.000000  1
  P  P17  1  0.000000  0.177262  0.500000  1
  P  P18  1  0.822738  0.822738  0.500000  1
  P  P19  1  0.177262  0.000000  0.500000  1
  Ir  Ir20  1  0.508834  0.867781  0.000000  1
  Ir  Ir21  1  0.132219  0.641054  0.000000  1
  Ir  Ir22  1  0.358946  0.491166  0.000000  1
  Ir  Ir23  1  0.491166  0.358946  0.000000  1
  Ir  Ir24  1  0.867781  0.508834  0.000000  1
  Ir  Ir25  1  0.641054  0.132219  0.000000  1
  Ir  Ir26  1  0.000000  0.279016  0.000000  1
  Ir  Ir27  1  0.720984  0.720984  0.000000  1
  Ir  Ir28  1  0.279016  0.000000  0.000000  1
  Ir  Ir29  1  0.627859  0.806042  0.500000  1
  Ir  Ir30  1  0.193958  0.821817  0.500000  1
  Ir  Ir31  1  0.178183  0.372141  0.500000  1
  Ir  Ir32  1  0.372141  0.178183  0.500000  1
  Ir  Ir33  1  0.806042  0.627859  0.500000  1
  Ir  Ir34  1  0.821817  0.193958  0.500000  1
  Ir  Ir35  1  0.000000  0.000000  0.500000  1
