# generated using pymatgen
data_BaMgSbH
_symmetry_space_group_name_H-M   'P 1'
_cell_length_a   4.69211300
_cell_length_b   4.69468600
_cell_length_c   18.93497200
_cell_angle_alpha   90.00000000
_cell_angle_beta   90.00000000
_cell_angle_gamma   90.00000000
_symmetry_Int_Tables_number   1
_chemical_formula_structural   BaMgSbH
_chemical_formula_sum   'Ba4 Mg4 Sb4 H4'
_cell_volume   417.09951042
_cell_formula_units_Z   4
loop_
 _symmetry_equiv_pos_site_id
 _symmetry_equiv_pos_as_xyz
  1  'x, y, z'
loop_
 _atom_site_type_symbol
 _atom_site_label
 _atom_site_symmetry_multiplicity
 _atom_site_fract_x
 _atom_site_fract_y
 _atom_site_fract_z
 _atom_site_occupancy
  Ba  Ba0  1  0.250000  0.752954  0.569040  1
  Ba  Ba1  1  0.750000  0.247046  0.430960  1
  Ba  Ba2  1  0.750000  0.252954  0.930960  1
  Ba  Ba3  1  0.250000  0.747046  0.069040  1
  Mg  Mg4  1  0.250000  0.263788  0.749924  1
  Mg  Mg5  1  0.750000  0.736212  0.250076  1
  Mg  Mg6  1  0.750000  0.763788  0.750076  1
  Mg  Mg7  1  0.250000  0.236212  0.249924  1
  Sb  Sb8  1  0.250000  0.738785  0.341981  1
  Sb  Sb9  1  0.750000  0.261215  0.658019  1
  Sb  Sb10  1  0.750000  0.238785  0.158019  1
  Sb  Sb11  1  0.250000  0.761215  0.841981  1
  H  H12  1  0.250000  0.249045  0.000044  1
  H  H13  1  0.750000  0.750955  0.999956  1
  H  H14  1  0.750000  0.749045  0.499956  1
  H  H15  1  0.250000  0.250955  0.500044  1
