# generated using pymatgen
data_Tm12TlCo2Ni2Ir
_symmetry_space_group_name_H-M   'P 1'
_cell_length_a   8.17723681
_cell_length_b   8.17723848
_cell_length_c   8.17723691
_cell_angle_alpha   110.94637432
_cell_angle_beta   109.96603113
_cell_angle_gamma   107.52025239
_symmetry_Int_Tables_number   1
_chemical_formula_structural   Tm12TlCo2Ni2Ir
_chemical_formula_sum   'Tm12 Tl1 Co2 Ni2 Ir1'
_cell_volume   420.52204680
_cell_formula_units_Z   1
loop_
 _symmetry_equiv_pos_site_id
 _symmetry_equiv_pos_as_xyz
  1  'x, y, z'
loop_
 _atom_site_type_symbol
 _atom_site_label
 _atom_site_symmetry_multiplicity
 _atom_site_fract_x
 _atom_site_fract_y
 _atom_site_fract_z
 _atom_site_occupancy
  Tm  Tm0  1  0.414655  0.221600  0.193054  1
  Tm  Tm1  1  0.585345  0.778400  0.806946  1
  Tm  Tm2  1  0.028547  0.221600  0.806946  1
  Tm  Tm3  1  0.971453  0.778400  0.193054  1
  Tm  Tm4  1  0.180777  0.285003  0.465779  1
  Tm  Tm5  1  0.819223  0.714997  0.534221  1
  Tm  Tm6  1  0.180777  0.714997  0.895774  1
  Tm  Tm7  1  0.819223  0.285003  0.104226  1
  Tm  Tm8  1  0.317508  0.623475  0.305967  1
  Tm  Tm9  1  0.682492  0.376525  0.694033  1
  Tm  Tm10  1  0.317508  0.011542  0.694033  1
  Tm  Tm11  1  0.682492  0.988458  0.305967  1
  Tl  Tl12  1  0.500000  0.500000  0.000000  1
  Co  Co13  1  0.114944  0.614944  0.500000  1
  Co  Co14  1  0.885056  0.385056  0.500000  1
  Ni  Ni15  1  0.363043  0.000000  0.363043  1
  Ni  Ni16  1  0.636957  0.000000  0.636957  1
  Ir  Ir17  1  0.000000  0.000000  0.000000  1
