# generated using pymatgen
data_HoEr3(CdNi2)2
_symmetry_space_group_name_H-M   'P 1'
_cell_length_a   7.35445000
_cell_length_b   7.35444902
_cell_length_c   3.54372500
_cell_angle_alpha   90.00000000
_cell_angle_beta   90.00000000
_cell_angle_gamma   90.04241998
_symmetry_Int_Tables_number   1
_chemical_formula_structural   HoEr3(CdNi2)2
_chemical_formula_sum   'Ho1 Er3 Cd2 Ni4'
_cell_volume   191.67268857
_cell_formula_units_Z   1
loop_
 _symmetry_equiv_pos_site_id
 _symmetry_equiv_pos_as_xyz
  1  'x, y, z'
loop_
 _atom_site_type_symbol
 _atom_site_label
 _atom_site_symmetry_multiplicity
 _atom_site_fract_x
 _atom_site_fract_y
 _atom_site_fract_z
 _atom_site_occupancy
  Ho  Ho0  1  0.674472  0.174472  0.500000  1
  Er  Er1  1  0.325657  0.825657  0.500000  1
  Er  Er2  1  0.825898  0.674219  0.500000  1
  Er  Er3  1  0.174219  0.325898  0.500000  1
  Cd  Cd4  1  0.000257  0.999921  0.000000  1
  Cd  Cd5  1  0.499921  0.500257  0.000000  1
  Ni  Ni6  1  0.379845  0.119184  0.000000  1
  Ni  Ni7  1  0.881136  0.381136  0.000000  1
  Ni  Ni8  1  0.119410  0.619410  0.000000  1
  Ni  Ni9  1  0.619184  0.879845  0.000000  1
