# generated using pymatgen
data_Dy7Tm(TcI4)2
_symmetry_space_group_name_H-M   'P 1'
_cell_length_a   11.65409182
_cell_length_b   11.63688736
_cell_length_c   6.17464400
_cell_angle_alpha   90.04789220
_cell_angle_beta   89.97850073
_cell_angle_gamma   90.04925924
_symmetry_Int_Tables_number   1
_chemical_formula_structural   Dy7Tm(TcI4)2
_chemical_formula_sum   'Dy7 Tm1 Tc2 I8'
_cell_volume   837.38821939
_cell_formula_units_Z   1
loop_
 _symmetry_equiv_pos_site_id
 _symmetry_equiv_pos_as_xyz
  1  'x, y, z'
loop_
 _atom_site_type_symbol
 _atom_site_label
 _atom_site_symmetry_multiplicity
 _atom_site_fract_x
 _atom_site_fract_y
 _atom_site_fract_z
 _atom_site_occupancy
  Dy  Dy0  1  0.078908  0.808002  0.500967  1
  Dy  Dy1  1  0.079009  0.192009  0.000956  1
  Dy  Dy2  1  0.191694  0.079436  0.500799  1
  Dy  Dy3  1  0.920736  0.808114  0.999192  1
  Dy  Dy4  1  0.920033  0.192064  0.499309  1
  Dy  Dy5  1  0.191932  0.920748  0.998775  1
  Dy  Dy6  1  0.807515  0.921275  0.499453  1
  Tm  Tm7  1  0.812643  0.077397  0.001700  1
  Tc  Tc8  1  0.000299  0.999766  0.250079  1
  Tc  Tc9  1  0.999892  0.000137  0.750179  1
  I  I10  1  0.653521  0.143963  0.488717  1
  I  I11  1  0.855165  0.654058  0.506050  1
  I  I12  1  0.345604  0.144577  0.993964  1
  I  I13  1  0.144187  0.346200  0.493937  1
  I  I14  1  0.654431  0.857960  0.006035  1
  I  I15  1  0.346102  0.856186  0.509973  1
  I  I16  1  0.143731  0.653575  0.989892  1
  I  I17  1  0.854597  0.344535  0.010025  1
