# generated using pymatgen
data_Y4AsIO8
_symmetry_space_group_name_H-M   'P 1'
_cell_length_a   8.14940900
_cell_length_b   8.14940900
_cell_length_c   12.94266000
_cell_angle_alpha   90.00000000
_cell_angle_beta   90.00000000
_cell_angle_gamma   90.00000000
_symmetry_Int_Tables_number   1
_chemical_formula_structural   Y4AsIO8
_chemical_formula_sum   'Y16 As4 I4 O32'
_cell_volume   859.55915784
_cell_formula_units_Z   4
loop_
 _symmetry_equiv_pos_site_id
 _symmetry_equiv_pos_as_xyz
  1  'x, y, z'
loop_
 _atom_site_type_symbol
 _atom_site_label
 _atom_site_symmetry_multiplicity
 _atom_site_fract_x
 _atom_site_fract_y
 _atom_site_fract_z
 _atom_site_occupancy
  Y  Y0  1  0.014755  0.243116  0.171563  1
  Y  Y1  1  0.985245  0.756884  0.171563  1
  Y  Y2  1  0.481122  0.242811  0.173259  1
  Y  Y3  1  0.518878  0.757188  0.173259  1
  Y  Y4  1  0.757188  0.481122  0.326741  1
  Y  Y5  1  0.242811  0.518878  0.326741  1
  Y  Y6  1  0.756884  0.014755  0.328437  1
  Y  Y7  1  0.243116  0.985245  0.328437  1
  Y  Y8  1  0.756884  0.014755  0.671563  1
  Y  Y9  1  0.243116  0.985245  0.671563  1
  Y  Y10  1  0.757188  0.481122  0.673258  1
  Y  Y11  1  0.242811  0.518878  0.673258  1
  Y  Y12  1  0.481122  0.242811  0.826741  1
  Y  Y13  1  0.518878  0.757188  0.826741  1
  Y  Y14  1  0.014755  0.243116  0.828437  1
  Y  Y15  1  0.985245  0.756884  0.828437  1
  As  As16  1  0.747621  0.044992  0.000000  1
  As  As17  1  0.252379  0.955008  0.000000  1
  As  As18  1  0.044992  0.252379  0.500000  1
  As  As19  1  0.955008  0.747621  0.500000  1
  I  I20  1  0.252264  0.453956  0.000000  1
  I  I21  1  0.747736  0.546044  0.000000  1
  I  I22  1  0.546044  0.252264  0.500000  1
  I  I23  1  0.453956  0.747736  0.500000  1
  O  O24  1  0.574153  0.168974  0.000000  1
  O  O25  1  0.922170  0.168150  0.000000  1
  O  O26  1  0.077829  0.831849  0.000000  1
  O  O27  1  0.425847  0.831026  0.000000  1
  O  O28  1  0.252299  0.074847  0.108692  1
  O  O29  1  0.747700  0.925153  0.108692  1
  O  O30  1  0.742886  0.248347  0.226967  1
  O  O31  1  0.257114  0.751653  0.226967  1
  O  O32  1  0.000000  0.500000  0.236371  1
  O  O33  1  0.000000  0.000000  0.250000  1
  O  O34  1  0.500000  0.500000  0.250000  1
  O  O35  1  0.500000  0.000000  0.263629  1
  O  O36  1  0.248347  0.257114  0.273034  1
  O  O37  1  0.751653  0.742886  0.273034  1
  O  O38  1  0.925153  0.252299  0.391308  1
  O  O39  1  0.074847  0.747700  0.391308  1
  O  O40  1  0.168150  0.077829  0.500000  1
  O  O41  1  0.168974  0.425847  0.500000  1
  O  O42  1  0.831026  0.574153  0.500000  1
  O  O43  1  0.831849  0.922170  0.500000  1
  O  O44  1  0.925153  0.252299  0.608692  1
  O  O45  1  0.074847  0.747700  0.608692  1
  O  O46  1  0.248347  0.257114  0.726967  1
  O  O47  1  0.751653  0.742886  0.726967  1
  O  O48  1  0.500000  0.000000  0.736371  1
  O  O49  1  0.000000  0.000000  0.750000  1
  O  O50  1  0.500000  0.500000  0.750000  1
  O  O51  1  0.000000  0.500000  0.763630  1
  O  O52  1  0.742886  0.248347  0.773034  1
  O  O53  1  0.257114  0.751653  0.773034  1
  O  O54  1  0.252299  0.074847  0.891308  1
  O  O55  1  0.747700  0.925153  0.891308  1
