# generated using pymatgen
data_Ca6Ga7Ag5
_symmetry_space_group_name_H-M   'P 1'
_cell_length_a   5.94373758
_cell_length_b   5.94373854
_cell_length_c   17.00127341
_cell_angle_alpha   77.10798187
_cell_angle_beta   77.10798089
_cell_angle_gamma   44.21304636
_symmetry_Int_Tables_number   1
_chemical_formula_structural   Ca6Ga7Ag5
_chemical_formula_sum   'Ca6 Ga7 Ag5'
_cell_volume   406.50425080
_cell_formula_units_Z   1
loop_
 _symmetry_equiv_pos_site_id
 _symmetry_equiv_pos_as_xyz
  1  'x, y, z'
loop_
 _atom_site_type_symbol
 _atom_site_label
 _atom_site_symmetry_multiplicity
 _atom_site_fract_x
 _atom_site_fract_y
 _atom_site_fract_z
 _atom_site_occupancy
  Ca  Ca0  1  0.275439  0.275439  0.236515  1
  Ca  Ca1  1  0.610060  0.610060  0.571129  1
  Ca  Ca2  1  0.946113  0.946113  0.901764  1
  Ca  Ca3  1  0.053222  0.053222  0.097475  1
  Ca  Ca4  1  0.388308  0.388308  0.430300  1
  Ca  Ca5  1  0.720911  0.720911  0.766002  1
  Ga  Ga6  1  0.757882  0.757882  0.088923  1
  Ga  Ga7  1  0.090542  0.090542  0.427495  1
  Ga  Ga8  1  0.423436  0.423436  0.761711  1
  Ga  Ga9  1  0.377044  0.377044  0.038109  1
  Ga  Ga10  1  0.963047  0.963047  0.294862  1
  Ga  Ga11  1  0.295685  0.295685  0.631936  1
  Ga  Ga12  1  0.626037  0.626037  0.966830  1
  Ag  Ag13  1  0.713249  0.713249  0.374774  1
  Ag  Ag14  1  0.045120  0.045120  0.708610  1
  Ag  Ag15  1  0.572210  0.572210  0.230976  1
  Ag  Ag16  1  0.903495  0.903495  0.566932  1
  Ag  Ag17  1  0.238210  0.238210  0.905656  1
