# generated using pymatgen
data_Hf6Ga6Fe2NiPd3
_symmetry_space_group_name_H-M   'P 1'
_cell_length_a   7.17456200
_cell_length_b   7.17456204
_cell_length_c   6.60621800
_cell_angle_alpha   90.00000000
_cell_angle_beta   90.00000000
_cell_angle_gamma   119.99999981
_symmetry_Int_Tables_number   1
_chemical_formula_structural   Hf6Ga6Fe2NiPd3
_chemical_formula_sum   'Hf6 Ga6 Fe2 Ni1 Pd3'
_cell_volume   294.49255629
_cell_formula_units_Z   1
loop_
 _symmetry_equiv_pos_site_id
 _symmetry_equiv_pos_as_xyz
  1  'x, y, z'
loop_
 _atom_site_type_symbol
 _atom_site_label
 _atom_site_symmetry_multiplicity
 _atom_site_fract_x
 _atom_site_fract_y
 _atom_site_fract_z
 _atom_site_occupancy
  Hf  Hf0  1  0.738573  0.047733  0.000000  1
  Hf  Hf1  1  0.309159  0.261427  0.000000  1
  Hf  Hf2  1  0.952267  0.690841  0.000000  1
  Hf  Hf3  1  0.309340  0.250339  0.500000  1
  Hf  Hf4  1  0.749661  0.059001  0.500000  1
  Hf  Hf5  1  0.940999  0.690660  0.500000  1
  Ga  Ga6  1  0.601944  0.665043  0.758890  1
  Ga  Ga7  1  0.063100  0.398056  0.758890  1
  Ga  Ga8  1  0.334957  0.936900  0.758890  1
  Ga  Ga9  1  0.601944  0.665043  0.241110  1
  Ga  Ga10  1  0.063100  0.398056  0.241110  1
  Ga  Ga11  1  0.334957  0.936900  0.241110  1
  Fe  Fe12  1  0.000000  0.000000  0.249364  1
  Fe  Fe13  1  0.000000  0.000000  0.750636  1
  Ni  Ni14  1  0.333333  0.666667  0.000000  1
  Pd  Pd15  1  0.333333  0.666667  0.500000  1
  Pd  Pd16  1  0.666667  0.333333  0.752805  1
  Pd  Pd17  1  0.666667  0.333333  0.247195  1
