# generated using pymatgen
data_Ca4CrGe2Pd27
_symmetry_space_group_name_H-M   'P 1'
_cell_length_a   8.97050158
_cell_length_b   8.97050158
_cell_length_c   7.12482103
_cell_angle_alpha   90.00630559
_cell_angle_beta   90.00630559
_cell_angle_gamma   89.60027957
_symmetry_Int_Tables_number   1
_chemical_formula_structural   Ca4CrGe2Pd27
_chemical_formula_sum   'Ca4 Cr1 Ge2 Pd27'
_cell_volume   573.31966722
_cell_formula_units_Z   1
loop_
 _symmetry_equiv_pos_site_id
 _symmetry_equiv_pos_as_xyz
  1  'x, y, z'
loop_
 _atom_site_type_symbol
 _atom_site_label
 _atom_site_symmetry_multiplicity
 _atom_site_fract_x
 _atom_site_fract_y
 _atom_site_fract_z
 _atom_site_occupancy
  Ca  Ca0  1  0.507673  0.007673  0.938304  1
  Ca  Ca1  1  0.992327  0.492327  0.061696  1
  Ca  Ca2  1  0.001943  0.998057  0.500000  1
  Ca  Ca3  1  0.498057  0.501943  0.500000  1
  Cr  Cr4  1  0.250000  0.750000  0.000000  1
  Ge  Ge5  1  0.500551  0.000551  0.450791  1
  Ge  Ge6  1  0.999449  0.499449  0.549209  1
  Pd  Pd7  1  0.328808  0.828808  0.621985  1
  Pd  Pd8  1  0.328720  0.170802  0.625638  1
  Pd  Pd9  1  0.670802  0.828720  0.625638  1
  Pd  Pd10  1  0.670386  0.170386  0.622433  1
  Pd  Pd11  1  0.171192  0.671192  0.378015  1
  Pd  Pd12  1  0.171280  0.329198  0.374362  1
  Pd  Pd13  1  0.829198  0.671280  0.374362  1
  Pd  Pd14  1  0.829614  0.329614  0.377567  1
  Pd  Pd15  1  0.496637  0.767959  0.250675  1
  Pd  Pd16  1  0.497780  0.234743  0.254726  1
  Pd  Pd17  1  0.267959  0.996637  0.250675  1
  Pd  Pd18  1  0.734743  0.997780  0.254726  1
  Pd  Pd19  1  0.003363  0.732041  0.749325  1
  Pd  Pd20  1  0.002220  0.265257  0.745274  1
  Pd  Pd21  1  0.232041  0.503363  0.749325  1
  Pd  Pd22  1  0.765257  0.502220  0.745274  1
  Pd  Pd23  1  0.499347  0.352910  0.856342  1
  Pd  Pd24  1  0.493551  0.659642  0.865113  1
  Pd  Pd25  1  0.852910  0.999347  0.856342  1
  Pd  Pd26  1  0.159642  0.993551  0.865113  1
  Pd  Pd27  1  0.000653  0.147090  0.143658  1
  Pd  Pd28  1  0.006449  0.840358  0.134887  1
  Pd  Pd29  1  0.647090  0.500653  0.143658  1
  Pd  Pd30  1  0.340358  0.506449  0.134887  1
  Pd  Pd31  1  0.250000  0.250000  0.000000  1
  Pd  Pd32  1  0.750000  0.750000  0.000000  1
  Pd  Pd33  1  0.750000  0.250000  0.000000  1
