# generated using pymatgen
data_PrNdCuNi7B2
_symmetry_space_group_name_H-M   'P 1'
_cell_length_a   5.09630304
_cell_length_b   5.09914520
_cell_length_c   6.98441800
_cell_angle_alpha   90.00000000
_cell_angle_beta   90.00000000
_cell_angle_gamma   120.00598867
_symmetry_Int_Tables_number   1
_chemical_formula_structural   PrNdCuNi7B2
_chemical_formula_sum   'Pr1 Nd1 Cu1 Ni7 B2'
_cell_volume   157.17637462
_cell_formula_units_Z   1
loop_
 _symmetry_equiv_pos_site_id
 _symmetry_equiv_pos_as_xyz
  1  'x, y, z'
loop_
 _atom_site_type_symbol
 _atom_site_label
 _atom_site_symmetry_multiplicity
 _atom_site_fract_x
 _atom_site_fract_y
 _atom_site_fract_z
 _atom_site_occupancy
  Pr  Pr0  1  0.999975  0.999985  0.500000  1
  Nd  Nd1  1  0.000017  0.000069  0.000000  1
  Cu  Cu2  1  0.333184  0.666608  0.000000  1
  Ni  Ni3  1  0.666715  0.333424  0.000000  1
  Ni  Ni4  1  0.500797  0.001640  0.295236  1
  Ni  Ni5  1  0.500822  0.499167  0.295243  1
  Ni  Ni6  1  0.998340  0.499174  0.295227  1
  Ni  Ni7  1  0.500797  0.001640  0.704764  1
  Ni  Ni8  1  0.500822  0.499167  0.704757  1
  Ni  Ni9  1  0.998340  0.499174  0.704773  1
  B  B10  1  0.333363  0.666670  0.500000  1
  B  B11  1  0.666623  0.333279  0.500000  1
