# generated using pymatgen
data_Lu24Al3HgTe8
_symmetry_space_group_name_H-M   'P 1'
_cell_length_a   4.06151600
_cell_length_b   11.35907889
_cell_length_c   21.16194824
_cell_angle_alpha   89.89331831
_cell_angle_beta   90.00000000
_cell_angle_gamma   90.00000000
_symmetry_Int_Tables_number   1
_chemical_formula_structural   Lu24Al3HgTe8
_chemical_formula_sum   'Lu24 Al3 Hg1 Te8'
_cell_volume   976.30649616
_cell_formula_units_Z   1
loop_
 _symmetry_equiv_pos_site_id
 _symmetry_equiv_pos_as_xyz
  1  'x, y, z'
loop_
 _atom_site_type_symbol
 _atom_site_label
 _atom_site_symmetry_multiplicity
 _atom_site_fract_x
 _atom_site_fract_y
 _atom_site_fract_z
 _atom_site_occupancy
  Lu  Lu0  1  0.750000  0.677529  0.891323  1
  Lu  Lu1  1  0.250000  0.375606  0.470454  1
  Lu  Lu2  1  0.750000  0.875333  0.027845  1
  Lu  Lu3  1  0.750000  0.971269  0.840407  1
  Lu  Lu4  1  0.250000  0.178264  0.608711  1
  Lu  Lu5  1  0.250000  0.741628  0.270091  1
  Lu  Lu6  1  0.750000  0.108503  0.491563  1
  Lu  Lu7  1  0.750000  0.562317  0.139365  1
  Lu  Lu8  1  0.250000  0.322488  0.108773  1
  Lu  Lu9  1  0.250000  0.028889  0.159662  1
  Lu  Lu10  1  0.250000  0.472508  0.661136  1
  Lu  Lu11  1  0.250000  0.758608  0.770362  1
  Lu  Lu12  1  0.750000  0.529211  0.339828  1
  Lu  Lu13  1  0.750000  0.937502  0.639341  1
  Lu  Lu14  1  0.250000  0.611457  0.007826  1
  Lu  Lu15  1  0.750000  0.257536  0.731430  1
  Lu  Lu16  1  0.750000  0.241722  0.229921  1
  Lu  Lu17  1  0.750000  0.625239  0.527491  1
  Lu  Lu18  1  0.750000  0.822413  0.391263  1
  Lu  Lu19  1  0.250000  0.124703  0.972146  1
  Lu  Lu20  1  0.250000  0.887758  0.507485  1
  Lu  Lu21  1  0.750000  0.388389  0.992329  1
  Lu  Lu22  1  0.250000  0.437498  0.860702  1
  Lu  Lu23  1  0.250000  0.062281  0.360477  1
  Al  Al24  1  0.750000  0.133405  0.075824  1
  Al  Al25  1  0.250000  0.633310  0.423730  1
  Al  Al26  1  0.250000  0.866534  0.923894  1
  Hg  Hg27  1  0.750000  0.367470  0.575599  1
  Te  Te28  1  0.250000  0.770428  0.126490  1
  Te  Te29  1  0.250000  0.730625  0.627010  1
  Te  Te30  1  0.250000  0.042730  0.736898  1
  Te  Te31  1  0.750000  0.270398  0.373408  1
  Te  Te32  1  0.750000  0.542676  0.763339  1
  Te  Te33  1  0.250000  0.456908  0.237277  1
  Te  Te34  1  0.750000  0.957137  0.262775  1
  Te  Te35  1  0.750000  0.229728  0.873825  1
