# generated using pymatgen
data_Er3Lu3U2(ReB6)4
_symmetry_space_group_name_H-M   'P 1'
_cell_length_a   3.65199800
_cell_length_b   9.08576563
_cell_length_c   11.44282486
_cell_angle_alpha   90.35759089
_cell_angle_beta   90.00000000
_cell_angle_gamma   90.00000000
_symmetry_Int_Tables_number   1
_chemical_formula_structural   Er3Lu3U2(ReB6)4
_chemical_formula_sum   'Er3 Lu3 U2 Re4 B24'
_cell_volume   379.67924165
_cell_formula_units_Z   1
loop_
 _symmetry_equiv_pos_site_id
 _symmetry_equiv_pos_as_xyz
  1  'x, y, z'
loop_
 _atom_site_type_symbol
 _atom_site_label
 _atom_site_symmetry_multiplicity
 _atom_site_fract_x
 _atom_site_fract_y
 _atom_site_fract_z
 _atom_site_occupancy
  Er  Er0  1  0.000000  0.822575  0.085781  1
  Er  Er1  1  0.000000  0.177657  0.913986  1
  Er  Er2  1  0.000000  0.945070  0.373199  1
  Lu  Lu3  1  0.000000  0.055009  0.627470  1
  Lu  Lu4  1  0.000000  0.443962  0.126276  1
  Lu  Lu5  1  0.000000  0.556086  0.873293  1
  U  U6  1  0.000000  0.322530  0.413729  1
  U  U7  1  0.000000  0.677511  0.586672  1
  Re  Re8  1  0.000000  0.634946  0.324757  1
  Re  Re9  1  0.000000  0.364129  0.675453  1
  Re  Re10  1  0.000000  0.141894  0.182262  1
  Re  Re11  1  0.000000  0.858608  0.817551  1
  B  B12  1  0.500000  0.552410  0.434134  1
  B  B13  1  0.500000  0.447082  0.566077  1
  B  B14  1  0.500000  0.053763  0.066856  1
  B  B15  1  0.500000  0.946552  0.932718  1
  B  B16  1  0.500000  0.748502  0.420646  1
  B  B17  1  0.500000  0.250747  0.579768  1
  B  B18  1  0.500000  0.249840  0.080057  1
  B  B19  1  0.500000  0.750421  0.919736  1
  B  B20  1  0.500000  0.791842  0.265313  1
  B  B21  1  0.500000  0.207425  0.734449  1
  B  B22  1  0.500000  0.294180  0.234682  1
  B  B23  1  0.500000  0.706110  0.765201  1
  B  B24  1  0.500000  0.630309  0.184642  1
  B  B25  1  0.500000  0.369388  0.815192  1
  B  B26  1  0.500000  0.133548  0.315423  1
  B  B27  1  0.500000  0.867157  0.684468  1
  B  B28  1  0.500000  0.981938  0.212304  1
  B  B29  1  0.500000  0.018460  0.787091  1
  B  B30  1  0.500000  0.481244  0.286670  1
  B  B31  1  0.500000  0.518569  0.713277  1
  B  B32  1  0.500000  0.602070  0.028533  1
  B  B33  1  0.500000  0.397984  0.971208  1
  B  B34  1  0.500000  0.110104  0.470436  1
  B  B35  1  0.500000  0.890380  0.530686  1
