# generated using pymatgen
data_YbDyY2(Ga3Ir)6
_symmetry_space_group_name_H-M   'P 1'
_cell_length_a   7.58051665
_cell_length_b   7.58651066
_cell_length_c   9.54153600
_cell_angle_alpha   90.00000000
_cell_angle_beta   90.00000000
_cell_angle_gamma   119.82590540
_symmetry_Int_Tables_number   1
_chemical_formula_structural   YbDyY2(Ga3Ir)6
_chemical_formula_sum   'Yb1 Dy1 Y2 Ga18 Ir6'
_cell_volume   476.04610198
_cell_formula_units_Z   1
loop_
 _symmetry_equiv_pos_site_id
 _symmetry_equiv_pos_as_xyz
  1  'x, y, z'
loop_
 _atom_site_type_symbol
 _atom_site_label
 _atom_site_symmetry_multiplicity
 _atom_site_fract_x
 _atom_site_fract_y
 _atom_site_fract_z
 _atom_site_occupancy
  Yb  Yb0  1  0.996822  0.667760  0.250000  1
  Dy  Dy1  1  0.331671  0.002180  0.750000  1
  Y  Y2  1  0.002332  0.332050  0.750000  1
  Y  Y3  1  0.667898  0.997272  0.250000  1
  Ga  Ga4  1  0.126145  0.126412  0.250000  1
  Ga  Ga5  1  0.873252  0.872925  0.750000  1
  Ga  Ga6  1  0.000312  0.335607  0.080062  1
  Ga  Ga7  1  0.000085  0.665646  0.921288  1
  Ga  Ga8  1  0.000085  0.665646  0.578712  1
  Ga  Ga9  1  0.332894  0.998866  0.420474  1
  Ga  Ga10  1  0.000312  0.335607  0.419938  1
  Ga  Ga11  1  0.665591  0.000440  0.579756  1
  Ga  Ga12  1  0.665591  0.000440  0.920244  1
  Ga  Ga13  1  0.332894  0.998866  0.079526  1
  Ga  Ga14  1  0.332756  0.332625  0.564030  1
  Ga  Ga15  1  0.668448  0.667098  0.437362  1
  Ga  Ga16  1  0.668448  0.667098  0.062638  1
  Ga  Ga17  1  0.332756  0.332625  0.935970  1
  Ga  Ga18  1  0.337805  0.546337  0.250000  1
  Ga  Ga19  1  0.661588  0.454056  0.750000  1
  Ga  Ga20  1  0.546378  0.337772  0.250000  1
  Ga  Ga21  1  0.453921  0.661693  0.750000  1
  Ir  Ir22  1  0.671027  0.328405  0.999798  1
  Ir  Ir23  1  0.329230  0.671609  0.999474  1
  Ir  Ir24  1  0.329230  0.671609  0.500526  1
  Ir  Ir25  1  0.671027  0.328405  0.500202  1
  Ir  Ir26  1  0.000752  0.000477  0.999276  1
  Ir  Ir27  1  0.000752  0.000477  0.500724  1
