# generated using pymatgen
data_CeTm9(Al2Ru3)2
_symmetry_space_group_name_H-M   'P 1'
_cell_length_a   8.32085773
_cell_length_b   8.32085726
_cell_length_c   8.21268840
_cell_angle_alpha   110.02578332
_cell_angle_beta   109.30045846
_cell_angle_gamma   109.62020412
_symmetry_Int_Tables_number   1
_chemical_formula_structural   CeTm9(Al2Ru3)2
_chemical_formula_sum   'Ce1 Tm9 Al4 Ru6'
_cell_volume   434.80819730
_cell_formula_units_Z   1
loop_
 _symmetry_equiv_pos_site_id
 _symmetry_equiv_pos_as_xyz
  1  'x, y, z'
loop_
 _atom_site_type_symbol
 _atom_site_label
 _atom_site_symmetry_multiplicity
 _atom_site_fract_x
 _atom_site_fract_y
 _atom_site_fract_z
 _atom_site_occupancy
  Ce  Ce0  1  0.193089  0.943089  0.250000  1
  Tm  Tm1  1  0.781421  0.787691  0.784849  1
  Tm  Tm2  1  0.318669  0.568669  0.750000  1
  Tm  Tm3  1  0.754192  0.322265  0.571423  1
  Tm  Tm4  1  0.570802  0.747730  0.318713  1
  Tm  Tm5  1  0.713783  0.499374  0.997110  1
  Tm  Tm6  1  0.002264  0.716672  0.502890  1
  Tm  Tm7  1  0.502840  0.996571  0.715151  1
  Tm  Tm8  1  0.250843  0.182769  0.928577  1
  Tm  Tm9  1  0.929017  0.252089  0.181287  1
  Al  Al10  1  0.413968  0.415147  0.409092  1
  Al  Al11  1  0.091921  0.496278  0.004222  1
  Al  Al12  1  0.992056  0.087700  0.495778  1
  Al  Al13  1  0.506056  0.004876  0.090908  1
  Ru  Ru14  1  0.874420  0.124420  0.750000  1
  Ru  Ru15  1  0.740073  0.869519  0.117418  1
  Ru  Ru16  1  0.127907  0.761135  0.902764  1
  Ru  Ru17  1  0.252101  0.622655  0.382582  1
  Ru  Ru18  1  0.358370  0.225141  0.597236  1
  Ru  Ru19  1  0.626207  0.376207  0.250000  1
