# generated using pymatgen
data_Tb4Tm(SiAs)2
_symmetry_space_group_name_H-M   'P 1'
_cell_length_a   8.23148669
_cell_length_b   8.23148625
_cell_length_c   7.64873600
_cell_angle_alpha   90.00000000
_cell_angle_beta   90.00000000
_cell_angle_gamma   125.07689726
_symmetry_Int_Tables_number   1
_chemical_formula_structural   Tb4Tm(SiAs)2
_chemical_formula_sum   'Tb8 Tm2 Si4 As4'
_cell_volume   424.13295064
_cell_formula_units_Z   2
loop_
 _symmetry_equiv_pos_site_id
 _symmetry_equiv_pos_as_xyz
  1  'x, y, z'
loop_
 _atom_site_type_symbol
 _atom_site_label
 _atom_site_symmetry_multiplicity
 _atom_site_fract_x
 _atom_site_fract_y
 _atom_site_fract_z
 _atom_site_occupancy
  Tb  Tb0  1  0.035884  0.307697  0.331732  1
  Tb  Tb1  1  0.964116  0.692303  0.668268  1
  Tb  Tb2  1  0.464116  0.192303  0.831732  1
  Tb  Tb3  1  0.807697  0.535884  0.168268  1
  Tb  Tb4  1  0.535884  0.807697  0.168268  1
  Tb  Tb5  1  0.192303  0.464116  0.831732  1
  Tb  Tb6  1  0.692303  0.964116  0.668268  1
  Tb  Tb7  1  0.307697  0.035884  0.331732  1
  Tm  Tm8  1  0.000000  0.000000  0.000000  1
  Tm  Tm9  1  0.500000  0.500000  0.500000  1
  Si  Si10  1  0.378011  0.378011  0.122716  1
  Si  Si11  1  0.621989  0.621989  0.877284  1
  Si  Si12  1  0.121989  0.121989  0.622716  1
  Si  Si13  1  0.878011  0.878011  0.377284  1
  As  As14  1  0.799464  0.200536  0.000000  1
  As  As15  1  0.200536  0.799464  0.000000  1
  As  As16  1  0.700536  0.299464  0.500000  1
  As  As17  1  0.299464  0.700536  0.500000  1
