# generated using pymatgen
data_HoErB(Pt2Rh)2
_symmetry_space_group_name_H-M   'P 1'
_cell_length_a   4.21794500
_cell_length_b   4.21794500
_cell_length_c   8.12172700
_cell_angle_alpha   90.00000000
_cell_angle_beta   90.00000000
_cell_angle_gamma   90.00000000
_symmetry_Int_Tables_number   1
_chemical_formula_structural   HoErB(Pt2Rh)2
_chemical_formula_sum   'Ho1 Er1 B1 Pt4 Rh2'
_cell_volume   144.49413255
_cell_formula_units_Z   1
loop_
 _symmetry_equiv_pos_site_id
 _symmetry_equiv_pos_as_xyz
  1  'x, y, z'
loop_
 _atom_site_type_symbol
 _atom_site_label
 _atom_site_symmetry_multiplicity
 _atom_site_fract_x
 _atom_site_fract_y
 _atom_site_fract_z
 _atom_site_occupancy
  Ho  Ho0  1  0.000000  0.000000  0.998655  1
  Er  Er1  1  0.000000  0.000000  0.501342  1
  B  B2  1  0.500000  0.500000  0.249999  1
  Pt  Pt3  1  0.500000  0.500000  0.990105  1
  Pt  Pt4  1  0.500000  0.500000  0.509885  1
  Pt  Pt5  1  0.500000  0.000000  0.749892  1
  Pt  Pt6  1  0.000000  0.500000  0.749892  1
  Rh  Rh7  1  0.500000  0.000000  0.250116  1
  Rh  Rh8  1  0.000000  0.500000  0.250116  1
