# generated using pymatgen
data_CsMg(In4Rh)2
_symmetry_space_group_name_H-M   'P 1'
_cell_length_a   9.08484111
_cell_length_b   9.08483960
_cell_length_c   4.25750500
_cell_angle_alpha   90.00000000
_cell_angle_beta   90.00000000
_cell_angle_gamma   119.51561559
_symmetry_Int_Tables_number   1
_chemical_formula_structural   CsMg(In4Rh)2
_chemical_formula_sum   'Cs1 Mg1 In8 Rh2'
_cell_volume   305.78737730
_cell_formula_units_Z   1
loop_
 _symmetry_equiv_pos_site_id
 _symmetry_equiv_pos_as_xyz
  1  'x, y, z'
loop_
 _atom_site_type_symbol
 _atom_site_label
 _atom_site_symmetry_multiplicity
 _atom_site_fract_x
 _atom_site_fract_y
 _atom_site_fract_z
 _atom_site_occupancy
  Cs  Cs0  1  0.000000  0.000000  0.000000  1
  Mg  Mg1  1  0.500000  0.500000  0.000000  1
  In  In2  1  0.577819  0.783712  0.500000  1
  In  In3  1  0.207618  0.792382  0.500000  1
  In  In4  1  0.216288  0.422181  0.500000  1
  In  In5  1  0.783712  0.577819  0.500000  1
  In  In6  1  0.792382  0.207618  0.500000  1
  In  In7  1  0.422181  0.216288  0.500000  1
  In  In8  1  0.000000  0.500000  0.000000  1
  In  In9  1  0.500000  0.000000  0.000000  1
  Rh  Rh10  1  0.332453  0.667547  0.000000  1
  Rh  Rh11  1  0.667547  0.332453  0.000000  1
