# generated using pymatgen
data_Dy4Ho8Co4SnRh
_symmetry_space_group_name_H-M   'P 1'
_cell_length_a   8.27550405
_cell_length_b   8.27550660
_cell_length_c   8.27550487
_cell_angle_alpha   111.01762570
_cell_angle_beta   110.55893038
_cell_angle_gamma   106.86839058
_symmetry_Int_Tables_number   1
_chemical_formula_structural   Dy4Ho8Co4SnRh
_chemical_formula_sum   'Dy4 Ho8 Co4 Sn1 Rh1'
_cell_volume   435.59760448
_cell_formula_units_Z   1
loop_
 _symmetry_equiv_pos_site_id
 _symmetry_equiv_pos_as_xyz
  1  'x, y, z'
loop_
 _atom_site_type_symbol
 _atom_site_label
 _atom_site_symmetry_multiplicity
 _atom_site_fract_x
 _atom_site_fract_y
 _atom_site_fract_z
 _atom_site_occupancy
  Dy  Dy0  1  0.408130  0.212380  0.195750  1
  Dy  Dy1  1  0.591870  0.787620  0.804250  1
  Dy  Dy2  1  0.016630  0.212380  0.804250  1
  Dy  Dy3  1  0.983370  0.787620  0.195750  1
  Ho  Ho4  1  0.185764  0.291372  0.477134  1
  Ho  Ho5  1  0.814236  0.708628  0.522866  1
  Ho  Ho6  1  0.185764  0.708628  0.894391  1
  Ho  Ho7  1  0.814236  0.291372  0.105609  1
  Ho  Ho8  1  0.313747  0.619837  0.306090  1
  Ho  Ho9  1  0.686253  0.380163  0.693910  1
  Ho  Ho10  1  0.313747  0.007656  0.693910  1
  Ho  Ho11  1  0.686253  0.992344  0.306090  1
  Co  Co12  1  0.378677  0.000000  0.378677  1
  Co  Co13  1  0.621323  0.000000  0.621323  1
  Co  Co14  1  0.111839  0.611839  0.500000  1
  Co  Co15  1  0.888161  0.388161  0.500000  1
  Sn  Sn16  1  0.500000  0.500000  0.000000  1
  Rh  Rh17  1  0.000000  0.000000  0.000000  1
