# generated using pymatgen
data_Ho2Er4GaCoRu
_symmetry_space_group_name_H-M   'P 1'
_cell_length_a   8.25992250
_cell_length_b   8.26030939
_cell_length_c   8.25992353
_cell_angle_alpha   105.46702203
_cell_angle_beta   110.66662271
_cell_angle_gamma   112.35575188
_symmetry_Int_Tables_number   1
_chemical_formula_structural   Ho2Er4GaCoRu
_chemical_formula_sum   'Ho4 Er8 Ga2 Co2 Ru2'
_cell_volume   432.17107948
_cell_formula_units_Z   2
loop_
 _symmetry_equiv_pos_site_id
 _symmetry_equiv_pos_as_xyz
  1  'x, y, z'
loop_
 _atom_site_type_symbol
 _atom_site_label
 _atom_site_symmetry_multiplicity
 _atom_site_fract_x
 _atom_site_fract_y
 _atom_site_fract_z
 _atom_site_occupancy
  Ho  Ho0  1  0.693491  0.254960  0.948463  1
  Ho  Ho1  1  0.306509  0.745040  0.051537  1
  Ho  Ho2  1  0.693503  0.745040  0.438532  1
  Ho  Ho3  1  0.306497  0.254960  0.561468  1
  Er  Er4  1  0.815217  0.139734  0.324517  1
  Er  Er5  1  0.815246  0.490762  0.675516  1
  Er  Er6  1  0.184783  0.860266  0.675483  1
  Er  Er7  1  0.184754  0.509238  0.324484  1
  Er  Er8  1  0.600328  0.780566  0.819776  1
  Er  Er9  1  0.960789  0.780566  0.180238  1
  Er  Er10  1  0.039211  0.219434  0.819762  1
  Er  Er11  1  0.399672  0.219434  0.180224  1
  Ga  Ga12  1  0.500000  0.500000  0.000000  1
  Ga  Ga13  1  0.500000  0.000000  0.500000  1
  Co  Co14  1  0.000001  0.113010  0.113009  1
  Co  Co15  1  0.999999  0.886990  0.886991  1
  Ru  Ru16  1  0.826832  0.500000  0.326832  1
  Ru  Ru17  1  0.173168  0.500000  0.673168  1
