# generated using pymatgen
data_Hg2PbSeO6
_symmetry_space_group_name_H-M   'P 1'
_cell_length_a   7.15241450
_cell_length_b   7.64269458
_cell_length_c   7.87335964
_cell_angle_alpha   74.68998707
_cell_angle_beta   70.50488561
_cell_angle_gamma   64.33937695
_symmetry_Int_Tables_number   1
_chemical_formula_structural   Hg2PbSeO6
_chemical_formula_sum   'Hg4 Pb2 Se2 O12'
_cell_volume   362.06332594
_cell_formula_units_Z   2
loop_
 _symmetry_equiv_pos_site_id
 _symmetry_equiv_pos_as_xyz
  1  'x, y, z'
loop_
 _atom_site_type_symbol
 _atom_site_label
 _atom_site_symmetry_multiplicity
 _atom_site_fract_x
 _atom_site_fract_y
 _atom_site_fract_z
 _atom_site_occupancy
  Hg  Hg0  1  0.848335  0.645035  0.208664  1
  Hg  Hg1  1  0.151665  0.354965  0.791336  1
  Hg  Hg2  1  0.657641  0.350136  0.790868  1
  Hg  Hg3  1  0.342359  0.649864  0.209132  1
  Pb  Pb4  1  0.335181  0.147189  0.229423  1
  Pb  Pb5  1  0.664819  0.852811  0.770577  1
  Se  Se6  1  0.806578  0.147654  0.289497  1
  Se  Se7  1  0.193422  0.852346  0.710503  1
  O  O8  1  0.631639  0.272495  0.156811  1
  O  O9  1  0.435954  0.212148  0.873055  1
  O  O10  1  0.943101  0.920778  0.847374  1
  O  O11  1  0.750214  0.950031  0.403747  1
  O  O12  1  0.220553  0.705962  0.573194  1
  O  O13  1  0.146013  0.495274  0.258386  1
  O  O14  1  0.249786  0.049969  0.596253  1
  O  O15  1  0.564046  0.787852  0.126945  1
  O  O16  1  0.368361  0.727505  0.843189  1
  O  O17  1  0.853987  0.504726  0.741614  1
  O  O18  1  0.779447  0.294038  0.426806  1
  O  O19  1  0.056899  0.079222  0.152626  1
