# generated using pymatgen
data_Li3Y3InSiP
_symmetry_space_group_name_H-M   'P 1'
_cell_length_a   7.12706800
_cell_length_b   7.12706755
_cell_length_c   4.21559700
_cell_angle_alpha   90.00000000
_cell_angle_beta   90.00000000
_cell_angle_gamma   119.99999281
_symmetry_Int_Tables_number   1
_chemical_formula_structural   Li3Y3InSiP
_chemical_formula_sum   'Li3 Y3 In1 Si1 P1'
_cell_volume   185.44346243
_cell_formula_units_Z   1
loop_
 _symmetry_equiv_pos_site_id
 _symmetry_equiv_pos_as_xyz
  1  'x, y, z'
loop_
 _atom_site_type_symbol
 _atom_site_label
 _atom_site_symmetry_multiplicity
 _atom_site_fract_x
 _atom_site_fract_y
 _atom_site_fract_z
 _atom_site_occupancy
  Li  Li0  1  0.252110  0.997919  0.500000  1
  Li  Li1  1  0.745809  0.747890  0.500000  1
  Li  Li2  1  0.002081  0.254191  0.500000  1
  Y  Y3  1  0.998393  0.560888  0.000000  1
  Y  Y4  1  0.562495  0.001607  0.000000  1
  Y  Y5  1  0.439112  0.437505  0.000000  1
  In  In6  1  0.000000  0.000000  0.000000  1
  Si  Si7  1  0.666667  0.333333  0.500000  1
  P  P8  1  0.333333  0.666667  0.500000  1
