# generated using pymatgen
data_Pr2ZnSi4Ni
_symmetry_space_group_name_H-M   'P 1'
_cell_length_a   8.71570399
_cell_length_b   8.71570460
_cell_length_c   4.11660100
_cell_angle_alpha   90.00000000
_cell_angle_beta   90.00000000
_cell_angle_gamma   151.95447722
_symmetry_Int_Tables_number   1
_chemical_formula_structural   Pr2ZnSi4Ni
_chemical_formula_sum   'Pr2 Zn1 Si4 Ni1'
_cell_volume   147.02844905
_cell_formula_units_Z   1
loop_
 _symmetry_equiv_pos_site_id
 _symmetry_equiv_pos_as_xyz
  1  'x, y, z'
loop_
 _atom_site_type_symbol
 _atom_site_label
 _atom_site_symmetry_multiplicity
 _atom_site_fract_x
 _atom_site_fract_y
 _atom_site_fract_z
 _atom_site_occupancy
  Pr  Pr0  1  0.106240  0.893760  0.250000  1
  Pr  Pr1  1  0.898077  0.101923  0.750000  1
  Zn  Zn2  1  0.673400  0.326600  0.750000  1
  Si  Si3  1  0.757939  0.242061  0.250000  1
  Si  Si4  1  0.255992  0.744008  0.750000  1
  Si  Si5  1  0.531352  0.468648  0.750000  1
  Si  Si6  1  0.457305  0.542694  0.250000  1
  Ni  Ni7  1  0.319694  0.680306  0.250000  1
