# generated using pymatgen
data_DyEr3Tm12(CdNi)4
_symmetry_space_group_name_H-M   'P 1'
_cell_length_a   9.43704076
_cell_length_b   9.43704138
_cell_length_c   9.43704105
_cell_angle_alpha   59.99072631
_cell_angle_beta   59.99072285
_cell_angle_gamma   59.99072630
_symmetry_Int_Tables_number   1
_chemical_formula_structural   DyEr3Tm12(CdNi)4
_chemical_formula_sum   'Dy1 Er3 Tm12 Cd4 Ni4'
_cell_volume   594.15697022
_cell_formula_units_Z   1
loop_
 _symmetry_equiv_pos_site_id
 _symmetry_equiv_pos_as_xyz
  1  'x, y, z'
loop_
 _atom_site_type_symbol
 _atom_site_label
 _atom_site_symmetry_multiplicity
 _atom_site_fract_x
 _atom_site_fract_y
 _atom_site_fract_z
 _atom_site_occupancy
  Dy  Dy0  1  0.349062  0.349062  0.349062  1
  Er  Er1  1  0.348950  0.348950  0.952900  1
  Er  Er2  1  0.348950  0.952900  0.348950  1
  Er  Er3  1  0.952900  0.348950  0.348950  1
  Tm  Tm4  1  0.812132  0.187993  0.187993  1
  Tm  Tm5  1  0.188227  0.811874  0.811874  1
  Tm  Tm6  1  0.187993  0.812132  0.187993  1
  Tm  Tm7  1  0.811874  0.188227  0.811874  1
  Tm  Tm8  1  0.187993  0.187993  0.812132  1
  Tm  Tm9  1  0.811874  0.811874  0.188227  1
  Tm  Tm10  1  0.935829  0.564151  0.564151  1
  Tm  Tm11  1  0.564058  0.935937  0.935937  1
  Tm  Tm12  1  0.564151  0.935829  0.564151  1
  Tm  Tm13  1  0.935937  0.564058  0.935937  1
  Tm  Tm14  1  0.564151  0.564151  0.935829  1
  Tm  Tm15  1  0.935937  0.935937  0.564058  1
  Cd  Cd16  1  0.581549  0.581549  0.581549  1
  Cd  Cd17  1  0.581707  0.581707  0.255292  1
  Cd  Cd18  1  0.581707  0.255292  0.581707  1
  Cd  Cd19  1  0.255292  0.581707  0.581707  1
  Ni  Ni20  1  0.142256  0.142256  0.142256  1
  Ni  Ni21  1  0.142010  0.142010  0.573454  1
  Ni  Ni22  1  0.142010  0.573454  0.142010  1
  Ni  Ni23  1  0.573454  0.142010  0.142010  1
