# generated using pymatgen
data_Yb4MnCoOs6
_symmetry_space_group_name_H-M   'P 1'
_cell_length_a   5.27842455
_cell_length_b   5.27842458
_cell_length_c   8.66416067
_cell_angle_alpha   89.77534029
_cell_angle_beta   90.22465948
_cell_angle_gamma   121.30854355
_symmetry_Int_Tables_number   1
_chemical_formula_structural   Yb4MnCoOs6
_chemical_formula_sum   'Yb4 Mn1 Co1 Os6'
_cell_volume   206.24456093
_cell_formula_units_Z   1
loop_
 _symmetry_equiv_pos_site_id
 _symmetry_equiv_pos_as_xyz
  1  'x, y, z'
loop_
 _atom_site_type_symbol
 _atom_site_label
 _atom_site_symmetry_multiplicity
 _atom_site_fract_x
 _atom_site_fract_y
 _atom_site_fract_z
 _atom_site_occupancy
  Yb  Yb0  1  0.332090  0.667910  0.430186  1
  Yb  Yb1  1  0.666844  0.333156  0.564201  1
  Yb  Yb2  1  0.668956  0.331044  0.937879  1
  Yb  Yb3  1  0.334222  0.665778  0.067486  1
  Mn  Mn4  1  0.004147  0.995853  0.496901  1
  Co  Co5  1  0.827343  0.172657  0.252102  1
  Os  Os6  1  0.005717  0.994283  0.003756  1
  Os  Os7  1  0.822801  0.660367  0.251852  1
  Os  Os8  1  0.339633  0.177199  0.251852  1
  Os  Os9  1  0.169148  0.830852  0.747697  1
  Os  Os10  1  0.170622  0.341522  0.748043  1
  Os  Os11  1  0.658478  0.829378  0.748043  1
