# generated using pymatgen
data_CeNdHo6(Si3Rh)4
_symmetry_space_group_name_H-M   'P 1'
_cell_length_a   8.18045100
_cell_length_b   8.18045092
_cell_length_c   7.97323900
_cell_angle_alpha   90.00000000
_cell_angle_beta   90.00000000
_cell_angle_gamma   120.00000437
_symmetry_Int_Tables_number   1
_chemical_formula_structural   CeNdHo6(Si3Rh)4
_chemical_formula_sum   'Ce1 Nd1 Ho6 Si12 Rh4'
_cell_volume   462.08288810
_cell_formula_units_Z   1
loop_
 _symmetry_equiv_pos_site_id
 _symmetry_equiv_pos_as_xyz
  1  'x, y, z'
loop_
 _atom_site_type_symbol
 _atom_site_label
 _atom_site_symmetry_multiplicity
 _atom_site_fract_x
 _atom_site_fract_y
 _atom_site_fract_z
 _atom_site_occupancy
  Ce  Ce0  1  0.000000  0.000000  0.750000  1
  Nd  Nd1  1  0.000000  0.000000  0.250000  1
  Ho  Ho2  1  0.508731  0.491269  0.250000  1
  Ho  Ho3  1  0.508731  0.017462  0.250000  1
  Ho  Ho4  1  0.982538  0.491269  0.250000  1
  Ho  Ho5  1  0.491455  0.508545  0.750000  1
  Ho  Ho6  1  0.491455  0.982909  0.750000  1
  Ho  Ho7  1  0.017091  0.508545  0.750000  1
  Si  Si8  1  0.167985  0.832015  0.502394  1
  Si  Si9  1  0.167985  0.335967  0.502394  1
  Si  Si10  1  0.664033  0.832015  0.502394  1
  Si  Si11  1  0.832304  0.167696  0.500972  1
  Si  Si12  1  0.832304  0.664610  0.500972  1
  Si  Si13  1  0.335390  0.167696  0.500972  1
  Si  Si14  1  0.832304  0.167696  0.999028  1
  Si  Si15  1  0.832304  0.664610  0.999028  1
  Si  Si16  1  0.335390  0.167696  0.999028  1
  Si  Si17  1  0.167985  0.832015  0.997606  1
  Si  Si18  1  0.167985  0.335967  0.997606  1
  Si  Si19  1  0.664033  0.832015  0.997606  1
  Rh  Rh20  1  0.333333  0.666667  0.465205  1
  Rh  Rh21  1  0.666667  0.333333  0.533069  1
  Rh  Rh22  1  0.666667  0.333333  0.966931  1
  Rh  Rh23  1  0.333333  0.666667  0.034795  1
