# generated using pymatgen
data_Ta2FeCoB6
_symmetry_space_group_name_H-M   'P 1'
_cell_length_a   9.06458663
_cell_length_b   9.06458614
_cell_length_c   3.04804900
_cell_angle_alpha   90.00000000
_cell_angle_beta   90.00000000
_cell_angle_gamma   159.48221950
_symmetry_Int_Tables_number   1
_chemical_formula_structural   Ta2FeCoB6
_chemical_formula_sum   'Ta2 Fe1 Co1 B6'
_cell_volume   87.78160613
_cell_formula_units_Z   1
loop_
 _symmetry_equiv_pos_site_id
 _symmetry_equiv_pos_as_xyz
  1  'x, y, z'
loop_
 _atom_site_type_symbol
 _atom_site_label
 _atom_site_symmetry_multiplicity
 _atom_site_fract_x
 _atom_site_fract_y
 _atom_site_fract_z
 _atom_site_occupancy
  Ta  Ta0  1  0.922998  0.076999  0.250001  1
  Ta  Ta1  1  0.077346  0.922651  0.749999  1
  Fe  Fe2  1  0.795262  0.204735  0.749999  1
  Co  Co3  1  0.204101  0.795896  0.250001  1
  B  B4  1  0.630158  0.369839  0.250001  1
  B  B5  1  0.525626  0.474371  0.250001  1
  B  B6  1  0.317564  0.682433  0.250001  1
  B  B7  1  0.682399  0.317598  0.749999  1
  B  B8  1  0.474653  0.525344  0.749999  1
  B  B9  1  0.369878  0.630119  0.749999  1
