# generated using pymatgen
data_Ho5LuTc2
_symmetry_space_group_name_H-M   'P 1'
_cell_length_a   6.23660200
_cell_length_b   7.42671500
_cell_length_c   9.12557300
_cell_angle_alpha   90.00000000
_cell_angle_beta   90.00000000
_cell_angle_gamma   90.00000000
_symmetry_Int_Tables_number   1
_chemical_formula_structural   Ho5LuTc2
_chemical_formula_sum   'Ho10 Lu2 Tc4'
_cell_volume   422.67341371
_cell_formula_units_Z   2
loop_
 _symmetry_equiv_pos_site_id
 _symmetry_equiv_pos_as_xyz
  1  'x, y, z'
loop_
 _atom_site_type_symbol
 _atom_site_label
 _atom_site_symmetry_multiplicity
 _atom_site_fract_x
 _atom_site_fract_y
 _atom_site_fract_z
 _atom_site_occupancy
  Ho  Ho0  1  0.342573  0.675418  0.062491  1
  Ho  Ho1  1  0.157427  0.175418  0.437509  1
  Ho  Ho2  1  0.657279  0.324270  0.561666  1
  Ho  Ho3  1  0.842721  0.824270  0.938334  1
  Ho  Ho4  1  0.657279  0.324270  0.938334  1
  Ho  Ho5  1  0.842721  0.824270  0.561666  1
  Ho  Ho6  1  0.342573  0.675418  0.437509  1
  Ho  Ho7  1  0.157427  0.175418  0.062491  1
  Ho  Ho8  1  0.126915  0.458139  0.750000  1
  Ho  Ho9  1  0.373085  0.958139  0.750000  1
  Lu  Lu10  1  0.871783  0.541666  0.250000  1
  Lu  Lu11  1  0.628217  0.041666  0.250000  1
  Tc  Tc12  1  0.043428  0.885738  0.250000  1
  Tc  Tc13  1  0.456572  0.385738  0.250000  1
  Tc  Tc14  1  0.959951  0.115084  0.750000  1
  Tc  Tc15  1  0.540049  0.615084  0.750000  1
