# generated using pymatgen
data_Y4TmOsRu
_symmetry_space_group_name_H-M   'P 1'
_cell_length_a   6.37529490
_cell_length_b   7.32677685
_cell_length_c   8.47816725
_cell_angle_alpha   96.60211201
_cell_angle_beta   112.08508642
_cell_angle_gamma   90.00000310
_symmetry_Int_Tables_number   1
_chemical_formula_structural   Y4TmOsRu
_chemical_formula_sum   'Y8 Tm2 Os2 Ru2'
_cell_volume   364.12533993
_cell_formula_units_Z   2
loop_
 _symmetry_equiv_pos_site_id
 _symmetry_equiv_pos_as_xyz
  1  'x, y, z'
loop_
 _atom_site_type_symbol
 _atom_site_label
 _atom_site_symmetry_multiplicity
 _atom_site_fract_x
 _atom_site_fract_y
 _atom_site_fract_z
 _atom_site_occupancy
  Y  Y0  1  0.792080  0.083259  0.817454  1
  Y  Y1  1  0.974625  0.416741  0.182546  1
  Y  Y2  1  0.209016  0.916236  0.184686  1
  Y  Y3  1  0.024329  0.583764  0.815314  1
  Y  Y4  1  0.204719  0.183484  0.565119  1
  Y  Y5  1  0.639600  0.316516  0.434881  1
  Y  Y6  1  0.794416  0.816830  0.434122  1
  Y  Y7  1  0.360294  0.683170  0.565878  1
  Tm  Tm8  1  0.423481  0.250000  0.000000  1
  Tm  Tm9  1  0.578371  0.750000  0.000000  1
  Os  Os10  1  0.601337  0.424491  0.784194  1
  Os  Os11  1  0.817142  0.075509  0.215806  1
  Ru  Ru12  1  0.398449  0.575674  0.216309  1
  Ru  Ru13  1  0.182141  0.924326  0.783691  1
