# generated using pymatgen
data_TbY2Lu3(Al3Os)8
_symmetry_space_group_name_H-M   'P 1'
_cell_length_a   8.78329079
_cell_length_b   8.78329174
_cell_length_c   9.60458400
_cell_angle_alpha   90.00000000
_cell_angle_beta   90.00000000
_cell_angle_gamma   119.98835055
_symmetry_Int_Tables_number   1
_chemical_formula_structural   TbY2Lu3(Al3Os)8
_chemical_formula_sum   'Tb1 Y2 Lu3 Al24 Os8'
_cell_volume   641.76307984
_cell_formula_units_Z   1
loop_
 _symmetry_equiv_pos_site_id
 _symmetry_equiv_pos_as_xyz
  1  'x, y, z'
loop_
 _atom_site_type_symbol
 _atom_site_label
 _atom_site_symmetry_multiplicity
 _atom_site_fract_x
 _atom_site_fract_y
 _atom_site_fract_z
 _atom_site_occupancy
  Tb  Tb0  1  0.806958  0.193042  0.750000  1
  Y  Y1  1  0.806974  0.613626  0.750000  1
  Y  Y2  1  0.386374  0.193026  0.750000  1
  Lu  Lu3  1  0.195249  0.390724  0.250000  1
  Lu  Lu4  1  0.609276  0.804751  0.250000  1
  Lu  Lu5  1  0.195320  0.804680  0.250000  1
  Al  Al6  1  0.333349  0.666651  0.023837  1
  Al  Al7  1  0.666623  0.333377  0.981154  1
  Al  Al8  1  0.666623  0.333377  0.518846  1
  Al  Al9  1  0.333349  0.666651  0.476163  1
  Al  Al10  1  0.164065  0.327964  0.574210  1
  Al  Al11  1  0.836675  0.673506  0.422129  1
  Al  Al12  1  0.672036  0.835935  0.574210  1
  Al  Al13  1  0.836675  0.673506  0.077871  1
  Al  Al14  1  0.326494  0.163325  0.422129  1
  Al  Al15  1  0.164065  0.327964  0.925790  1
  Al  Al16  1  0.163995  0.836005  0.574053  1
  Al  Al17  1  0.326494  0.163325  0.077871  1
  Al  Al18  1  0.836752  0.163248  0.422133  1
  Al  Al19  1  0.672036  0.835935  0.925790  1
  Al  Al20  1  0.836752  0.163248  0.077867  1
  Al  Al21  1  0.163995  0.836005  0.925947  1
  Al  Al22  1  0.561228  0.122616  0.250000  1
  Al  Al23  1  0.437558  0.875189  0.750000  1
  Al  Al24  1  0.877384  0.438772  0.250000  1
  Al  Al25  1  0.124811  0.562442  0.750000  1
  Al  Al26  1  0.561206  0.438794  0.250000  1
  Al  Al27  1  0.437798  0.562202  0.750000  1
  Al  Al28  1  0.999954  0.000046  0.250000  1
  Al  Al29  1  0.999952  0.000048  0.750000  1
  Os  Os30  1  0.499375  0.998802  0.001869  1
  Os  Os31  1  0.001198  0.500625  0.001869  1
  Os  Os32  1  0.499375  0.998802  0.498131  1
  Os  Os33  1  0.499406  0.500594  0.001759  1
  Os  Os34  1  0.001198  0.500625  0.498131  1
  Os  Os35  1  0.499406  0.500594  0.498241  1
  Os  Os36  1  0.000010  0.999990  0.000102  1
  Os  Os37  1  0.000010  0.999990  0.499898  1
