# generated using pymatgen
data_Ta8GaFeGeP
_symmetry_space_group_name_H-M   'P 1'
_cell_length_a   6.24396700
_cell_length_b   6.24396700
_cell_length_c   5.06129600
_cell_angle_alpha   90.00000000
_cell_angle_beta   90.00000000
_cell_angle_gamma   90.00000000
_symmetry_Int_Tables_number   1
_chemical_formula_structural   Ta8GaFeGeP
_chemical_formula_sum   'Ta8 Ga1 Fe1 Ge1 P1'
_cell_volume   197.32537423
_cell_formula_units_Z   1
loop_
 _symmetry_equiv_pos_site_id
 _symmetry_equiv_pos_as_xyz
  1  'x, y, z'
loop_
 _atom_site_type_symbol
 _atom_site_label
 _atom_site_symmetry_multiplicity
 _atom_site_fract_x
 _atom_site_fract_y
 _atom_site_fract_z
 _atom_site_occupancy
  Ta  Ta0  1  0.647452  0.170709  0.497817  1
  Ta  Ta1  1  0.352548  0.829291  0.497817  1
  Ta  Ta2  1  0.829291  0.647452  0.497817  1
  Ta  Ta3  1  0.170709  0.352548  0.497817  1
  Ta  Ta4  1  0.352548  0.170709  0.002183  1
  Ta  Ta5  1  0.647452  0.829291  0.002183  1
  Ta  Ta6  1  0.170709  0.647452  0.002183  1
  Ta  Ta7  1  0.829291  0.352548  0.002183  1
  Ga  Ga8  1  0.000000  0.000000  0.250000  1
  Fe  Fe9  1  0.500000  0.500000  0.250000  1
  Ge  Ge10  1  0.000000  0.000000  0.750000  1
  P  P11  1  0.500000  0.500000  0.750000  1
