# generated using pymatgen
data_Hf3Zr(PdPt3)3
_symmetry_space_group_name_H-M   'P 1'
_cell_length_a   5.70093696
_cell_length_b   5.69953160
_cell_length_c   9.35028021
_cell_angle_alpha   89.99999733
_cell_angle_beta   90.02083197
_cell_angle_gamma   119.99184841
_symmetry_Int_Tables_number   1
_chemical_formula_structural   Hf3Zr(PdPt3)3
_chemical_formula_sum   'Hf3 Zr1 Pd3 Pt9'
_cell_volume   263.13359013
_cell_formula_units_Z   1
loop_
 _symmetry_equiv_pos_site_id
 _symmetry_equiv_pos_as_xyz
  1  'x, y, z'
loop_
 _atom_site_type_symbol
 _atom_site_label
 _atom_site_symmetry_multiplicity
 _atom_site_fract_x
 _atom_site_fract_y
 _atom_site_fract_z
 _atom_site_occupancy
  Hf  Hf0  1  0.001200  0.000600  0.499486  1
  Hf  Hf1  1  0.336407  0.668204  0.249970  1
  Hf  Hf2  1  0.661668  0.330833  0.750007  1
  Zr  Zr3  1  0.000963  0.000481  0.000347  1
  Pd  Pd4  1  0.000009  0.500005  0.500979  1
  Pd  Pd5  1  0.000018  0.500009  0.998989  1
  Pd  Pd6  1  0.658434  0.829218  0.749332  1
  Pt  Pt7  1  0.500620  0.500563  0.500475  1
  Pt  Pt8  1  0.500620  0.000057  0.500475  1
  Pt  Pt9  1  0.500494  0.500412  0.999587  1
  Pt  Pt10  1  0.500494  0.000082  0.999587  1
  Pt  Pt11  1  0.833844  0.171200  0.250926  1
  Pt  Pt12  1  0.833844  0.662643  0.250926  1
  Pt  Pt13  1  0.340127  0.170063  0.250808  1
  Pt  Pt14  1  0.165628  0.828689  0.749053  1
  Pt  Pt15  1  0.165628  0.336939  0.749053  1
