# generated using pymatgen
data_Er5Cd3InNi2
_symmetry_space_group_name_H-M   'P 1'
_cell_length_a   3.56830400
_cell_length_b   7.79768497
_cell_length_c   18.02994417
_cell_angle_alpha   89.51896498
_cell_angle_beta   90.00000000
_cell_angle_gamma   90.00000000
_symmetry_Int_Tables_number   1
_chemical_formula_structural   Er5Cd3InNi2
_chemical_formula_sum   'Er10 Cd6 In2 Ni4'
_cell_volume   501.65668965
_cell_formula_units_Z   2
loop_
 _symmetry_equiv_pos_site_id
 _symmetry_equiv_pos_as_xyz
  1  'x, y, z'
loop_
 _atom_site_type_symbol
 _atom_site_label
 _atom_site_symmetry_multiplicity
 _atom_site_fract_x
 _atom_site_fract_y
 _atom_site_fract_z
 _atom_site_occupancy
  Er  Er0  1  0.000000  0.500000  0.500000  1
  Er  Er1  1  0.000000  0.000000  0.000000  1
  Er  Er2  1  0.000000  0.750149  0.278999  1
  Er  Er3  1  0.000000  0.249851  0.721001  1
  Er  Er4  1  0.000000  0.746501  0.777962  1
  Er  Er5  1  0.000000  0.253499  0.222038  1
  Er  Er6  1  0.000000  0.616099  0.089145  1
  Er  Er7  1  0.000000  0.383901  0.910855  1
  Er  Er8  1  0.000000  0.885462  0.588430  1
  Er  Er9  1  0.000000  0.114538  0.411570  1
  Cd  Cd10  1  0.500000  0.709419  0.930466  1
  Cd  Cd11  1  0.500000  0.290581  0.069534  1
  Cd  Cd12  1  0.500000  0.788670  0.430309  1
  Cd  Cd13  1  0.500000  0.211330  0.569691  1
  Cd  Cd14  1  0.500000  0.568151  0.650061  1
  Cd  Cd15  1  0.500000  0.431849  0.349939  1
  In  In16  1  0.500000  0.933707  0.150919  1
  In  In17  1  0.500000  0.066293  0.849081  1
  Ni  Ni18  1  0.500000  0.531559  0.196522  1
  Ni  Ni19  1  0.500000  0.468441  0.803478  1
  Ni  Ni20  1  0.500000  0.968590  0.696885  1
  Ni  Ni21  1  0.500000  0.031410  0.303115  1
