# generated using pymatgen
data_CuNiSnSb
_symmetry_space_group_name_H-M   'P 1'
_cell_length_a   4.06911900
_cell_length_b   4.06911838
_cell_length_c   5.11838500
_cell_angle_alpha   90.00000000
_cell_angle_beta   90.00000000
_cell_angle_gamma   119.99999690
_symmetry_Int_Tables_number   1
_chemical_formula_structural   CuNiSnSb
_chemical_formula_sum   'Cu1 Ni1 Sn1 Sb1'
_cell_volume   73.39463432
_cell_formula_units_Z   1
loop_
 _symmetry_equiv_pos_site_id
 _symmetry_equiv_pos_as_xyz
  1  'x, y, z'
loop_
 _atom_site_type_symbol
 _atom_site_label
 _atom_site_symmetry_multiplicity
 _atom_site_fract_x
 _atom_site_fract_y
 _atom_site_fract_z
 _atom_site_occupancy
  Cu  Cu0  1  0.000000  0.000000  0.000049  1
  Ni  Ni1  1  0.000000  0.000000  0.501677  1
  Sn  Sn2  1  0.333333  0.666667  0.269487  1
  Sb  Sb3  1  0.666667  0.333333  0.728787  1
