# generated using pymatgen
data_Ca2La2Ta3FeO14
_symmetry_space_group_name_H-M   'P 1'
_cell_length_a   7.43626900
_cell_length_b   7.49644566
_cell_length_c   12.91311101
_cell_angle_alpha   55.02572042
_cell_angle_beta   90.00000000
_cell_angle_gamma   90.00000000
_symmetry_Int_Tables_number   1
_chemical_formula_structural   Ca2La2Ta3FeO14
_chemical_formula_sum   'Ca4 La4 Ta6 Fe2 O28'
_cell_volume   589.85102428
_cell_formula_units_Z   2
loop_
 _symmetry_equiv_pos_site_id
 _symmetry_equiv_pos_as_xyz
  1  'x, y, z'
loop_
 _atom_site_type_symbol
 _atom_site_label
 _atom_site_symmetry_multiplicity
 _atom_site_fract_x
 _atom_site_fract_y
 _atom_site_fract_z
 _atom_site_occupancy
  Ca  Ca0  1  0.500000  0.500000  0.500000  1
  Ca  Ca1  1  0.739930  0.500000  0.250000  1
  Ca  Ca2  1  0.260070  0.500000  0.750000  1
  Ca  Ca3  1  0.500000  0.500000  0.000000  1
  La  La4  1  0.258152  0.000000  0.750000  1
  La  La5  1  0.741848  0.000000  0.250000  1
  La  La6  1  0.000000  0.500000  0.500000  1
  La  La7  1  0.000000  0.500000  0.000000  1
  Ta  Ta8  1  0.500000  0.000000  0.000000  1
  Ta  Ta9  1  0.500000  0.000000  0.500000  1
  Ta  Ta10  1  0.760980  0.500000  0.750000  1
  Ta  Ta11  1  0.761616  0.000000  0.750000  1
  Ta  Ta12  1  0.239020  0.500000  0.250000  1
  Ta  Ta13  1  0.238384  0.000000  0.250000  1
  Fe  Fe14  1  0.000000  0.000000  0.000000  1
  Fe  Fe15  1  0.000000  0.000000  0.500000  1
  O  O16  1  0.441047  0.318127  0.374820  1
  O  O17  1  0.751390  0.318033  0.680659  1
  O  O18  1  0.745138  0.622662  0.376003  1
  O  O19  1  0.746056  0.930797  0.072391  1
  O  O20  1  0.949842  0.923947  0.873757  1
  O  O21  1  0.946113  0.325851  0.875116  1
  O  O22  1  0.949842  0.076053  0.626243  1
  O  O23  1  0.053887  0.325851  0.375116  1
  O  O24  1  0.248610  0.318033  0.180659  1
  O  O25  1  0.253944  0.069203  0.927609  1
  O  O26  1  0.254862  0.622662  0.876003  1
  O  O27  1  0.248610  0.681967  0.319341  1
  O  O28  1  0.253944  0.930797  0.572391  1
  O  O29  1  0.441422  0.931295  0.373780  1
  O  O30  1  0.441047  0.681873  0.125180  1
  O  O31  1  0.441422  0.068705  0.126220  1
  O  O32  1  0.558578  0.068705  0.626220  1
  O  O33  1  0.558578  0.931295  0.873780  1
  O  O34  1  0.558953  0.318127  0.874820  1
  O  O35  1  0.746056  0.069203  0.427609  1
  O  O36  1  0.751390  0.681967  0.819341  1
  O  O37  1  0.745138  0.377338  0.123997  1
  O  O38  1  0.946113  0.674149  0.624884  1
  O  O39  1  0.050158  0.923947  0.373757  1
  O  O40  1  0.053887  0.674149  0.124884  1
  O  O41  1  0.050158  0.076053  0.126243  1
  O  O42  1  0.254862  0.377338  0.623997  1
  O  O43  1  0.558953  0.681873  0.625180  1
