# generated using pymatgen
data_Pr6Y(TmPb2)3
_symmetry_space_group_name_H-M   'P 1'
_cell_length_a   9.29688000
_cell_length_b   9.29688064
_cell_length_c   6.78173800
_cell_angle_alpha   90.00000000
_cell_angle_beta   90.00000000
_cell_angle_gamma   119.99999771
_symmetry_Int_Tables_number   1
_chemical_formula_structural   Pr6Y(TmPb2)3
_chemical_formula_sum   'Pr6 Y1 Tm3 Pb6'
_cell_volume   507.62865566
_cell_formula_units_Z   1
loop_
 _symmetry_equiv_pos_site_id
 _symmetry_equiv_pos_as_xyz
  1  'x, y, z'
loop_
 _atom_site_type_symbol
 _atom_site_label
 _atom_site_symmetry_multiplicity
 _atom_site_fract_x
 _atom_site_fract_y
 _atom_site_fract_z
 _atom_site_occupancy
  Pr  Pr0  1  0.758468  0.759378  0.749603  1
  Pr  Pr1  1  0.240622  0.999090  0.749603  1
  Pr  Pr2  1  0.000910  0.241532  0.749603  1
  Pr  Pr3  1  0.240622  0.241532  0.250397  1
  Pr  Pr4  1  0.758468  0.999090  0.250397  1
  Pr  Pr5  1  0.000910  0.759378  0.250397  1
  Y  Y6  1  0.666667  0.333333  0.000000  1
  Tm  Tm7  1  0.333333  0.666667  0.000000  1
  Tm  Tm8  1  0.333333  0.666667  0.500000  1
  Tm  Tm9  1  0.666667  0.333333  0.500000  1
  Pb  Pb10  1  0.398606  0.398603  0.750242  1
  Pb  Pb11  1  0.601397  0.000003  0.750242  1
  Pb  Pb12  1  0.999997  0.601394  0.750242  1
  Pb  Pb13  1  0.601397  0.601394  0.249758  1
  Pb  Pb14  1  0.398606  0.000003  0.249758  1
  Pb  Pb15  1  0.999997  0.398603  0.249758  1
