# generated using pymatgen
data_Tb4Y6B2I15
_symmetry_space_group_name_H-M   'P 1'
_cell_length_a   9.64008263
_cell_length_b   10.38785110
_cell_length_c   11.32283155
_cell_angle_alpha   91.69896620
_cell_angle_beta   114.42649200
_cell_angle_gamma   110.47909208
_symmetry_Int_Tables_number   1
_chemical_formula_structural   Tb4Y6B2I15
_chemical_formula_sum   'Tb4 Y6 B2 I15'
_cell_volume   946.71508449
_cell_formula_units_Z   1
loop_
 _symmetry_equiv_pos_site_id
 _symmetry_equiv_pos_as_xyz
  1  'x, y, z'
loop_
 _atom_site_type_symbol
 _atom_site_label
 _atom_site_symmetry_multiplicity
 _atom_site_fract_x
 _atom_site_fract_y
 _atom_site_fract_z
 _atom_site_occupancy
  Tb  Tb0  1  0.784962  0.393911  0.268114  1
  Tb  Tb1  1  0.215038  0.606089  0.731886  1
  Tb  Tb2  1  0.663449  0.751911  0.825306  1
  Tb  Tb3  1  0.336551  0.248089  0.174694  1
  Y  Y4  1  0.523125  0.712939  0.086066  1
  Y  Y5  1  0.476875  0.287061  0.913934  1
  Y  Y6  1  0.580526  0.043763  0.309237  1
  Y  Y7  1  0.419474  0.956237  0.690763  1
  Y  Y8  1  0.707650  0.070018  0.045621  1
  Y  Y9  1  0.292350  0.929982  0.954379  1
  B  B10  1  0.468489  0.822784  0.880065  1
  B  B11  1  0.531511  0.177216  0.119935  1
  I  I12  1  0.000000  0.000000  0.000000  1
  I  I13  1  0.638433  0.882755  0.582569  1
  I  I14  1  0.361567  0.117245  0.417431  1
  I  I15  1  0.884934  0.299269  0.531480  1
  I  I16  1  0.115066  0.700731  0.468520  1
  I  I17  1  0.284722  0.760096  0.177787  1
  I  I18  1  0.715278  0.239904  0.822213  1
  I  I19  1  0.054844  0.340041  0.225434  1
  I  I20  1  0.160283  0.056009  0.701712  1
  I  I21  1  0.839717  0.943991  0.298288  1
  I  I22  1  0.228537  0.409799  0.942096  1
  I  I23  1  0.771463  0.590201  0.057904  1
  I  I24  1  0.409478  0.459025  0.659705  1
  I  I25  1  0.590522  0.540975  0.340295  1
  I  I26  1  0.945156  0.659959  0.774566  1
