# generated using pymatgen
data_Er4ScIn2Bi
_symmetry_space_group_name_H-M   'P 1'
_cell_length_a   8.90520186
_cell_length_b   8.85901880
_cell_length_c   6.47382562
_cell_angle_alpha   89.89664400
_cell_angle_beta   90.05140962
_cell_angle_gamma   119.82859129
_symmetry_Int_Tables_number   1
_chemical_formula_structural   Er4ScIn2Bi
_chemical_formula_sum   'Er8 Sc2 In4 Bi2'
_cell_volume   443.06541487
_cell_formula_units_Z   2
loop_
 _symmetry_equiv_pos_site_id
 _symmetry_equiv_pos_as_xyz
  1  'x, y, z'
loop_
 _atom_site_type_symbol
 _atom_site_label
 _atom_site_symmetry_multiplicity
 _atom_site_fract_x
 _atom_site_fract_y
 _atom_site_fract_z
 _atom_site_occupancy
  Er  Er0  1  0.328721  0.667353  0.491797  1
  Er  Er1  1  0.671279  0.338631  0.491797  1
  Er  Er2  1  0.770930  0.761484  0.752375  1
  Er  Er3  1  0.229070  0.990554  0.752375  1
  Er  Er4  1  0.000000  0.238274  0.752647  1
  Er  Er5  1  0.234813  0.235426  0.248354  1
  Er  Er6  1  0.765187  0.000613  0.248354  1
  Er  Er7  1  0.000000  0.763416  0.247589  1
  Sc  Sc8  1  0.671163  0.337830  0.007525  1
  Sc  Sc9  1  0.328837  0.666668  0.007525  1
  In  In10  1  0.000000  0.593893  0.759054  1
  In  In11  1  0.599643  0.603239  0.241907  1
  In  In12  1  0.400357  0.003596  0.241907  1
  In  In13  1  0.000000  0.400596  0.241095  1
  Bi  Bi14  1  0.398288  0.398357  0.757849  1
  Bi  Bi15  1  0.601712  0.000070  0.757849  1
