# generated using pymatgen
data_La2YEr17Si15Os
_symmetry_space_group_name_H-M   'P 1'
_cell_length_a   7.38000138
_cell_length_b   7.72913157
_cell_length_c   14.51292223
_cell_angle_alpha   89.66602187
_cell_angle_beta   90.01601597
_cell_angle_gamma   90.01306458
_symmetry_Int_Tables_number   1
_chemical_formula_structural   La2YEr17Si15Os
_chemical_formula_sum   'La2 Y1 Er17 Si15 Os1'
_cell_volume   827.81750462
_cell_formula_units_Z   1
loop_
 _symmetry_equiv_pos_site_id
 _symmetry_equiv_pos_as_xyz
  1  'x, y, z'
loop_
 _atom_site_type_symbol
 _atom_site_label
 _atom_site_symmetry_multiplicity
 _atom_site_fract_x
 _atom_site_fract_y
 _atom_site_fract_z
 _atom_site_occupancy
  La  La0  1  0.521547  0.570359  0.341792  1
  La  La1  1  0.023780  0.427233  0.658385  1
  Y  Y2  1  0.026226  0.432140  0.346941  1
  Er  Er3  1  0.805098  0.577647  0.878035  1
  Er  Er4  1  0.325454  0.432410  0.122380  1
  Er  Er5  1  0.183008  0.928281  0.373113  1
  Er  Er6  1  0.682151  0.069011  0.626783  1
  Er  Er7  1  0.183414  0.927212  0.628593  1
  Er  Er8  1  0.681649  0.069991  0.372074  1
  Er  Er9  1  0.808590  0.574835  0.122614  1
  Er  Er10  1  0.328703  0.437669  0.876142  1
  Er  Er11  1  0.643681  0.239712  0.999575  1
  Er  Er12  1  0.158678  0.761365  0.000328  1
  Er  Er13  1  0.351127  0.262563  0.500112  1
  Er  Er14  1  0.849184  0.735640  0.500116  1
  Er  Er15  1  0.478060  0.923117  0.849621  1
  Er  Er16  1  0.973190  0.066108  0.150929  1
  Er  Er17  1  0.476387  0.923830  0.149681  1
  Er  Er18  1  0.971422  0.066732  0.849913  1
  Er  Er19  1  0.528583  0.565271  0.652089  1
  Si  Si20  1  0.017599  0.351098  0.999568  1
  Si  Si21  1  0.476965  0.860596  0.501437  1
  Si  Si22  1  0.979601  0.137458  0.499025  1
  Si  Si23  1  0.654189  0.275207  0.789851  1
  Si  Si24  1  0.147883  0.722176  0.209239  1
  Si  Si25  1  0.351545  0.214333  0.286528  1
  Si  Si26  1  0.848479  0.784760  0.713021  1
  Si  Si27  1  0.361977  0.218525  0.711654  1
  Si  Si28  1  0.858390  0.782374  0.288195  1
  Si  Si29  1  0.650830  0.267156  0.206916  1
  Si  Si30  1  0.142205  0.729254  0.793306  1
  Si  Si31  1  0.769557  0.884591  0.000304  1
  Si  Si32  1  0.259140  0.125427  0.999564  1
  Si  Si33  1  0.231848  0.625951  0.502423  1
  Si  Si34  1  0.732010  0.374126  0.499335  1
  Os  Os35  1  0.517850  0.655842  0.000413  1
