# generated using pymatgen
data_CaSmOsC2
_symmetry_space_group_name_H-M   'P 1'
_cell_length_a   5.20796700
_cell_length_b   6.47779600
_cell_length_c   10.37724600
_cell_angle_alpha   90.00000000
_cell_angle_beta   90.00000000
_cell_angle_gamma   90.00000000
_symmetry_Int_Tables_number   1
_chemical_formula_structural   CaSmOsC2
_chemical_formula_sum   'Ca4 Sm4 Os4 C8'
_cell_volume   350.08830482
_cell_formula_units_Z   4
loop_
 _symmetry_equiv_pos_site_id
 _symmetry_equiv_pos_as_xyz
  1  'x, y, z'
loop_
 _atom_site_type_symbol
 _atom_site_label
 _atom_site_symmetry_multiplicity
 _atom_site_fract_x
 _atom_site_fract_y
 _atom_site_fract_z
 _atom_site_occupancy
  Ca  Ca0  1  0.250000  0.531877  0.222578  1
  Ca  Ca1  1  0.750000  0.468123  0.777422  1
  Ca  Ca2  1  0.750000  0.968123  0.722578  1
  Ca  Ca3  1  0.250000  0.031877  0.277422  1
  Sm  Sm4  1  0.250000  0.691828  0.555859  1
  Sm  Sm5  1  0.750000  0.308172  0.444141  1
  Sm  Sm6  1  0.750000  0.808172  0.055859  1
  Sm  Sm7  1  0.250000  0.191828  0.944141  1
  Os  Os8  1  0.250000  0.727548  0.855370  1
  Os  Os9  1  0.750000  0.272452  0.144630  1
  Os  Os10  1  0.750000  0.772452  0.355370  1
  Os  Os11  1  0.250000  0.227548  0.644630  1
  C  C12  1  0.250000  0.467001  0.756414  1
  C  C13  1  0.750000  0.532999  0.243586  1
  C  C14  1  0.750000  0.032999  0.256414  1
  C  C15  1  0.250000  0.967001  0.743586  1
  C  C16  1  0.250000  0.806068  0.030826  1
  C  C17  1  0.750000  0.193932  0.969174  1
  C  C18  1  0.750000  0.693932  0.530826  1
  C  C19  1  0.250000  0.306068  0.469174  1
