# generated using pymatgen
data_Sm2Ga9PdRu2
_symmetry_space_group_name_H-M   'P 1'
_cell_length_a   7.60243714
_cell_length_b   7.60243743
_cell_length_c   9.70764400
_cell_angle_alpha   90.00000000
_cell_angle_beta   90.00000000
_cell_angle_gamma   119.50661159
_symmetry_Int_Tables_number   1
_chemical_formula_structural   Sm2Ga9PdRu2
_chemical_formula_sum   'Sm4 Ga18 Pd2 Ru4'
_cell_volume   488.30138065
_cell_formula_units_Z   2
loop_
 _symmetry_equiv_pos_site_id
 _symmetry_equiv_pos_as_xyz
  1  'x, y, z'
loop_
 _atom_site_type_symbol
 _atom_site_label
 _atom_site_symmetry_multiplicity
 _atom_site_fract_x
 _atom_site_fract_y
 _atom_site_fract_z
 _atom_site_occupancy
  Sm  Sm0  1  0.996995  0.672260  0.250000  1
  Sm  Sm1  1  0.003005  0.327740  0.750000  1
  Sm  Sm2  1  0.672260  0.996995  0.250000  1
  Sm  Sm3  1  0.327740  0.003005  0.750000  1
  Ga  Ga4  1  0.135093  0.135093  0.250000  1
  Ga  Ga5  1  0.864907  0.864907  0.750000  1
  Ga  Ga6  1  0.003976  0.340555  0.076476  1
  Ga  Ga7  1  0.996025  0.659445  0.923524  1
  Ga  Ga8  1  0.996025  0.659445  0.576476  1
  Ga  Ga9  1  0.340555  0.003976  0.423524  1
  Ga  Ga10  1  0.003976  0.340555  0.423524  1
  Ga  Ga11  1  0.659445  0.996024  0.576476  1
  Ga  Ga12  1  0.659445  0.996024  0.923524  1
  Ga  Ga13  1  0.340555  0.003976  0.076476  1
  Ga  Ga14  1  0.342266  0.342266  0.563288  1
  Ga  Ga15  1  0.657734  0.657734  0.436712  1
  Ga  Ga16  1  0.657734  0.657734  0.063288  1
  Ga  Ga17  1  0.342266  0.342266  0.936712  1
  Ga  Ga18  1  0.334707  0.548626  0.250000  1
  Ga  Ga19  1  0.665293  0.451374  0.750000  1
  Ga  Ga20  1  0.548626  0.334707  0.250000  1
  Ga  Ga21  1  0.451374  0.665293  0.750000  1
  Pd  Pd22  1  0.000000  0.000000  0.000000  1
  Pd  Pd23  1  0.000000  0.000000  0.500000  1
  Ru  Ru24  1  0.672849  0.327151  0.000000  1
  Ru  Ru25  1  0.327151  0.672849  0.000000  1
  Ru  Ru26  1  0.327151  0.672849  0.500000  1
  Ru  Ru27  1  0.672849  0.327151  0.500000  1
