# generated using pymatgen
data_Ho6Er10Cd4OsPd3
_symmetry_space_group_name_H-M   'P 1'
_cell_length_a   9.63751515
_cell_length_b   9.63751526
_cell_length_c   9.63751739
_cell_angle_alpha   59.41570444
_cell_angle_beta   59.41570787
_cell_angle_gamma   59.41570060
_symmetry_Int_Tables_number   1
_chemical_formula_structural   Ho6Er10Cd4OsPd3
_chemical_formula_sum   'Ho6 Er10 Cd4 Os1 Pd3'
_cell_volume   624.55049642
_cell_formula_units_Z   1
loop_
 _symmetry_equiv_pos_site_id
 _symmetry_equiv_pos_as_xyz
  1  'x, y, z'
loop_
 _atom_site_type_symbol
 _atom_site_label
 _atom_site_symmetry_multiplicity
 _atom_site_fract_x
 _atom_site_fract_y
 _atom_site_fract_z
 _atom_site_occupancy
  Ho  Ho0  1  0.934406  0.566412  0.566412  1
  Ho  Ho1  1  0.558262  0.937343  0.937343  1
  Ho  Ho2  1  0.566412  0.934406  0.566412  1
  Ho  Ho3  1  0.937343  0.558262  0.937343  1
  Ho  Ho4  1  0.566412  0.566412  0.934406  1
  Ho  Ho5  1  0.937343  0.937343  0.558262  1
  Er  Er6  1  0.353077  0.353077  0.353077  1
  Er  Er7  1  0.350628  0.350628  0.944669  1
  Er  Er8  1  0.350628  0.944669  0.350628  1
  Er  Er9  1  0.944669  0.350628  0.350628  1
  Er  Er10  1  0.815805  0.188332  0.188332  1
  Er  Er11  1  0.187880  0.810677  0.810677  1
  Er  Er12  1  0.188332  0.815805  0.188332  1
  Er  Er13  1  0.810677  0.187880  0.810677  1
  Er  Er14  1  0.188332  0.188332  0.815805  1
  Er  Er15  1  0.810677  0.810677  0.187880  1
  Cd  Cd16  1  0.580636  0.580636  0.580636  1
  Cd  Cd17  1  0.581191  0.581191  0.253919  1
  Cd  Cd18  1  0.581191  0.253919  0.581191  1
  Cd  Cd19  1  0.253919  0.581191  0.581191  1
  Os  Os20  1  0.144073  0.144073  0.144073  1
  Pd  Pd21  1  0.144340  0.144340  0.569430  1
  Pd  Pd22  1  0.144340  0.569430  0.144340  1
  Pd  Pd23  1  0.569430  0.144340  0.144340  1
