# generated using pymatgen
data_Pr3DySc6(Si5Ir2)4
_symmetry_space_group_name_H-M   'P 1'
_cell_length_a   12.56636271
_cell_length_b   12.56636172
_cell_length_c   4.18552800
_cell_angle_alpha   90.00000000
_cell_angle_beta   90.00000000
_cell_angle_gamma   90.10881617
_symmetry_Int_Tables_number   1
_chemical_formula_structural   Pr3DySc6(Si5Ir2)4
_chemical_formula_sum   'Pr3 Dy1 Sc6 Si20 Ir8'
_cell_volume   660.95001364
_cell_formula_units_Z   1
loop_
 _symmetry_equiv_pos_site_id
 _symmetry_equiv_pos_as_xyz
  1  'x, y, z'
loop_
 _atom_site_type_symbol
 _atom_site_label
 _atom_site_symmetry_multiplicity
 _atom_site_fract_x
 _atom_site_fract_y
 _atom_site_fract_z
 _atom_site_occupancy
  Pr  Pr0  1  0.115420  0.615336  0.500000  1
  Pr  Pr1  1  0.884664  0.384580  0.500000  1
  Pr  Pr2  1  0.614785  0.885215  0.500000  1
  Dy  Dy3  1  0.384088  0.115912  0.500000  1
  Sc  Sc4  1  0.674082  0.175616  0.500000  1
  Sc  Sc5  1  0.324384  0.825918  0.500000  1
  Sc  Sc6  1  0.176323  0.323677  0.500000  1
  Sc  Sc7  1  0.824261  0.675739  0.500000  1
  Sc  Sc8  1  0.001198  0.000244  0.000000  1
  Sc  Sc9  1  0.499756  0.498802  0.000000  1
  Si  Si10  1  0.567880  0.068492  0.000000  1
  Si  Si11  1  0.431508  0.932120  0.000000  1
  Si  Si12  1  0.069524  0.430476  0.000000  1
  Si  Si13  1  0.930641  0.569359  0.000000  1
  Si  Si14  1  0.201519  0.163212  0.000000  1
  Si  Si15  1  0.799925  0.837303  0.000000  1
  Si  Si16  1  0.163510  0.801288  0.000000  1
  Si  Si17  1  0.698712  0.336490  0.000000  1
  Si  Si18  1  0.836736  0.200179  0.000000  1
  Si  Si19  1  0.299821  0.663264  0.000000  1
  Si  Si20  1  0.662697  0.700075  0.000000  1
  Si  Si21  1  0.336788  0.298481  0.000000  1
  Si  Si22  1  0.009846  0.149441  0.500000  1
  Si  Si23  1  0.991857  0.850953  0.500000  1
  Si  Si24  1  0.151818  0.992706  0.500000  1
  Si  Si25  1  0.507294  0.348182  0.500000  1
  Si  Si26  1  0.850877  0.010289  0.500000  1
  Si  Si27  1  0.489711  0.649123  0.500000  1
  Si  Si28  1  0.649047  0.508143  0.500000  1
  Si  Si29  1  0.350559  0.490154  0.500000  1
  Ir  Ir30  1  0.025143  0.240969  0.000000  1
  Ir  Ir31  1  0.975567  0.759202  0.000000  1
  Ir  Ir32  1  0.244227  0.977439  0.000000  1
  Ir  Ir33  1  0.522561  0.255773  0.000000  1
  Ir  Ir34  1  0.758424  0.024983  0.000000  1
  Ir  Ir35  1  0.475017  0.741576  0.000000  1
  Ir  Ir36  1  0.740798  0.524433  0.000000  1
  Ir  Ir37  1  0.259031  0.474857  0.000000  1
