# generated using pymatgen
data_Li2HoPu(Co4P3)2
_symmetry_space_group_name_H-M   'P 1'
_cell_length_a   3.70161900
_cell_length_b   10.31126300
_cell_length_c   11.90866800
_cell_angle_alpha   90.00000000
_cell_angle_beta   90.00000000
_cell_angle_gamma   90.00000000
_symmetry_Int_Tables_number   1
_chemical_formula_structural   Li2HoPu(Co4P3)2
_chemical_formula_sum   'Li4 Ho2 Pu2 Co16 P12'
_cell_volume   454.53441112
_cell_formula_units_Z   2
loop_
 _symmetry_equiv_pos_site_id
 _symmetry_equiv_pos_as_xyz
  1  'x, y, z'
loop_
 _atom_site_type_symbol
 _atom_site_label
 _atom_site_symmetry_multiplicity
 _atom_site_fract_x
 _atom_site_fract_y
 _atom_site_fract_z
 _atom_site_occupancy
  Li  Li0  1  0.250000  0.701614  0.990809  1
  Li  Li1  1  0.250000  0.798386  0.490809  1
  Li  Li2  1  0.750000  0.296947  0.007885  1
  Li  Li3  1  0.750000  0.203053  0.507885  1
  Ho  Ho4  1  0.750000  0.420242  0.297190  1
  Ho  Ho5  1  0.750000  0.079758  0.797190  1
  Pu  Pu6  1  0.250000  0.581369  0.699745  1
  Pu  Pu7  1  0.250000  0.918631  0.199745  1
  Co  Co8  1  0.250000  0.407130  0.484971  1
  Co  Co9  1  0.250000  0.092870  0.984971  1
  Co  Co10  1  0.750000  0.592376  0.516617  1
  Co  Co11  1  0.750000  0.907624  0.016617  1
  Co  Co12  1  0.250000  0.220325  0.173702  1
  Co  Co13  1  0.250000  0.279675  0.673702  1
  Co  Co14  1  0.750000  0.781934  0.828042  1
  Co  Co15  1  0.750000  0.718066  0.328042  1
  Co  Co16  1  0.250000  0.881143  0.699539  1
  Co  Co17  1  0.250000  0.618857  0.199539  1
  Co  Co18  1  0.750000  0.123021  0.301591  1
  Co  Co19  1  0.750000  0.376979  0.801591  1
  Co  Co20  1  0.250000  0.465245  0.932259  1
  Co  Co21  1  0.250000  0.034755  0.432259  1
  Co  Co22  1  0.750000  0.533577  0.066562  1
  Co  Co23  1  0.750000  0.966423  0.566562  1
  P  P24  1  0.250000  0.423476  0.114376  1
  P  P25  1  0.250000  0.076524  0.614376  1
  P  P26  1  0.750000  0.575244  0.883370  1
  P  P27  1  0.750000  0.924756  0.383370  1
  P  P28  1  0.250000  0.269343  0.860739  1
  P  P29  1  0.250000  0.230657  0.360739  1
  P  P30  1  0.750000  0.726554  0.141524  1
  P  P31  1  0.750000  0.773446  0.641524  1
  P  P32  1  0.250000  0.601137  0.391981  1
  P  P33  1  0.250000  0.898863  0.891981  1
  P  P34  1  0.750000  0.395971  0.609099  1
  P  P35  1  0.750000  0.104029  0.109099  1
