# generated using pymatgen
data_Ho10ZnIn8Ir3
_symmetry_space_group_name_H-M   'P 1'
_cell_length_a   8.08090503
_cell_length_b   18.24673303
_cell_length_c   3.63190600
_cell_angle_alpha   90.00000000
_cell_angle_beta   90.00000000
_cell_angle_gamma   90.28169796
_symmetry_Int_Tables_number   1
_chemical_formula_structural   Ho10ZnIn8Ir3
_chemical_formula_sum   'Ho10 Zn1 In8 Ir3'
_cell_volume   535.51849069
_cell_formula_units_Z   1
loop_
 _symmetry_equiv_pos_site_id
 _symmetry_equiv_pos_as_xyz
  1  'x, y, z'
loop_
 _atom_site_type_symbol
 _atom_site_label
 _atom_site_symmetry_multiplicity
 _atom_site_fract_x
 _atom_site_fract_y
 _atom_site_fract_z
 _atom_site_occupancy
  Ho  Ho0  1  0.499553  0.500964  0.000000  1
  Ho  Ho1  1  0.999260  0.998691  0.000000  1
  Ho  Ho2  1  0.766548  0.282185  0.000000  1
  Ho  Ho3  1  0.251113  0.723425  0.000000  1
  Ho  Ho4  1  0.752371  0.776949  0.000000  1
  Ho  Ho5  1  0.224929  0.222105  0.000000  1
  Ho  Ho6  1  0.624413  0.080660  0.000000  1
  Ho  Ho7  1  0.383722  0.910150  0.000000  1
  Ho  Ho8  1  0.880590  0.589904  0.000000  1
  Ho  Ho9  1  0.118453  0.414473  0.000000  1
  Zn  Zn10  1  0.526918  0.198828  0.500000  1
  In  In11  1  0.706643  0.930340  0.500000  1
  In  In12  1  0.296680  0.066415  0.500000  1
  In  In13  1  0.794487  0.433874  0.500000  1
  In  In14  1  0.204424  0.568623  0.500000  1
  In  In15  1  0.565107  0.648874  0.500000  1
  In  In16  1  0.426037  0.350174  0.500000  1
  In  In17  1  0.926469  0.147462  0.500000  1
  In  In18  1  0.067246  0.851606  0.500000  1
  Ir  Ir19  1  0.478798  0.803464  0.500000  1
  Ir  Ir20  1  0.977964  0.696281  0.500000  1
  Ir  Ir21  1  0.028275  0.304554  0.500000  1
