# generated using pymatgen
data_Hf4Ge3MoN
_symmetry_space_group_name_H-M   'P 1'
_cell_length_a   7.83415500
_cell_length_b   7.83415590
_cell_length_c   5.49016600
_cell_angle_alpha   90.00000000
_cell_angle_beta   90.00000000
_cell_angle_gamma   120.00000041
_symmetry_Int_Tables_number   1
_chemical_formula_structural   Hf4Ge3MoN
_chemical_formula_sum   'Hf8 Ge6 Mo2 N2'
_cell_volume   291.81020492
_cell_formula_units_Z   2
loop_
 _symmetry_equiv_pos_site_id
 _symmetry_equiv_pos_as_xyz
  1  'x, y, z'
loop_
 _atom_site_type_symbol
 _atom_site_label
 _atom_site_symmetry_multiplicity
 _atom_site_fract_x
 _atom_site_fract_y
 _atom_site_fract_z
 _atom_site_occupancy
  Hf  Hf0  1  0.233532  0.000000  0.247944  1
  Hf  Hf1  1  0.766468  0.000000  0.752056  1
  Hf  Hf2  1  0.000000  0.233532  0.247944  1
  Hf  Hf3  1  0.000000  0.766468  0.752056  1
  Hf  Hf4  1  0.766468  0.766468  0.247944  1
  Hf  Hf5  1  0.233532  0.233532  0.752056  1
  Hf  Hf6  1  0.666667  0.333333  0.500000  1
  Hf  Hf7  1  0.333333  0.666667  0.500000  1
  Ge  Ge8  1  0.593305  0.000000  0.234534  1
  Ge  Ge9  1  0.406695  0.000000  0.765466  1
  Ge  Ge10  1  0.000000  0.593305  0.234534  1
  Ge  Ge11  1  0.000000  0.406695  0.765466  1
  Ge  Ge12  1  0.406695  0.406695  0.234534  1
  Ge  Ge13  1  0.593305  0.593305  0.765466  1
  Mo  Mo14  1  0.333333  0.666667  0.000000  1
  Mo  Mo15  1  0.666667  0.333333  0.000000  1
  N  N16  1  0.000000  0.000000  0.000000  1
  N  N17  1  0.000000  0.000000  0.500000  1
