# generated using pymatgen
data_SmEr4(In2Ir)2
_symmetry_space_group_name_H-M   'P 1'
_cell_length_a   3.63359600
_cell_length_b   7.97848000
_cell_length_c   18.22444000
_cell_angle_alpha   90.00000000
_cell_angle_beta   90.00000000
_cell_angle_gamma   90.00000000
_symmetry_Int_Tables_number   1
_chemical_formula_structural   SmEr4(In2Ir)2
_chemical_formula_sum   'Sm2 Er8 In8 Ir4'
_cell_volume   528.33695846
_cell_formula_units_Z   2
loop_
 _symmetry_equiv_pos_site_id
 _symmetry_equiv_pos_as_xyz
  1  'x, y, z'
loop_
 _atom_site_type_symbol
 _atom_site_label
 _atom_site_symmetry_multiplicity
 _atom_site_fract_x
 _atom_site_fract_y
 _atom_site_fract_z
 _atom_site_occupancy
  Sm  Sm0  1  0.000000  0.000000  0.000000  1
  Sm  Sm1  1  0.000000  0.500000  0.500000  1
  Er  Er2  1  0.000000  0.116421  0.410350  1
  Er  Er3  1  0.000000  0.883579  0.589650  1
  Er  Er4  1  0.000000  0.383579  0.910350  1
  Er  Er5  1  0.000000  0.616421  0.089650  1
  Er  Er6  1  0.000000  0.244396  0.221634  1
  Er  Er7  1  0.000000  0.755604  0.778366  1
  Er  Er8  1  0.000000  0.255604  0.721634  1
  Er  Er9  1  0.000000  0.744396  0.278366  1
  In  In10  1  0.500000  0.426921  0.349446  1
  In  In11  1  0.500000  0.573079  0.650554  1
  In  In12  1  0.500000  0.073079  0.849446  1
  In  In13  1  0.500000  0.926921  0.150554  1
  In  In14  1  0.500000  0.296478  0.068166  1
  In  In15  1  0.500000  0.703522  0.931834  1
  In  In16  1  0.500000  0.203522  0.568166  1
  In  In17  1  0.500000  0.796478  0.431834  1
  Ir  Ir18  1  0.500000  0.021018  0.304071  1
  Ir  Ir19  1  0.500000  0.978982  0.695929  1
  Ir  Ir20  1  0.500000  0.478982  0.804071  1
  Ir  Ir21  1  0.500000  0.521018  0.195929  1
