# generated using pymatgen
data_Hf2ZrSc3(SiRu)6
_symmetry_space_group_name_H-M   'P 1'
_cell_length_a   7.65144784
_cell_length_b   7.64785422
_cell_length_c   7.65144830
_cell_angle_alpha   127.38660711
_cell_angle_beta   124.31992032
_cell_angle_gamma   80.16575188
_symmetry_Int_Tables_number   1
_chemical_formula_structural   Hf2ZrSc3(SiRu)6
_chemical_formula_sum   'Hf2 Zr1 Sc3 Si6 Ru6'
_cell_volume   283.60270218
_cell_formula_units_Z   1
loop_
 _symmetry_equiv_pos_site_id
 _symmetry_equiv_pos_as_xyz
  1  'x, y, z'
loop_
 _atom_site_type_symbol
 _atom_site_label
 _atom_site_symmetry_multiplicity
 _atom_site_fract_x
 _atom_site_fract_y
 _atom_site_fract_z
 _atom_site_occupancy
  Hf  Hf0  1  0.051659  0.257049  0.705389  1
  Hf  Hf1  1  0.948811  0.650698  0.201887  1
  Zr  Zr2  1  0.251791  0.843560  0.091770  1
  Sc  Sc3  1  0.460945  0.678503  0.717558  1
  Sc  Sc4  1  0.539379  0.253625  0.214246  1
  Sc  Sc5  1  0.748392  0.839922  0.591530  1
  Si  Si6  1  0.264291  0.270460  0.506169  1
  Si  Si7  1  0.735396  0.232200  0.996804  1
  Si  Si8  1  0.331378  0.586399  0.252938  1
  Si  Si9  1  0.671345  0.921618  0.257984  1
  Si  Si10  1  0.163635  0.921618  0.750274  1
  Si  Si11  1  0.833461  0.586399  0.755021  1
  Ru  Ru12  1  0.504818  0.500156  0.004899  1
  Ru  Ru13  1  0.995258  0.500156  0.495338  1
  Ru  Ru14  1  0.104524  0.253057  0.109662  1
  Ru  Ru15  1  0.896113  0.005562  0.150152  1
  Ru  Ru16  1  0.355410  0.005562  0.609448  1
  Ru  Ru17  1  0.643397  0.253057  0.648534  1
