# generated using pymatgen
data_Tb16LuSc3Sn16
_symmetry_space_group_name_H-M   'P 1'
_cell_length_a   7.94884727
_cell_length_b   8.13326535
_cell_length_c   15.43291500
_cell_angle_alpha   90.00000000
_cell_angle_beta   90.00000000
_cell_angle_gamma   90.06541232
_symmetry_Int_Tables_number   1
_chemical_formula_structural   Tb16LuSc3Sn16
_chemical_formula_sum   'Tb16 Lu1 Sc3 Sn16'
_cell_volume   997.73860214
_cell_formula_units_Z   1
loop_
 _symmetry_equiv_pos_site_id
 _symmetry_equiv_pos_as_xyz
  1  'x, y, z'
loop_
 _atom_site_type_symbol
 _atom_site_label
 _atom_site_symmetry_multiplicity
 _atom_site_fract_x
 _atom_site_fract_y
 _atom_site_fract_z
 _atom_site_occupancy
  Tb  Tb0  1  0.363613  0.838784  0.875674  1
  Tb  Tb1  1  0.863685  0.660910  0.623812  1
  Tb  Tb2  1  0.636514  0.161861  0.377305  1
  Tb  Tb3  1  0.136083  0.338967  0.122762  1
  Tb  Tb4  1  0.636514  0.161861  0.122695  1
  Tb  Tb5  1  0.136083  0.338967  0.377238  1
  Tb  Tb6  1  0.363613  0.838784  0.624326  1
  Tb  Tb7  1  0.863685  0.660910  0.876188  1
  Tb  Tb8  1  0.519829  0.319949  0.903482  1
  Tb  Tb9  1  0.019916  0.179757  0.596865  1
  Tb  Tb10  1  0.480933  0.679470  0.404100  1
  Tb  Tb11  1  0.980408  0.819972  0.095716  1
  Tb  Tb12  1  0.480933  0.679470  0.095900  1
  Tb  Tb13  1  0.980408  0.819972  0.404284  1
  Tb  Tb14  1  0.519829  0.319949  0.596518  1
  Tb  Tb15  1  0.019916  0.179757  0.903135  1
  Lu  Lu16  1  0.305425  0.002954  0.250000  1
  Sc  Sc17  1  0.195238  0.502411  0.750000  1
  Sc  Sc18  1  0.695297  0.997141  0.750000  1
  Sc  Sc19  1  0.804445  0.496820  0.250000  1
  Sn  Sn20  1  0.295742  0.036686  0.042108  1
  Sn  Sn21  1  0.795525  0.464570  0.455897  1
  Sn  Sn22  1  0.704569  0.964289  0.544879  1
  Sn  Sn23  1  0.204721  0.535497  0.955153  1
  Sn  Sn24  1  0.704569  0.964289  0.955121  1
  Sn  Sn25  1  0.204721  0.535497  0.544847  1
  Sn  Sn26  1  0.295742  0.036686  0.457892  1
  Sn  Sn27  1  0.795525  0.464570  0.044103  1
  Sn  Sn28  1  0.556049  0.614675  0.750000  1
  Sn  Sn29  1  0.055937  0.884580  0.750000  1
  Sn  Sn30  1  0.444098  0.386697  0.250000  1
  Sn  Sn31  1  0.939523  0.118526  0.250000  1
  Sn  Sn32  1  0.328985  0.154330  0.750000  1
  Sn  Sn33  1  0.828908  0.345657  0.750000  1
  Sn  Sn34  1  0.675048  0.845142  0.250000  1
  Sn  Sn35  1  0.167971  0.649640  0.250000  1
