# generated using pymatgen
data_Y5Ho3(PSe)8
_symmetry_space_group_name_H-M   'P 1'
_cell_length_a   5.43261700
_cell_length_b   5.48948004
_cell_length_c   17.11315400
_cell_angle_alpha   89.92233544
_cell_angle_beta   90.00000000
_cell_angle_gamma   90.00000000
_symmetry_Int_Tables_number   1
_chemical_formula_structural   Y5Ho3(PSe)8
_chemical_formula_sum   'Y5 Ho3 P8 Se8'
_cell_volume   510.35216144
_cell_formula_units_Z   1
loop_
 _symmetry_equiv_pos_site_id
 _symmetry_equiv_pos_as_xyz
  1  'x, y, z'
loop_
 _atom_site_type_symbol
 _atom_site_label
 _atom_site_symmetry_multiplicity
 _atom_site_fract_x
 _atom_site_fract_y
 _atom_site_fract_z
 _atom_site_occupancy
  Y  Y0  1  0.250000  0.484085  0.368816  1
  Y  Y1  1  0.250000  0.984506  0.130803  1
  Y  Y2  1  0.750000  0.515992  0.631015  1
  Y  Y3  1  0.750000  0.015593  0.869736  1
  Y  Y4  1  0.250000  0.014958  0.639682  1
  Ho  Ho5  1  0.250000  0.514070  0.860179  1
  Ho  Ho6  1  0.750000  0.985689  0.359385  1
  Ho  Ho7  1  0.750000  0.486029  0.140239  1
  P  P8  1  0.038643  0.298228  0.997484  1
  P  P9  1  0.461600  0.797459  0.502139  1
  P  P10  1  0.538624  0.701893  0.003028  1
  P  P11  1  0.961055  0.201565  0.496645  1
  P  P12  1  0.961376  0.701893  0.003028  1
  P  P13  1  0.538945  0.201565  0.496645  1
  P  P14  1  0.461357  0.298228  0.997484  1
  P  P15  1  0.038400  0.797459  0.502139  1
  Se  Se16  1  0.250000  0.485600  0.189648  1
  Se  Se17  1  0.250000  0.985335  0.310012  1
  Se  Se18  1  0.750000  0.514520  0.810598  1
  Se  Se19  1  0.750000  0.014923  0.690222  1
  Se  Se20  1  0.250000  0.010756  0.815964  1
  Se  Se21  1  0.250000  0.511133  0.685480  1
  Se  Se22  1  0.750000  0.989345  0.184851  1
  Se  Se23  1  0.750000  0.489175  0.314781  1
