# generated using pymatgen
data_Y10TmLuGa20
_symmetry_space_group_name_H-M   'P 1'
_cell_length_a   6.10022001
_cell_length_b   9.63193100
_cell_length_c   11.56727001
_cell_angle_alpha   89.99917251
_cell_angle_beta   89.99498738
_cell_angle_gamma   90.00044205
_symmetry_Int_Tables_number   1
_chemical_formula_structural   Y10TmLuGa20
_chemical_formula_sum   'Y10 Tm1 Lu1 Ga20'
_cell_volume   679.65690374
_cell_formula_units_Z   1
loop_
 _symmetry_equiv_pos_site_id
 _symmetry_equiv_pos_as_xyz
  1  'x, y, z'
loop_
 _atom_site_type_symbol
 _atom_site_label
 _atom_site_symmetry_multiplicity
 _atom_site_fract_x
 _atom_site_fract_y
 _atom_site_fract_z
 _atom_site_occupancy
  Y  Y0  1  0.849315  0.750003  0.076006  1
  Y  Y1  1  0.650878  0.749998  0.575913  1
  Y  Y2  1  0.891537  0.509366  0.350768  1
  Y  Y3  1  0.608886  0.991380  0.850600  1
  Y  Y4  1  0.109970  0.010363  0.648447  1
  Y  Y5  1  0.389909  0.489639  0.148872  1
  Y  Y6  1  0.109982  0.489617  0.648447  1
  Y  Y7  1  0.389895  0.010356  0.148866  1
  Y  Y8  1  0.891541  0.990643  0.350768  1
  Y  Y9  1  0.608892  0.508637  0.850605  1
  Tm  Tm10  1  0.150217  0.250000  0.923562  1
  Lu  Lu11  1  0.348838  0.250007  0.424281  1
  Ga  Ga12  1  0.875308  0.055641  0.089791  1
  Ga  Ga13  1  0.625247  0.444345  0.588899  1
  Ga  Ga14  1  0.124730  0.552776  0.910211  1
  Ga  Ga15  1  0.375787  0.948058  0.410510  1
  Ga  Ga16  1  0.124734  0.947228  0.910219  1
  Ga  Ga17  1  0.375776  0.551944  0.410509  1
  Ga  Ga18  1  0.875314  0.444357  0.089799  1
  Ga  Ga19  1  0.625228  0.055650  0.588894  1
  Ga  Ga20  1  0.174220  0.749993  0.252820  1
  Ga  Ga21  1  0.325846  0.749999  0.752767  1
  Ga  Ga22  1  0.827677  0.250003  0.747164  1
  Ga  Ga23  1  0.669943  0.249999  0.248489  1
  Ga  Ga24  1  0.373547  0.750002  0.003785  1
  Ga  Ga25  1  0.128086  0.749992  0.503780  1
  Ga  Ga26  1  0.623286  0.250000  0.996355  1
  Ga  Ga27  1  0.877404  0.250005  0.494883  1
  Ga  Ga28  1  0.599824  0.750000  0.300925  1
  Ga  Ga29  1  0.899108  0.750008  0.800677  1
  Ga  Ga30  1  0.398366  0.249998  0.700056  1
  Ga  Ga31  1  0.100710  0.249993  0.202333  1
