# generated using pymatgen
data_Sr4Zn13Au9
_symmetry_space_group_name_H-M   'P 1'
_cell_length_a   11.87300900
_cell_length_b   11.87300926
_cell_length_c   4.40320700
_cell_angle_alpha   90.00000000
_cell_angle_beta   90.00000000
_cell_angle_gamma   119.99999649
_symmetry_Int_Tables_number   1
_chemical_formula_structural   Sr4Zn13Au9
_chemical_formula_sum   'Sr4 Zn13 Au9'
_cell_volume   537.55307822
_cell_formula_units_Z   1
loop_
 _symmetry_equiv_pos_site_id
 _symmetry_equiv_pos_as_xyz
  1  'x, y, z'
loop_
 _atom_site_type_symbol
 _atom_site_label
 _atom_site_symmetry_multiplicity
 _atom_site_fract_x
 _atom_site_fract_y
 _atom_site_fract_z
 _atom_site_occupancy
  Sr  Sr0  1  0.203487  0.796513  0.500000  1
  Sr  Sr1  1  0.593026  0.796513  0.500000  1
  Sr  Sr2  1  0.203487  0.406974  0.500000  1
  Sr  Sr3  1  0.666667  0.333333  0.000000  1
  Zn  Zn4  1  0.941310  0.284881  0.000000  1
  Zn  Zn5  1  0.715119  0.656429  0.000000  1
  Zn  Zn6  1  0.941310  0.656429  0.000000  1
  Zn  Zn7  1  0.343571  0.058690  0.000000  1
  Zn  Zn8  1  0.156130  0.078065  0.500000  1
  Zn  Zn9  1  0.921935  0.843870  0.500000  1
  Zn  Zn10  1  0.715119  0.058690  0.000000  1
  Zn  Zn11  1  0.530358  0.060715  0.500000  1
  Zn  Zn12  1  0.921935  0.078065  0.500000  1
  Zn  Zn13  1  0.343571  0.284881  0.000000  1
  Zn  Zn14  1  0.530358  0.469642  0.500000  1
  Zn  Zn15  1  0.939285  0.469642  0.500000  1
  Zn  Zn16  1  0.333333  0.666667  0.000000  1
  Au  Au17  1  0.458184  0.541816  0.000000  1
  Au  Au18  1  0.829861  0.914931  0.000000  1
  Au  Au19  1  0.458184  0.916368  0.000000  1
  Au  Au20  1  0.085069  0.170139  0.000000  1
  Au  Au21  1  0.085069  0.914931  0.000000  1
  Au  Au22  1  0.791011  0.582021  0.500000  1
  Au  Au23  1  0.083632  0.541816  0.000000  1
  Au  Au24  1  0.791011  0.208989  0.500000  1
  Au  Au25  1  0.417979  0.208989  0.500000  1
