# generated using pymatgen
data_Mn4AlZnPd10
_symmetry_space_group_name_H-M   'P 1'
_cell_length_a   4.07611200
_cell_length_b   5.47152029
_cell_length_c   10.74067295
_cell_angle_alpha   89.42336540
_cell_angle_beta   90.00000000
_cell_angle_gamma   90.00000000
_symmetry_Int_Tables_number   1
_chemical_formula_structural   Mn4AlZnPd10
_chemical_formula_sum   'Mn4 Al1 Zn1 Pd10'
_cell_volume   239.53204427
_cell_formula_units_Z   1
loop_
 _symmetry_equiv_pos_site_id
 _symmetry_equiv_pos_as_xyz
  1  'x, y, z'
loop_
 _atom_site_type_symbol
 _atom_site_label
 _atom_site_symmetry_multiplicity
 _atom_site_fract_x
 _atom_site_fract_y
 _atom_site_fract_z
 _atom_site_occupancy
  Mn  Mn0  1  0.500000  0.184554  0.362641  1
  Mn  Mn1  1  0.500000  0.815446  0.637359  1
  Mn  Mn2  1  0.500000  0.692237  0.135143  1
  Mn  Mn3  1  0.500000  0.307763  0.864857  1
  Al  Al4  1  0.000000  0.500000  0.500000  1
  Zn  Zn5  1  0.000000  0.000000  0.000000  1
  Pd  Pd6  1  0.500000  0.198134  0.113153  1
  Pd  Pd7  1  0.500000  0.801866  0.886847  1
  Pd  Pd8  1  0.500000  0.689761  0.391938  1
  Pd  Pd9  1  0.500000  0.310239  0.608062  1
  Pd  Pd10  1  0.000000  0.000000  0.500000  1
  Pd  Pd11  1  0.000000  0.500000  0.000000  1
  Pd  Pd12  1  0.000000  0.929960  0.243407  1
  Pd  Pd13  1  0.000000  0.070040  0.756593  1
  Pd  Pd14  1  0.000000  0.430534  0.259978  1
  Pd  Pd15  1  0.000000  0.569466  0.740022  1
