# generated using pymatgen
data_Nd2PaRh3
_symmetry_space_group_name_H-M   'P 1'
_cell_length_a   5.95394917
_cell_length_b   5.42088395
_cell_length_c   5.95394900
_cell_angle_alpha   56.69005961
_cell_angle_beta   59.99999542
_cell_angle_gamma   56.69006135
_symmetry_Int_Tables_number   1
_chemical_formula_structural   Nd2PaRh3
_chemical_formula_sum   'Nd2 Pa1 Rh3'
_cell_volume   128.68272890
_cell_formula_units_Z   1
loop_
 _symmetry_equiv_pos_site_id
 _symmetry_equiv_pos_as_xyz
  1  'x, y, z'
loop_
 _atom_site_type_symbol
 _atom_site_label
 _atom_site_symmetry_multiplicity
 _atom_site_fract_x
 _atom_site_fract_y
 _atom_site_fract_z
 _atom_site_occupancy
  Nd  Nd0  1  0.748258  0.755226  0.748258  1
  Nd  Nd1  1  0.501742  0.494774  0.501742  1
  Pa  Pa2  1  0.125000  0.625000  0.125000  1
  Rh  Rh3  1  0.125000  0.125000  0.625000  1
  Rh  Rh4  1  0.125000  0.125000  0.125000  1
  Rh  Rh5  1  0.625000  0.125000  0.125000  1
