# generated using pymatgen
data_Nd2ErSi5PPd20
_symmetry_space_group_name_H-M   'P 1'
_cell_length_a   8.74303662
_cell_length_b   8.74806849
_cell_length_c   8.74806945
_cell_angle_alpha   59.96194415
_cell_angle_beta   60.01903240
_cell_angle_gamma   60.01903159
_symmetry_Int_Tables_number   1
_chemical_formula_structural   Nd2ErSi5PPd20
_chemical_formula_sum   'Nd2 Er1 Si5 P1 Pd20'
_cell_volume   473.12013970
_cell_formula_units_Z   1
loop_
 _symmetry_equiv_pos_site_id
 _symmetry_equiv_pos_as_xyz
  1  'x, y, z'
loop_
 _atom_site_type_symbol
 _atom_site_label
 _atom_site_symmetry_multiplicity
 _atom_site_fract_x
 _atom_site_fract_y
 _atom_site_fract_z
 _atom_site_occupancy
  Nd  Nd0  1  0.249244  0.250756  0.250756  1
  Nd  Nd1  1  0.749244  0.750756  0.750756  1
  Er  Er2  1  0.000617  0.999383  0.999383  1
  Si  Si3  1  0.266666  0.733334  0.733334  1
  Si  Si4  1  0.265058  0.734942  0.266573  1
  Si  Si5  1  0.733427  0.266573  0.734942  1
  Si  Si6  1  0.265058  0.266573  0.734942  1
  Si  Si7  1  0.733427  0.734942  0.266573  1
  P  P8  1  0.735485  0.264515  0.264515  1
  Pd  Pd9  1  0.346267  0.999239  0.999239  1
  Pd  Pd10  1  0.655254  0.999239  0.999239  1
  Pd  Pd11  1  0.000761  0.344746  0.653733  1
  Pd  Pd12  1  0.000761  0.653733  0.344746  1
  Pd  Pd13  1  0.998521  0.344986  0.001479  1
  Pd  Pd14  1  0.655014  0.001479  0.344986  1
  Pd  Pd15  1  0.000139  0.654830  0.999861  1
  Pd  Pd16  1  0.345170  0.999861  0.654830  1
  Pd  Pd17  1  0.998521  0.001479  0.344986  1
  Pd  Pd18  1  0.000139  0.999861  0.654830  1
  Pd  Pd19  1  0.655014  0.344986  0.001479  1
  Pd  Pd20  1  0.345170  0.654830  0.999861  1
  Pd  Pd21  1  0.386658  0.385000  0.385000  1
  Pd  Pd22  1  0.615060  0.614740  0.614740  1
  Pd  Pd23  1  0.385260  0.384940  0.844542  1
  Pd  Pd24  1  0.385260  0.844542  0.384940  1
  Pd  Pd25  1  0.615000  0.613342  0.156657  1
  Pd  Pd26  1  0.615000  0.156657  0.613342  1
  Pd  Pd27  1  0.843343  0.385000  0.385000  1
  Pd  Pd28  1  0.155458  0.614740  0.614740  1
