# generated using pymatgen
data_Nd6Dy10Cd4Ir3Pt
_symmetry_space_group_name_H-M   'P 1'
_cell_length_a   9.74980999
_cell_length_b   9.74981010
_cell_length_c   9.74981044
_cell_angle_alpha   60.09884814
_cell_angle_beta   60.09884485
_cell_angle_gamma   60.09885176
_symmetry_Int_Tables_number   1
_chemical_formula_structural   Nd6Dy10Cd4Ir3Pt
_chemical_formula_sum   'Nd6 Dy10 Cd4 Ir3 Pt1'
_cell_volume   656.81808295
_cell_formula_units_Z   1
loop_
 _symmetry_equiv_pos_site_id
 _symmetry_equiv_pos_as_xyz
  1  'x, y, z'
loop_
 _atom_site_type_symbol
 _atom_site_label
 _atom_site_symmetry_multiplicity
 _atom_site_fract_x
 _atom_site_fract_y
 _atom_site_fract_z
 _atom_site_occupancy
  Nd  Nd0  1  0.940854  0.559837  0.559837  1
  Nd  Nd1  1  0.560208  0.940790  0.940790  1
  Nd  Nd2  1  0.559837  0.940854  0.559837  1
  Nd  Nd3  1  0.940790  0.560208  0.940790  1
  Nd  Nd4  1  0.559837  0.559837  0.940854  1
  Nd  Nd5  1  0.940790  0.940790  0.560208  1
  Dy  Dy6  1  0.346971  0.346971  0.346971  1
  Dy  Dy7  1  0.350661  0.350661  0.953456  1
  Dy  Dy8  1  0.350661  0.953456  0.350661  1
  Dy  Dy9  1  0.953456  0.350661  0.350661  1
  Dy  Dy10  1  0.807732  0.188638  0.188638  1
  Dy  Dy11  1  0.185411  0.812317  0.812317  1
  Dy  Dy12  1  0.188638  0.807732  0.188638  1
  Dy  Dy13  1  0.812317  0.185411  0.812317  1
  Dy  Dy14  1  0.188638  0.188638  0.807732  1
  Dy  Dy15  1  0.812317  0.812317  0.185411  1
  Cd  Cd16  1  0.579531  0.579531  0.579531  1
  Cd  Cd17  1  0.579812  0.579812  0.260607  1
  Cd  Cd18  1  0.579812  0.260607  0.579812  1
  Cd  Cd19  1  0.260607  0.579812  0.579812  1
  Ir  Ir20  1  0.141828  0.141828  0.575312  1
  Ir  Ir21  1  0.141828  0.575312  0.141828  1
  Ir  Ir22  1  0.575312  0.141828  0.141828  1
  Pt  Pt23  1  0.142148  0.142148  0.142148  1
