# generated using pymatgen
data_Dy5Mg2Co17P12
_symmetry_space_group_name_H-M   'P 1'
_cell_length_a   12.12463003
_cell_length_b   12.11561884
_cell_length_c   3.71641900
_cell_angle_alpha   90.00000000
_cell_angle_beta   90.00000000
_cell_angle_gamma   119.97541699
_symmetry_Int_Tables_number   1
_chemical_formula_structural   Dy5Mg2Co17P12
_chemical_formula_sum   'Dy5 Mg2 Co17 P12'
_cell_volume   472.90829175
_cell_formula_units_Z   1
loop_
 _symmetry_equiv_pos_site_id
 _symmetry_equiv_pos_as_xyz
  1  'x, y, z'
loop_
 _atom_site_type_symbol
 _atom_site_label
 _atom_site_symmetry_multiplicity
 _atom_site_fract_x
 _atom_site_fract_y
 _atom_site_fract_z
 _atom_site_occupancy
  Dy  Dy0  1  0.668486  0.335137  0.000000  1
  Dy  Dy1  1  0.331514  0.666652  0.000000  1
  Dy  Dy2  1  0.815356  0.814772  0.500000  1
  Dy  Dy3  1  0.184644  0.999416  0.500000  1
  Dy  Dy4  1  0.000000  0.190146  0.500000  1
  Mg  Mg5  1  0.439150  0.439676  0.000000  1
  Mg  Mg6  1  0.560850  0.000527  0.000000  1
  Co  Co7  1  0.876824  0.362074  0.500000  1
  Co  Co8  1  0.646286  0.517218  0.500000  1
  Co  Co9  1  0.481067  0.123051  0.500000  1
  Co  Co10  1  0.353714  0.870932  0.500000  1
  Co  Co11  1  0.518933  0.641985  0.500000  1
  Co  Co12  1  0.123176  0.485249  0.500000  1
  Co  Co13  1  0.000000  0.553394  0.000000  1
  Co  Co14  1  0.804520  0.182491  0.000000  1
  Co  Co15  1  0.825996  0.623793  0.000000  1
  Co  Co16  1  0.374469  0.196206  0.000000  1
  Co  Co17  1  0.174004  0.797798  0.000000  1
  Co  Co18  1  0.625531  0.821738  0.000000  1
  Co  Co19  1  0.195480  0.377972  0.000000  1
  Co  Co20  1  0.279522  0.281464  0.500000  1
  Co  Co21  1  0.720478  0.001942  0.500000  1
  Co  Co22  1  0.000000  0.715539  0.500000  1
  Co  Co23  1  0.000000  0.999441  0.000000  1
  P  P24  1  0.692590  0.173459  0.500000  1
  P  P25  1  0.835523  0.522051  0.500000  1
  P  P26  1  0.478743  0.305903  0.500000  1
  P  P27  1  0.164477  0.686527  0.500000  1
  P  P28  1  0.521257  0.827160  0.500000  1
  P  P29  1  0.307410  0.480868  0.500000  1
  P  P30  1  0.178681  0.180720  0.000000  1
  P  P31  1  0.821319  0.002039  0.000000  1
  P  P32  1  0.000000  0.818828  0.000000  1
  P  P33  1  0.642079  0.637848  0.000000  1
  P  P34  1  0.357921  0.995768  0.000000  1
  P  P35  1  0.000000  0.370213  0.000000  1
