# generated using pymatgen
data_Tb3CeIn2CuRh3
_symmetry_space_group_name_H-M   'P 1'
_cell_length_a   7.64769615
_cell_length_b   7.55948214
_cell_length_c   3.76317700
_cell_angle_alpha   90.00000000
_cell_angle_beta   90.00000000
_cell_angle_gamma   88.81368405
_symmetry_Int_Tables_number   1
_chemical_formula_structural   Tb3CeIn2CuRh3
_chemical_formula_sum   'Tb3 Ce1 In2 Cu1 Rh3'
_cell_volume   217.51249862
_cell_formula_units_Z   1
loop_
 _symmetry_equiv_pos_site_id
 _symmetry_equiv_pos_as_xyz
  1  'x, y, z'
loop_
 _atom_site_type_symbol
 _atom_site_label
 _atom_site_symmetry_multiplicity
 _atom_site_fract_x
 _atom_site_fract_y
 _atom_site_fract_z
 _atom_site_occupancy
  Tb  Tb0  1  0.669566  0.174476  0.500000  1
  Tb  Tb1  1  0.334353  0.841283  0.500000  1
  Tb  Tb2  1  0.168297  0.318017  0.500000  1
  Ce  Ce3  1  0.812249  0.664096  0.500000  1
  In  In4  1  0.002190  0.001302  0.000000  1
  In  In5  1  0.485202  0.497027  0.000000  1
  Cu  Cu6  1  0.130987  0.624723  0.000000  1
  Rh  Rh7  1  0.869497  0.396468  0.000000  1
  Rh  Rh8  1  0.652536  0.857486  0.000000  1
  Rh  Rh9  1  0.375124  0.125123  0.000000  1
