# generated using pymatgen
data_Sm3Fe2Co2P6Ru5
_symmetry_space_group_name_H-M   'P 1'
_cell_length_a   3.89147500
_cell_length_b   10.82709500
_cell_length_c   12.58042000
_cell_angle_alpha   90.00000000
_cell_angle_beta   90.00000000
_cell_angle_gamma   90.00000000
_symmetry_Int_Tables_number   1
_chemical_formula_structural   Sm3Fe2Co2P6Ru5
_chemical_formula_sum   'Sm6 Fe4 Co4 P12 Ru10'
_cell_volume   530.05548452
_cell_formula_units_Z   2
loop_
 _symmetry_equiv_pos_site_id
 _symmetry_equiv_pos_as_xyz
  1  'x, y, z'
loop_
 _atom_site_type_symbol
 _atom_site_label
 _atom_site_symmetry_multiplicity
 _atom_site_fract_x
 _atom_site_fract_y
 _atom_site_fract_z
 _atom_site_occupancy
  Sm  Sm0  1  0.000000  0.500000  0.527998  1
  Sm  Sm1  1  0.500000  0.000000  0.472002  1
  Sm  Sm2  1  0.500000  0.821210  0.199374  1
  Sm  Sm3  1  0.500000  0.178790  0.199374  1
  Sm  Sm4  1  0.000000  0.678790  0.800626  1
  Sm  Sm5  1  0.000000  0.321210  0.800626  1
  Fe  Fe6  1  0.500000  0.333259  0.992152  1
  Fe  Fe7  1  0.500000  0.666741  0.992152  1
  Fe  Fe8  1  0.000000  0.166741  0.007848  1
  Fe  Fe9  1  0.000000  0.833259  0.007848  1
  Co  Co10  1  0.500000  0.500000  0.701131  1
  Co  Co11  1  0.000000  0.000000  0.298869  1
  Co  Co12  1  0.000000  0.500000  0.986178  1
  Co  Co13  1  0.500000  0.000000  0.013822  1
  P  P14  1  0.500000  0.500000  0.887460  1
  P  P15  1  0.000000  0.000000  0.112540  1
  P  P16  1  0.500000  0.500000  0.333194  1
  P  P17  1  0.000000  0.000000  0.666806  1
  P  P18  1  0.500000  0.310510  0.617790  1
  P  P19  1  0.500000  0.689490  0.617790  1
  P  P20  1  0.000000  0.189490  0.382210  1
  P  P21  1  0.000000  0.810510  0.382210  1
  P  P22  1  0.500000  0.843923  0.904620  1
  P  P23  1  0.500000  0.156077  0.904620  1
  P  P24  1  0.000000  0.656077  0.095380  1
  P  P25  1  0.000000  0.343923  0.095380  1
  Ru  Ru26  1  0.500000  0.500000  0.146662  1
  Ru  Ru27  1  0.000000  0.000000  0.853338  1
  Ru  Ru28  1  0.500000  0.298009  0.427328  1
  Ru  Ru29  1  0.500000  0.701991  0.427328  1
  Ru  Ru30  1  0.000000  0.201991  0.572672  1
  Ru  Ru31  1  0.000000  0.798009  0.572672  1
  Ru  Ru32  1  0.500000  0.876715  0.719411  1
  Ru  Ru33  1  0.500000  0.123285  0.719411  1
  Ru  Ru34  1  0.000000  0.623285  0.280589  1
  Ru  Ru35  1  0.000000  0.376715  0.280589  1
