# generated using pymatgen
data_Tm5CoTe4
_symmetry_space_group_name_H-M   'P 1'
_cell_length_a   7.55337041
_cell_length_b   7.55336975
_cell_length_c   10.71029213
_cell_angle_alpha   60.53750258
_cell_angle_beta   60.53750384
_cell_angle_gamma   31.64869422
_symmetry_Int_Tables_number   1
_chemical_formula_structural   Tm5CoTe4
_chemical_formula_sum   'Tm5 Co1 Te4'
_cell_volume   275.56238594
_cell_formula_units_Z   1
loop_
 _symmetry_equiv_pos_site_id
 _symmetry_equiv_pos_as_xyz
  1  'x, y, z'
loop_
 _atom_site_type_symbol
 _atom_site_label
 _atom_site_symmetry_multiplicity
 _atom_site_fract_x
 _atom_site_fract_y
 _atom_site_fract_z
 _atom_site_occupancy
  Tm  Tm0  1  0.000000  0.000000  0.500000  1
  Tm  Tm1  1  0.575602  0.575602  0.079612  1
  Tm  Tm2  1  0.175593  0.175593  0.746024  1
  Tm  Tm3  1  0.824407  0.824407  0.253976  1
  Tm  Tm4  1  0.424398  0.424398  0.920388  1
  Co  Co5  1  0.000000  0.000000  0.000000  1
  Te  Te6  1  0.613720  0.613720  0.579604  1
  Te  Te7  1  0.188864  0.188864  0.194533  1
  Te  Te8  1  0.811136  0.811136  0.805467  1
  Te  Te9  1  0.386280  0.386280  0.420396  1
