# generated using pymatgen
data_K2SrLi3(NiN)4
_symmetry_space_group_name_H-M   'P 1'
_cell_length_a   4.04393332
_cell_length_b   6.94899002
_cell_length_c   9.76742924
_cell_angle_alpha   110.83773461
_cell_angle_beta   101.94725388
_cell_angle_gamma   89.99999761
_symmetry_Int_Tables_number   1
_chemical_formula_structural   K2SrLi3(NiN)4
_chemical_formula_sum   'K2 Sr1 Li3 Ni4 N4'
_cell_volume   250.15199274
_cell_formula_units_Z   1
loop_
 _symmetry_equiv_pos_site_id
 _symmetry_equiv_pos_as_xyz
  1  'x, y, z'
loop_
 _atom_site_type_symbol
 _atom_site_label
 _atom_site_symmetry_multiplicity
 _atom_site_fract_x
 _atom_site_fract_y
 _atom_site_fract_z
 _atom_site_occupancy
  K  K0  1  0.221216  0.221216  0.442433  1
  K  K1  1  0.778785  0.778784  0.557567  1
  Sr  Sr2  1  0.000000  0.000000  0.000000  1
  Li  Li3  1  0.500001  0.500000  0.000000  1
  Li  Li4  1  0.114156  0.614155  0.228310  1
  Li  Li5  1  0.885846  0.385845  0.771690  1
  Ni  Ni6  1  0.607534  0.355862  0.215065  1
  Ni  Ni7  1  0.607534  0.859205  0.215065  1
  Ni  Ni8  1  0.392467  0.140795  0.784935  1
  Ni  Ni9  1  0.392467  0.644139  0.784935  1
  N  N10  1  0.605832  0.105831  0.211665  1
  N  N11  1  0.612541  0.612540  0.225080  1
  N  N12  1  0.387459  0.387459  0.774919  1
  N  N13  1  0.394169  0.894168  0.788335  1
