# generated using pymatgen
data_Tb20Sn15Sb
_symmetry_space_group_name_H-M   'P 1'
_cell_length_a   8.10282871
_cell_length_b   8.22844608
_cell_length_c   15.50682701
_cell_angle_alpha   90.05884028
_cell_angle_beta   90.17825638
_cell_angle_gamma   90.00384862
_symmetry_Int_Tables_number   1
_chemical_formula_structural   Tb20Sn15Sb
_chemical_formula_sum   'Tb20 Sn15 Sb1'
_cell_volume   1033.89181238
_cell_formula_units_Z   1
loop_
 _symmetry_equiv_pos_site_id
 _symmetry_equiv_pos_as_xyz
  1  'x, y, z'
loop_
 _atom_site_type_symbol
 _atom_site_label
 _atom_site_symmetry_multiplicity
 _atom_site_fract_x
 _atom_site_fract_y
 _atom_site_fract_z
 _atom_site_occupancy
  Tb  Tb0  1  0.369239  0.836179  0.879213  1
  Tb  Tb1  1  0.867779  0.663608  0.621821  1
  Tb  Tb2  1  0.632239  0.163387  0.377850  1
  Tb  Tb3  1  0.130946  0.337194  0.121639  1
  Tb  Tb4  1  0.632185  0.163855  0.121076  1
  Tb  Tb5  1  0.132768  0.336539  0.377836  1
  Tb  Tb6  1  0.367735  0.836492  0.621728  1
  Tb  Tb7  1  0.868147  0.663666  0.878562  1
  Tb  Tb8  1  0.522371  0.322331  0.901334  1
  Tb  Tb9  1  0.020054  0.179652  0.597943  1
  Tb  Tb10  1  0.479882  0.679344  0.401751  1
  Tb  Tb11  1  0.976543  0.820693  0.099044  1
  Tb  Tb12  1  0.479452  0.678232  0.098361  1
  Tb  Tb13  1  0.979810  0.820467  0.401746  1
  Tb  Tb14  1  0.520200  0.320345  0.598003  1
  Tb  Tb15  1  0.020032  0.179745  0.901268  1
  Tb  Tb16  1  0.198523  0.501575  0.749825  1
  Tb  Tb17  1  0.698296  0.998090  0.750449  1
  Tb  Tb18  1  0.801464  0.498281  0.250438  1
  Tb  Tb19  1  0.301778  0.001413  0.251035  1
  Sn  Sn20  1  0.792067  0.464670  0.457731  1
  Sn  Sn21  1  0.708016  0.964581  0.541933  1
  Sn  Sn22  1  0.209520  0.534338  0.958069  1
  Sn  Sn23  1  0.711991  0.965619  0.957874  1
  Sn  Sn24  1  0.207906  0.535167  0.541925  1
  Sn  Sn25  1  0.292313  0.034964  0.457598  1
  Sn  Sn26  1  0.791096  0.465553  0.042438  1
  Sn  Sn27  1  0.565570  0.618900  0.750155  1
  Sn  Sn28  1  0.066271  0.881365  0.750762  1
  Sn  Sn29  1  0.434492  0.380621  0.249134  1
  Sn  Sn30  1  0.934427  0.118836  0.249110  1
  Sn  Sn31  1  0.328653  0.145465  0.749991  1
  Sn  Sn32  1  0.828720  0.354682  0.749991  1
  Sn  Sn33  1  0.670637  0.853898  0.249761  1
  Sn  Sn34  1  0.171050  0.646415  0.249672  1
  Sb  Sb35  1  0.287828  0.033837  0.042936  1
