# generated using pymatgen
data_Ho2TmRuI3
_symmetry_space_group_name_H-M   'P 1'
_cell_length_a   4.19988200
_cell_length_b   8.82071592
_cell_length_c   12.22272463
_cell_angle_alpha   85.98563668
_cell_angle_beta   90.00000000
_cell_angle_gamma   90.00000000
_symmetry_Int_Tables_number   1
_chemical_formula_structural   Ho2TmRuI3
_chemical_formula_sum   'Ho4 Tm2 Ru2 I6'
_cell_volume   451.69170426
_cell_formula_units_Z   2
loop_
 _symmetry_equiv_pos_site_id
 _symmetry_equiv_pos_as_xyz
  1  'x, y, z'
loop_
 _atom_site_type_symbol
 _atom_site_label
 _atom_site_symmetry_multiplicity
 _atom_site_fract_x
 _atom_site_fract_y
 _atom_site_fract_z
 _atom_site_occupancy
  Ho  Ho0  1  0.750000  0.098766  0.684648  1
  Ho  Ho1  1  0.250000  0.901234  0.315352  1
  Ho  Ho2  1  0.250000  0.260320  0.897303  1
  Ho  Ho3  1  0.750000  0.739680  0.102697  1
  Tm  Tm4  1  0.750000  0.129921  0.125645  1
  Tm  Tm5  1  0.250000  0.870079  0.874355  1
  Ru  Ru6  1  0.750000  0.052237  0.908158  1
  Ru  Ru7  1  0.250000  0.947763  0.091842  1
  I  I8  1  0.250000  0.354906  0.635781  1
  I  I9  1  0.750000  0.645094  0.364219  1
  I  I10  1  0.750000  0.144574  0.392285  1
  I  I11  1  0.250000  0.855426  0.607715  1
  I  I12  1  0.250000  0.425569  0.133794  1
  I  I13  1  0.750000  0.574431  0.866206  1
