# generated using pymatgen
data_Nb3Co2WC
_symmetry_space_group_name_H-M   'P 1'
_cell_length_a   8.20441988
_cell_length_b   8.20442009
_cell_length_c   8.20441900
_cell_angle_alpha   60.00000034
_cell_angle_beta   59.99999950
_cell_angle_gamma   60.00000051
_symmetry_Int_Tables_number   1
_chemical_formula_structural   Nb3Co2WC
_chemical_formula_sum   'Nb12 Co8 W4 C4'
_cell_volume   390.50680133
_cell_formula_units_Z   4
loop_
 _symmetry_equiv_pos_site_id
 _symmetry_equiv_pos_as_xyz
  1  'x, y, z'
loop_
 _atom_site_type_symbol
 _atom_site_label
 _atom_site_symmetry_multiplicity
 _atom_site_fract_x
 _atom_site_fract_y
 _atom_site_fract_z
 _atom_site_occupancy
  Nb  Nb0  1  0.690857  0.309143  0.690857  1
  Nb  Nb1  1  0.940857  0.559143  0.559143  1
  Nb  Nb2  1  0.559143  0.940857  0.940857  1
  Nb  Nb3  1  0.940857  0.559143  0.940857  1
  Nb  Nb4  1  0.559143  0.559143  0.940857  1
  Nb  Nb5  1  0.940857  0.940857  0.559143  1
  Nb  Nb6  1  0.690857  0.690857  0.309143  1
  Nb  Nb7  1  0.309143  0.690857  0.690857  1
  Nb  Nb8  1  0.690857  0.309143  0.309143  1
  Nb  Nb9  1  0.309143  0.309143  0.690857  1
  Nb  Nb10  1  0.559143  0.940857  0.559143  1
  Nb  Nb11  1  0.309143  0.690857  0.309143  1
  Co  Co12  1  0.326919  0.326919  0.326919  1
  Co  Co13  1  0.230757  0.923081  0.923081  1
  Co  Co14  1  0.923081  0.230757  0.923081  1
  Co  Co15  1  0.923081  0.923081  0.230757  1
  Co  Co16  1  0.326919  0.019243  0.326919  1
  Co  Co17  1  0.326919  0.326919  0.019243  1
  Co  Co18  1  0.019243  0.326919  0.326919  1
  Co  Co19  1  0.923081  0.923081  0.923081  1
  W  W20  1  0.125000  0.125000  0.125000  1
  W  W21  1  0.625000  0.125000  0.125000  1
  W  W22  1  0.125000  0.625000  0.125000  1
  W  W23  1  0.125000  0.125000  0.625000  1
  C  C24  1  0.625000  0.625000  0.625000  1
  C  C25  1  0.125000  0.625000  0.625000  1
  C  C26  1  0.625000  0.125000  0.625000  1
  C  C27  1  0.625000  0.625000  0.125000  1
