# generated using pymatgen
data_Dy16Ag3Rh4Pb
_symmetry_space_group_name_H-M   'P 1'
_cell_length_a   9.61083282
_cell_length_b   9.61083331
_cell_length_c   9.61083436
_cell_angle_alpha   59.73174095
_cell_angle_beta   59.73173585
_cell_angle_gamma   59.73174007
_symmetry_Int_Tables_number   1
_chemical_formula_structural   Dy16Ag3Rh4Pb
_chemical_formula_sum   'Dy16 Ag3 Rh4 Pb1'
_cell_volume   623.89887856
_cell_formula_units_Z   1
loop_
 _symmetry_equiv_pos_site_id
 _symmetry_equiv_pos_as_xyz
  1  'x, y, z'
loop_
 _atom_site_type_symbol
 _atom_site_label
 _atom_site_symmetry_multiplicity
 _atom_site_fract_x
 _atom_site_fract_y
 _atom_site_fract_z
 _atom_site_occupancy
  Dy  Dy0  1  0.689186  0.312415  0.312415  1
  Dy  Dy1  1  0.689772  0.689772  0.310359  1
  Dy  Dy2  1  0.312415  0.689186  0.312415  1
  Dy  Dy3  1  0.935437  0.935437  0.556136  1
  Dy  Dy4  1  0.148453  0.148453  0.552545  1
  Dy  Dy5  1  0.562040  0.937050  0.562040  1
  Dy  Dy6  1  0.150024  0.150024  0.150024  1
  Dy  Dy7  1  0.312415  0.312415  0.689186  1
  Dy  Dy8  1  0.937050  0.562040  0.562040  1
  Dy  Dy9  1  0.562040  0.562040  0.937050  1
  Dy  Dy10  1  0.556136  0.935437  0.935437  1
  Dy  Dy11  1  0.935437  0.556136  0.935437  1
  Dy  Dy12  1  0.148453  0.552545  0.148453  1
  Dy  Dy13  1  0.310359  0.689772  0.689772  1
  Dy  Dy14  1  0.689772  0.310359  0.689772  1
  Dy  Dy15  1  0.552545  0.148453  0.148453  1
  Ag  Ag16  1  0.917975  0.917975  0.253821  1
  Ag  Ag17  1  0.253821  0.917975  0.917975  1
  Ag  Ag18  1  0.917975  0.253821  0.917975  1
  Rh  Rh19  1  0.357213  0.357213  0.357213  1
  Rh  Rh20  1  0.929313  0.356661  0.356661  1
  Rh  Rh21  1  0.356661  0.356661  0.929313  1
  Rh  Rh22  1  0.356661  0.929313  0.356661  1
  Pb  Pb23  1  0.918850  0.918850  0.918850  1
