# generated using pymatgen
data_YHo3(AlRu)4
_symmetry_space_group_name_H-M   'P 1'
_cell_length_a   7.03298602
_cell_length_b   4.02097700
_cell_length_c   8.06672622
_cell_angle_alpha   90.00000000
_cell_angle_beta   90.17314816
_cell_angle_gamma   90.00000000
_symmetry_Int_Tables_number   1
_chemical_formula_structural   YHo3(AlRu)4
_chemical_formula_sum   'Y1 Ho3 Al4 Ru4'
_cell_volume   228.12174099
_cell_formula_units_Z   1
loop_
 _symmetry_equiv_pos_site_id
 _symmetry_equiv_pos_as_xyz
  1  'x, y, z'
loop_
 _atom_site_type_symbol
 _atom_site_label
 _atom_site_symmetry_multiplicity
 _atom_site_fract_x
 _atom_site_fract_y
 _atom_site_fract_z
 _atom_site_occupancy
  Y  Y0  1  0.030452  0.250000  0.821280  1
  Ho  Ho1  1  0.969099  0.749999  0.178932  1
  Ho  Ho2  1  0.469711  0.749999  0.321403  1
  Ho  Ho3  1  0.530585  0.250000  0.678314  1
  Al  Al4  1  0.638735  0.250000  0.058810  1
  Al  Al5  1  0.138829  0.250000  0.441255  1
  Al  Al6  1  0.861270  0.749999  0.558401  1
  Al  Al7  1  0.360850  0.749999  0.941907  1
  Ru  Ru8  1  0.271053  0.250000  0.128098  1
  Ru  Ru9  1  0.771111  0.250000  0.373273  1
  Ru  Ru10  1  0.231591  0.749999  0.625260  1
  Ru  Ru11  1  0.726717  0.749999  0.873063  1
