# generated using pymatgen
data_CaYb7(MnN3)4
_symmetry_space_group_name_H-M   'P 1'
_cell_length_a   5.76006692
_cell_length_b   5.76322341
_cell_length_c   11.46425485
_cell_angle_alpha   88.94641473
_cell_angle_beta   88.93371684
_cell_angle_gamma   125.09614291
_symmetry_Int_Tables_number   1
_chemical_formula_structural   CaYb7(MnN3)4
_chemical_formula_sum   'Ca1 Yb7 Mn4 N12'
_cell_volume   311.13024617
_cell_formula_units_Z   1
loop_
 _symmetry_equiv_pos_site_id
 _symmetry_equiv_pos_as_xyz
  1  'x, y, z'
loop_
 _atom_site_type_symbol
 _atom_site_label
 _atom_site_symmetry_multiplicity
 _atom_site_fract_x
 _atom_site_fract_y
 _atom_site_fract_z
 _atom_site_occupancy
  Ca  Ca0  1  0.934296  0.530068  0.146726  1
  Yb  Yb1  1  0.628831  0.844557  0.076903  1
  Yb  Yb2  1  0.467629  0.065856  0.353064  1
  Yb  Yb3  1  0.069013  0.471875  0.851882  1
  Yb  Yb4  1  0.526972  0.932088  0.647917  1
  Yb  Yb5  1  0.374430  0.157472  0.922136  1
  Yb  Yb6  1  0.842231  0.626370  0.577763  1
  Yb  Yb7  1  0.153326  0.371165  0.422982  1
  Mn  Mn8  1  0.763642  0.765161  0.836956  1
  Mn  Mn9  1  0.234554  0.236715  0.662020  1
  Mn  Mn10  1  0.238985  0.236073  0.161889  1
  Mn  Mn11  1  0.761954  0.761322  0.339034  1
  N  N12  1  0.086242  0.914879  0.749582  1
  N  N13  1  0.917571  0.080180  0.250270  1
  N  N14  1  0.506247  0.494050  0.749464  1
  N  N15  1  0.488412  0.507310  0.251814  1
  N  N16  1  0.367244  0.031756  0.131248  1
  N  N17  1  0.971934  0.639750  0.370393  1
  N  N18  1  0.642343  0.975303  0.868309  1
  N  N19  1  0.023871  0.357559  0.631474  1
  N  N20  1  0.824190  0.633201  0.961079  1
  N  N21  1  0.630839  0.824003  0.463315  1
  N  N22  1  0.178423  0.366438  0.036439  1
  N  N23  1  0.366823  0.176849  0.537342  1
