# generated using pymatgen
data_KRb5(In2As3)2
_symmetry_space_group_name_H-M   'P 1'
_cell_length_a   10.77700718
_cell_length_b   10.76110748
_cell_length_c   15.52821353
_cell_angle_alpha   90.04093016
_cell_angle_beta   89.92699601
_cell_angle_gamma   141.80953821
_symmetry_Int_Tables_number   1
_chemical_formula_structural   KRb5(In2As3)2
_chemical_formula_sum   'K2 Rb10 In8 As12'
_cell_volume   1113.42180621
_cell_formula_units_Z   2
loop_
 _symmetry_equiv_pos_site_id
 _symmetry_equiv_pos_as_xyz
  1  'x, y, z'
loop_
 _atom_site_type_symbol
 _atom_site_label
 _atom_site_symmetry_multiplicity
 _atom_site_fract_x
 _atom_site_fract_y
 _atom_site_fract_z
 _atom_site_occupancy
  K  K0  1  0.847781  0.847268  0.363204  1
  K  K1  1  0.386964  0.071383  0.325653  1
  Rb  Rb2  1  0.613836  0.929460  0.675634  1
  Rb  Rb3  1  0.570689  0.886257  0.175937  1
  Rb  Rb4  1  0.070430  0.385778  0.324126  1
  Rb  Rb5  1  0.113865  0.429405  0.824313  1
  Rb  Rb6  1  0.650567  0.650566  0.861965  1
  Rb  Rb7  1  0.429474  0.113862  0.824345  1
  Rb  Rb8  1  0.349545  0.349226  0.138601  1
  Rb  Rb9  1  0.929347  0.613831  0.675541  1
  Rb  Rb10  1  0.150419  0.150347  0.637888  1
  Rb  Rb11  1  0.886078  0.570875  0.176230  1
  In  In12  1  0.239882  0.761315  0.499285  1
  In  In13  1  0.260486  0.739909  0.000259  1
  In  In14  1  0.739476  0.260348  0.000412  1
  In  In15  1  0.916524  0.083671  0.000309  1
  In  In16  1  0.760534  0.240073  0.499777  1
  In  In17  1  0.083560  0.916451  0.000525  1
  In  In18  1  0.416798  0.583144  0.499156  1
  In  In19  1  0.583675  0.416408  0.498980  1
  As  As20  1  0.048909  0.398897  0.092820  1
  As  As21  1  0.656125  0.656219  0.613384  1
  As  As22  1  0.398762  0.048832  0.094604  1
  As  As23  1  0.600891  0.951106  0.907097  1
  As  As24  1  0.951363  0.601410  0.907125  1
  As  As25  1  0.451223  0.101294  0.592821  1
  As  As26  1  0.549650  0.900107  0.406167  1
  As  As27  1  0.155962  0.155940  0.885905  1
  As  As28  1  0.101141  0.451198  0.592590  1
  As  As29  1  0.843628  0.843784  0.114685  1
  As  As30  1  0.343075  0.340988  0.384259  1
  As  As31  1  0.899340  0.550651  0.406402  1
