# generated using pymatgen
data_Er4Zn4SiRh8
_symmetry_space_group_name_H-M   'P 1'
_cell_length_a   7.20178099
_cell_length_b   7.14118016
_cell_length_c   7.20178024
_cell_angle_alpha   108.72597093
_cell_angle_beta   111.30411209
_cell_angle_gamma   108.72597287
_symmetry_Int_Tables_number   1
_chemical_formula_structural   Er4Zn4SiRh8
_chemical_formula_sum   'Er4 Zn4 Si1 Rh8'
_cell_volume   283.76440668
_cell_formula_units_Z   1
loop_
 _symmetry_equiv_pos_site_id
 _symmetry_equiv_pos_as_xyz
  1  'x, y, z'
loop_
 _atom_site_type_symbol
 _atom_site_label
 _atom_site_symmetry_multiplicity
 _atom_site_fract_x
 _atom_site_fract_y
 _atom_site_fract_z
 _atom_site_occupancy
  Er  Er0  1  0.990980  0.981960  0.490980  1
  Er  Er1  1  0.032116  0.520252  0.032116  1
  Er  Er2  1  0.490980  0.981960  0.990980  1
  Er  Er3  1  0.488136  0.520252  0.488136  1
  Zn  Zn4  1  0.747767  0.250039  0.502272  1
  Zn  Zn5  1  0.746018  0.492035  0.246018  1
  Zn  Zn6  1  0.502272  0.250039  0.747767  1
  Zn  Zn7  1  0.246018  0.492035  0.746018  1
  Si  Si8  1  0.998666  0.997332  0.998666  1
  Rh  Rh9  1  0.247537  0.758698  0.511162  1
  Rh  Rh10  1  0.511162  0.758698  0.247537  1
  Rh  Rh11  1  0.717098  0.699331  0.982233  1
  Rh  Rh12  1  0.297681  0.030986  0.297681  1
  Rh  Rh13  1  0.986017  0.268032  0.282015  1
  Rh  Rh14  1  0.282015  0.268032  0.986017  1
  Rh  Rh15  1  0.733306  0.030986  0.733306  1
  Rh  Rh16  1  0.982233  0.699331  0.717098  1
