# generated using pymatgen
data_HoEr3MoRu7
_symmetry_space_group_name_H-M   'P 1'
_cell_length_a   5.45830200
_cell_length_b   5.17005354
_cell_length_c   9.00294101
_cell_angle_alpha   89.99615853
_cell_angle_beta   90.00000000
_cell_angle_gamma   121.86210655
_symmetry_Int_Tables_number   1
_chemical_formula_structural   HoEr3MoRu7
_chemical_formula_sum   'Ho1 Er3 Mo1 Ru7'
_cell_volume   215.77884446
_cell_formula_units_Z   1
loop_
 _symmetry_equiv_pos_site_id
 _symmetry_equiv_pos_as_xyz
  1  'x, y, z'
loop_
 _atom_site_type_symbol
 _atom_site_label
 _atom_site_symmetry_multiplicity
 _atom_site_fract_x
 _atom_site_fract_y
 _atom_site_fract_z
 _atom_site_occupancy
  Ho  Ho0  1  0.333626  0.667253  0.431591  1
  Er  Er1  1  0.671670  0.343339  0.563718  1
  Er  Er2  1  0.671677  0.343354  0.936537  1
  Er  Er3  1  0.333490  0.666983  0.068252  1
  Mo  Mo4  1  0.163553  0.327106  0.750261  1
  Ru  Ru5  1  0.169475  0.821136  0.750243  1
  Ru  Ru6  1  0.334775  0.164938  0.249660  1
  Ru  Ru7  1  0.824564  0.649129  0.249733  1
  Ru  Ru8  1  0.651661  0.821136  0.750243  1
  Ru  Ru9  1  0.007759  0.015517  0.001359  1
  Ru  Ru10  1  0.830162  0.164938  0.249660  1
  Ru  Ru11  1  0.007587  0.015173  0.498742  1
