# generated using pymatgen
data_Ho4Er6Si5As
_symmetry_space_group_name_H-M   'P 1'
_cell_length_a   8.36833600
_cell_length_b   8.38360124
_cell_length_c   6.26640000
_cell_angle_alpha   90.00000000
_cell_angle_beta   90.00000000
_cell_angle_gamma   119.93978518
_symmetry_Int_Tables_number   1
_chemical_formula_structural   Ho4Er6Si5As
_chemical_formula_sum   'Ho4 Er6 Si5 As1'
_cell_volume   380.96200410
_cell_formula_units_Z   1
loop_
 _symmetry_equiv_pos_site_id
 _symmetry_equiv_pos_as_xyz
  1  'x, y, z'
loop_
 _atom_site_type_symbol
 _atom_site_label
 _atom_site_symmetry_multiplicity
 _atom_site_fract_x
 _atom_site_fract_y
 _atom_site_fract_z
 _atom_site_occupancy
  Ho  Ho0  1  0.996532  0.753872  0.750000  1
  Ho  Ho1  1  0.758595  0.000000  0.750000  1
  Ho  Ho2  1  0.242659  0.246128  0.750000  1
  Ho  Ho3  1  0.242755  0.000000  0.250000  1
  Er  Er4  1  0.000185  0.243744  0.250000  1
  Er  Er5  1  0.756441  0.756256  0.250000  1
  Er  Er6  1  0.332996  0.663937  0.498829  1
  Er  Er7  1  0.669059  0.336063  0.001171  1
  Er  Er8  1  0.669059  0.336063  0.498829  1
  Er  Er9  1  0.332996  0.663937  0.001171  1
  Si  Si10  1  0.394095  0.393169  0.250000  1
  Si  Si11  1  0.000926  0.606831  0.250000  1
  Si  Si12  1  0.999789  0.394058  0.750000  1
  Si  Si13  1  0.605731  0.605942  0.750000  1
  Si  Si14  1  0.607010  0.000000  0.250000  1
  As  As15  1  0.391170  0.000000  0.750000  1
