# generated using pymatgen
data_Sm2MnAl20Rh3
_symmetry_space_group_name_H-M   'P 1'
_cell_length_a   6.86266004
_cell_length_b   6.84552807
_cell_length_c   9.17231530
_cell_angle_alpha   90.15312991
_cell_angle_beta   90.32887844
_cell_angle_gamma   97.23357029
_symmetry_Int_Tables_number   1
_chemical_formula_structural   Sm2MnAl20Rh3
_chemical_formula_sum   'Sm2 Mn1 Al20 Rh3'
_cell_volume   427.46285487
_cell_formula_units_Z   1
loop_
 _symmetry_equiv_pos_site_id
 _symmetry_equiv_pos_as_xyz
  1  'x, y, z'
loop_
 _atom_site_type_symbol
 _atom_site_label
 _atom_site_symmetry_multiplicity
 _atom_site_fract_x
 _atom_site_fract_y
 _atom_site_fract_z
 _atom_site_occupancy
  Sm  Sm0  1  0.875352  0.129124  0.751535  1
  Sm  Sm1  1  0.124648  0.870876  0.248465  1
  Mn  Mn2  1  0.000000  0.500000  0.000000  1
  Al  Al3  1  0.622530  0.378903  0.551164  1
  Al  Al4  1  0.377470  0.621097  0.448836  1
  Al  Al5  1  0.371798  0.618642  0.047839  1
  Al  Al6  1  0.628202  0.381358  0.952161  1
  Al  Al7  1  0.223998  0.225001  0.499066  1
  Al  Al8  1  0.776002  0.774999  0.500934  1
  Al  Al9  1  0.780413  0.771591  0.002291  1
  Al  Al10  1  0.219587  0.228409  0.997709  1
  Al  Al11  1  0.846137  0.162221  0.100032  1
  Al  Al12  1  0.153863  0.837779  0.899968  1
  Al  Al13  1  0.158053  0.842811  0.603939  1
  Al  Al14  1  0.841947  0.157189  0.396061  1
  Al  Al15  1  0.861113  0.587959  0.754496  1
  Al  Al16  1  0.138887  0.412041  0.245504  1
  Al  Al17  1  0.408176  0.141491  0.751057  1
  Al  Al18  1  0.591824  0.858509  0.248943  1
  Al  Al19  1  0.221817  0.481381  0.756797  1
  Al  Al20  1  0.778183  0.518619  0.243203  1
  Al  Al21  1  0.519976  0.774464  0.750603  1
  Al  Al22  1  0.480024  0.225536  0.249397  1
  Rh  Rh23  1  0.000000  0.500000  0.500000  1
  Rh  Rh24  1  0.500000  0.000000  0.000000  1
  Rh  Rh25  1  0.500000  0.000000  0.500000  1
