# generated using pymatgen
data_Ho6Tm10Cd4RuPt3
_symmetry_space_group_name_H-M   'P 1'
_cell_length_a   9.59577214
_cell_length_b   9.59577160
_cell_length_c   9.59577154
_cell_angle_alpha   59.60670604
_cell_angle_beta   59.60670660
_cell_angle_gamma   59.60670678
_symmetry_Int_Tables_number   1
_chemical_formula_structural   Ho6Tm10Cd4RuPt3
_chemical_formula_sum   'Ho6 Tm10 Cd4 Ru1 Pt3'
_cell_volume   619.19185109
_cell_formula_units_Z   1
loop_
 _symmetry_equiv_pos_site_id
 _symmetry_equiv_pos_as_xyz
  1  'x, y, z'
loop_
 _atom_site_type_symbol
 _atom_site_label
 _atom_site_symmetry_multiplicity
 _atom_site_fract_x
 _atom_site_fract_y
 _atom_site_fract_z
 _atom_site_occupancy
  Ho  Ho0  1  0.185761  0.815388  0.815388  1
  Ho  Ho1  1  0.810345  0.187045  0.187045  1
  Ho  Ho2  1  0.815388  0.185761  0.815388  1
  Ho  Ho3  1  0.187045  0.810345  0.187045  1
  Ho  Ho4  1  0.815388  0.815388  0.185761  1
  Ho  Ho5  1  0.187045  0.187045  0.810345  1
  Tm  Tm6  1  0.601409  0.601409  0.601409  1
  Tm  Tm7  1  0.600051  0.600051  0.197733  1
  Tm  Tm8  1  0.600051  0.197733  0.600051  1
  Tm  Tm9  1  0.197733  0.600051  0.600051  1
  Tm  Tm10  1  0.065057  0.438324  0.438324  1
  Tm  Tm11  1  0.438417  0.060457  0.060457  1
  Tm  Tm12  1  0.438324  0.065057  0.438324  1
  Tm  Tm13  1  0.060457  0.438417  0.060457  1
  Tm  Tm14  1  0.438324  0.438324  0.065057  1
  Tm  Tm15  1  0.060457  0.060457  0.438417  1
  Cd  Cd16  1  0.830699  0.830699  0.830699  1
  Cd  Cd17  1  0.831222  0.831222  0.504289  1
  Cd  Cd18  1  0.831222  0.504289  0.831222  1
  Cd  Cd19  1  0.504289  0.831222  0.831222  1
  Ru  Ru20  1  0.393008  0.393008  0.393008  1
  Pt  Pt21  1  0.393141  0.393141  0.822021  1
  Pt  Pt22  1  0.393141  0.822021  0.393141  1
  Pt  Pt23  1  0.822021  0.393141  0.393141  1
