# generated using pymatgen
data_Cs2Zr6PCl17
_symmetry_space_group_name_H-M   'P 1'
_cell_length_a   9.79924672
_cell_length_b   9.79924591
_cell_length_c   9.79924700
_cell_angle_alpha   105.22455075
_cell_angle_beta   105.22454946
_cell_angle_gamma   118.34598357
_symmetry_Int_Tables_number   1
_chemical_formula_structural   Cs2Zr6PCl17
_chemical_formula_sum   'Cs2 Zr6 P1 Cl17'
_cell_volume   711.14666500
_cell_formula_units_Z   1
loop_
 _symmetry_equiv_pos_site_id
 _symmetry_equiv_pos_as_xyz
  1  'x, y, z'
loop_
 _atom_site_type_symbol
 _atom_site_label
 _atom_site_symmetry_multiplicity
 _atom_site_fract_x
 _atom_site_fract_y
 _atom_site_fract_z
 _atom_site_occupancy
  Cs  Cs0  1  0.250063  0.749810  0.499918  1
  Cs  Cs1  1  0.749937  0.250190  0.500082  1
  Zr  Zr2  1  0.242101  0.242096  0.000018  1
  Zr  Zr3  1  0.757899  0.757904  0.999982  1
  Zr  Zr4  1  0.188493  0.085361  0.273987  1
  Zr  Zr5  1  0.914555  0.188529  0.103117  1
  Zr  Zr6  1  0.811507  0.914639  0.726013  1
  Zr  Zr7  1  0.085445  0.811471  0.896883  1
  P  P8  1  0.000000  0.000000  0.000000  1
  Cl  Cl9  1  0.891226  0.713431  0.604615  1
  Cl  Cl10  1  0.286563  0.891183  0.177812  1
  Cl  Cl11  1  0.166683  0.616699  0.783335  1
  Cl  Cl12  1  0.547496  0.655599  0.714576  1
  Cl  Cl13  1  0.833317  0.383301  0.216665  1
  Cl  Cl14  1  0.452504  0.344401  0.285424  1
  Cl  Cl15  1  0.832937  0.547507  0.892020  1
  Cl  Cl16  1  0.383188  0.166467  0.550004  1
  Cl  Cl17  1  0.616812  0.833533  0.449996  1
  Cl  Cl18  1  0.108774  0.286569  0.395385  1
  Cl  Cl19  1  0.344409  0.059050  0.891855  1
  Cl  Cl20  1  0.940879  0.832811  0.285369  1
  Cl  Cl21  1  0.713437  0.108817  0.822188  1
  Cl  Cl22  1  0.500000  0.500000  0.000000  1
  Cl  Cl23  1  0.167063  0.452493  0.107980  1
  Cl  Cl24  1  0.059121  0.167189  0.714631  1
  Cl  Cl25  1  0.655591  0.940950  0.108145  1
