# generated using pymatgen
data_Tm20Ir4Pt7Rh
_symmetry_space_group_name_H-M   'P 1'
_cell_length_a   10.89582177
_cell_length_b   10.89609225
_cell_length_c   6.29942105
_cell_angle_alpha   90.02467834
_cell_angle_beta   90.01384425
_cell_angle_gamma   90.24318570
_symmetry_Int_Tables_number   1
_chemical_formula_structural   Tm20Ir4Pt7Rh
_chemical_formula_sum   'Tm20 Ir4 Pt7 Rh1'
_cell_volume   747.87227713
_cell_formula_units_Z   1
loop_
 _symmetry_equiv_pos_site_id
 _symmetry_equiv_pos_as_xyz
  1  'x, y, z'
loop_
 _atom_site_type_symbol
 _atom_site_label
 _atom_site_symmetry_multiplicity
 _atom_site_fract_x
 _atom_site_fract_y
 _atom_site_fract_z
 _atom_site_occupancy
  Tm  Tm0  1  0.295331  0.085876  0.375255  1
  Tm  Tm1  1  0.295213  0.908523  0.873509  1
  Tm  Tm2  1  0.704295  0.086633  0.872673  1
  Tm  Tm3  1  0.703986  0.912504  0.374323  1
  Tm  Tm4  1  0.583394  0.792620  0.871090  1
  Tm  Tm5  1  0.586955  0.204825  0.376317  1
  Tm  Tm6  1  0.410903  0.792734  0.379538  1
  Tm  Tm7  1  0.412327  0.203832  0.873560  1
  Tm  Tm8  1  0.206756  0.416915  0.627660  1
  Tm  Tm9  1  0.206854  0.589223  0.121887  1
  Tm  Tm10  1  0.795512  0.412810  0.125092  1
  Tm  Tm11  1  0.796765  0.587300  0.625310  1
  Tm  Tm12  1  0.913884  0.704355  0.126047  1
  Tm  Tm13  1  0.913646  0.296228  0.626208  1
  Tm  Tm14  1  0.091179  0.704229  0.625348  1
  Tm  Tm15  1  0.087735  0.296282  0.126910  1
  Tm  Tm16  1  0.999326  0.999886  0.500503  1
  Tm  Tm17  1  0.000073  0.000660  0.999676  1
  Tm  Tm18  1  0.497944  0.500572  0.999695  1
  Tm  Tm19  1  0.499426  0.502026  0.500482  1
  Ir  Ir20  1  0.347056  0.653490  0.749962  1
  Ir  Ir21  1  0.499759  0.999976  0.620112  1
  Ir  Ir22  1  0.000039  0.500253  0.880572  1
  Ir  Ir23  1  0.000110  0.500098  0.379292  1
  Pt  Pt24  1  0.845344  0.153554  0.249707  1
  Pt  Pt25  1  0.844443  0.846603  0.750928  1
  Pt  Pt26  1  0.153831  0.155095  0.748837  1
  Pt  Pt27  1  0.153553  0.847598  0.249764  1
  Pt  Pt28  1  0.653388  0.346212  0.749940  1
  Pt  Pt29  1  0.654815  0.654916  0.249207  1
  Pt  Pt30  1  0.346200  0.344152  0.250198  1
  Rh  Rh31  1  0.499958  0.000021  0.120398  1
