# generated using pymatgen
data_Th2Al20Re3Ni
_symmetry_space_group_name_H-M   'P 1'
_cell_length_a   6.92903200
_cell_length_b   6.91461392
_cell_length_c   9.21349508
_cell_angle_alpha   90.66651608
_cell_angle_beta   90.30070485
_cell_angle_gamma   97.20629692
_symmetry_Int_Tables_number   1
_chemical_formula_structural   Th2Al20Re3Ni
_chemical_formula_sum   'Th2 Al20 Re3 Ni1'
_cell_volume   437.90655927
_cell_formula_units_Z   1
loop_
 _symmetry_equiv_pos_site_id
 _symmetry_equiv_pos_as_xyz
  1  'x, y, z'
loop_
 _atom_site_type_symbol
 _atom_site_label
 _atom_site_symmetry_multiplicity
 _atom_site_fract_x
 _atom_site_fract_y
 _atom_site_fract_z
 _atom_site_occupancy
  Th  Th0  1  0.864916  0.123354  0.750696  1
  Th  Th1  1  0.135084  0.876646  0.249304  1
  Al  Al2  1  0.515458  0.778957  0.746956  1
  Al  Al3  1  0.484542  0.221043  0.253044  1
  Al  Al4  1  0.596121  0.859575  0.249668  1
  Al  Al5  1  0.775142  0.774945  0.997158  1
  Al  Al6  1  0.157114  0.837865  0.602359  1
  Al  Al7  1  0.224858  0.225055  0.002842  1
  Al  Al8  1  0.141304  0.409717  0.252827  1
  Al  Al9  1  0.621995  0.377932  0.955669  1
  Al  Al10  1  0.842367  0.160298  0.102624  1
  Al  Al11  1  0.378806  0.621559  0.451852  1
  Al  Al12  1  0.157633  0.839702  0.897376  1
  Al  Al13  1  0.218728  0.481443  0.751323  1
  Al  Al14  1  0.378005  0.622068  0.044331  1
  Al  Al15  1  0.842886  0.162135  0.397641  1
  Al  Al16  1  0.621194  0.378441  0.548148  1
  Al  Al17  1  0.403879  0.140425  0.750332  1
  Al  Al18  1  0.781272  0.518557  0.248677  1
  Al  Al19  1  0.774727  0.770924  0.498981  1
  Al  Al20  1  0.225273  0.229076  0.501019  1
  Al  Al21  1  0.858696  0.590283  0.747173  1
  Re  Re22  1  0.000000  0.500000  0.000000  1
  Re  Re23  1  0.500000  0.000000  0.000000  1
  Re  Re24  1  0.500000  0.000000  0.500000  1
  Ni  Ni25  1  0.000000  0.500000  0.500000  1
