# generated using pymatgen
data_NaV(MoO4)2
_symmetry_space_group_name_H-M   'P 1'
_cell_length_a   5.41310906
_cell_length_b   5.71585085
_cell_length_c   13.99864763
_cell_angle_alpha   90.15403393
_cell_angle_beta   89.98934518
_cell_angle_gamma   118.26509716
_symmetry_Int_Tables_number   1
_chemical_formula_structural   NaV(MoO4)2
_chemical_formula_sum   'Na2 V2 Mo4 O16'
_cell_volume   381.48053412
_cell_formula_units_Z   2
loop_
 _symmetry_equiv_pos_site_id
 _symmetry_equiv_pos_as_xyz
  1  'x, y, z'
loop_
 _atom_site_type_symbol
 _atom_site_label
 _atom_site_symmetry_multiplicity
 _atom_site_fract_x
 _atom_site_fract_y
 _atom_site_fract_z
 _atom_site_occupancy
  Na  Na0  1  0.927237  0.000003  0.250023  1
  Na  Na1  1  0.072787  0.000093  0.750013  1
  V  V2  1  0.999907  0.999861  0.999938  1
  V  V3  1  0.000008  0.000152  0.500094  1
  Mo  Mo4  1  0.707881  0.347727  0.617892  1
  Mo  Mo5  1  0.360210  0.652330  0.882095  1
  Mo  Mo6  1  0.292185  0.652400  0.382192  1
  Mo  Mo7  1  0.639706  0.347462  0.117751  1
  O  O8  1  0.586762  0.800234  0.461100  1
  O  O9  1  0.786747  0.199812  0.038863  1
  O  O10  1  0.413415  0.199972  0.538958  1
  O  O11  1  0.213399  0.800150  0.961055  1
  O  O12  1  0.061200  0.308188  0.414980  1
  O  O13  1  0.752882  0.691720  0.085035  1
  O  O14  1  0.938971  0.692083  0.585153  1
  O  O15  1  0.246978  0.307990  0.914854  1
  O  O16  1  0.100413  0.845971  0.385089  1
  O  O17  1  0.254348  0.153854  0.114966  1
  O  O18  1  0.899648  0.154026  0.615052  1
  O  O19  1  0.745766  0.846123  0.884913  1
  O  O20  1  0.428437  0.667447  0.267752  1
  O  O21  1  0.760922  0.332440  0.232213  1
  O  O22  1  0.571310  0.332511  0.732372  1
  O  O23  1  0.238881  0.667452  0.767646  1
