# generated using pymatgen
data_Er3TmCo16(P3Rh)4
_symmetry_space_group_name_H-M   'P 1'
_cell_length_a   3.68324000
_cell_length_b   10.38217705
_cell_length_c   11.80425605
_cell_angle_alpha   90.01073799
_cell_angle_beta   90.00000000
_cell_angle_gamma   90.00000000
_symmetry_Int_Tables_number   1
_chemical_formula_structural   Er3TmCo16(P3Rh)4
_chemical_formula_sum   'Er3 Tm1 Co16 P12 Rh4'
_cell_volume   451.39533113
_cell_formula_units_Z   1
loop_
 _symmetry_equiv_pos_site_id
 _symmetry_equiv_pos_as_xyz
  1  'x, y, z'
loop_
 _atom_site_type_symbol
 _atom_site_label
 _atom_site_symmetry_multiplicity
 _atom_site_fract_x
 _atom_site_fract_y
 _atom_site_fract_z
 _atom_site_occupancy
  Er  Er0  1  0.250000  0.584346  0.704081  1
  Er  Er1  1  0.250000  0.915673  0.204010  1
  Er  Er2  1  0.750000  0.415658  0.295918  1
  Tm  Tm3  1  0.750000  0.084296  0.795982  1
  Co  Co4  1  0.250000  0.409126  0.487030  1
  Co  Co5  1  0.250000  0.090937  0.986485  1
  Co  Co6  1  0.750000  0.590864  0.513020  1
  Co  Co7  1  0.750000  0.909204  0.012899  1
  Co  Co8  1  0.250000  0.221639  0.176024  1
  Co  Co9  1  0.250000  0.278033  0.676198  1
  Co  Co10  1  0.750000  0.778433  0.823902  1
  Co  Co11  1  0.750000  0.721702  0.323957  1
  Co  Co12  1  0.250000  0.885509  0.702353  1
  Co  Co13  1  0.250000  0.614876  0.202162  1
  Co  Co14  1  0.750000  0.114836  0.297864  1
  Co  Co15  1  0.750000  0.384937  0.797787  1
  Co  Co16  1  0.250000  0.464610  0.929973  1
  Co  Co17  1  0.250000  0.035173  0.430245  1
  Co  Co18  1  0.750000  0.535171  0.069875  1
  Co  Co19  1  0.750000  0.965006  0.570179  1
  P  P20  1  0.250000  0.421586  0.112957  1
  P  P21  1  0.250000  0.078439  0.613373  1
  P  P22  1  0.750000  0.578375  0.886987  1
  P  P23  1  0.750000  0.921617  0.387085  1
  P  P24  1  0.250000  0.269922  0.864811  1
  P  P25  1  0.250000  0.229607  0.364986  1
  P  P26  1  0.750000  0.729674  0.135013  1
  P  P27  1  0.750000  0.770330  0.635021  1
  P  P28  1  0.250000  0.594780  0.389210  1
  P  P29  1  0.250000  0.905523  0.889057  1
  P  P30  1  0.750000  0.405264  0.610821  1
  P  P31  1  0.750000  0.094804  0.110802  1
  Rh  Rh32  1  0.250000  0.717372  0.991730  1
  Rh  Rh33  1  0.250000  0.782761  0.491931  1
  Rh  Rh34  1  0.750000  0.282665  0.008080  1
  Rh  Rh35  1  0.750000  0.217252  0.508193  1
