# generated using pymatgen
data_Sm3Dy2(CoB3)2
_symmetry_space_group_name_H-M   'P 1'
_cell_length_a   5.42573072
_cell_length_b   5.42573084
_cell_length_c   8.55809264
_cell_angle_alpha   71.51876228
_cell_angle_beta   71.51876010
_cell_angle_gamma   59.99999128
_symmetry_Int_Tables_number   1
_chemical_formula_structural   Sm3Dy2(CoB3)2
_chemical_formula_sum   'Sm3 Dy2 Co2 B6'
_cell_volume   203.04295834
_cell_formula_units_Z   1
loop_
 _symmetry_equiv_pos_site_id
 _symmetry_equiv_pos_as_xyz
  1  'x, y, z'
loop_
 _atom_site_type_symbol
 _atom_site_label
 _atom_site_symmetry_multiplicity
 _atom_site_fract_x
 _atom_site_fract_y
 _atom_site_fract_z
 _atom_site_occupancy
  Sm  Sm0  1  0.000000  0.000000  0.000000  1
  Sm  Sm1  1  0.252293  0.252293  0.243121  1
  Sm  Sm2  1  0.747707  0.747707  0.756879  1
  Dy  Dy3  1  0.419093  0.419093  0.742721  1
  Dy  Dy4  1  0.580907  0.580907  0.257279  1
  Co  Co5  1  0.121007  0.121007  0.636979  1
  Co  Co6  1  0.878993  0.878993  0.363021  1
  B  B7  1  0.168158  0.831842  0.500000  1
  B  B8  1  0.831842  0.500000  0.500000  1
  B  B9  1  0.500000  0.168158  0.500000  1
  B  B10  1  0.168158  0.500000  0.500000  1
  B  B11  1  0.500000  0.831842  0.500000  1
  B  B12  1  0.831842  0.168158  0.500000  1
