# generated using pymatgen
data_Sc4Re3Tc(B4Ru3)2
_symmetry_space_group_name_H-M   'P 1'
_cell_length_a   3.04027700
_cell_length_b   8.55718426
_cell_length_c   10.03909111
_cell_angle_alpha   90.05523903
_cell_angle_beta   90.00000000
_cell_angle_gamma   90.00000000
_symmetry_Int_Tables_number   1
_chemical_formula_structural   Sc4Re3Tc(B4Ru3)2
_chemical_formula_sum   'Sc4 Re3 Tc1 B8 Ru6'
_cell_volume   261.17898606
_cell_formula_units_Z   1
loop_
 _symmetry_equiv_pos_site_id
 _symmetry_equiv_pos_as_xyz
  1  'x, y, z'
loop_
 _atom_site_type_symbol
 _atom_site_label
 _atom_site_symmetry_multiplicity
 _atom_site_fract_x
 _atom_site_fract_y
 _atom_site_fract_z
 _atom_site_occupancy
  Sc  Sc0  1  0.500000  0.841727  0.180437  1
  Sc  Sc1  1  0.500000  0.157245  0.818817  1
  Sc  Sc2  1  0.500000  0.656783  0.682681  1
  Sc  Sc3  1  0.500000  0.342453  0.318634  1
  Re  Re4  1  0.000000  0.340640  0.046850  1
  Re  Re5  1  0.000000  0.839593  0.452900  1
  Re  Re6  1  0.000000  0.159971  0.546926  1
  Tc  Tc7  1  0.000000  0.660621  0.952875  1
  B  B8  1  0.500000  0.964322  0.588620  1
  B  B9  1  0.500000  0.035312  0.411204  1
  B  B10  1  0.500000  0.849068  0.900752  1
  B  B11  1  0.500000  0.152117  0.098830  1
  B  B12  1  0.500000  0.651263  0.400968  1
  B  B13  1  0.500000  0.348443  0.599433  1
  B  B14  1  0.500000  0.465705  0.911827  1
  B  B15  1  0.500000  0.536273  0.087851  1
  Ru  Ru16  1  0.000000  0.000357  0.999736  1
  Ru  Ru17  1  0.000000  0.402999  0.760827  1
  Ru  Ru18  1  0.000000  0.595649  0.239702  1
  Ru  Ru19  1  0.000000  0.499849  0.500376  1
  Ru  Ru20  1  0.000000  0.903577  0.739694  1
  Ru  Ru21  1  0.000000  0.096035  0.260061  1
