# generated using pymatgen
data_Nd8ScU3S20
_symmetry_space_group_name_H-M   'P 1'
_cell_length_a   7.48973015
_cell_length_b   8.01173900
_cell_length_c   11.84821100
_cell_angle_alpha   90.00000000
_cell_angle_beta   90.15986043
_cell_angle_gamma   90.00000000
_symmetry_Int_Tables_number   1
_chemical_formula_structural   Nd8ScU3S20
_chemical_formula_sum   'Nd8 Sc1 U3 S20'
_cell_volume   710.95817587
_cell_formula_units_Z   1
loop_
 _symmetry_equiv_pos_site_id
 _symmetry_equiv_pos_as_xyz
  1  'x, y, z'
loop_
 _atom_site_type_symbol
 _atom_site_label
 _atom_site_symmetry_multiplicity
 _atom_site_fract_x
 _atom_site_fract_y
 _atom_site_fract_z
 _atom_site_occupancy
  Nd  Nd0  1  0.527374  0.502349  0.324740  1
  Nd  Nd1  1  0.973502  0.999526  0.821424  1
  Nd  Nd2  1  0.474468  0.998866  0.673447  1
  Nd  Nd3  1  0.025472  0.502339  0.180212  1
  Nd  Nd4  1  0.474468  0.501134  0.673447  1
  Nd  Nd5  1  0.025472  0.997661  0.180212  1
  Nd  Nd6  1  0.527374  0.997651  0.324740  1
  Nd  Nd7  1  0.973502  0.500474  0.821424  1
  Sc  Sc8  1  0.067367  0.750000  0.496504  1
  U  U9  1  0.428096  0.750000  0.989764  1
  U  U10  1  0.939297  0.250000  0.506700  1
  U  U11  1  0.571097  0.250000  0.009720  1
  S  S12  1  0.837496  0.961147  0.592855  1
  S  S13  1  0.662647  0.543519  0.094099  1
  S  S14  1  0.160429  0.467462  0.409703  1
  S  S15  1  0.337769  0.042994  0.904909  1
  S  S16  1  0.160429  0.032538  0.409703  1
  S  S17  1  0.337769  0.457006  0.904909  1
  S  S18  1  0.837496  0.538853  0.592855  1
  S  S19  1  0.662647  0.956481  0.094099  1
  S  S20  1  0.834954  0.750000  0.318157  1
  S  S21  1  0.667395  0.750000  0.813241  1
  S  S22  1  0.169411  0.250000  0.685349  1
  S  S23  1  0.332154  0.250000  0.187665  1
  S  S24  1  0.446647  0.750000  0.496690  1
  S  S25  1  0.045668  0.750000  0.999309  1
  S  S26  1  0.548973  0.250000  0.499375  1
  S  S27  1  0.953528  0.250000  0.001095  1
  S  S28  1  0.189601  0.750000  0.709252  1
  S  S29  1  0.308155  0.750000  0.210997  1
  S  S30  1  0.806421  0.250000  0.286665  1
  S  S31  1  0.692921  0.250000  0.786738  1
