# generated using pymatgen
data_Ti5Ga2Si
_symmetry_space_group_name_H-M   'P 1'
_cell_length_a   4.92564799
_cell_length_b   7.61031948
_cell_length_c   7.61032009
_cell_angle_alpha   83.97427441
_cell_angle_beta   71.11143676
_cell_angle_gamma   71.11144240
_symmetry_Int_Tables_number   1
_chemical_formula_structural   Ti5Ga2Si
_chemical_formula_sum   'Ti10 Ga4 Si2'
_cell_volume   255.38134827
_cell_formula_units_Z   2
loop_
 _symmetry_equiv_pos_site_id
 _symmetry_equiv_pos_as_xyz
  1  'x, y, z'
loop_
 _atom_site_type_symbol
 _atom_site_label
 _atom_site_symmetry_multiplicity
 _atom_site_fract_x
 _atom_site_fract_y
 _atom_site_fract_z
 _atom_site_occupancy
  Ti  Ti0  1  0.250000  0.500065  0.499935  1
  Ti  Ti1  1  0.750000  0.499935  0.500065  1
  Ti  Ti2  1  0.076266  0.138636  0.708658  1
  Ti  Ti3  1  0.923734  0.861364  0.291342  1
  Ti  Ti4  1  0.785133  0.291209  0.138706  1
  Ti  Ti5  1  0.423734  0.291342  0.861364  1
  Ti  Ti6  1  0.214867  0.708791  0.861294  1
  Ti  Ti7  1  0.576266  0.708658  0.138636  1
  Ti  Ti8  1  0.714867  0.861294  0.708791  1
  Ti  Ti9  1  0.285133  0.138706  0.291209  1
  Ga  Ga10  1  0.164436  0.499912  0.171089  1
  Ga  Ga11  1  0.835564  0.500088  0.828911  1
  Ga  Ga12  1  0.335564  0.828911  0.500088  1
  Ga  Ga13  1  0.664436  0.171089  0.499912  1
  Si  Si14  1  0.250000  0.999989  0.000011  1
  Si  Si15  1  0.750000  0.000011  0.999989  1
