# generated using pymatgen
data_Tb4SmY5(In2Pd)4
_symmetry_space_group_name_H-M   'P 1'
_cell_length_a   3.65142900
_cell_length_b   8.18757578
_cell_length_c   18.43181763
_cell_angle_alpha   90.11435126
_cell_angle_beta   90.00000000
_cell_angle_gamma   90.00000000
_symmetry_Int_Tables_number   1
_chemical_formula_structural   Tb4SmY5(In2Pd)4
_chemical_formula_sum   'Tb4 Sm1 Y5 In8 Pd4'
_cell_volume   551.04300378
_cell_formula_units_Z   1
loop_
 _symmetry_equiv_pos_site_id
 _symmetry_equiv_pos_as_xyz
  1  'x, y, z'
loop_
 _atom_site_type_symbol
 _atom_site_label
 _atom_site_symmetry_multiplicity
 _atom_site_fract_x
 _atom_site_fract_y
 _atom_site_fract_z
 _atom_site_occupancy
  Tb  Tb0  1  0.500000  0.240770  0.780890  1
  Tb  Tb1  1  0.500000  0.759230  0.219110  1
  Tb  Tb2  1  0.500000  0.259452  0.281223  1
  Tb  Tb3  1  0.500000  0.740548  0.718777  1
  Sm  Sm4  1  0.500000  0.000000  0.000000  1
  Y  Y5  1  0.500000  0.119020  0.582767  1
  Y  Y6  1  0.500000  0.880980  0.417233  1
  Y  Y7  1  0.500000  0.379385  0.082855  1
  Y  Y8  1  0.500000  0.620615  0.917145  1
  Y  Y9  1  0.500000  0.500000  0.500000  1
  In  In10  1  0.000000  0.080439  0.151901  1
  In  In11  1  0.000000  0.919561  0.848099  1
  In  In12  1  0.000000  0.419970  0.650718  1
  In  In13  1  0.000000  0.580030  0.349282  1
  In  In14  1  0.000000  0.207561  0.432286  1
  In  In15  1  0.000000  0.792439  0.567714  1
  In  In16  1  0.000000  0.295390  0.931451  1
  In  In17  1  0.000000  0.704610  0.068549  1
  Pd  Pd18  1  0.000000  0.024813  0.695703  1
  Pd  Pd19  1  0.000000  0.975187  0.304297  1
  Pd  Pd20  1  0.000000  0.475010  0.196190  1
  Pd  Pd21  1  0.000000  0.524990  0.803810  1
