# generated using pymatgen
data_Mn2VClO4
_symmetry_space_group_name_H-M   'P 1'
_cell_length_a   6.87626600
_cell_length_b   5.23372418
_cell_length_c   7.34560026
_cell_angle_alpha   89.09820919
_cell_angle_beta   90.00000000
_cell_angle_gamma   90.00000000
_symmetry_Int_Tables_number   1
_chemical_formula_structural   Mn2VClO4
_chemical_formula_sum   'Mn4 V2 Cl2 O8'
_cell_volume   264.32424214
_cell_formula_units_Z   2
loop_
 _symmetry_equiv_pos_site_id
 _symmetry_equiv_pos_as_xyz
  1  'x, y, z'
loop_
 _atom_site_type_symbol
 _atom_site_label
 _atom_site_symmetry_multiplicity
 _atom_site_fract_x
 _atom_site_fract_y
 _atom_site_fract_z
 _atom_site_occupancy
  Mn  Mn0  1  0.000000  0.000000  0.000000  1
  Mn  Mn1  1  0.250000  0.354692  0.721016  1
  Mn  Mn2  1  0.500000  0.000000  0.000000  1
  Mn  Mn3  1  0.750000  0.645308  0.278984  1
  V  V4  1  0.750000  0.506938  0.771531  1
  V  V5  1  0.250000  0.493062  0.228469  1
  Cl  Cl6  1  0.250000  0.842342  0.752086  1
  Cl  Cl7  1  0.750000  0.157658  0.247914  1
  O  O8  1  0.042392  0.683414  0.189315  1
  O  O9  1  0.250000  0.378040  0.445134  1
  O  O10  1  0.457608  0.683414  0.189315  1
  O  O11  1  0.957608  0.316586  0.810685  1
  O  O12  1  0.750000  0.621960  0.554866  1
  O  O13  1  0.250000  0.229243  0.074693  1
  O  O14  1  0.542392  0.316586  0.810685  1
  O  O15  1  0.750000  0.770757  0.925307  1
