# generated using pymatgen
data_Na3Sn(BPt3)2
_symmetry_space_group_name_H-M   'P 1'
_cell_length_a   8.05744805
_cell_length_b   8.05744785
_cell_length_c   8.05744700
_cell_angle_alpha   41.10874744
_cell_angle_beta   41.10874909
_cell_angle_gamma   41.10875427
_symmetry_Int_Tables_number   1
_chemical_formula_structural   Na3Sn(BPt3)2
_chemical_formula_sum   'Na3 Sn1 B2 Pt6'
_cell_volume   204.19511948
_cell_formula_units_Z   1
loop_
 _symmetry_equiv_pos_site_id
 _symmetry_equiv_pos_as_xyz
  1  'x, y, z'
loop_
 _atom_site_type_symbol
 _atom_site_label
 _atom_site_symmetry_multiplicity
 _atom_site_fract_x
 _atom_site_fract_y
 _atom_site_fract_z
 _atom_site_occupancy
  Na  Na0  1  0.861087  0.861087  0.861087  1
  Na  Na1  1  0.138913  0.138913  0.138913  1
  Na  Na2  1  0.000000  0.000000  0.000000  1
  Sn  Sn3  1  0.500000  0.500000  0.500000  1
  B  B4  1  0.666742  0.666742  0.666742  1
  B  B5  1  0.333258  0.333258  0.333258  1
  Pt  Pt6  1  0.433758  0.936347  0.433758  1
  Pt  Pt7  1  0.433758  0.433758  0.936347  1
  Pt  Pt8  1  0.936347  0.433758  0.433758  1
  Pt  Pt9  1  0.566242  0.063653  0.566242  1
  Pt  Pt10  1  0.566242  0.566242  0.063653  1
  Pt  Pt11  1  0.063653  0.566242  0.566242  1
