# generated using pymatgen
data_NdCuOsO5
_symmetry_space_group_name_H-M   'P 1'
_cell_length_a   5.62876700
_cell_length_b   8.03010600
_cell_length_c   8.91066800
_cell_angle_alpha   90.00000000
_cell_angle_beta   90.00000000
_cell_angle_gamma   90.00000000
_symmetry_Int_Tables_number   1
_chemical_formula_structural   NdCuOsO5
_chemical_formula_sum   'Nd4 Cu4 Os4 O20'
_cell_volume   402.75859065
_cell_formula_units_Z   4
loop_
 _symmetry_equiv_pos_site_id
 _symmetry_equiv_pos_as_xyz
  1  'x, y, z'
loop_
 _atom_site_type_symbol
 _atom_site_label
 _atom_site_symmetry_multiplicity
 _atom_site_fract_x
 _atom_site_fract_y
 _atom_site_fract_z
 _atom_site_occupancy
  Nd  Nd0  1  0.000000  0.355638  0.665981  1
  Nd  Nd1  1  0.000000  0.644362  0.334019  1
  Nd  Nd2  1  0.000000  0.855638  0.834019  1
  Nd  Nd3  1  0.000000  0.144362  0.165981  1
  Cu  Cu4  1  0.500000  0.063020  0.851248  1
  Cu  Cu5  1  0.500000  0.936980  0.148752  1
  Cu  Cu6  1  0.500000  0.563020  0.648752  1
  Cu  Cu7  1  0.500000  0.436980  0.351248  1
  Os  Os8  1  0.282820  0.500000  0.000000  1
  Os  Os9  1  0.717180  0.000000  0.500000  1
  Os  Os10  1  0.717180  0.500000  0.000000  1
  Os  Os11  1  0.282820  0.000000  0.500000  1
  O  O12  1  0.250578  0.909898  0.294947  1
  O  O13  1  0.250578  0.090102  0.705053  1
  O  O14  1  0.749422  0.409898  0.205053  1
  O  O15  1  0.749422  0.590102  0.794947  1
  O  O16  1  0.749422  0.090102  0.705053  1
  O  O17  1  0.749422  0.909898  0.294947  1
  O  O18  1  0.250578  0.590102  0.794947  1
  O  O19  1  0.250578  0.409898  0.205053  1
  O  O20  1  0.500000  0.325679  0.932440  1
  O  O21  1  0.500000  0.674321  0.067560  1
  O  O22  1  0.500000  0.825679  0.567560  1
  O  O23  1  0.500000  0.174321  0.432440  1
  O  O24  1  0.259242  0.000000  0.000000  1
  O  O25  1  0.740758  0.500000  0.500000  1
  O  O26  1  0.740758  0.000000  0.000000  1
  O  O27  1  0.259242  0.500000  0.500000  1
  O  O28  1  0.000000  0.152347  0.445098  1
  O  O29  1  0.000000  0.847653  0.554902  1
  O  O30  1  0.000000  0.652347  0.054902  1
  O  O31  1  0.000000  0.347653  0.945098  1
