# generated using pymatgen
data_Sr6TlIn(RhO6)2
_symmetry_space_group_name_H-M   'P 1'
_cell_length_a   6.85078911
_cell_length_b   6.85078857
_cell_length_c   6.85078924
_cell_angle_alpha   90.30622240
_cell_angle_beta   90.30622689
_cell_angle_gamma   90.30620405
_symmetry_Int_Tables_number   1
_chemical_formula_structural   Sr6TlIn(RhO6)2
_chemical_formula_sum   'Sr6 Tl1 In1 Rh2 O12'
_cell_volume   321.51637401
_cell_formula_units_Z   1
loop_
 _symmetry_equiv_pos_site_id
 _symmetry_equiv_pos_as_xyz
  1  'x, y, z'
loop_
 _atom_site_type_symbol
 _atom_site_label
 _atom_site_symmetry_multiplicity
 _atom_site_fract_x
 _atom_site_fract_y
 _atom_site_fract_z
 _atom_site_occupancy
  Sr  Sr0  1  0.381861  0.750000  0.118139  1
  Sr  Sr1  1  0.882236  0.617765  0.250000  1
  Sr  Sr2  1  0.750000  0.118138  0.381861  1
  Sr  Sr3  1  0.250000  0.882236  0.617765  1
  Sr  Sr4  1  0.118138  0.381861  0.750000  1
  Sr  Sr5  1  0.617765  0.250000  0.882236  1
  Tl  Tl6  1  0.250000  0.250000  0.250000  1
  In  In7  1  0.750000  0.750000  0.750000  1
  Rh  Rh8  1  0.996474  0.996474  0.996474  1
  Rh  Rh9  1  0.503526  0.503526  0.503526  1
  O  O10  1  0.708595  0.904170  0.038966  1
  O  O11  1  0.948828  0.283644  0.085469  1
  O  O12  1  0.551173  0.414532  0.216356  1
  O  O13  1  0.085469  0.948827  0.283645  1
  O  O14  1  0.216356  0.551174  0.414532  1
  O  O15  1  0.595829  0.791405  0.461034  1
  O  O16  1  0.414532  0.216355  0.551173  1
  O  O17  1  0.791404  0.461033  0.595830  1
  O  O18  1  0.904170  0.038966  0.708596  1
  O  O19  1  0.461034  0.595829  0.791404  1
  O  O20  1  0.038965  0.708596  0.904170  1
  O  O21  1  0.283645  0.085469  0.948828  1
