# generated using pymatgen
data_CeNd3(Si5Os3)2
_symmetry_space_group_name_H-M   'P 1'
_cell_length_a   8.22010097
_cell_length_b   8.20555487
_cell_length_c   5.88479311
_cell_angle_alpha   70.35947138
_cell_angle_beta   70.37371938
_cell_angle_gamma   93.70466782
_symmetry_Int_Tables_number   1
_chemical_formula_structural   CeNd3(Si5Os3)2
_chemical_formula_sum   'Ce1 Nd3 Si10 Os6'
_cell_volume   344.99840180
_cell_formula_units_Z   1
loop_
 _symmetry_equiv_pos_site_id
 _symmetry_equiv_pos_as_xyz
  1  'x, y, z'
loop_
 _atom_site_type_symbol
 _atom_site_label
 _atom_site_symmetry_multiplicity
 _atom_site_fract_x
 _atom_site_fract_y
 _atom_site_fract_z
 _atom_site_occupancy
  Ce  Ce0  1  0.601411  0.867452  0.257876  1
  Nd  Nd1  1  0.867710  0.602115  0.755530  1
  Nd  Nd2  1  0.397428  0.133083  0.743710  1
  Nd  Nd3  1  0.133019  0.397463  0.243874  1
  Si  Si4  1  0.063213  0.260714  0.836323  1
  Si  Si5  1  0.739580  0.937717  0.664095  1
  Si  Si6  1  0.936187  0.739347  0.163907  1
  Si  Si7  1  0.260450  0.061893  0.336340  1
  Si  Si8  1  0.207682  0.792423  0.749361  1
  Si  Si9  1  0.792542  0.208122  0.250575  1
  Si  Si10  1  0.512903  0.487542  0.750048  1
  Si  Si11  1  0.488100  0.512491  0.250828  1
  Si  Si12  1  0.772640  0.227403  0.749282  1
  Si  Si13  1  0.227717  0.773844  0.250165  1
  Os  Os14  1  0.258169  0.543388  0.629946  1
  Os  Os15  1  0.457944  0.743814  0.866231  1
  Os  Os16  1  0.742688  0.457847  0.367315  1
  Os  Os17  1  0.544070  0.254852  0.131423  1
  Os  Os18  1  0.001151  0.996756  0.751571  1
  Os  Os19  1  0.995396  0.001734  0.251597  1
