# generated using pymatgen
data_TbDyNpO6
_symmetry_space_group_name_H-M   'P 1'
_cell_length_a   5.54610000
_cell_length_b   7.85231410
_cell_length_c   11.87516452
_cell_angle_alpha   73.89242677
_cell_angle_beta   90.00000000
_cell_angle_gamma   90.00000000
_symmetry_Int_Tables_number   1
_chemical_formula_structural   TbDyNpO6
_chemical_formula_sum   'Tb4 Dy4 Np4 O24'
_cell_volume   496.85766416
_cell_formula_units_Z   4
loop_
 _symmetry_equiv_pos_site_id
 _symmetry_equiv_pos_as_xyz
  1  'x, y, z'
loop_
 _atom_site_type_symbol
 _atom_site_label
 _atom_site_symmetry_multiplicity
 _atom_site_fract_x
 _atom_site_fract_y
 _atom_site_fract_z
 _atom_site_occupancy
  Tb  Tb0  1  0.744201  0.000000  0.750000  1
  Tb  Tb1  1  0.255799  0.000000  0.250000  1
  Tb  Tb2  1  0.698043  0.500000  0.750000  1
  Tb  Tb3  1  0.301957  0.500000  0.250000  1
  Dy  Dy4  1  0.187412  0.795011  0.579410  1
  Dy  Dy5  1  0.812588  0.795011  0.079410  1
  Dy  Dy6  1  0.187412  0.204989  0.920590  1
  Dy  Dy7  1  0.812588  0.204989  0.420590  1
  Np  Np8  1  0.255053  0.720461  0.886927  1
  Np  Np9  1  0.744947  0.720461  0.386927  1
  Np  Np10  1  0.255053  0.279539  0.613073  1
  Np  Np11  1  0.744947  0.279539  0.113073  1
  O  O12  1  0.044837  0.943336  0.896866  1
  O  O13  1  0.551251  0.849095  0.931820  1
  O  O14  1  0.955163  0.943336  0.396866  1
  O  O15  1  0.448542  0.799839  0.727215  1
  O  O16  1  0.448749  0.849095  0.431820  1
  O  O17  1  0.965297  0.713603  0.766880  1
  O  O18  1  0.551458  0.799839  0.227215  1
  O  O19  1  0.875299  0.627756  0.554401  1
  O  O20  1  0.387944  0.481283  0.884035  1
  O  O21  1  0.034703  0.713603  0.266880  1
  O  O22  1  0.387944  0.518717  0.615965  1
  O  O23  1  0.875299  0.372244  0.945599  1
  O  O24  1  0.124701  0.627756  0.054401  1
  O  O25  1  0.612056  0.481283  0.384035  1
  O  O26  1  0.965297  0.286397  0.733120  1
  O  O27  1  0.612056  0.518717  0.115965  1
  O  O28  1  0.124701  0.372244  0.445599  1
  O  O29  1  0.448542  0.200161  0.772785  1
  O  O30  1  0.034703  0.286397  0.233120  1
  O  O31  1  0.551251  0.150905  0.568180  1
  O  O32  1  0.551458  0.200161  0.272785  1
  O  O33  1  0.044837  0.056664  0.603134  1
  O  O34  1  0.448749  0.150905  0.068180  1
  O  O35  1  0.955163  0.056664  0.103134  1
