# generated using pymatgen
data_Ta4Nb2AlGa3(NiC)2
_symmetry_space_group_name_H-M   'P 1'
_cell_length_a   8.22823925
_cell_length_b   8.22935805
_cell_length_c   8.22762100
_cell_angle_alpha   59.99065793
_cell_angle_beta   60.01150233
_cell_angle_gamma   59.99321911
_symmetry_Int_Tables_number   1
_chemical_formula_structural   Ta4Nb2AlGa3(NiC)2
_chemical_formula_sum   'Ta8 Nb4 Al2 Ga6 Ni4 C4'
_cell_volume   393.92808909
_cell_formula_units_Z   2
loop_
 _symmetry_equiv_pos_site_id
 _symmetry_equiv_pos_as_xyz
  1  'x, y, z'
loop_
 _atom_site_type_symbol
 _atom_site_label
 _atom_site_symmetry_multiplicity
 _atom_site_fract_x
 _atom_site_fract_y
 _atom_site_fract_z
 _atom_site_occupancy
  Ta  Ta0  1  0.686313  0.686592  0.313526  1
  Ta  Ta1  1  0.313921  0.312847  0.687323  1
  Ta  Ta2  1  0.564260  0.563009  0.936918  1
  Ta  Ta3  1  0.937539  0.562332  0.562897  1
  Ta  Ta4  1  0.563245  0.936977  0.937648  1
  Ta  Ta5  1  0.935924  0.936113  0.563983  1
  Ta  Ta6  1  0.686732  0.312612  0.687318  1
  Ta  Ta7  1  0.936267  0.563202  0.937110  1
  Nb  Nb8  1  0.563510  0.937401  0.562364  1
  Nb  Nb9  1  0.313485  0.686488  0.687149  1
  Nb  Nb10  1  0.687479  0.312660  0.313337  1
  Nb  Nb11  1  0.312967  0.688012  0.312333  1
  Al  Al12  1  0.918884  0.917055  0.917085  1
  Al  Al13  1  0.002754  0.331700  0.331813  1
  Ga  Ga14  1  0.332614  0.999306  0.335018  1
  Ga  Ga15  1  0.332727  0.335106  0.999214  1
  Ga  Ga16  1  0.915754  0.250749  0.917606  1
  Ga  Ga17  1  0.915877  0.917385  0.250709  1
  Ga  Ga18  1  0.251066  0.915483  0.915689  1
  Ga  Ga19  1  0.334666  0.333187  0.333173  1
  Ni  Ni20  1  0.126446  0.127388  0.123014  1
  Ni  Ni21  1  0.627396  0.122973  0.118920  1
  Ni  Ni22  1  0.120079  0.624533  0.127023  1
  Ni  Ni23  1  0.118254  0.130111  0.625508  1
  C  C24  1  0.627262  0.623087  0.625892  1
  C  C25  1  0.123906  0.623401  0.626346  1
  C  C26  1  0.624742  0.124295  0.627500  1
  C  C27  1  0.625931  0.625996  0.123583  1
