# generated using pymatgen
data_BaCu9As4
_symmetry_space_group_name_H-M   'P 1'
_cell_length_a   8.59002032
_cell_length_b   8.59002055
_cell_length_c   8.59002054
_cell_angle_alpha   121.78503622
_cell_angle_beta   121.78503509
_cell_angle_gamma   86.93507258
_symmetry_Int_Tables_number   1
_chemical_formula_structural   BaCu9As4
_chemical_formula_sum   'Ba2 Cu18 As8'
_cell_volume   435.42530330
_cell_formula_units_Z   2
loop_
 _symmetry_equiv_pos_site_id
 _symmetry_equiv_pos_as_xyz
  1  'x, y, z'
loop_
 _atom_site_type_symbol
 _atom_site_label
 _atom_site_symmetry_multiplicity
 _atom_site_fract_x
 _atom_site_fract_y
 _atom_site_fract_z
 _atom_site_occupancy
  Ba  Ba0  1  0.250000  0.250000  0.000000  1
  Ba  Ba1  1  0.750000  0.750000  0.000000  1
  Cu  Cu2  1  0.792180  0.292180  0.731938  1
  Cu  Cu3  1  0.560242  0.060243  0.268061  1
  Cu  Cu4  1  0.707819  0.439757  0.499999  1
  Cu  Cu5  1  0.939757  0.207820  0.500000  1
  Cu  Cu6  1  0.207820  0.707819  0.268061  1
  Cu  Cu7  1  0.439757  0.939757  0.731938  1
  Cu  Cu8  1  0.060243  0.792180  0.500000  1
  Cu  Cu9  1  0.292180  0.560242  0.499999  1
  Cu  Cu10  1  0.061074  0.202658  0.263732  1
  Cu  Cu11  1  0.938926  0.797343  0.736269  1
  Cu  Cu12  1  0.438926  0.702658  0.141584  1
  Cu  Cu13  1  0.561074  0.297343  0.858417  1
  Cu  Cu14  1  0.297343  0.438926  0.736269  1
  Cu  Cu15  1  0.702658  0.561074  0.263732  1
  Cu  Cu16  1  0.797343  0.061074  0.858417  1
  Cu  Cu17  1  0.202658  0.938926  0.141584  1
  Cu  Cu18  1  0.500000  0.000000  0.500000  1
  Cu  Cu19  1  0.000000  0.500000  0.500000  1
  As  As20  1  0.950980  0.450980  0.147021  1
  As  As21  1  0.303959  0.803959  0.852979  1
  As  As22  1  0.549020  0.696042  0.500000  1
  As  As23  1  0.196042  0.049020  0.500000  1
  As  As24  1  0.049020  0.549021  0.852979  1
  As  As25  1  0.696042  0.196042  0.147021  1
  As  As26  1  0.803959  0.950980  0.500000  1
  As  As27  1  0.450980  0.303959  0.500000  1
