# generated using pymatgen
data_DyEr3BOs2C3
_symmetry_space_group_name_H-M   'P 1'
_cell_length_a   5.09851400
_cell_length_b   6.53549168
_cell_length_c   9.77373924
_cell_angle_alpha   90.16811965
_cell_angle_beta   90.00000000
_cell_angle_gamma   90.00000000
_symmetry_Int_Tables_number   1
_chemical_formula_structural   DyEr3BOs2C3
_chemical_formula_sum   'Dy2 Er6 B2 Os4 C6'
_cell_volume   325.67225459
_cell_formula_units_Z   2
loop_
 _symmetry_equiv_pos_site_id
 _symmetry_equiv_pos_as_xyz
  1  'x, y, z'
loop_
 _atom_site_type_symbol
 _atom_site_label
 _atom_site_symmetry_multiplicity
 _atom_site_fract_x
 _atom_site_fract_y
 _atom_site_fract_z
 _atom_site_occupancy
  Dy  Dy0  1  0.750000  0.973579  0.715752  1
  Dy  Dy1  1  0.250000  0.026421  0.284248  1
  Er  Er2  1  0.250000  0.678675  0.550531  1
  Er  Er3  1  0.750000  0.321325  0.449469  1
  Er  Er4  1  0.750000  0.826499  0.053206  1
  Er  Er5  1  0.250000  0.173501  0.946794  1
  Er  Er6  1  0.250000  0.523299  0.212271  1
  Er  Er7  1  0.750000  0.476701  0.787729  1
  B  B8  1  0.250000  0.452050  0.757849  1
  B  B9  1  0.750000  0.547950  0.242151  1
  Os  Os10  1  0.250000  0.726727  0.863829  1
  Os  Os11  1  0.750000  0.273273  0.136171  1
  Os  Os12  1  0.750000  0.786386  0.371249  1
  Os  Os13  1  0.250000  0.213614  0.628751  1
  C  C14  1  0.750000  0.043842  0.260516  1
  C  C15  1  0.250000  0.956158  0.739484  1
  C  C16  1  0.250000  0.822671  0.052216  1
  C  C17  1  0.750000  0.177329  0.947784  1
  C  C18  1  0.750000  0.672363  0.554097  1
  C  C19  1  0.250000  0.327637  0.445903  1
