# generated using pymatgen
data_YEr2Lu3FeSb2
_symmetry_space_group_name_H-M   'P 1'
_cell_length_a   8.07233500
_cell_length_b   8.05585419
_cell_length_c   4.10457500
_cell_angle_alpha   90.00000000
_cell_angle_beta   90.00000000
_cell_angle_gamma   120.06770231
_symmetry_Int_Tables_number   1
_chemical_formula_structural   YEr2Lu3FeSb2
_chemical_formula_sum   'Y1 Er2 Lu3 Fe1 Sb2'
_cell_volume   231.00049754
_cell_formula_units_Z   1
loop_
 _symmetry_equiv_pos_site_id
 _symmetry_equiv_pos_as_xyz
  1  'x, y, z'
loop_
 _atom_site_type_symbol
 _atom_site_label
 _atom_site_symmetry_multiplicity
 _atom_site_fract_x
 _atom_site_fract_y
 _atom_site_fract_z
 _atom_site_occupancy
  Y  Y0  1  0.605785  0.000000  0.000000  1
  Er  Er1  1  0.999984  0.607476  0.000000  1
  Er  Er2  1  0.392508  0.392524  0.000000  1
  Lu  Lu3  1  0.231381  0.000000  0.500000  1
  Lu  Lu4  1  0.000883  0.232107  0.500000  1
  Lu  Lu5  1  0.768776  0.767893  0.500000  1
  Fe  Fe6  1  0.001506  0.000000  0.000000  1
  Sb  Sb7  1  0.332488  0.665801  0.500000  1
  Sb  Sb8  1  0.666688  0.334199  0.500000  1
