# generated using pymatgen
data_Ca9GdTaNbN10
_symmetry_space_group_name_H-M   'P 1'
_cell_length_a   6.96578179
_cell_length_b   6.93042644
_cell_length_c   8.92311723
_cell_angle_alpha   80.58871449
_cell_angle_beta   80.30278852
_cell_angle_gamma   59.74464389
_symmetry_Int_Tables_number   1
_chemical_formula_structural   Ca9GdTaNbN10
_chemical_formula_sum   'Ca9 Gd1 Ta1 Nb1 N10'
_cell_volume   365.21019360
_cell_formula_units_Z   1
loop_
 _symmetry_equiv_pos_site_id
 _symmetry_equiv_pos_as_xyz
  1  'x, y, z'
loop_
 _atom_site_type_symbol
 _atom_site_label
 _atom_site_symmetry_multiplicity
 _atom_site_fract_x
 _atom_site_fract_y
 _atom_site_fract_z
 _atom_site_occupancy
  Ca  Ca0  1  0.869707  0.869027  0.828264  1
  Ca  Ca1  1  0.740670  0.742305  0.520527  1
  Ca  Ca2  1  0.754189  0.248459  0.503646  1
  Ca  Ca3  1  0.622870  0.140378  0.155723  1
  Ca  Ca4  1  0.363701  0.870909  0.838156  1
  Ca  Ca5  1  0.250313  0.756393  0.508467  1
  Ca  Ca6  1  0.244519  0.245488  0.489212  1
  Ca  Ca7  1  0.140745  0.141496  0.165816  1
  Ca  Ca8  1  0.135626  0.629576  0.154059  1
  Gd  Gd9  1  0.879652  0.347651  0.832211  1
  Ta  Ta10  1  0.631213  0.629538  0.220993  1
  Nb  Nb11  1  0.372414  0.366393  0.774509  1
  N  N12  1  0.914091  0.466405  0.320443  1
  N  N13  1  0.987803  0.014008  0.012450  1
  N  N14  1  0.684583  0.669488  0.998270  1
  N  N15  1  0.544176  0.531953  0.695721  1
  N  N16  1  0.465337  0.914528  0.322118  1
  N  N17  1  0.540695  0.082505  0.675222  1
  N  N18  1  0.462705  0.467665  0.302088  1
  N  N19  1  0.319808  0.317699  0.994414  1
  N  N20  1  0.053447  0.075659  0.653924  1
  N  N21  1  0.084021  0.534762  0.679572  1
