# generated using pymatgen
data_Sm4Sc4Re(B8Ru)3
_symmetry_space_group_name_H-M   'P 1'
_cell_length_a   3.60569900
_cell_length_b   9.02887037
_cell_length_c   11.44903374
_cell_angle_alpha   90.06314577
_cell_angle_beta   90.00000000
_cell_angle_gamma   90.00000000
_symmetry_Int_Tables_number   1
_chemical_formula_structural   Sm4Sc4Re(B8Ru)3
_chemical_formula_sum   'Sm4 Sc4 Re1 B24 Ru3'
_cell_volume   372.72751914
_cell_formula_units_Z   1
loop_
 _symmetry_equiv_pos_site_id
 _symmetry_equiv_pos_as_xyz
  1  'x, y, z'
loop_
 _atom_site_type_symbol
 _atom_site_label
 _atom_site_symmetry_multiplicity
 _atom_site_fract_x
 _atom_site_fract_y
 _atom_site_fract_z
 _atom_site_occupancy
  Sm  Sm0  1  0.000000  0.321605  0.415520  1
  Sm  Sm1  1  0.000000  0.679908  0.586132  1
  Sm  Sm2  1  0.000000  0.821204  0.084212  1
  Sm  Sm3  1  0.000000  0.178272  0.913726  1
  Sc  Sc4  1  0.000000  0.944854  0.372185  1
  Sc  Sc5  1  0.000000  0.054076  0.627921  1
  Sc  Sc6  1  0.000000  0.444104  0.127297  1
  Sc  Sc7  1  0.000000  0.555947  0.872988  1
  Re  Re8  1  0.000000  0.859181  0.817745  1
  B  B9  1  0.500000  0.556347  0.431238  1
  B  B10  1  0.500000  0.443401  0.568877  1
  B  B11  1  0.500000  0.056199  0.069411  1
  B  B12  1  0.500000  0.945125  0.931293  1
  B  B13  1  0.500000  0.753463  0.416949  1
  B  B14  1  0.500000  0.246463  0.582798  1
  B  B15  1  0.500000  0.253780  0.083366  1
  B  B16  1  0.500000  0.745764  0.917004  1
  B  B17  1  0.500000  0.793391  0.265239  1
  B  B18  1  0.500000  0.206526  0.733875  1
  B  B19  1  0.500000  0.293730  0.234723  1
  B  B20  1  0.500000  0.705298  0.765135  1
  B  B21  1  0.500000  0.628354  0.183075  1
  B  B22  1  0.500000  0.371321  0.816732  1
  B  B23  1  0.500000  0.129018  0.317161  1
  B  B24  1  0.500000  0.871154  0.682926  1
  B  B25  1  0.500000  0.983490  0.215280  1
  B  B26  1  0.500000  0.018086  0.784763  1
  B  B27  1  0.500000  0.483531  0.285328  1
  B  B28  1  0.500000  0.516299  0.714984  1
  B  B29  1  0.500000  0.596638  0.026535  1
  B  B30  1  0.500000  0.401960  0.974205  1
  B  B31  1  0.500000  0.097588  0.473553  1
  B  B32  1  0.500000  0.902763  0.525401  1
  Ru  Ru33  1  0.000000  0.641194  0.317312  1
  Ru  Ru34  1  0.000000  0.359091  0.682265  1
  Ru  Ru35  1  0.000000  0.140876  0.182843  1
