# generated using pymatgen
data_Zr3Pa3BCl15
_symmetry_space_group_name_H-M   'P 1'
_cell_length_a   9.17276647
_cell_length_b   9.17276513
_cell_length_c   9.18719900
_cell_angle_alpha   109.50309508
_cell_angle_beta   109.50309213
_cell_angle_gamma   109.43933016
_symmetry_Int_Tables_number   1
_chemical_formula_structural   Zr3Pa3BCl15
_chemical_formula_sum   'Zr3 Pa3 B1 Cl15'
_cell_volume   594.82724587
_cell_formula_units_Z   1
loop_
 _symmetry_equiv_pos_site_id
 _symmetry_equiv_pos_as_xyz
  1  'x, y, z'
loop_
 _atom_site_type_symbol
 _atom_site_label
 _atom_site_symmetry_multiplicity
 _atom_site_fract_x
 _atom_site_fract_y
 _atom_site_fract_z
 _atom_site_occupancy
  Zr  Zr0  1  0.212115  0.212115  0.991771  1
  Zr  Zr1  1  0.787885  0.000000  0.779657  1
  Zr  Zr2  1  0.000000  0.787885  0.779657  1
  Pa  Pa3  1  0.748393  0.748393  0.992169  1
  Pa  Pa4  1  0.251607  0.000000  0.243776  1
  Pa  Pa5  1  0.000000  0.251607  0.243776  1
  B  B6  1  0.000000  0.000000  0.015228  1
  Cl  Cl7  1  0.252105  0.252105  0.502925  1
  Cl  Cl8  1  0.747895  0.000000  0.250818  1
  Cl  Cl9  1  0.000000  0.747895  0.250818  1
  Cl  Cl10  1  0.748047  0.239797  0.984338  1
  Cl  Cl11  1  0.251953  0.491751  0.236291  1
  Cl  Cl12  1  0.000000  0.241340  0.756945  1
  Cl  Cl13  1  0.239797  0.748047  0.984338  1
  Cl  Cl14  1  0.241340  0.000000  0.756945  1
  Cl  Cl15  1  0.491751  0.251953  0.236291  1
  Cl  Cl16  1  0.758660  0.758660  0.515604  1
  Cl  Cl17  1  0.760203  0.508249  0.744541  1
  Cl  Cl18  1  0.508249  0.760203  0.744541  1
  Cl  Cl19  1  0.498185  0.498185  0.995314  1
  Cl  Cl20  1  0.501815  0.000000  0.497129  1
  Cl  Cl21  1  0.000000  0.501815  0.497129  1
