# generated using pymatgen
data_Ca4Cd4PdPt3
_symmetry_space_group_name_H-M   'P 1'
_cell_length_a   4.30475400
_cell_length_b   7.29145961
_cell_length_c   8.70936968
_cell_angle_alpha   89.32265596
_cell_angle_beta   90.00000000
_cell_angle_gamma   90.00000000
_symmetry_Int_Tables_number   1
_chemical_formula_structural   Ca4Cd4PdPt3
_chemical_formula_sum   'Ca4 Cd4 Pd1 Pt3'
_cell_volume   273.35007004
_cell_formula_units_Z   1
loop_
 _symmetry_equiv_pos_site_id
 _symmetry_equiv_pos_as_xyz
  1  'x, y, z'
loop_
 _atom_site_type_symbol
 _atom_site_label
 _atom_site_symmetry_multiplicity
 _atom_site_fract_x
 _atom_site_fract_y
 _atom_site_fract_z
 _atom_site_occupancy
  Ca  Ca0  1  0.250000  0.034090  0.320099  1
  Ca  Ca1  1  0.250000  0.536091  0.177062  1
  Ca  Ca2  1  0.750000  0.958505  0.677878  1
  Ca  Ca3  1  0.750000  0.467379  0.825972  1
  Cd  Cd4  1  0.250000  0.143187  0.935985  1
  Cd  Cd5  1  0.250000  0.643298  0.563420  1
  Cd  Cd6  1  0.750000  0.856815  0.064085  1
  Cd  Cd7  1  0.750000  0.356322  0.437325  1
  Pd  Pd8  1  0.250000  0.258984  0.629053  1
  Pt  Pt9  1  0.250000  0.757692  0.868604  1
  Pt  Pt10  1  0.750000  0.744639  0.370635  1
  Pt  Pt11  1  0.750000  0.242999  0.129884  1
