# generated using pymatgen
data_TbEr2Al3Ga2Ni
_symmetry_space_group_name_H-M   'P 1'
_cell_length_a   6.88303900
_cell_length_b   6.90130864
_cell_length_c   4.25594200
_cell_angle_alpha   90.00000000
_cell_angle_beta   90.00000000
_cell_angle_gamma   119.91247233
_symmetry_Int_Tables_number   1
_chemical_formula_structural   TbEr2Al3Ga2Ni
_chemical_formula_sum   'Tb1 Er2 Al3 Ga2 Ni1'
_cell_volume   175.23480901
_cell_formula_units_Z   1
loop_
 _symmetry_equiv_pos_site_id
 _symmetry_equiv_pos_as_xyz
  1  'x, y, z'
loop_
 _atom_site_type_symbol
 _atom_site_label
 _atom_site_symmetry_multiplicity
 _atom_site_fract_x
 _atom_site_fract_y
 _atom_site_fract_z
 _atom_site_occupancy
  Tb  Tb0  1  0.408243  0.000000  0.500000  1
  Er  Er1  1  0.000218  0.407134  0.500000  1
  Er  Er2  1  0.593084  0.592866  0.500000  1
  Al  Al3  1  0.768624  0.000000  0.000000  1
  Al  Al4  1  0.999330  0.767717  0.000000  1
  Al  Al5  1  0.231613  0.232283  0.000000  1
  Ga  Ga6  1  0.332720  0.665002  0.000000  1
  Ga  Ga7  1  0.667719  0.334998  0.000000  1
  Ni  Ni8  1  0.998450  0.000000  0.500000  1
