# generated using pymatgen
data_MnNbAlNiPt8
_symmetry_space_group_name_H-M   'P 1'
_cell_length_a   3.96280100
_cell_length_b   3.96280100
_cell_length_c   11.55669700
_cell_angle_alpha   90.00000000
_cell_angle_beta   90.00000000
_cell_angle_gamma   90.00000000
_symmetry_Int_Tables_number   1
_chemical_formula_structural   MnNbAlNiPt8
_chemical_formula_sum   'Mn1 Nb1 Al1 Ni1 Pt8'
_cell_volume   181.48396319
_cell_formula_units_Z   1
loop_
 _symmetry_equiv_pos_site_id
 _symmetry_equiv_pos_as_xyz
  1  'x, y, z'
loop_
 _atom_site_type_symbol
 _atom_site_label
 _atom_site_symmetry_multiplicity
 _atom_site_fract_x
 _atom_site_fract_y
 _atom_site_fract_z
 _atom_site_occupancy
  Mn  Mn0  1  0.000000  0.000000  0.343214  1
  Nb  Nb1  1  0.000000  0.000000  0.996915  1
  Al  Al2  1  0.000000  0.000000  0.660382  1
  Ni  Ni3  1  0.500000  0.500000  0.666377  1
  Pt  Pt4  1  0.500000  0.500000  0.994761  1
  Pt  Pt5  1  0.500000  0.500000  0.339328  1
  Pt  Pt6  1  0.500000  0.000000  0.165943  1
  Pt  Pt7  1  0.500000  0.000000  0.512793  1
  Pt  Pt8  1  0.500000  0.000000  0.820775  1
  Pt  Pt9  1  0.000000  0.500000  0.165943  1
  Pt  Pt10  1  0.000000  0.500000  0.512793  1
  Pt  Pt11  1  0.000000  0.500000  0.820775  1
