# generated using pymatgen
data_Lu8Sc4InGaCo4
_symmetry_space_group_name_H-M   'P 1'
_cell_length_a   8.03104670
_cell_length_b   8.03104755
_cell_length_c   8.03104645
_cell_angle_alpha   110.96108732
_cell_angle_beta   110.81695622
_cell_angle_gamma   106.67141669
_symmetry_Int_Tables_number   1
_chemical_formula_structural   Lu8Sc4InGaCo4
_chemical_formula_sum   'Lu8 Sc4 In1 Ga1 Co4'
_cell_volume   398.03401427
_cell_formula_units_Z   1
loop_
 _symmetry_equiv_pos_site_id
 _symmetry_equiv_pos_as_xyz
  1  'x, y, z'
loop_
 _atom_site_type_symbol
 _atom_site_label
 _atom_site_symmetry_multiplicity
 _atom_site_fract_x
 _atom_site_fract_y
 _atom_site_fract_z
 _atom_site_occupancy
  Lu  Lu0  1  0.189976  0.285940  0.475917  1
  Lu  Lu1  1  0.810024  0.714060  0.524083  1
  Lu  Lu2  1  0.189976  0.714060  0.904038  1
  Lu  Lu3  1  0.810024  0.285940  0.095962  1
  Lu  Lu4  1  0.312510  0.611935  0.299423  1
  Lu  Lu5  1  0.687490  0.388065  0.700577  1
  Lu  Lu6  1  0.312510  0.013087  0.700577  1
  Lu  Lu7  1  0.687490  0.986913  0.299423  1
  Sc  Sc8  1  0.429789  0.223077  0.206712  1
  Sc  Sc9  1  0.570211  0.776923  0.793288  1
  Sc  Sc10  1  0.016365  0.223077  0.793288  1
  Sc  Sc11  1  0.983635  0.776923  0.206712  1
  In  In12  1  0.500000  0.500000  0.000000  1
  Ga  Ga13  1  0.000000  0.000000  0.000000  1
  Co  Co14  1  0.371897  0.000000  0.371897  1
  Co  Co15  1  0.628103  0.000000  0.628103  1
  Co  Co16  1  0.115105  0.615105  0.500000  1
  Co  Co17  1  0.884895  0.384895  0.500000  1
