# generated using pymatgen
data_Zr8TiSi16W11
_symmetry_space_group_name_H-M   'P 1'
_cell_length_a   6.77093823
_cell_length_b   6.77093823
_cell_length_c   12.52012731
_cell_angle_alpha   89.98165519
_cell_angle_beta   90.01834481
_cell_angle_gamma   90.09101897
_symmetry_Int_Tables_number   1
_chemical_formula_structural   Zr8TiSi16W11
_chemical_formula_sum   'Zr8 Ti1 Si16 W11'
_cell_volume   573.99202135
_cell_formula_units_Z   1
loop_
 _symmetry_equiv_pos_site_id
 _symmetry_equiv_pos_as_xyz
  1  'x, y, z'
loop_
 _atom_site_type_symbol
 _atom_site_label
 _atom_site_symmetry_multiplicity
 _atom_site_fract_x
 _atom_site_fract_y
 _atom_site_fract_z
 _atom_site_occupancy
  Zr  Zr0  1  0.004281  0.665036  0.031074  1
  Zr  Zr1  1  0.992693  0.335249  0.531190  1
  Zr  Zr2  1  0.665036  0.004281  0.968926  1
  Zr  Zr3  1  0.163186  0.496684  0.780713  1
  Zr  Zr4  1  0.837757  0.507400  0.282032  1
  Zr  Zr5  1  0.496684  0.163186  0.219287  1
  Zr  Zr6  1  0.507400  0.837757  0.717968  1
  Zr  Zr7  1  0.335249  0.992693  0.468810  1
  Ti  Ti8  1  0.333872  0.333872  0.000000  1
  Si  Si9  1  0.035939  0.710798  0.437221  1
  Si  Si10  1  0.962172  0.296557  0.934711  1
  Si  Si11  1  0.710798  0.035939  0.562779  1
  Si  Si12  1  0.210085  0.464153  0.187828  1
  Si  Si13  1  0.788806  0.536019  0.686425  1
  Si  Si14  1  0.464153  0.210085  0.812172  1
  Si  Si15  1  0.536019  0.788806  0.313575  1
  Si  Si16  1  0.296557  0.962172  0.065289  1
  Si  Si17  1  0.874383  0.795701  0.822158  1
  Si  Si18  1  0.124592  0.203659  0.321053  1
  Si  Si19  1  0.795701  0.874383  0.177842  1
  Si  Si20  1  0.294945  0.623413  0.572054  1
  Si  Si21  1  0.707561  0.370815  0.071572  1
  Si  Si22  1  0.623413  0.294945  0.427946  1
  Si  Si23  1  0.370815  0.707561  0.928428  1
  Si  Si24  1  0.203659  0.124592  0.678947  1
  W  W25  1  0.329885  0.494695  0.380054  1
  W  W26  1  0.830488  0.004682  0.369373  1
  W  W27  1  0.003493  0.166462  0.125167  1
  W  W28  1  0.004682  0.830488  0.630627  1
  W  W29  1  0.660532  0.502630  0.879566  1
  W  W30  1  0.494695  0.329885  0.619946  1
  W  W31  1  0.502630  0.660532  0.120434  1
  W  W32  1  0.166462  0.003493  0.874833  1
  W  W33  1  0.668538  0.668538  0.500000  1
  W  W34  1  0.833059  0.169783  0.748617  1
  W  W35  1  0.169783  0.833059  0.251383  1
