# generated using pymatgen
data_Ca3YSb3
_symmetry_space_group_name_H-M   'P 1'
_cell_length_a   8.13402510
_cell_length_b   8.13402494
_cell_length_c   9.42625182
_cell_angle_alpha   55.10587860
_cell_angle_beta   55.10588135
_cell_angle_gamma   70.85588655
_symmetry_Int_Tables_number   1
_chemical_formula_structural   Ca3YSb3
_chemical_formula_sum   'Ca6 Y2 Sb6'
_cell_volume   419.56626260
_cell_formula_units_Z   2
loop_
 _symmetry_equiv_pos_site_id
 _symmetry_equiv_pos_as_xyz
  1  'x, y, z'
loop_
 _atom_site_type_symbol
 _atom_site_label
 _atom_site_symmetry_multiplicity
 _atom_site_fract_x
 _atom_site_fract_y
 _atom_site_fract_z
 _atom_site_occupancy
  Ca  Ca0  1  0.999938  0.137913  0.109291  1
  Ca  Ca1  1  0.862087  0.000062  0.890709  1
  Ca  Ca2  1  0.499416  0.854618  0.751062  1
  Ca  Ca3  1  0.145382  0.500584  0.248938  1
  Ca  Ca4  1  0.999135  0.647199  0.603013  1
  Ca  Ca5  1  0.352801  0.000865  0.396987  1
  Y  Y6  1  0.640815  0.499267  0.248334  1
  Y  Y7  1  0.500733  0.359185  0.751666  1
  Sb  Sb8  1  0.864939  0.135061  0.500000  1
  Sb  Sb9  1  0.625476  0.374524  0.000000  1
  Sb  Sb10  1  0.260142  0.256731  0.621787  1
  Sb  Sb11  1  0.743269  0.739858  0.378213  1
  Sb  Sb12  1  0.123327  0.617460  0.878434  1
  Sb  Sb13  1  0.382540  0.876673  0.121566  1
