# generated using pymatgen
data_Ta4Ti2Si6Mo5Ru
_symmetry_space_group_name_H-M   'P 1'
_cell_length_a   7.64787055
_cell_length_b   7.65143528
_cell_length_c   7.64245655
_cell_angle_alpha   126.23789278
_cell_angle_beta   128.54787544
_cell_angle_gamma   77.59734215
_symmetry_Int_Tables_number   1
_chemical_formula_structural   Ta4Ti2Si6Mo5Ru
_chemical_formula_sum   'Ta4 Ti2 Si6 Mo5 Ru1'
_cell_volume   273.61608262
_cell_formula_units_Z   1
loop_
 _symmetry_equiv_pos_site_id
 _symmetry_equiv_pos_as_xyz
  1  'x, y, z'
loop_
 _atom_site_type_symbol
 _atom_site_label
 _atom_site_symmetry_multiplicity
 _atom_site_fract_x
 _atom_site_fract_y
 _atom_site_fract_z
 _atom_site_occupancy
  Ta  Ta0  1  0.550497  0.505647  0.450876  1
  Ta  Ta1  1  0.449807  0.914299  0.961843  1
  Ta  Ta2  1  0.744795  0.089116  0.847977  1
  Ta  Ta3  1  0.246268  0.095733  0.344676  1
  Ti  Ti4  1  0.951451  0.913835  0.464475  1
  Ti  Ti5  1  0.054804  0.504650  0.954292  1
  Si  Si6  1  0.753356  0.504651  0.249052  1
  Si  Si7  1  0.253586  0.502806  0.751857  1
  Si  Si8  1  0.671932  0.177200  0.515315  1
  Si  Si9  1  0.324886  0.833480  0.496818  1
  Si  Si10  1  0.161881  0.172567  0.999491  1
  Si  Si11  1  0.833000  0.828310  0.006779  1
  Mo  Mo12  1  0.501415  0.763645  0.262782  1
  Mo  Mo13  1  0.998937  0.761127  0.762390  1
  Mo  Mo14  1  0.869656  0.242992  0.372451  1
  Mo  Mo15  1  0.132938  0.502330  0.372204  1
  Mo  Mo16  1  0.372599  0.243529  0.873644  1
  Ru  Ru17  1  0.628191  0.501882  0.870876  1
