# generated using pymatgen
data_Lu20SiBi11
_symmetry_space_group_name_H-M   'P 1'
_cell_length_a   8.04800390
_cell_length_b   9.35137600
_cell_length_c   11.74205008
_cell_angle_alpha   90.00000000
_cell_angle_beta   89.77251975
_cell_angle_gamma   90.00000000
_symmetry_Int_Tables_number   1
_chemical_formula_structural   Lu20SiBi11
_chemical_formula_sum   'Lu20 Si1 Bi11'
_cell_volume   883.69867296
_cell_formula_units_Z   1
loop_
 _symmetry_equiv_pos_site_id
 _symmetry_equiv_pos_as_xyz
  1  'x, y, z'
loop_
 _atom_site_type_symbol
 _atom_site_label
 _atom_site_symmetry_multiplicity
 _atom_site_fract_x
 _atom_site_fract_y
 _atom_site_fract_z
 _atom_site_occupancy
  Lu  Lu0  1  0.039477  0.250000  0.510292  1
  Lu  Lu1  1  0.981352  0.750000  0.491230  1
  Lu  Lu2  1  0.476208  0.750000  0.010855  1
  Lu  Lu3  1  0.526131  0.250000  0.988797  1
  Lu  Lu4  1  0.356488  0.250000  0.296524  1
  Lu  Lu5  1  0.648013  0.750000  0.717230  1
  Lu  Lu6  1  0.147355  0.750000  0.780037  1
  Lu  Lu7  1  0.853038  0.250000  0.217975  1
  Lu  Lu8  1  0.195380  0.250000  0.775014  1
  Lu  Lu9  1  0.810074  0.750000  0.217592  1
  Lu  Lu10  1  0.312913  0.750000  0.282240  1
  Lu  Lu11  1  0.667747  0.250000  0.705813  1
  Lu  Lu12  1  0.193570  0.067850  0.060908  1
  Lu  Lu13  1  0.806865  0.933561  0.940742  1
  Lu  Lu14  1  0.310751  0.952131  0.558706  1
  Lu  Lu15  1  0.806865  0.566439  0.940742  1
  Lu  Lu16  1  0.682131  0.075139  0.446655  1
  Lu  Lu17  1  0.193570  0.432150  0.060908  1
  Lu  Lu18  1  0.682131  0.424861  0.446655  1
  Lu  Lu19  1  0.310751  0.547869  0.558706  1
  Si  Si20  1  0.407215  0.250000  0.537406  1
  Bi  Bi21  1  0.595719  0.750000  0.457718  1
  Bi  Bi22  1  0.095790  0.750000  0.042354  1
  Bi  Bi23  1  0.907314  0.250000  0.953181  1
  Bi  Bi24  1  0.063328  0.002454  0.324690  1
  Bi  Bi25  1  0.933657  0.999569  0.675002  1
  Bi  Bi26  1  0.435111  0.995850  0.825055  1
  Bi  Bi27  1  0.933657  0.500431  0.675002  1
  Bi  Bi28  1  0.564479  0.004773  0.176114  1
  Bi  Bi29  1  0.063328  0.497546  0.324690  1
  Bi  Bi30  1  0.564479  0.495227  0.176114  1
  Bi  Bi31  1  0.435111  0.504150  0.825055  1
