# generated using pymatgen
data_Zr6Zn5PdC2
_symmetry_space_group_name_H-M   'P 1'
_cell_length_a   8.66536369
_cell_length_b   8.69048917
_cell_length_c   8.69048853
_cell_angle_alpha   60.15979251
_cell_angle_beta   60.09558965
_cell_angle_gamma   60.09559795
_symmetry_Int_Tables_number   1
_chemical_formula_structural   Zr6Zn5PdC2
_chemical_formula_sum   'Zr12 Zn10 Pd2 C4'
_cell_volume   463.99088908
_cell_formula_units_Z   2
loop_
 _symmetry_equiv_pos_site_id
 _symmetry_equiv_pos_as_xyz
  1  'x, y, z'
loop_
 _atom_site_type_symbol
 _atom_site_label
 _atom_site_symmetry_multiplicity
 _atom_site_fract_x
 _atom_site_fract_y
 _atom_site_fract_z
 _atom_site_occupancy
  Zr  Zr0  1  0.688927  0.311073  0.311073  1
  Zr  Zr1  1  0.310853  0.689147  0.689147  1
  Zr  Zr2  1  0.311359  0.687567  0.311187  1
  Zr  Zr3  1  0.311359  0.311187  0.687567  1
  Zr  Zr4  1  0.689886  0.311187  0.687567  1
  Zr  Zr5  1  0.689886  0.687567  0.311187  1
  Zr  Zr6  1  0.938641  0.562433  0.938813  1
  Zr  Zr7  1  0.560114  0.938813  0.562433  1
  Zr  Zr8  1  0.561073  0.938927  0.938927  1
  Zr  Zr9  1  0.938641  0.938813  0.562433  1
  Zr  Zr10  1  0.939147  0.560853  0.560853  1
  Zr  Zr11  1  0.560114  0.562433  0.938813  1
  Zn  Zn12  1  0.125000  0.125000  0.125000  1
  Zn  Zn13  1  0.625000  0.125000  0.125000  1
  Zn  Zn14  1  0.918885  0.919166  0.919166  1
  Zn  Zn15  1  0.919061  0.918543  0.243335  1
  Zn  Zn16  1  0.242783  0.919166  0.919166  1
  Zn  Zn17  1  0.919061  0.243335  0.918543  1
  Zn  Zn18  1  0.331115  0.330834  0.330834  1
  Zn  Zn19  1  0.330939  0.331457  0.006665  1
  Zn  Zn20  1  0.330939  0.006665  0.331457  1
  Zn  Zn21  1  0.007217  0.330834  0.330834  1
  Pd  Pd22  1  0.125000  0.125000  0.625000  1
  Pd  Pd23  1  0.125000  0.625000  0.125000  1
  C  C24  1  0.625000  0.625000  0.625000  1
  C  C25  1  0.625000  0.625000  0.125000  1
  C  C26  1  0.125000  0.625000  0.625000  1
  C  C27  1  0.625000  0.125000  0.625000  1
