# generated using pymatgen
data_Nd3Dy(Si5Os3)2
_symmetry_space_group_name_H-M   'P 1'
_cell_length_a   8.19786230
_cell_length_b   8.20873706
_cell_length_c   5.86364474
_cell_angle_alpha   70.40484202
_cell_angle_beta   70.43276722
_cell_angle_gamma   93.75335301
_symmetry_Int_Tables_number   1
_chemical_formula_structural   Nd3Dy(Si5Os3)2
_chemical_formula_sum   'Nd3 Dy1 Si10 Os6'
_cell_volume   343.17160730
_cell_formula_units_Z   1
loop_
 _symmetry_equiv_pos_site_id
 _symmetry_equiv_pos_as_xyz
  1  'x, y, z'
loop_
 _atom_site_type_symbol
 _atom_site_label
 _atom_site_symmetry_multiplicity
 _atom_site_fract_x
 _atom_site_fract_y
 _atom_site_fract_z
 _atom_site_occupancy
  Nd  Nd0  1  0.398065  0.132282  0.745247  1
  Nd  Nd1  1  0.132261  0.397485  0.245852  1
  Nd  Nd2  1  0.602169  0.867739  0.254692  1
  Dy  Dy3  1  0.867454  0.603113  0.753695  1
  Si  Si4  1  0.062168  0.259819  0.837308  1
  Si  Si5  1  0.739584  0.933832  0.664805  1
  Si  Si6  1  0.936478  0.739290  0.164022  1
  Si  Si7  1  0.261878  0.063795  0.336097  1
  Si  Si8  1  0.206462  0.790726  0.749288  1
  Si  Si9  1  0.791667  0.207391  0.252705  1
  Si  Si10  1  0.514002  0.489597  0.747380  1
  Si  Si11  1  0.488842  0.512206  0.249773  1
  Si  Si12  1  0.773655  0.229555  0.748307  1
  Si  Si13  1  0.225127  0.773112  0.252626  1
  Os  Os14  1  0.254254  0.541949  0.631947  1
  Os  Os15  1  0.456466  0.742592  0.869827  1
  Os  Os16  1  0.744815  0.459131  0.365559  1
  Os  Os17  1  0.544862  0.258825  0.129323  1
  Os  Os18  1  0.002419  0.996187  0.750484  1
  Os  Os19  1  0.997374  0.001371  0.251067  1
