# generated using pymatgen
data_LaY14Ho(TlRh)4
_symmetry_space_group_name_H-M   'P 1'
_cell_length_a   9.77685857
_cell_length_b   9.77114419
_cell_length_c   9.78792664
_cell_angle_alpha   59.56011011
_cell_angle_beta   59.61167914
_cell_angle_gamma   59.60237279
_symmetry_Int_Tables_number   1
_chemical_formula_structural   LaY14Ho(TlRh)4
_chemical_formula_sum   'La1 Y14 Ho1 Tl4 Rh4'
_cell_volume   655.03993910
_cell_formula_units_Z   1
loop_
 _symmetry_equiv_pos_site_id
 _symmetry_equiv_pos_as_xyz
  1  'x, y, z'
loop_
 _atom_site_type_symbol
 _atom_site_label
 _atom_site_symmetry_multiplicity
 _atom_site_fract_x
 _atom_site_fract_y
 _atom_site_fract_z
 _atom_site_occupancy
  La  La0  1  0.599744  0.204621  0.599871  1
  Y  Y1  1  0.187650  0.187526  0.813818  1
  Y  Y2  1  0.603102  0.603169  0.194983  1
  Y  Y3  1  0.437197  0.059965  0.437139  1
  Y  Y4  1  0.438346  0.439065  0.059923  1
  Y  Y5  1  0.812513  0.188560  0.812519  1
  Y  Y6  1  0.190169  0.810613  0.190145  1
  Y  Y7  1  0.436569  0.061735  0.064021  1
  Y  Y8  1  0.190747  0.809902  0.810913  1
  Y  Y9  1  0.061856  0.437807  0.061846  1
  Y  Y10  1  0.810936  0.809912  0.190704  1
  Y  Y11  1  0.195003  0.603099  0.603151  1
  Y  Y12  1  0.059908  0.439090  0.438363  1
  Y  Y13  1  0.064055  0.061746  0.436549  1
  Y  Y14  1  0.813855  0.187508  0.187662  1
  Ho  Ho15  1  0.599196  0.599803  0.599218  1
  Tl  Tl16  1  0.837889  0.833800  0.838053  1
  Tl  Tl17  1  0.836001  0.832665  0.492172  1
  Tl  Tl18  1  0.492205  0.832627  0.836042  1
  Tl  Tl19  1  0.835410  0.491650  0.835377  1
  Rh  Rh20  1  0.393582  0.818349  0.393460  1
  Rh  Rh21  1  0.390165  0.396107  0.390148  1
  Rh  Rh22  1  0.822231  0.395367  0.391623  1
  Rh  Rh23  1  0.391670  0.395317  0.822300  1
