# generated using pymatgen
data_Rb2NaTmBi2
_symmetry_space_group_name_H-M   'P 1'
_cell_length_a   10.20366856
_cell_length_b   10.20366808
_cell_length_c   10.20366848
_cell_angle_alpha   136.40560055
_cell_angle_beta   63.65526612
_cell_angle_gamma   136.01582906
_symmetry_Int_Tables_number   1
_chemical_formula_structural   Rb2NaTmBi2
_chemical_formula_sum   'Rb4 Na2 Tm2 Bi4'
_cell_volume   502.04341317
_cell_formula_units_Z   2
loop_
 _symmetry_equiv_pos_site_id
 _symmetry_equiv_pos_as_xyz
  1  'x, y, z'
loop_
 _atom_site_type_symbol
 _atom_site_label
 _atom_site_symmetry_multiplicity
 _atom_site_fract_x
 _atom_site_fract_y
 _atom_site_fract_z
 _atom_site_occupancy
  Rb  Rb0  1  0.823965  0.272070  0.096035  1
  Rb  Rb1  1  0.676034  0.772070  0.448105  1
  Rb  Rb2  1  0.323965  0.227930  0.551895  1
  Rb  Rb3  1  0.176035  0.727929  0.903964  1
  Na  Na4  1  0.750000  0.250000  0.500000  1
  Na  Na5  1  0.250000  0.750000  0.500000  1
  Tm  Tm6  1  0.250000  0.250000  0.000000  1
  Tm  Tm7  1  0.750001  0.750001  0.000000  1
  Bi  Bi8  1  0.399811  0.725294  0.125107  1
  Bi  Bi9  1  0.100188  0.225295  0.325483  1
  Bi  Bi10  1  0.899811  0.774705  0.674517  1
  Bi  Bi11  1  0.600188  0.274705  0.874893  1
