# generated using pymatgen
data_Ho16Mg3InPt4
_symmetry_space_group_name_H-M   'P 1'
_cell_length_a   9.68406263
_cell_length_b   9.72755285
_cell_length_c   9.72755300
_cell_angle_alpha   60.00000289
_cell_angle_beta   59.85133340
_cell_angle_gamma   59.85133239
_symmetry_Int_Tables_number   1
_chemical_formula_structural   Ho16Mg3InPt4
_chemical_formula_sum   'Ho16 Mg3 In1 Pt4'
_cell_volume   646.50254365
_cell_formula_units_Z   1
loop_
 _symmetry_equiv_pos_site_id
 _symmetry_equiv_pos_as_xyz
  1  'x, y, z'
loop_
 _atom_site_type_symbol
 _atom_site_label
 _atom_site_symmetry_multiplicity
 _atom_site_fract_x
 _atom_site_fract_y
 _atom_site_fract_z
 _atom_site_occupancy
  Ho  Ho0  1  0.600139  0.601149  0.601149  1
  Ho  Ho1  1  0.600139  0.601149  0.197565  1
  Ho  Ho2  1  0.600139  0.197565  0.601149  1
  Ho  Ho3  1  0.199411  0.600197  0.600197  1
  Ho  Ho4  1  0.062866  0.437537  0.437537  1
  Ho  Ho5  1  0.439241  0.061098  0.061098  1
  Ho  Ho6  1  0.439241  0.061098  0.438563  1
  Ho  Ho7  1  0.062866  0.437537  0.062059  1
  Ho  Ho8  1  0.439241  0.438563  0.061098  1
  Ho  Ho9  1  0.062866  0.062059  0.437537  1
  Ho  Ho10  1  0.186540  0.815281  0.815281  1
  Ho  Ho11  1  0.815644  0.183985  0.183985  1
  Ho  Ho12  1  0.815644  0.183985  0.816386  1
  Ho  Ho13  1  0.186540  0.815281  0.182897  1
  Ho  Ho14  1  0.815644  0.816386  0.183985  1
  Ho  Ho15  1  0.186540  0.182897  0.815281  1
  Mg  Mg16  1  0.828237  0.830688  0.830688  1
  Mg  Mg17  1  0.828237  0.830688  0.510387  1
  Mg  Mg18  1  0.828237  0.510387  0.830688  1
  In  In19  1  0.503275  0.832242  0.832242  1
  Pt  Pt20  1  0.392998  0.393018  0.393018  1
  Pt  Pt21  1  0.392998  0.393018  0.820965  1
  Pt  Pt22  1  0.392998  0.820965  0.393018  1
  Pt  Pt23  1  0.820318  0.393227  0.393227  1
