# generated using pymatgen
data_Cs4SiAu8
_symmetry_space_group_name_H-M   'P 1'
_cell_length_a   11.11695314
_cell_length_b   11.11695328
_cell_length_c   10.63047039
_cell_angle_alpha   78.14350649
_cell_angle_beta   78.14350038
_cell_angle_gamma   35.91542646
_symmetry_Int_Tables_number   1
_chemical_formula_structural   Cs4SiAu8
_chemical_formula_sum   'Cs8 Si2 Au16'
_cell_volume   752.46362863
_cell_formula_units_Z   2
loop_
 _symmetry_equiv_pos_site_id
 _symmetry_equiv_pos_as_xyz
  1  'x, y, z'
loop_
 _atom_site_type_symbol
 _atom_site_label
 _atom_site_symmetry_multiplicity
 _atom_site_fract_x
 _atom_site_fract_y
 _atom_site_fract_z
 _atom_site_occupancy
  Cs  Cs0  1  0.476410  0.476410  0.839473  1
  Cs  Cs1  1  0.523590  0.523590  0.160527  1
  Cs  Cs2  1  0.281305  0.281305  0.913937  1
  Cs  Cs3  1  0.718695  0.718695  0.086063  1
  Cs  Cs4  1  0.220233  0.220233  0.598710  1
  Cs  Cs5  1  0.779767  0.779767  0.401290  1
  Cs  Cs6  1  0.037106  0.037106  0.651424  1
  Cs  Cs7  1  0.962894  0.962894  0.348576  1
  Si  Si8  1  0.662538  0.662538  0.772855  1
  Si  Si9  1  0.337462  0.337462  0.227145  1
  Au  Au10  1  0.779812  0.779812  0.736473  1
  Au  Au11  1  0.220188  0.220188  0.263527  1
  Au  Au12  1  0.619910  0.619910  0.580193  1
  Au  Au13  1  0.380090  0.380090  0.419807  1
  Au  Au14  1  0.500000  0.500000  0.500000  1
  Au  Au15  1  0.000000  0.000000  0.000000  1
  Au  Au16  1  0.115499  0.115499  0.138258  1
  Au  Au17  1  0.884501  0.884501  0.861742  1
  Au  Au18  1  0.853823  0.375277  0.362019  1
  Au  Au19  1  0.624723  0.146177  0.637981  1
  Au  Au20  1  0.146177  0.624723  0.637981  1
  Au  Au21  1  0.375277  0.853823  0.362019  1
  Au  Au22  1  0.095981  0.665387  0.096535  1
  Au  Au23  1  0.334613  0.904019  0.903465  1
  Au  Au24  1  0.904019  0.334613  0.903465  1
  Au  Au25  1  0.665387  0.095981  0.096535  1
