# generated using pymatgen
data_La2CdHg3Pd2
_symmetry_space_group_name_H-M   'P 1'
_cell_length_a   5.57914878
_cell_length_b   5.57914928
_cell_length_c   8.62144496
_cell_angle_alpha   90.07115553
_cell_angle_beta   89.92884594
_cell_angle_gamma   134.31401265
_symmetry_Int_Tables_number   1
_chemical_formula_structural   La2CdHg3Pd2
_chemical_formula_sum   'La2 Cd1 Hg3 Pd2'
_cell_volume   192.01648816
_cell_formula_units_Z   1
loop_
 _symmetry_equiv_pos_site_id
 _symmetry_equiv_pos_as_xyz
  1  'x, y, z'
loop_
 _atom_site_type_symbol
 _atom_site_label
 _atom_site_symmetry_multiplicity
 _atom_site_fract_x
 _atom_site_fract_y
 _atom_site_fract_z
 _atom_site_occupancy
  La  La0  1  0.067505  0.932495  0.253323  1
  La  La1  1  0.934414  0.065586  0.747265  1
  Cd  Cd2  1  0.354338  0.645662  0.047485  1
  Hg  Hg3  1  0.642695  0.357305  0.548515  1
  Hg  Hg4  1  0.358466  0.641534  0.450272  1
  Hg  Hg5  1  0.639422  0.360578  0.954422  1
  Pd  Pd6  1  0.222195  0.777805  0.750987  1
  Pd  Pd7  1  0.780966  0.219034  0.247731  1
