# generated using pymatgen
data_Tb2Ho8In8Pd3Rh
_symmetry_space_group_name_H-M   'P 1'
_cell_length_a   3.61667500
_cell_length_b   8.12990563
_cell_length_c   18.27020701
_cell_angle_alpha   90.02404475
_cell_angle_beta   90.00000000
_cell_angle_gamma   90.00000000
_symmetry_Int_Tables_number   1
_chemical_formula_structural   Tb2Ho8In8Pd3Rh
_chemical_formula_sum   'Tb2 Ho8 In8 Pd3 Rh1'
_cell_volume   537.20298676
_cell_formula_units_Z   1
loop_
 _symmetry_equiv_pos_site_id
 _symmetry_equiv_pos_as_xyz
  1  'x, y, z'
loop_
 _atom_site_type_symbol
 _atom_site_label
 _atom_site_symmetry_multiplicity
 _atom_site_fract_x
 _atom_site_fract_y
 _atom_site_fract_z
 _atom_site_occupancy
  Tb  Tb0  1  0.000000  0.500147  0.499817  1
  Tb  Tb1  1  0.000000  0.999776  0.000376  1
  Ho  Ho2  1  0.000000  0.732085  0.277874  1
  Ho  Ho3  1  0.000000  0.260588  0.719857  1
  Ho  Ho4  1  0.000000  0.759948  0.779977  1
  Ho  Ho5  1  0.000000  0.251850  0.219847  1
  Ho  Ho6  1  0.000000  0.613158  0.086608  1
  Ho  Ho7  1  0.000000  0.384018  0.916958  1
  Ho  Ho8  1  0.000000  0.884010  0.583098  1
  Ho  Ho9  1  0.000000  0.115987  0.415859  1
  In  In10  1  0.500000  0.709413  0.932035  1
  In  In11  1  0.500000  0.290502  0.068886  1
  In  In12  1  0.500000  0.790430  0.431450  1
  In  In13  1  0.500000  0.209306  0.568151  1
  In  In14  1  0.500000  0.580746  0.649779  1
  In  In15  1  0.500000  0.420962  0.350142  1
  In  In16  1  0.500000  0.919961  0.150067  1
  In  In17  1  0.500000  0.080658  0.850151  1
  Pd  Pd18  1  0.500000  0.476481  0.804124  1
  Pd  Pd19  1  0.500000  0.976601  0.696053  1
  Pd  Pd20  1  0.500000  0.021845  0.303700  1
  Rh  Rh21  1  0.500000  0.521528  0.195191  1
