# generated using pymatgen
data_Tb9Yb(Ir2Pd)2
_symmetry_space_group_name_H-M   'P 1'
_cell_length_a   11.06441900
_cell_length_b   11.06441900
_cell_length_c   6.35505000
_cell_angle_alpha   90.00000000
_cell_angle_beta   90.00000000
_cell_angle_gamma   90.00000000
_symmetry_Int_Tables_number   1
_chemical_formula_structural   Tb9Yb(Ir2Pd)2
_chemical_formula_sum   'Tb18 Yb2 Ir8 Pd4'
_cell_volume   777.99391349
_cell_formula_units_Z   2
loop_
 _symmetry_equiv_pos_site_id
 _symmetry_equiv_pos_as_xyz
  1  'x, y, z'
loop_
 _atom_site_type_symbol
 _atom_site_label
 _atom_site_symmetry_multiplicity
 _atom_site_fract_x
 _atom_site_fract_y
 _atom_site_fract_z
 _atom_site_occupancy
  Tb  Tb0  1  0.296134  0.090747  0.373925  1
  Tb  Tb1  1  0.296134  0.909253  0.873925  1
  Tb  Tb2  1  0.703866  0.090747  0.873925  1
  Tb  Tb3  1  0.703866  0.909253  0.373925  1
  Tb  Tb4  1  0.584370  0.789335  0.881906  1
  Tb  Tb5  1  0.584370  0.210665  0.381906  1
  Tb  Tb6  1  0.415630  0.789335  0.381906  1
  Tb  Tb7  1  0.415630  0.210665  0.881906  1
  Tb  Tb8  1  0.210665  0.415630  0.618094  1
  Tb  Tb9  1  0.210665  0.584370  0.118094  1
  Tb  Tb10  1  0.789335  0.415630  0.118094  1
  Tb  Tb11  1  0.789335  0.584370  0.618094  1
  Tb  Tb12  1  0.909253  0.703866  0.126075  1
  Tb  Tb13  1  0.909253  0.296134  0.626075  1
  Tb  Tb14  1  0.090747  0.703866  0.626075  1
  Tb  Tb15  1  0.090747  0.296134  0.126075  1
  Tb  Tb16  1  0.500000  0.500000  0.000000  1
  Tb  Tb17  1  0.500000  0.500000  0.500000  1
  Yb  Yb18  1  0.000000  0.000000  0.500000  1
  Yb  Yb19  1  0.000000  0.000000  0.000000  1
  Ir  Ir20  1  0.654990  0.345010  0.750000  1
  Ir  Ir21  1  0.654990  0.654990  0.250000  1
  Ir  Ir22  1  0.345010  0.345010  0.250000  1
  Ir  Ir23  1  0.345010  0.654990  0.750000  1
  Ir  Ir24  1  0.500000  0.000000  0.121721  1
  Ir  Ir25  1  0.500000  0.000000  0.621721  1
  Ir  Ir26  1  0.000000  0.500000  0.878279  1
  Ir  Ir27  1  0.000000  0.500000  0.378279  1
  Pd  Pd28  1  0.845837  0.154163  0.250000  1
  Pd  Pd29  1  0.845837  0.845837  0.750000  1
  Pd  Pd30  1  0.154163  0.154163  0.750000  1
  Pd  Pd31  1  0.154163  0.845837  0.250000  1
