# generated using pymatgen
data_Gd4MnOsC4
_symmetry_space_group_name_H-M   'P 1'
_cell_length_a   5.16382300
_cell_length_b   6.41332980
_cell_length_c   9.78950583
_cell_angle_alpha   90.38853395
_cell_angle_beta   90.00000000
_cell_angle_gamma   90.00000000
_symmetry_Int_Tables_number   1
_chemical_formula_structural   Gd4MnOsC4
_chemical_formula_sum   'Gd8 Mn2 Os2 C8'
_cell_volume   324.19454668
_cell_formula_units_Z   2
loop_
 _symmetry_equiv_pos_site_id
 _symmetry_equiv_pos_as_xyz
  1  'x, y, z'
loop_
 _atom_site_type_symbol
 _atom_site_label
 _atom_site_symmetry_multiplicity
 _atom_site_fract_x
 _atom_site_fract_y
 _atom_site_fract_z
 _atom_site_occupancy
  Gd  Gd0  1  0.250000  0.687780  0.555307  1
  Gd  Gd1  1  0.750000  0.312220  0.444693  1
  Gd  Gd2  1  0.750000  0.816344  0.050575  1
  Gd  Gd3  1  0.250000  0.183656  0.949425  1
  Gd  Gd4  1  0.250000  0.523816  0.216008  1
  Gd  Gd5  1  0.750000  0.476184  0.783992  1
  Gd  Gd6  1  0.750000  0.975939  0.714729  1
  Gd  Gd7  1  0.250000  0.024061  0.285271  1
  Mn  Mn8  1  0.250000  0.728821  0.860009  1
  Mn  Mn9  1  0.750000  0.271179  0.139991  1
  Os  Os10  1  0.750000  0.772899  0.359264  1
  Os  Os11  1  0.250000  0.227101  0.640736  1
  C  C12  1  0.250000  0.470990  0.763342  1
  C  C13  1  0.750000  0.529010  0.236658  1
  C  C14  1  0.750000  0.043001  0.253541  1
  C  C15  1  0.250000  0.956999  0.746459  1
  C  C16  1  0.250000  0.811177  0.036071  1
  C  C17  1  0.750000  0.188823  0.963929  1
  C  C18  1  0.750000  0.679816  0.546587  1
  C  C19  1  0.250000  0.320184  0.453413  1
