# generated using pymatgen
data_Ho3Nb(P3Ir4)2
_symmetry_space_group_name_H-M   'P 1'
_cell_length_a   3.98830800
_cell_length_b   11.19198600
_cell_length_c   12.83504700
_cell_angle_alpha   90.00000000
_cell_angle_beta   90.00000000
_cell_angle_gamma   90.00000000
_symmetry_Int_Tables_number   1
_chemical_formula_structural   Ho3Nb(P3Ir4)2
_chemical_formula_sum   'Ho6 Nb2 P12 Ir16'
_cell_volume   572.91911343
_cell_formula_units_Z   2
loop_
 _symmetry_equiv_pos_site_id
 _symmetry_equiv_pos_as_xyz
  1  'x, y, z'
loop_
 _atom_site_type_symbol
 _atom_site_label
 _atom_site_symmetry_multiplicity
 _atom_site_fract_x
 _atom_site_fract_y
 _atom_site_fract_z
 _atom_site_occupancy
  Ho  Ho0  1  0.000000  0.500000  0.522762  1
  Ho  Ho1  1  0.500000  0.000000  0.477238  1
  Ho  Ho2  1  0.500000  0.817859  0.202636  1
  Ho  Ho3  1  0.500000  0.182141  0.202636  1
  Ho  Ho4  1  0.000000  0.682141  0.797364  1
  Ho  Ho5  1  0.000000  0.317859  0.797364  1
  Nb  Nb6  1  0.500000  0.500000  0.158865  1
  Nb  Nb7  1  0.000000  0.000000  0.841135  1
  P  P8  1  0.500000  0.313926  0.617476  1
  P  P9  1  0.500000  0.686074  0.617476  1
  P  P10  1  0.000000  0.186074  0.382524  1
  P  P11  1  0.000000  0.813926  0.382524  1
  P  P12  1  0.500000  0.500000  0.875226  1
  P  P13  1  0.000000  0.000000  0.124774  1
  P  P14  1  0.500000  0.844456  0.887023  1
  P  P15  1  0.500000  0.155544  0.887023  1
  P  P16  1  0.000000  0.655544  0.112977  1
  P  P17  1  0.000000  0.344456  0.112977  1
  P  P18  1  0.500000  0.500000  0.352244  1
  P  P19  1  0.000000  0.000000  0.647756  1
  Ir  Ir20  1  0.000000  0.500000  0.990611  1
  Ir  Ir21  1  0.500000  0.000000  0.009389  1
  Ir  Ir22  1  0.500000  0.295328  0.431874  1
  Ir  Ir23  1  0.500000  0.704672  0.431874  1
  Ir  Ir24  1  0.000000  0.204672  0.568126  1
  Ir  Ir25  1  0.000000  0.795328  0.568126  1
  Ir  Ir26  1  0.500000  0.871270  0.709675  1
  Ir  Ir27  1  0.500000  0.128730  0.709675  1
  Ir  Ir28  1  0.000000  0.628730  0.290325  1
  Ir  Ir29  1  0.000000  0.371270  0.290325  1
  Ir  Ir30  1  0.500000  0.331234  0.981446  1
  Ir  Ir31  1  0.500000  0.668766  0.981446  1
  Ir  Ir32  1  0.000000  0.168766  0.018554  1
  Ir  Ir33  1  0.000000  0.831234  0.018554  1
  Ir  Ir34  1  0.500000  0.500000  0.697247  1
  Ir  Ir35  1  0.000000  0.000000  0.302753  1
