# generated using pymatgen
data_YEr6Sc(Si4Mo3)4
_symmetry_space_group_name_H-M   'P 1'
_cell_length_a   6.72560303
_cell_length_b   6.91152225
_cell_length_c   12.86947564
_cell_angle_alpha   89.94906451
_cell_angle_beta   89.97821426
_cell_angle_gamma   89.96539198
_symmetry_Int_Tables_number   1
_chemical_formula_structural   YEr6Sc(Si4Mo3)4
_chemical_formula_sum   'Y1 Er6 Sc1 Si16 Mo12'
_cell_volume   598.22631163
_cell_formula_units_Z   1
loop_
 _symmetry_equiv_pos_site_id
 _symmetry_equiv_pos_as_xyz
  1  'x, y, z'
loop_
 _atom_site_type_symbol
 _atom_site_label
 _atom_site_symmetry_multiplicity
 _atom_site_fract_x
 _atom_site_fract_y
 _atom_site_fract_z
 _atom_site_occupancy
  Y  Y0  1  0.497658  0.332694  0.404962  1
  Er  Er1  1  0.496272  0.332195  0.093730  1
  Er  Er2  1  0.997071  0.167010  0.406361  1
  Er  Er3  1  0.503616  0.667121  0.594394  1
  Er  Er4  1  0.002731  0.833231  0.908037  1
  Er  Er5  1  0.502479  0.667510  0.907329  1
  Er  Er6  1  0.003574  0.832652  0.594354  1
  Sc  Sc7  1  0.995046  0.169596  0.095517  1
  Si  Si8  1  0.660014  0.040725  0.547561  1
  Si  Si9  1  0.158839  0.455879  0.954446  1
  Si  Si10  1  0.333685  0.962490  0.047394  1
  Si  Si11  1  0.841703  0.542431  0.452742  1
  Si  Si12  1  0.341063  0.957675  0.452467  1
  Si  Si13  1  0.841463  0.536978  0.047622  1
  Si  Si14  1  0.660649  0.041338  0.954541  1
  Si  Si15  1  0.159781  0.458916  0.547402  1
  Si  Si16  1  0.534914  0.366824  0.750241  1
  Si  Si17  1  0.034387  0.132497  0.750243  1
  Si  Si18  1  0.465507  0.634091  0.248979  1
  Si  Si19  1  0.966350  0.870324  0.247347  1
  Si  Si20  1  0.802860  0.630922  0.751157  1
  Si  Si21  1  0.302175  0.868249  0.750872  1
  Si  Si22  1  0.194227  0.366245  0.247598  1
  Si  Si23  1  0.701952  0.131283  0.247632  1
  Mo  Mo24  1  0.830526  0.335450  0.625335  1
  Mo  Mo25  1  0.329929  0.165504  0.875366  1
  Mo  Mo26  1  0.170208  0.664333  0.124312  1
  Mo  Mo27  1  0.671450  0.835510  0.374409  1
  Mo  Mo28  1  0.169241  0.666446  0.373691  1
  Mo  Mo29  1  0.669585  0.836395  0.124224  1
  Mo  Mo30  1  0.830283  0.333240  0.876309  1
  Mo  Mo31  1  0.330423  0.163706  0.625217  1
  Mo  Mo32  1  0.666365  0.997704  0.750871  1
  Mo  Mo33  1  0.166596  0.501443  0.750433  1
  Mo  Mo34  1  0.333194  0.003355  0.248184  1
  Mo  Mo35  1  0.834178  0.498035  0.248723  1
