# generated using pymatgen
data_Tb2CuAs3O
_symmetry_space_group_name_H-M   'P 1'
_cell_length_a   34.27902706
_cell_length_b   3.93837800
_cell_length_c   3.93639501
_cell_angle_alpha   90.00000000
_cell_angle_beta   90.00021154
_cell_angle_gamma   90.00000000
_symmetry_Int_Tables_number   1
_chemical_formula_structural   Tb2CuAs3O
_chemical_formula_sum   'Tb8 Cu4 As12 O4'
_cell_volume   531.42815049
_cell_formula_units_Z   4
loop_
 _symmetry_equiv_pos_site_id
 _symmetry_equiv_pos_as_xyz
  1  'x, y, z'
loop_
 _atom_site_type_symbol
 _atom_site_label
 _atom_site_symmetry_multiplicity
 _atom_site_fract_x
 _atom_site_fract_y
 _atom_site_fract_z
 _atom_site_occupancy
  Tb  Tb0  1  0.467423  0.750002  0.250952  1
  Tb  Tb1  1  0.032580  0.250002  0.751075  1
  Tb  Tb2  1  0.967420  0.750002  0.248926  1
  Tb  Tb3  1  0.532577  0.250002  0.749047  1
  Tb  Tb4  1  0.325433  0.250002  0.805645  1
  Tb  Tb5  1  0.174593  0.750002  0.305535  1
  Tb  Tb6  1  0.825407  0.250002  0.694467  1
  Tb  Tb7  1  0.674567  0.750002  0.194354  1
  Cu  Cu8  1  0.250017  0.250002  0.308358  1
  Cu  Cu9  1  0.250016  0.750002  0.808255  1
  Cu  Cu10  1  0.749984  0.250002  0.191744  1
  Cu  Cu11  1  0.749984  0.750002  0.691643  1
  As  As12  1  0.394042  0.250002  0.312973  1
  As  As13  1  0.105964  0.750002  0.812719  1
  As  As14  1  0.894036  0.250002  0.187283  1
  As  As15  1  0.605958  0.750002  0.687026  1
  As  As16  1  0.394213  0.750002  0.768512  1
  As  As17  1  0.105814  0.250002  0.268607  1
  As  As18  1  0.894186  0.750002  0.731392  1
  As  As19  1  0.605787  0.250002  0.231487  1
  As  As20  1  0.204280  0.250002  0.806911  1
  As  As21  1  0.295752  0.750002  0.306976  1
  As  As22  1  0.704248  0.250002  0.693026  1
  As  As23  1  0.795720  0.750002  0.193090  1
  O  O24  1  0.500006  0.750002  0.751474  1
  O  O25  1  0.999999  0.250002  0.251464  1
  O  O26  1  0.000000  0.750002  0.748535  1
  O  O27  1  0.499994  0.250002  0.248525  1
