# generated using pymatgen
data_LiTm4MnC8
_symmetry_space_group_name_H-M   'P 1'
_cell_length_a   6.53948921
_cell_length_b   6.53948784
_cell_length_c   6.53948815
_cell_angle_alpha   134.15640950
_cell_angle_beta   109.20862318
_cell_angle_gamma   88.53144852
_symmetry_Int_Tables_number   1
_chemical_formula_structural   LiTm4MnC8
_chemical_formula_sum   'Li1 Tm4 Mn1 C8'
_cell_volume   180.71473891
_cell_formula_units_Z   1
loop_
 _symmetry_equiv_pos_site_id
 _symmetry_equiv_pos_as_xyz
  1  'x, y, z'
loop_
 _atom_site_type_symbol
 _atom_site_label
 _atom_site_symmetry_multiplicity
 _atom_site_fract_x
 _atom_site_fract_y
 _atom_site_fract_z
 _atom_site_occupancy
  Li  Li0  1  0.000000  0.250000  0.250000  1
  Tm  Tm1  1  0.509926  0.353785  0.154085  1
  Tm  Tm2  1  0.490074  0.644158  0.843859  1
  Tm  Tm3  1  0.199698  0.855842  0.345915  1
  Tm  Tm4  1  0.800302  0.146215  0.656141  1
  Mn  Mn5  1  0.000000  0.750000  0.750000  1
  C  C6  1  0.264284  0.027582  0.124639  1
  C  C7  1  0.735716  0.860356  0.763299  1
  C  C8  1  0.902944  0.639644  0.375361  1
  C  C9  1  0.097056  0.472418  0.736701  1
  C  C10  1  0.474045  0.131436  0.346862  1
  C  C11  1  0.525955  0.872816  0.657390  1
  C  C12  1  0.784574  0.627184  0.153138  1
  C  C13  1  0.215426  0.368564  0.842610  1
