# generated using pymatgen
data_Pr3(SnRu)2
_symmetry_space_group_name_H-M   'P 1'
_cell_length_a   5.94359900
_cell_length_b   8.47871600
_cell_length_c   14.10021400
_cell_angle_alpha   90.00000000
_cell_angle_beta   90.00000000
_cell_angle_gamma   90.00000000
_symmetry_Int_Tables_number   1
_chemical_formula_structural   Pr3(SnRu)2
_chemical_formula_sum   'Pr12 Sn8 Ru8'
_cell_volume   710.56742427
_cell_formula_units_Z   4
loop_
 _symmetry_equiv_pos_site_id
 _symmetry_equiv_pos_as_xyz
  1  'x, y, z'
loop_
 _atom_site_type_symbol
 _atom_site_label
 _atom_site_symmetry_multiplicity
 _atom_site_fract_x
 _atom_site_fract_y
 _atom_site_fract_z
 _atom_site_occupancy
  Pr  Pr0  1  0.159841  0.905614  0.593260  1
  Pr  Pr1  1  0.840119  0.094380  0.093272  1
  Pr  Pr2  1  0.159881  0.594380  0.406728  1
  Pr  Pr3  1  0.840159  0.405614  0.906740  1
  Pr  Pr4  1  0.840119  0.094380  0.406728  1
  Pr  Pr5  1  0.159841  0.905614  0.906740  1
  Pr  Pr6  1  0.840159  0.405614  0.593260  1
  Pr  Pr7  1  0.159881  0.594380  0.093272  1
  Pr  Pr8  1  0.377641  0.277244  0.750000  1
  Pr  Pr9  1  0.622345  0.722741  0.250000  1
  Pr  Pr10  1  0.377655  0.222741  0.250000  1
  Pr  Pr11  1  0.622359  0.777244  0.750000  1
  Sn  Sn12  1  0.880579  0.118160  0.750000  1
  Sn  Sn13  1  0.119326  0.881843  0.250000  1
  Sn  Sn14  1  0.880674  0.381843  0.250000  1
  Sn  Sn15  1  0.119421  0.618160  0.750000  1
  Sn  Sn16  1  0.365611  0.250011  0.500001  1
  Sn  Sn17  1  0.634389  0.750011  0.999999  1
  Sn  Sn18  1  0.634389  0.750011  0.500001  1
  Sn  Sn19  1  0.365611  0.250011  0.999999  1
  Ru  Ru20  1  0.648704  0.032693  0.590396  1
  Ru  Ru21  1  0.351263  0.967307  0.090404  1
  Ru  Ru22  1  0.648737  0.467307  0.409596  1
  Ru  Ru23  1  0.351296  0.532693  0.909604  1
  Ru  Ru24  1  0.351263  0.967307  0.409596  1
  Ru  Ru25  1  0.648704  0.032693  0.909604  1
  Ru  Ru26  1  0.351296  0.532693  0.590396  1
  Ru  Ru27  1  0.648737  0.467307  0.090404  1
