# generated using pymatgen
data_PrNd3Pb4F28
_symmetry_space_group_name_H-M   'P 1'
_cell_length_a   5.89569006
_cell_length_b   9.46949797
_cell_length_c   12.72324300
_cell_angle_alpha   62.09940729
_cell_angle_beta   90.00837713
_cell_angle_gamma   90.00234684
_symmetry_Int_Tables_number   1
_chemical_formula_structural   PrNd3Pb4F28
_chemical_formula_sum   'Pr1 Nd3 Pb4 F28'
_cell_volume   627.76073178
_cell_formula_units_Z   1
loop_
 _symmetry_equiv_pos_site_id
 _symmetry_equiv_pos_as_xyz
  1  'x, y, z'
loop_
 _atom_site_type_symbol
 _atom_site_label
 _atom_site_symmetry_multiplicity
 _atom_site_fract_x
 _atom_site_fract_y
 _atom_site_fract_z
 _atom_site_occupancy
  Pr  Pr0  1  0.742758  0.814824  0.264555  1
  Nd  Nd1  1  0.757073  0.815034  0.764572  1
  Nd  Nd2  1  0.257120  0.185298  0.735527  1
  Nd  Nd3  1  0.242628  0.185938  0.235461  1
  Pb  Pb4  1  0.755728  0.274632  0.957196  1
  Pb  Pb5  1  0.255435  0.726143  0.543266  1
  Pb  Pb6  1  0.244796  0.725963  0.041582  1
  Pb  Pb7  1  0.744489  0.272867  0.458002  1
  F  F8  1  0.455656  0.708644  0.915024  1
  F  F9  1  0.956577  0.290712  0.584111  1
  F  F10  1  0.543732  0.290848  0.083954  1
  F  F11  1  0.045345  0.708589  0.416408  1
  F  F12  1  0.447759  0.282142  0.547953  1
  F  F13  1  0.946907  0.717535  0.952278  1
  F  F14  1  0.552672  0.716958  0.453892  1
  F  F15  1  0.052420  0.282810  0.047581  1
  F  F16  1  0.769956  0.523661  0.857878  1
  F  F17  1  0.269174  0.476811  0.642396  1
  F  F18  1  0.230127  0.476664  0.141519  1
  F  F19  1  0.729482  0.521893  0.358455  1
  F  F20  1  0.761013  0.024150  0.055398  1
  F  F21  1  0.260578  0.976517  0.443848  1
  F  F22  1  0.239650  0.976412  0.943465  1
  F  F23  1  0.739398  0.022592  0.556339  1
  F  F24  1  0.973483  0.731619  0.642714  1
  F  F25  1  0.474572  0.268749  0.857266  1
  F  F26  1  0.026291  0.268826  0.357789  1
  F  F27  1  0.527692  0.730717  0.140748  1
  F  F28  1  0.045001  0.744970  0.172049  1
  F  F29  1  0.541932  0.253808  0.328189  1
  F  F30  1  0.958541  0.254803  0.827805  1
  F  F31  1  0.457265  0.745939  0.672786  1
  F  F32  1  0.420372  0.971512  0.234722  1
  F  F33  1  0.923359  0.031096  0.265221  1
  F  F34  1  0.575594  0.028811  0.764879  1
  F  F35  1  0.075427  0.971512  0.735175  1
