# generated using pymatgen
data_Li2Tb5Er(Co4P3)4
_symmetry_space_group_name_H-M   'P 1'
_cell_length_a   3.72265700
_cell_length_b   10.58168212
_cell_length_c   12.21684614
_cell_angle_alpha   89.98281510
_cell_angle_beta   90.00000000
_cell_angle_gamma   90.00000000
_symmetry_Int_Tables_number   1
_chemical_formula_structural   Li2Tb5Er(Co4P3)4
_chemical_formula_sum   'Li2 Tb5 Er1 Co16 P12'
_cell_volume   481.24565169
_cell_formula_units_Z   1
loop_
 _symmetry_equiv_pos_site_id
 _symmetry_equiv_pos_as_xyz
  1  'x, y, z'
loop_
 _atom_site_type_symbol
 _atom_site_label
 _atom_site_symmetry_multiplicity
 _atom_site_fract_x
 _atom_site_fract_y
 _atom_site_fract_z
 _atom_site_occupancy
  Li  Li0  1  0.500000  0.500173  0.152744  1
  Li  Li1  1  0.000000  0.999952  0.847363  1
  Tb  Tb2  1  0.000000  0.500087  0.522304  1
  Tb  Tb3  1  0.500000  0.999808  0.477209  1
  Tb  Tb4  1  0.500000  0.180144  0.206260  1
  Tb  Tb5  1  0.000000  0.680714  0.793658  1
  Tb  Tb6  1  0.000000  0.319500  0.794068  1
  Er  Er7  1  0.500000  0.819300  0.206057  1
  Co  Co8  1  0.500000  0.500210  0.704843  1
  Co  Co9  1  0.000000  0.998849  0.294822  1
  Co  Co10  1  0.000000  0.500577  0.987985  1
  Co  Co11  1  0.500000  0.999407  0.013235  1
  Co  Co12  1  0.500000  0.332914  0.997185  1
  Co  Co13  1  0.500000  0.667640  0.997810  1
  Co  Co14  1  0.000000  0.166567  0.003331  1
  Co  Co15  1  0.000000  0.832867  0.003532  1
  Co  Co16  1  0.500000  0.296512  0.430896  1
  Co  Co17  1  0.500000  0.703761  0.430058  1
  Co  Co18  1  0.000000  0.203259  0.568952  1
  Co  Co19  1  0.000000  0.796582  0.568227  1
  Co  Co20  1  0.500000  0.878883  0.706629  1
  Co  Co21  1  0.500000  0.121085  0.706858  1
  Co  Co22  1  0.000000  0.622038  0.292407  1
  Co  Co23  1  0.000000  0.379115  0.293256  1
  P  P24  1  0.500000  0.500386  0.886026  1
  P  P25  1  0.000000  0.998954  0.114994  1
  P  P26  1  0.500000  0.500016  0.345261  1
  P  P27  1  0.000000  0.999903  0.654485  1
  P  P28  1  0.500000  0.309182  0.615601  1
  P  P29  1  0.500000  0.691083  0.615095  1
  P  P30  1  0.000000  0.190627  0.384321  1
  P  P31  1  0.000000  0.809377  0.383047  1
  P  P32  1  0.500000  0.843411  0.894012  1
  P  P33  1  0.500000  0.156275  0.894306  1
  P  P34  1  0.000000  0.657549  0.107065  1
  P  P35  1  0.000000  0.343290  0.106097  1
