# generated using pymatgen
data_Ho3Er3C2I7
_symmetry_space_group_name_H-M   'P 1'
_cell_length_a   10.89689492
_cell_length_b   10.89689467
_cell_length_c   12.72543500
_cell_angle_alpha   58.27330012
_cell_angle_beta   58.27330091
_cell_angle_gamma   20.71120777
_symmetry_Int_Tables_number   1
_chemical_formula_structural   Ho3Er3C2I7
_chemical_formula_sum   'Ho3 Er3 C2 I7'
_cell_volume   451.62720190
_cell_formula_units_Z   1
loop_
 _symmetry_equiv_pos_site_id
 _symmetry_equiv_pos_as_xyz
  1  'x, y, z'
loop_
 _atom_site_type_symbol
 _atom_site_label
 _atom_site_symmetry_multiplicity
 _atom_site_fract_x
 _atom_site_fract_y
 _atom_site_fract_z
 _atom_site_occupancy
  Ho  Ho0  1  0.237493  0.237493  0.806403  1
  Ho  Ho1  1  0.308002  0.308002  0.376159  1
  Ho  Ho2  1  0.135678  0.135678  0.446904  1
  Er  Er3  1  0.862843  0.862843  0.553852  1
  Er  Er4  1  0.693057  0.693057  0.622586  1
  Er  Er5  1  0.762207  0.762207  0.195072  1
  C  C6  1  0.280810  0.280810  0.594446  1
  C  C7  1  0.719051  0.719051  0.405600  1
  I  I8  1  0.159975  0.159975  0.177866  1
  I  I9  1  0.841461  0.841461  0.820378  1
  I  I10  1  0.058773  0.058773  0.721510  1
  I  I11  1  0.942424  0.942424  0.278900  1
  I  I12  1  0.499319  0.499319  0.500368  1
  I  I13  1  0.386291  0.386291  0.072967  1
  I  I14  1  0.612615  0.612615  0.926990  1
