# generated using pymatgen
data_Nd4Lu2Ga3Si
_symmetry_space_group_name_H-M   'P 1'
_cell_length_a   7.65236580
_cell_length_b   7.65236580
_cell_length_c   4.50114900
_cell_angle_alpha   90.00000000
_cell_angle_beta   90.00000000
_cell_angle_gamma   89.62123032
_symmetry_Int_Tables_number   1
_chemical_formula_structural   Nd4Lu2Ga3Si
_chemical_formula_sum   'Nd4 Lu2 Ga3 Si1'
_cell_volume   263.57568514
_cell_formula_units_Z   1
loop_
 _symmetry_equiv_pos_site_id
 _symmetry_equiv_pos_as_xyz
  1  'x, y, z'
loop_
 _atom_site_type_symbol
 _atom_site_label
 _atom_site_symmetry_multiplicity
 _atom_site_fract_x
 _atom_site_fract_y
 _atom_site_fract_z
 _atom_site_occupancy
  Nd  Nd0  1  0.325764  0.823464  0.500000  1
  Nd  Nd1  1  0.820270  0.679730  0.500000  1
  Nd  Nd2  1  0.176948  0.323052  0.500000  1
  Nd  Nd3  1  0.676536  0.174236  0.500000  1
  Lu  Lu4  1  0.997056  0.999709  0.000000  1
  Lu  Lu5  1  0.500291  0.502944  0.000000  1
  Ga  Ga6  1  0.383009  0.116991  0.000000  1
  Ga  Ga7  1  0.880673  0.380079  0.000000  1
  Ga  Ga8  1  0.119921  0.619327  0.000000  1
  Si  Si9  1  0.619530  0.880470  0.000000  1
