# generated using pymatgen
data_Hf6Ga6PtRh5
_symmetry_space_group_name_H-M   'P 1'
_cell_length_a   7.18738400
_cell_length_b   7.18738352
_cell_length_c   6.87986600
_cell_angle_alpha   90.00000000
_cell_angle_beta   90.00000000
_cell_angle_gamma   120.00000344
_symmetry_Int_Tables_number   1
_chemical_formula_structural   Hf6Ga6PtRh5
_chemical_formula_sum   'Hf6 Ga6 Pt1 Rh5'
_cell_volume   307.78841148
_cell_formula_units_Z   1
loop_
 _symmetry_equiv_pos_site_id
 _symmetry_equiv_pos_as_xyz
  1  'x, y, z'
loop_
 _atom_site_type_symbol
 _atom_site_label
 _atom_site_symmetry_multiplicity
 _atom_site_fract_x
 _atom_site_fract_y
 _atom_site_fract_z
 _atom_site_occupancy
  Hf  Hf0  1  0.402276  0.392211  0.248634  1
  Hf  Hf1  1  0.601894  0.997563  0.751501  1
  Hf  Hf2  1  0.395669  0.398106  0.751501  1
  Hf  Hf3  1  0.002437  0.604331  0.751501  1
  Hf  Hf4  1  0.989935  0.597724  0.248634  1
  Hf  Hf5  1  0.607789  0.010065  0.248634  1
  Ga  Ga6  1  0.273702  0.998168  0.999904  1
  Ga  Ga7  1  0.261910  0.003248  0.499765  1
  Ga  Ga8  1  0.996752  0.258663  0.499765  1
  Ga  Ga9  1  0.001832  0.275534  0.999904  1
  Ga  Ga10  1  0.724466  0.726298  0.999904  1
  Ga  Ga11  1  0.741337  0.738090  0.499765  1
  Pt  Pt12  1  0.333333  0.666667  0.491910  1
  Rh  Rh13  1  0.666667  0.333333  0.508665  1
  Rh  Rh14  1  0.000000  0.000000  0.766243  1
  Rh  Rh15  1  0.666667  0.333333  0.991875  1
  Rh  Rh16  1  0.333333  0.666667  0.008449  1
  Rh  Rh17  1  0.000000  0.000000  0.233446  1
