# generated using pymatgen
data_Yb4ScGa3O10
_symmetry_space_group_name_H-M   'P 1'
_cell_length_a   5.45161200
_cell_length_b   5.65949893
_cell_length_c   15.66351573
_cell_angle_alpha   68.62310321
_cell_angle_beta   90.00000000
_cell_angle_gamma   90.00000000
_symmetry_Int_Tables_number   1
_chemical_formula_structural   Yb4ScGa3O10
_chemical_formula_sum   'Yb8 Sc2 Ga6 O20'
_cell_volume   450.02482663
_cell_formula_units_Z   2
loop_
 _symmetry_equiv_pos_site_id
 _symmetry_equiv_pos_as_xyz
  1  'x, y, z'
loop_
 _atom_site_type_symbol
 _atom_site_label
 _atom_site_symmetry_multiplicity
 _atom_site_fract_x
 _atom_site_fract_y
 _atom_site_fract_z
 _atom_site_occupancy
  Yb  Yb0  1  0.029013  0.631649  0.891756  1
  Yb  Yb1  1  0.529013  0.368351  0.608244  1
  Yb  Yb2  1  0.976697  0.080343  0.391090  1
  Yb  Yb3  1  0.476697  0.919657  0.108910  1
  Yb  Yb4  1  0.970987  0.368351  0.108244  1
  Yb  Yb5  1  0.470987  0.631649  0.391756  1
  Yb  Yb6  1  0.023303  0.919657  0.608910  1
  Yb  Yb7  1  0.523303  0.080343  0.891090  1
  Sc  Sc8  1  0.500000  0.000000  0.500000  1
  Sc  Sc9  1  0.000000  0.000000  0.000000  1
  Ga  Ga10  1  0.548652  0.681869  0.751206  1
  Ga  Ga11  1  0.048652  0.318131  0.748794  1
  Ga  Ga12  1  0.451348  0.318131  0.248794  1
  Ga  Ga13  1  0.951348  0.681869  0.251206  1
  Ga  Ga14  1  0.500000  0.500000  0.000000  1
  Ga  Ga15  1  0.000000  0.500000  0.500000  1
  O  O16  1  0.235886  0.705202  0.017958  1
  O  O17  1  0.735886  0.294798  0.482042  1
  O  O18  1  0.775338  0.744606  0.517989  1
  O  O19  1  0.275338  0.255394  0.982011  1
  O  O20  1  0.764114  0.294798  0.982042  1
  O  O21  1  0.264114  0.705202  0.517958  1
  O  O22  1  0.224662  0.255394  0.482011  1
  O  O23  1  0.724662  0.744606  0.017989  1
  O  O24  1  0.897420  0.623697  0.750085  1
  O  O25  1  0.397420  0.376303  0.749915  1
  O  O26  1  0.102580  0.376303  0.249915  1
  O  O27  1  0.602580  0.623697  0.250085  1
  O  O28  1  0.459829  0.726727  0.857061  1
  O  O29  1  0.959829  0.273273  0.642939  1
  O  O30  1  0.537739  0.061321  0.356132  1
  O  O31  1  0.037739  0.938679  0.143868  1
  O  O32  1  0.540171  0.273273  0.142939  1
  O  O33  1  0.040171  0.726727  0.357061  1
  O  O34  1  0.462261  0.938679  0.643868  1
  O  O35  1  0.962261  0.061321  0.856132  1
