# generated using pymatgen
data_Rb4ZnCdH8
_symmetry_space_group_name_H-M   'P 1'
_cell_length_a   6.20797300
_cell_length_b   8.72221100
_cell_length_c   10.98667700
_cell_angle_alpha   90.00000000
_cell_angle_beta   90.00000000
_cell_angle_gamma   90.00000000
_symmetry_Int_Tables_number   1
_chemical_formula_structural   Rb4ZnCdH8
_chemical_formula_sum   'Rb8 Zn2 Cd2 H16'
_cell_volume   594.89835045
_cell_formula_units_Z   2
loop_
 _symmetry_equiv_pos_site_id
 _symmetry_equiv_pos_as_xyz
  1  'x, y, z'
loop_
 _atom_site_type_symbol
 _atom_site_label
 _atom_site_symmetry_multiplicity
 _atom_site_fract_x
 _atom_site_fract_y
 _atom_site_fract_z
 _atom_site_occupancy
  Rb  Rb0  1  0.250000  0.667608  0.080392  1
  Rb  Rb1  1  0.250000  0.167608  0.419608  1
  Rb  Rb2  1  0.750000  0.350646  0.905904  1
  Rb  Rb3  1  0.750000  0.850646  0.594096  1
  Rb  Rb4  1  0.250000  0.987183  0.815149  1
  Rb  Rb5  1  0.250000  0.487183  0.684851  1
  Rb  Rb6  1  0.750000  0.007655  0.180733  1
  Rb  Rb7  1  0.750000  0.507655  0.319267  1
  Zn  Zn8  1  0.750000  0.260212  0.586389  1
  Zn  Zn9  1  0.750000  0.760212  0.913611  1
  Cd  Cd10  1  0.250000  0.737452  0.416362  1
  Cd  Cd11  1  0.250000  0.237452  0.083638  1
  H  H12  1  0.005451  0.811744  0.343836  1
  H  H13  1  0.494549  0.311744  0.156164  1
  H  H14  1  0.528280  0.194644  0.656154  1
  H  H15  1  0.971720  0.694644  0.843846  1
  H  H16  1  0.971720  0.194644  0.656154  1
  H  H17  1  0.528280  0.694644  0.843846  1
  H  H18  1  0.494549  0.811744  0.343836  1
  H  H19  1  0.005451  0.311744  0.156164  1
  H  H20  1  0.250000  0.526223  0.407955  1
  H  H21  1  0.250000  0.026223  0.092045  1
  H  H22  1  0.750000  0.451377  0.589850  1
  H  H23  1  0.750000  0.951377  0.910150  1
  H  H24  1  0.250000  0.305381  0.922938  1
  H  H25  1  0.250000  0.805381  0.577062  1
  H  H26  1  0.750000  0.693485  0.057093  1
  H  H27  1  0.750000  0.193485  0.442907  1
