# generated using pymatgen
data_Y4Al4IrPt2Rh
_symmetry_space_group_name_H-M   'P 1'
_cell_length_a   4.38334300
_cell_length_b   6.85317261
_cell_length_c   7.84606970
_cell_angle_alpha   89.95170257
_cell_angle_beta   90.00000000
_cell_angle_gamma   90.00000000
_symmetry_Int_Tables_number   1
_chemical_formula_structural   Y4Al4IrPt2Rh
_chemical_formula_sum   'Y4 Al4 Ir1 Pt2 Rh1'
_cell_volume   235.69432925
_cell_formula_units_Z   1
loop_
 _symmetry_equiv_pos_site_id
 _symmetry_equiv_pos_as_xyz
  1  'x, y, z'
loop_
 _atom_site_type_symbol
 _atom_site_label
 _atom_site_symmetry_multiplicity
 _atom_site_fract_x
 _atom_site_fract_y
 _atom_site_fract_z
 _atom_site_occupancy
  Y  Y0  1  0.250000  0.030646  0.679388  1
  Y  Y1  1  0.250000  0.530568  0.820748  1
  Y  Y2  1  0.750000  0.973352  0.316687  1
  Y  Y3  1  0.750000  0.475857  0.182481  1
  Al  Al4  1  0.250000  0.141269  0.063973  1
  Al  Al5  1  0.250000  0.641735  0.434660  1
  Al  Al6  1  0.750000  0.855123  0.938840  1
  Al  Al7  1  0.750000  0.355736  0.561693  1
  Ir  Ir8  1  0.250000  0.769955  0.117643  1
  Pt  Pt9  1  0.750000  0.728152  0.618409  1
  Pt  Pt10  1  0.750000  0.228217  0.881420  1
  Rh  Rh11  1  0.250000  0.269392  0.384058  1
