# generated using pymatgen
data_Y4Al18PtRh5
_symmetry_space_group_name_H-M   'P 1'
_cell_length_a   7.57009763
_cell_length_b   7.57009778
_cell_length_c   9.47175104
_cell_angle_alpha   89.99473097
_cell_angle_beta   89.99472745
_cell_angle_gamma   119.51114180
_symmetry_Int_Tables_number   1
_chemical_formula_structural   Y4Al18PtRh5
_chemical_formula_sum   'Y4 Al18 Pt1 Rh5'
_cell_volume   472.36990409
_cell_formula_units_Z   1
loop_
 _symmetry_equiv_pos_site_id
 _symmetry_equiv_pos_as_xyz
  1  'x, y, z'
loop_
 _atom_site_type_symbol
 _atom_site_label
 _atom_site_symmetry_multiplicity
 _atom_site_fract_x
 _atom_site_fract_y
 _atom_site_fract_z
 _atom_site_occupancy
  Y  Y0  1  0.993505  0.669280  0.249915  1
  Y  Y1  1  0.003658  0.328448  0.750449  1
  Y  Y2  1  0.671552  0.996342  0.249551  1
  Y  Y3  1  0.330720  0.006495  0.750085  1
  Al  Al4  1  0.127454  0.126510  0.250666  1
  Al  Al5  1  0.873490  0.872546  0.749334  1
  Al  Al6  1  0.004766  0.335387  0.077217  1
  Al  Al7  1  0.002958  0.668755  0.923077  1
  Al  Al8  1  0.000938  0.664959  0.574618  1
  Al  Al9  1  0.335041  0.999062  0.425382  1
  Al  Al10  1  0.000830  0.334880  0.424698  1
  Al  Al11  1  0.665120  0.999170  0.575302  1
  Al  Al12  1  0.664613  0.995234  0.922783  1
  Al  Al13  1  0.331245  0.997042  0.076923  1
  Al  Al14  1  0.332025  0.332193  0.549838  1
  Al  Al15  1  0.667807  0.667975  0.450162  1
  Al  Al16  1  0.666554  0.669672  0.052846  1
  Al  Al17  1  0.330328  0.333446  0.947154  1
  Al  Al18  1  0.340772  0.551069  0.250588  1
  Al  Al19  1  0.659627  0.453831  0.746406  1
  Al  Al20  1  0.546169  0.340373  0.253594  1
  Al  Al21  1  0.448931  0.659228  0.749412  1
  Pt  Pt22  1  0.672126  0.327874  0.000000  1
  Rh  Rh23  1  0.328427  0.671573  0.000000  1
  Rh  Rh24  1  0.328644  0.671356  0.500000  1
  Rh  Rh25  1  0.672362  0.327638  0.500000  1
  Rh  Rh26  1  0.999999  0.000001  0.000000  1
  Rh  Rh27  1  0.000338  0.999662  0.500000  1
