# generated using pymatgen
data_HoZnBPd6
_symmetry_space_group_name_H-M   'P 1'
_cell_length_a   5.81274626
_cell_length_b   5.81274574
_cell_length_c   5.81274600
_cell_angle_alpha   59.99999852
_cell_angle_beta   60.00000147
_cell_angle_gamma   60.00000132
_symmetry_Int_Tables_number   1
_chemical_formula_structural   HoZnBPd6
_chemical_formula_sum   'Ho1 Zn1 B1 Pd6'
_cell_volume   138.87659003
_cell_formula_units_Z   1
loop_
 _symmetry_equiv_pos_site_id
 _symmetry_equiv_pos_as_xyz
  1  'x, y, z'
loop_
 _atom_site_type_symbol
 _atom_site_label
 _atom_site_symmetry_multiplicity
 _atom_site_fract_x
 _atom_site_fract_y
 _atom_site_fract_z
 _atom_site_occupancy
  Ho  Ho0  1  0.750000  0.750000  0.750000  1
  Zn  Zn1  1  0.250000  0.250000  0.250000  1
  B  B2  1  0.499999  0.499999  0.499999  1
  Pd  Pd3  1  0.755993  0.244006  0.244006  1
  Pd  Pd4  1  0.244006  0.755993  0.244006  1
  Pd  Pd5  1  0.755993  0.755993  0.244006  1
  Pd  Pd6  1  0.244006  0.244006  0.755993  1
  Pd  Pd7  1  0.755993  0.244006  0.755993  1
  Pd  Pd8  1  0.244006  0.755993  0.755993  1
