# generated using pymatgen
data_Dy3PaNiB14
_symmetry_space_group_name_H-M   'P 1'
_cell_length_a   7.23611807
_cell_length_b   7.23835224
_cell_length_c   7.52665100
_cell_angle_alpha   90.00000000
_cell_angle_beta   90.00000000
_cell_angle_gamma   90.00693166
_symmetry_Int_Tables_number   1
_chemical_formula_structural   Dy3PaNiB14
_chemical_formula_sum   'Dy6 Pa2 Ni2 B28'
_cell_volume   394.22769727
_cell_formula_units_Z   2
loop_
 _symmetry_equiv_pos_site_id
 _symmetry_equiv_pos_as_xyz
  1  'x, y, z'
loop_
 _atom_site_type_symbol
 _atom_site_label
 _atom_site_symmetry_multiplicity
 _atom_site_fract_x
 _atom_site_fract_y
 _atom_site_fract_z
 _atom_site_occupancy
  Dy  Dy0  1  0.334556  0.807602  0.000000  1
  Dy  Dy1  1  0.693691  0.167761  0.500000  1
  Dy  Dy2  1  0.306699  0.833808  0.500000  1
  Dy  Dy3  1  0.808031  0.665815  0.000000  1
  Dy  Dy4  1  0.833014  0.693887  0.500000  1
  Dy  Dy5  1  0.166637  0.306689  0.500000  1
  Pa  Pa6  1  0.193841  0.329021  0.000000  1
  Pa  Pa7  1  0.671049  0.193547  0.000000  1
  Ni  Ni8  1  0.000355  0.997037  0.000000  1
  Ni  Ni9  1  0.499451  0.501406  0.500000  1
  B  B10  1  0.173687  0.039362  0.231988  1
  B  B11  1  0.960624  0.172464  0.232779  1
  B  B12  1  0.040214  0.824218  0.231467  1
  B  B13  1  0.674476  0.461448  0.268039  1
  B  B14  1  0.325295  0.541051  0.268600  1
  B  B15  1  0.825005  0.960208  0.232400  1
  B  B16  1  0.539821  0.675396  0.270428  1
  B  B17  1  0.460106  0.326859  0.267056  1
  B  B18  1  0.825005  0.960208  0.767600  1
  B  B19  1  0.040214  0.824218  0.768533  1
  B  B20  1  0.960624  0.172464  0.767221  1
  B  B21  1  0.325295  0.541051  0.731400  1
  B  B22  1  0.674476  0.461448  0.731961  1
  B  B23  1  0.173687  0.039362  0.768012  1
  B  B24  1  0.460106  0.326859  0.732944  1
  B  B25  1  0.539821  0.675396  0.729572  1
  B  B26  1  0.088704  0.588616  0.245740  1
  B  B27  1  0.409994  0.090904  0.242800  1
  B  B28  1  0.588521  0.912191  0.247131  1
  B  B29  1  0.909956  0.409743  0.243692  1
  B  B30  1  0.909956  0.409743  0.756308  1
  B  B31  1  0.588521  0.912191  0.752869  1
  B  B32  1  0.409994  0.090904  0.757200  1
  B  B33  1  0.088704  0.588616  0.754260  1
  B  B34  1  0.000319  0.997400  0.390593  1
  B  B35  1  0.499618  0.501855  0.110597  1
  B  B36  1  0.000319  0.997400  0.609407  1
  B  B37  1  0.499618  0.501855  0.889403  1
