# generated using pymatgen
data_Mn5Nb12Cr3(FeN)4
_symmetry_space_group_name_H-M   'P 1'
_cell_length_a   8.07514380
_cell_length_b   8.07514302
_cell_length_c   8.07514326
_cell_angle_alpha   59.88343853
_cell_angle_beta   59.88343863
_cell_angle_gamma   59.88343735
_symmetry_Int_Tables_number   1
_chemical_formula_structural   Mn5Nb12Cr3(FeN)4
_chemical_formula_sum   'Mn5 Nb12 Cr3 Fe4 N4'
_cell_volume   371.35188690
_cell_formula_units_Z   1
loop_
 _symmetry_equiv_pos_site_id
 _symmetry_equiv_pos_as_xyz
  1  'x, y, z'
loop_
 _atom_site_type_symbol
 _atom_site_label
 _atom_site_symmetry_multiplicity
 _atom_site_fract_x
 _atom_site_fract_y
 _atom_site_fract_z
 _atom_site_occupancy
  Mn  Mn0  1  0.625464  0.625464  0.625464  1
  Mn  Mn1  1  0.730916  0.423193  0.423193  1
  Mn  Mn2  1  0.423193  0.730916  0.423193  1
  Mn  Mn3  1  0.423193  0.423193  0.730916  1
  Mn  Mn4  1  0.422667  0.422667  0.422667  1
  Nb  Nb5  1  0.803177  0.803177  0.197682  1
  Nb  Nb6  1  0.195757  0.195757  0.803957  1
  Nb  Nb7  1  0.803177  0.197682  0.803177  1
  Nb  Nb8  1  0.195757  0.803957  0.195757  1
  Nb  Nb9  1  0.197682  0.803177  0.803177  1
  Nb  Nb10  1  0.803957  0.195757  0.195757  1
  Nb  Nb11  1  0.446491  0.446491  0.052744  1
  Nb  Nb12  1  0.054475  0.054475  0.445808  1
  Nb  Nb13  1  0.446491  0.052744  0.446491  1
  Nb  Nb14  1  0.054475  0.445808  0.054475  1
  Nb  Nb15  1  0.052744  0.446491  0.446491  1
  Nb  Nb16  1  0.445808  0.054475  0.054475  1
  Cr  Cr17  1  0.123527  0.625377  0.625377  1
  Cr  Cr18  1  0.625377  0.123527  0.625377  1
  Cr  Cr19  1  0.625377  0.625377  0.123527  1
  Fe  Fe20  1  0.523489  0.825384  0.825384  1
  Fe  Fe21  1  0.825384  0.523489  0.825384  1
  Fe  Fe22  1  0.825384  0.825384  0.523489  1
  Fe  Fe23  1  0.826062  0.826062  0.826062  1
  N  N24  1  0.624811  0.125057  0.125057  1
  N  N25  1  0.125057  0.624811  0.125057  1
  N  N26  1  0.125057  0.125057  0.624811  1
  N  N27  1  0.125050  0.125050  0.125050  1
