# generated using pymatgen
data_LaPaS6
_symmetry_space_group_name_H-M   'P 1'
_cell_length_a   9.77728844
_cell_length_b   9.77728809
_cell_length_c   4.11404200
_cell_angle_alpha   90.00000000
_cell_angle_beta   90.00000000
_cell_angle_gamma   147.90149014
_symmetry_Int_Tables_number   1
_chemical_formula_structural   LaPaS6
_chemical_formula_sum   'La1 Pa1 S6'
_cell_volume   208.98154858
_cell_formula_units_Z   1
loop_
 _symmetry_equiv_pos_site_id
 _symmetry_equiv_pos_as_xyz
  1  'x, y, z'
loop_
 _atom_site_type_symbol
 _atom_site_label
 _atom_site_symmetry_multiplicity
 _atom_site_fract_x
 _atom_site_fract_y
 _atom_site_fract_z
 _atom_site_occupancy
  La  La0  1  0.330109  0.669890  0.749999  1
  Pa  Pa1  1  0.675172  0.324827  0.250000  1
  S  S2  1  0.224213  0.387798  0.250000  1
  S  S3  1  0.612201  0.775786  0.250000  1
  S  S4  1  0.208711  0.791288  0.250000  1
  S  S5  1  0.767739  0.232260  0.749999  1
  S  S6  1  0.400046  0.218193  0.749999  1
  S  S7  1  0.781806  0.599953  0.749999  1
