# generated using pymatgen
data_Dy12Th4MgIn3Ru4
_symmetry_space_group_name_H-M   'P 1'
_cell_length_a   9.74899948
_cell_length_b   9.75178734
_cell_length_c   9.75178700
_cell_angle_alpha   59.99999775
_cell_angle_beta   59.99053769
_cell_angle_gamma   59.99054236
_symmetry_Int_Tables_number   1
_chemical_formula_structural   Dy12Th4MgIn3Ru4
_chemical_formula_sum   'Dy12 Th4 Mg1 In3 Ru4'
_cell_volume   655.46779277
_cell_formula_units_Z   1
loop_
 _symmetry_equiv_pos_site_id
 _symmetry_equiv_pos_as_xyz
  1  'x, y, z'
loop_
 _atom_site_type_symbol
 _atom_site_label
 _atom_site_symmetry_multiplicity
 _atom_site_fract_x
 _atom_site_fract_y
 _atom_site_fract_z
 _atom_site_occupancy
  Dy  Dy0  1  0.810417  0.189373  0.189373  1
  Dy  Dy1  1  0.186987  0.812518  0.812518  1
  Dy  Dy2  1  0.186987  0.812518  0.187977  1
  Dy  Dy3  1  0.810417  0.189373  0.810836  1
  Dy  Dy4  1  0.186987  0.187977  0.812518  1
  Dy  Dy5  1  0.810417  0.810836  0.189373  1
  Dy  Dy6  1  0.936543  0.563115  0.563115  1
  Dy  Dy7  1  0.562602  0.937663  0.937663  1
  Dy  Dy8  1  0.562602  0.937663  0.562071  1
  Dy  Dy9  1  0.936543  0.563115  0.937227  1
  Dy  Dy10  1  0.562602  0.562071  0.937663  1
  Dy  Dy11  1  0.936543  0.937227  0.563115  1
  Th  Th12  1  0.347801  0.347105  0.347105  1
  Th  Th13  1  0.347801  0.347105  0.957990  1
  Th  Th14  1  0.347801  0.957990  0.347105  1
  Th  Th15  1  0.958133  0.347289  0.347289  1
  Mg  Mg16  1  0.264425  0.578525  0.578525  1
  In  In17  1  0.582328  0.583761  0.583761  1
  In  In18  1  0.582328  0.583761  0.250150  1
  In  In19  1  0.582328  0.250150  0.583761  1
  Ru  Ru20  1  0.143149  0.143590  0.143590  1
  Ru  Ru21  1  0.143149  0.143590  0.569672  1
  Ru  Ru22  1  0.143149  0.569672  0.143590  1
  Ru  Ru23  1  0.567961  0.144013  0.144013  1
