# generated using pymatgen
data_Y2LuFe(Co4P3)2
_symmetry_space_group_name_H-M   'P 1'
_cell_length_a   3.68710300
_cell_length_b   10.50770500
_cell_length_c   12.15925600
_cell_angle_alpha   90.00000000
_cell_angle_beta   90.00000000
_cell_angle_gamma   90.00000000
_symmetry_Int_Tables_number   1
_chemical_formula_structural   Y2LuFe(Co4P3)2
_chemical_formula_sum   'Y4 Lu2 Fe2 Co16 P12'
_cell_volume   471.08594126
_cell_formula_units_Z   2
loop_
 _symmetry_equiv_pos_site_id
 _symmetry_equiv_pos_as_xyz
  1  'x, y, z'
loop_
 _atom_site_type_symbol
 _atom_site_label
 _atom_site_symmetry_multiplicity
 _atom_site_fract_x
 _atom_site_fract_y
 _atom_site_fract_z
 _atom_site_occupancy
  Y  Y0  1  0.000000  0.500000  0.521425  1
  Y  Y1  1  0.500000  0.000000  0.477421  1
  Y  Y2  1  0.000000  0.682422  0.795208  1
  Y  Y3  1  0.000000  0.317578  0.795208  1
  Lu  Lu4  1  0.500000  0.818417  0.205033  1
  Lu  Lu5  1  0.500000  0.181583  0.205033  1
  Fe  Fe6  1  0.500000  0.500000  0.157312  1
  Fe  Fe7  1  0.000000  0.000000  0.843428  1
  Co  Co8  1  0.500000  0.500000  0.702074  1
  Co  Co9  1  0.000000  0.000000  0.296495  1
  Co  Co10  1  0.000000  0.500000  0.987710  1
  Co  Co11  1  0.500000  0.000000  0.015450  1
  Co  Co12  1  0.500000  0.332232  0.995313  1
  Co  Co13  1  0.500000  0.667768  0.995313  1
  Co  Co14  1  0.000000  0.166402  0.007557  1
  Co  Co15  1  0.000000  0.833598  0.007557  1
  Co  Co16  1  0.500000  0.296281  0.429173  1
  Co  Co17  1  0.500000  0.703719  0.429173  1
  Co  Co18  1  0.000000  0.202953  0.568424  1
  Co  Co19  1  0.000000  0.797047  0.568424  1
  Co  Co20  1  0.500000  0.879189  0.709100  1
  Co  Co21  1  0.500000  0.120811  0.709100  1
  Co  Co22  1  0.000000  0.622085  0.289672  1
  Co  Co23  1  0.000000  0.377915  0.289672  1
  P  P24  1  0.500000  0.500000  0.883321  1
  P  P25  1  0.000000  0.000000  0.119352  1
  P  P26  1  0.500000  0.500000  0.342064  1
  P  P27  1  0.000000  0.000000  0.657677  1
  P  P28  1  0.500000  0.309961  0.615454  1
  P  P29  1  0.500000  0.690039  0.615454  1
  P  P30  1  0.000000  0.189176  0.381744  1
  P  P31  1  0.000000  0.810824  0.381744  1
  P  P32  1  0.500000  0.848472  0.893328  1
  P  P33  1  0.500000  0.151528  0.893328  1
  P  P34  1  0.000000  0.654095  0.108129  1
  P  P35  1  0.000000  0.345905  0.108129  1
