# generated using pymatgen
data_Tb3Tm3Co14(P3Ir)4
_symmetry_space_group_name_H-M   'P 1'
_cell_length_a   3.74148100
_cell_length_b   10.65682664
_cell_length_c   12.41240306
_cell_angle_alpha   89.91943438
_cell_angle_beta   90.00000000
_cell_angle_gamma   90.00000000
_symmetry_Int_Tables_number   1
_chemical_formula_structural   Tb3Tm3Co14(P3Ir)4
_chemical_formula_sum   'Tb3 Tm3 Co14 P12 Ir4'
_cell_volume   494.91074794
_cell_formula_units_Z   1
loop_
 _symmetry_equiv_pos_site_id
 _symmetry_equiv_pos_as_xyz
  1  'x, y, z'
loop_
 _atom_site_type_symbol
 _atom_site_label
 _atom_site_symmetry_multiplicity
 _atom_site_fract_x
 _atom_site_fract_y
 _atom_site_fract_z
 _atom_site_occupancy
  Tb  Tb0  1  0.000000  0.500047  0.520254  1
  Tb  Tb1  1  0.500000  0.999905  0.479775  1
  Tb  Tb2  1  0.500000  0.813138  0.205810  1
  Tm  Tm3  1  0.500000  0.186838  0.206275  1
  Tm  Tm4  1  0.000000  0.686379  0.794040  1
  Tm  Tm5  1  0.000000  0.313555  0.793672  1
  Co  Co6  1  0.000000  0.499228  0.988116  1
  Co  Co7  1  0.500000  0.000452  0.010691  1
  Co  Co8  1  0.500000  0.332019  0.993362  1
  Co  Co9  1  0.500000  0.667227  0.992589  1
  Co  Co10  1  0.000000  0.168327  0.006302  1
  Co  Co11  1  0.000000  0.831992  0.005648  1
  Co  Co12  1  0.500000  0.300065  0.428372  1
  Co  Co13  1  0.500000  0.700087  0.429312  1
  Co  Co14  1  0.000000  0.200475  0.571821  1
  Co  Co15  1  0.000000  0.799695  0.572259  1
  Co  Co16  1  0.500000  0.880227  0.712065  1
  Co  Co17  1  0.500000  0.119910  0.711793  1
  Co  Co18  1  0.000000  0.618473  0.289121  1
  Co  Co19  1  0.000000  0.380099  0.288061  1
  P  P20  1  0.500000  0.499579  0.889824  1
  P  P21  1  0.000000  0.000713  0.109634  1
  P  P22  1  0.500000  0.500271  0.350095  1
  P  P23  1  0.000000  0.000020  0.650049  1
  P  P24  1  0.500000  0.302295  0.613810  1
  P  P25  1  0.500000  0.697667  0.614200  1
  P  P26  1  0.000000  0.198525  0.386472  1
  P  P27  1  0.000000  0.802262  0.387449  1
  P  P28  1  0.500000  0.843909  0.894211  1
  P  P29  1  0.500000  0.156180  0.893787  1
  P  P30  1  0.000000  0.654350  0.104711  1
  P  P31  1  0.000000  0.344059  0.105940  1
  Ir  Ir32  1  0.500000  0.499918  0.160566  1
  Ir  Ir33  1  0.000000  0.000351  0.839350  1
  Ir  Ir34  1  0.500000  0.499857  0.705050  1
  Ir  Ir35  1  0.000000  0.001908  0.295513  1
