# generated using pymatgen
data_AcY(BO3)2
_symmetry_space_group_name_H-M   'P 1'
_cell_length_a   4.92809800
_cell_length_b   6.48306840
_cell_length_c   8.71051100
_cell_angle_alpha   71.03255815
_cell_angle_beta   90.00000000
_cell_angle_gamma   90.00000000
_symmetry_Int_Tables_number   1
_chemical_formula_structural   AcY(BO3)2
_chemical_formula_sum   'Ac2 Y2 B4 O12'
_cell_volume   263.18342559
_cell_formula_units_Z   2
loop_
 _symmetry_equiv_pos_site_id
 _symmetry_equiv_pos_as_xyz
  1  'x, y, z'
loop_
 _atom_site_type_symbol
 _atom_site_label
 _atom_site_symmetry_multiplicity
 _atom_site_fract_x
 _atom_site_fract_y
 _atom_site_fract_z
 _atom_site_occupancy
  Ac  Ac0  1  0.736699  0.731624  0.411114  1
  Ac  Ac1  1  0.236699  0.268376  0.088886  1
  Y  Y2  1  0.238590  0.200712  0.618016  1
  Y  Y3  1  0.738590  0.799288  0.881984  1
  B  B4  1  0.777461  0.247715  0.377750  1
  B  B5  1  0.277461  0.752285  0.122250  1
  B  B6  1  0.225261  0.750226  0.630893  1
  B  B7  1  0.725261  0.249774  0.869107  1
  O  O8  1  0.492084  0.134540  0.859835  1
  O  O9  1  0.992084  0.865460  0.640165  1
  O  O10  1  0.555927  0.711349  0.141965  1
  O  O11  1  0.055927  0.288651  0.358035  1
  O  O12  1  0.965751  0.155502  0.846088  1
  O  O13  1  0.465751  0.844498  0.653912  1
  O  O14  1  0.145470  0.862072  0.213023  1
  O  O15  1  0.645470  0.137928  0.286977  1
  O  O16  1  0.714643  0.426717  0.923709  1
  O  O17  1  0.214643  0.573283  0.576291  1
  O  O18  1  0.148114  0.681179  0.006439  1
  O  O19  1  0.648114  0.318821  0.493561  1
