# generated using pymatgen
data_NdLu(CuGe)2
_symmetry_space_group_name_H-M   'P 1'
_cell_length_a   4.26067800
_cell_length_b   4.26067717
_cell_length_c   7.39388100
_cell_angle_alpha   90.00000000
_cell_angle_beta   90.00000000
_cell_angle_gamma   119.99999095
_symmetry_Int_Tables_number   1
_chemical_formula_structural   NdLu(CuGe)2
_chemical_formula_sum   'Nd1 Lu1 Cu2 Ge2'
_cell_volume   116.24130322
_cell_formula_units_Z   1
loop_
 _symmetry_equiv_pos_site_id
 _symmetry_equiv_pos_as_xyz
  1  'x, y, z'
loop_
 _atom_site_type_symbol
 _atom_site_label
 _atom_site_symmetry_multiplicity
 _atom_site_fract_x
 _atom_site_fract_y
 _atom_site_fract_z
 _atom_site_occupancy
  Nd  Nd0  1  0.000000  0.000000  0.000000  1
  Lu  Lu1  1  0.000000  0.000000  0.500000  1
  Cu  Cu2  1  0.333333  0.666667  0.715176  1
  Cu  Cu3  1  0.666667  0.333333  0.284824  1
  Ge  Ge4  1  0.666667  0.333333  0.733414  1
  Ge  Ge5  1  0.333333  0.666667  0.266586  1
