# generated using pymatgen
data_La2Dy8Tc2Br15
_symmetry_space_group_name_H-M   'P 1'
_cell_length_a   9.48081140
_cell_length_b   10.20493010
_cell_length_c   10.90704200
_cell_angle_alpha   90.80744517
_cell_angle_beta   114.59536952
_cell_angle_gamma   110.67159079
_symmetry_Int_Tables_number   1
_chemical_formula_structural   La2Dy8Tc2Br15
_chemical_formula_sum   'La2 Dy8 Tc2 Br15'
_cell_volume   881.52112643
_cell_formula_units_Z   1
loop_
 _symmetry_equiv_pos_site_id
 _symmetry_equiv_pos_as_xyz
  1  'x, y, z'
loop_
 _atom_site_type_symbol
 _atom_site_label
 _atom_site_symmetry_multiplicity
 _atom_site_fract_x
 _atom_site_fract_y
 _atom_site_fract_z
 _atom_site_occupancy
  La  La0  1  0.973615  0.792884  0.902795  1
  La  La1  1  0.026385  0.207116  0.097205  1
  Dy  Dy2  1  0.261975  0.590339  0.058603  1
  Dy  Dy3  1  0.738025  0.409661  0.941397  1
  Dy  Dy4  1  0.301145  0.907388  0.275119  1
  Dy  Dy5  1  0.698855  0.092612  0.724881  1
  Dy  Dy6  1  0.087755  0.551351  0.326371  1
  Dy  Dy7  1  0.912245  0.448649  0.673629  1
  Dy  Dy8  1  0.829242  0.754984  0.182163  1
  Dy  Dy9  1  0.170758  0.245016  0.817837  1
  Tc  Tc10  1  0.025278  0.672593  0.095844  1
  Tc  Tc11  1  0.974722  0.327407  0.904156  1
  Br  Br12  1  0.337708  0.460594  0.308710  1
  Br  Br13  1  0.662292  0.539406  0.691290  1
  Br  Br14  1  0.205418  0.719129  0.809392  1
  Br  Br15  1  0.794582  0.280871  0.190608  1
  Br  Br16  1  0.132091  0.382769  0.585198  1
  Br  Br17  1  0.867909  0.617231  0.414802  1
  Br  Br18  1  0.383192  0.802811  0.524608  1
  Br  Br19  1  0.616808  0.197189  0.475392  1
  Br  Br20  1  0.277104  0.092553  0.058584  1
  Br  Br21  1  0.722896  0.907447  0.941416  1
  Br  Br22  1  0.570208  0.849758  0.230825  1
  Br  Br23  1  0.429792  0.150242  0.769175  1
  Br  Br24  1  0.094525  0.030091  0.341335  1
  Br  Br25  1  0.905475  0.969909  0.658665  1
  Br  Br26  1  0.500000  0.500000  0.000000  1
