# generated using pymatgen
data_PrCo2(B2Os)2
_symmetry_space_group_name_H-M   'P 1'
_cell_length_a   7.34001200
_cell_length_b   7.34001200
_cell_length_c   3.92983300
_cell_angle_alpha   90.00000000
_cell_angle_beta   90.00000000
_cell_angle_gamma   90.00000000
_symmetry_Int_Tables_number   1
_chemical_formula_structural   PrCo2(B2Os)2
_chemical_formula_sum   'Pr2 Co4 B8 Os4'
_cell_volume   211.72280305
_cell_formula_units_Z   2
loop_
 _symmetry_equiv_pos_site_id
 _symmetry_equiv_pos_as_xyz
  1  'x, y, z'
loop_
 _atom_site_type_symbol
 _atom_site_label
 _atom_site_symmetry_multiplicity
 _atom_site_fract_x
 _atom_site_fract_y
 _atom_site_fract_z
 _atom_site_occupancy
  Pr  Pr0  1  0.000000  0.000000  0.083638  1
  Pr  Pr1  1  0.500000  0.500000  0.583638  1
  Co  Co2  1  0.622178  0.116546  0.378048  1
  Co  Co3  1  0.377822  0.883454  0.378048  1
  Co  Co4  1  0.616546  0.877822  0.878048  1
  Co  Co5  1  0.383454  0.122178  0.878048  1
  B  B6  1  0.342315  0.818060  0.881574  1
  B  B7  1  0.657685  0.181940  0.881574  1
  B  B8  1  0.318060  0.157685  0.381574  1
  B  B9  1  0.681940  0.842315  0.381574  1
  B  B10  1  0.174322  0.732085  0.598256  1
  B  B11  1  0.825678  0.267915  0.598256  1
  B  B12  1  0.232085  0.325678  0.098256  1
  B  B13  1  0.767915  0.674322  0.098256  1
  Os  Os14  1  0.841847  0.392233  0.100303  1
  Os  Os15  1  0.158153  0.607767  0.100303  1
  Os  Os16  1  0.892233  0.658153  0.600303  1
  Os  Os17  1  0.107767  0.341847  0.600303  1
