# generated using pymatgen
data_LiDy3In4Pt
_symmetry_space_group_name_H-M   'P 1'
_cell_length_a   8.05785300
_cell_length_b   8.05785341
_cell_length_c   3.74229100
_cell_angle_alpha   90.00000000
_cell_angle_beta   90.00000000
_cell_angle_gamma   120.00001065
_symmetry_Int_Tables_number   1
_chemical_formula_structural   LiDy3In4Pt
_chemical_formula_sum   'Li1 Dy3 In4 Pt1'
_cell_volume   210.42960628
_cell_formula_units_Z   1
loop_
 _symmetry_equiv_pos_site_id
 _symmetry_equiv_pos_as_xyz
  1  'x, y, z'
loop_
 _atom_site_type_symbol
 _atom_site_label
 _atom_site_symmetry_multiplicity
 _atom_site_fract_x
 _atom_site_fract_y
 _atom_site_fract_z
 _atom_site_occupancy
  Li  Li0  1  0.666667  0.333333  0.500000  1
  Dy  Dy1  1  0.048580  0.300058  0.500000  1
  Dy  Dy2  1  0.699942  0.748521  0.500000  1
  Dy  Dy3  1  0.251479  0.951420  0.500000  1
  In  In4  1  0.658827  0.070391  0.000000  1
  In  In5  1  0.929609  0.588437  0.000000  1
  In  In6  1  0.411563  0.341173  0.000000  1
  In  In7  1  0.333333  0.666667  0.000000  1
  Pt  Pt8  1  0.000000  0.000000  0.000000  1
