# generated using pymatgen
data_YHo5Al24Os7Au
_symmetry_space_group_name_H-M   'P 1'
_cell_length_a   8.85691183
_cell_length_b   8.85600879
_cell_length_c   9.55974990
_cell_angle_alpha   89.78707770
_cell_angle_beta   90.18550452
_cell_angle_gamma   119.95725593
_symmetry_Int_Tables_number   1
_chemical_formula_structural   YHo5Al24Os7Au
_chemical_formula_sum   'Y1 Ho5 Al24 Os7 Au1'
_cell_volume   649.65213239
_cell_formula_units_Z   1
loop_
 _symmetry_equiv_pos_site_id
 _symmetry_equiv_pos_as_xyz
  1  'x, y, z'
loop_
 _atom_site_type_symbol
 _atom_site_label
 _atom_site_symmetry_multiplicity
 _atom_site_fract_x
 _atom_site_fract_y
 _atom_site_fract_z
 _atom_site_occupancy
  Y  Y0  1  0.190638  0.386310  0.250934  1
  Ho  Ho1  1  0.809363  0.612719  0.748621  1
  Ho  Ho2  1  0.612877  0.809513  0.251376  1
  Ho  Ho3  1  0.387268  0.190700  0.748604  1
  Ho  Ho4  1  0.194965  0.805302  0.253692  1
  Ho  Ho5  1  0.805115  0.195022  0.746319  1
  Al  Al6  1  0.328650  0.671852  0.022072  1
  Al  Al7  1  0.671448  0.328602  0.977449  1
  Al  Al8  1  0.666261  0.333928  0.518483  1
  Al  Al9  1  0.333970  0.666503  0.481922  1
  Al  Al10  1  0.162861  0.325846  0.575861  1
  Al  Al11  1  0.837214  0.674231  0.424649  1
  Al  Al12  1  0.674280  0.837158  0.575480  1
  Al  Al13  1  0.848464  0.677697  0.079377  1
  Al  Al14  1  0.325997  0.162687  0.424811  1
  Al  Al15  1  0.151548  0.322356  0.920141  1
  Al  Al16  1  0.163108  0.836789  0.575468  1
  Al  Al17  1  0.322465  0.151389  0.079202  1
  Al  Al18  1  0.836516  0.163067  0.424835  1
  Al  Al19  1  0.677715  0.848432  0.920515  1
  Al  Al20  1  0.836382  0.163128  0.075428  1
  Al  Al21  1  0.163236  0.836730  0.924211  1
  Al  Al22  1  0.560864  0.121319  0.249252  1
  Al  Al23  1  0.439137  0.878675  0.750760  1
  Al  Al24  1  0.878314  0.439351  0.249280  1
  Al  Al25  1  0.121394  0.560941  0.750723  1
  Al  Al26  1  0.564190  0.436610  0.255886  1
  Al  Al27  1  0.436410  0.563645  0.744246  1
  Al  Al28  1  0.998905  0.999454  0.250363  1
  Al  Al29  1  0.000580  0.999410  0.749630  1
  Os  Os30  1  0.500034  0.000047  0.999988  1
  Os  Os31  1  0.999799  0.500126  0.999707  1
  Os  Os32  1  0.500034  0.000048  0.500032  1
  Os  Os33  1  0.999770  0.500184  0.500351  1
  Os  Os34  1  0.500323  0.500156  0.500252  1
  Os  Os35  1  0.000014  0.000033  0.999975  1
  Os  Os36  1  0.000032  0.000055  0.500016  1
  Au  Au37  1  0.499863  0.499985  0.000088  1
