# generated using pymatgen
data_Tb5Dy3Hf9Si16Mo3
_symmetry_space_group_name_H-M   'P 1'
_cell_length_a   7.20780760
_cell_length_b   7.20755228
_cell_length_c   13.18018303
_cell_angle_alpha   90.11580360
_cell_angle_beta   90.10716615
_cell_angle_gamma   90.06787796
_symmetry_Int_Tables_number   1
_chemical_formula_structural   Tb5Dy3Hf9Si16Mo3
_chemical_formula_sum   'Tb5 Dy3 Hf9 Si16 Mo3'
_cell_volume   684.71599744
_cell_formula_units_Z   1
loop_
 _symmetry_equiv_pos_site_id
 _symmetry_equiv_pos_as_xyz
  1  'x, y, z'
loop_
 _atom_site_type_symbol
 _atom_site_label
 _atom_site_symmetry_multiplicity
 _atom_site_fract_x
 _atom_site_fract_y
 _atom_site_fract_z
 _atom_site_occupancy
  Tb  Tb0  1  0.499813  0.844872  0.035959  1
  Tb  Tb1  1  0.846195  0.501402  0.967691  1
  Tb  Tb2  1  0.498543  0.153928  0.532305  1
  Tb  Tb3  1  0.343040  0.996693  0.785456  1
  Tb  Tb4  1  0.655870  0.000441  0.284774  1
  Dy  Dy5  1  0.999869  0.344254  0.215138  1
  Dy  Dy6  1  0.003163  0.656765  0.714488  1
  Dy  Dy7  1  0.155007  0.500380  0.463933  1
  Hf  Hf8  1  0.675536  0.324643  0.749983  1
  Hf  Hf9  1  0.146708  0.992766  0.373557  1
  Hf  Hf10  1  0.854778  0.004923  0.876650  1
  Hf  Hf11  1  0.506063  0.649440  0.621546  1
  Hf  Hf12  1  0.350388  0.493928  0.878401  1
  Hf  Hf13  1  0.492496  0.352662  0.125512  1
  Hf  Hf14  1  0.647341  0.507395  0.374494  1
  Hf  Hf15  1  0.995173  0.145255  0.623317  1
  Hf  Hf16  1  0.007257  0.853319  0.126433  1
  Si  Si17  1  0.361152  0.297015  0.316939  1
  Si  Si18  1  0.637640  0.705538  0.817389  1
  Si  Si19  1  0.204218  0.861685  0.566144  1
  Si  Si20  1  0.137871  0.795553  0.933871  1
  Si  Si21  1  0.796342  0.137841  0.067430  1
  Si  Si22  1  0.862512  0.204107  0.432648  1
  Si  Si23  1  0.294244  0.362738  0.682488  1
  Si  Si24  1  0.703366  0.638280  0.183149  1
  Si  Si25  1  0.295329  0.051355  0.184314  1
  Si  Si26  1  0.705177  0.947482  0.682611  1
  Si  Si27  1  0.448220  0.794922  0.432650  1
  Si  Si28  1  0.204788  0.551381  0.067451  1
  Si  Si29  1  0.547949  0.203389  0.936114  1
  Si  Si30  1  0.797032  0.452250  0.563900  1
  Si  Si31  1  0.052380  0.295135  0.817359  1
  Si  Si32  1  0.949084  0.704076  0.315707  1
  Mo  Mo33  1  0.176420  0.175422  0.001379  1
  Mo  Mo34  1  0.824749  0.823374  0.498749  1
  Mo  Mo35  1  0.324292  0.675391  0.250071  1
