# generated using pymatgen
data_Ba4LiV(WO6)2
_symmetry_space_group_name_H-M   'P 1'
_cell_length_a   5.79993410
_cell_length_b   5.82760000
_cell_length_c   10.15321810
_cell_angle_alpha   72.70102477
_cell_angle_beta   90.17589659
_cell_angle_gamma   119.81039442
_symmetry_Int_Tables_number   1
_chemical_formula_structural   Ba4LiV(WO6)2
_chemical_formula_sum   'Ba4 Li1 V1 W2 O12'
_cell_volume   279.92219200
_cell_formula_units_Z   1
loop_
 _symmetry_equiv_pos_site_id
 _symmetry_equiv_pos_as_xyz
  1  'x, y, z'
loop_
 _atom_site_type_symbol
 _atom_site_label
 _atom_site_symmetry_multiplicity
 _atom_site_fract_x
 _atom_site_fract_y
 _atom_site_fract_z
 _atom_site_occupancy
  Ba  Ba0  1  0.627079  0.252545  0.120504  1
  Ba  Ba1  1  0.123156  0.246537  0.630250  1
  Ba  Ba2  1  0.872925  0.747447  0.379503  1
  Ba  Ba3  1  0.376861  0.753468  0.869749  1
  Li  Li4  1  0.750095  0.500042  0.750005  1
  V  V5  1  0.250018  0.500068  0.249978  1
  W  W6  1  0.000103  0.000294  0.000629  1
  W  W7  1  0.499886  0.999720  0.499360  1
  O  O8  1  0.119287  0.237204  0.124374  1
  O  O9  1  0.617986  0.237944  0.611314  1
  O  O10  1  0.378415  0.249868  0.372750  1
  O  O11  1  0.879583  0.231209  0.887216  1
  O  O12  1  0.631453  0.751222  0.126079  1
  O  O13  1  0.148427  0.769931  0.611998  1
  O  O14  1  0.380689  0.762794  0.375622  1
  O  O15  1  0.882024  0.762027  0.888691  1
  O  O16  1  0.121593  0.750149  0.127248  1
  O  O17  1  0.620338  0.768703  0.612797  1
  O  O18  1  0.868547  0.248739  0.373934  1
  O  O19  1  0.351533  0.230087  0.887998  1
