# generated using pymatgen
data_Tb3Pr2Ho(IrO7)2
_symmetry_space_group_name_H-M   'P 1'
_cell_length_a   6.49782809
_cell_length_b   6.48982082
_cell_length_c   7.52857000
_cell_angle_alpha   90.00000000
_cell_angle_beta   90.00000000
_cell_angle_gamma   109.89318218
_symmetry_Int_Tables_number   1
_chemical_formula_structural   Tb3Pr2Ho(IrO7)2
_chemical_formula_sum   'Tb3 Pr2 Ho1 Ir2 O14'
_cell_volume   298.53349984
_cell_formula_units_Z   1
loop_
 _symmetry_equiv_pos_site_id
 _symmetry_equiv_pos_as_xyz
  1  'x, y, z'
loop_
 _atom_site_type_symbol
 _atom_site_label
 _atom_site_symmetry_multiplicity
 _atom_site_fract_x
 _atom_site_fract_y
 _atom_site_fract_z
 _atom_site_occupancy
  Tb  Tb0  1  0.483532  0.933800  0.750000  1
  Tb  Tb1  1  0.516361  0.065691  0.250000  1
  Tb  Tb2  1  0.934879  0.483406  0.750000  1
  Pr  Pr3  1  0.000497  0.000274  0.000531  1
  Pr  Pr4  1  0.000497  0.000274  0.499469  1
  Ho  Ho5  1  0.063233  0.515239  0.250000  1
  Ir  Ir6  1  0.500547  0.500479  0.000407  1
  Ir  Ir7  1  0.500547  0.500479  0.499593  1
  O  O8  1  0.589023  0.589262  0.750000  1
  O  O9  1  0.406953  0.409562  0.250000  1
  O  O10  1  0.840150  0.119428  0.750000  1
  O  O11  1  0.160345  0.876731  0.250000  1
  O  O12  1  0.119567  0.840212  0.750000  1
  O  O13  1  0.881025  0.162093  0.250000  1
  O  O14  1  0.439803  0.181621  0.965275  1
  O  O15  1  0.561394  0.819068  0.464924  1
  O  O16  1  0.181072  0.441167  0.967417  1
  O  O17  1  0.819153  0.559677  0.463971  1
  O  O18  1  0.439803  0.181621  0.534725  1
  O  O19  1  0.561394  0.819068  0.035076  1
  O  O20  1  0.819153  0.559677  0.036029  1
  O  O21  1  0.181072  0.441167  0.532583  1
