# generated using pymatgen
data_TbDyReB8W
_symmetry_space_group_name_H-M   'P 1'
_cell_length_a   3.62451600
_cell_length_b   6.01262807
_cell_length_c   11.63591121
_cell_angle_alpha   90.02342171
_cell_angle_beta   90.00000000
_cell_angle_gamma   90.00000000
_symmetry_Int_Tables_number   1
_chemical_formula_structural   TbDyReB8W
_chemical_formula_sum   'Tb2 Dy2 Re2 B16 W2'
_cell_volume   253.57984003
_cell_formula_units_Z   2
loop_
 _symmetry_equiv_pos_site_id
 _symmetry_equiv_pos_as_xyz
  1  'x, y, z'
loop_
 _atom_site_type_symbol
 _atom_site_label
 _atom_site_symmetry_multiplicity
 _atom_site_fract_x
 _atom_site_fract_y
 _atom_site_fract_z
 _atom_site_occupancy
  Tb  Tb0  1  0.000000  0.627556  0.350742  1
  Tb  Tb1  1  0.000000  0.372444  0.649258  1
  Dy  Dy2  1  0.000000  0.126748  0.150845  1
  Dy  Dy3  1  0.000000  0.873252  0.849155  1
  Re  Re4  1  0.000000  0.134001  0.413166  1
  Re  Re5  1  0.000000  0.865999  0.586834  1
  B  B6  1  0.500000  0.789274  0.186697  1
  B  B7  1  0.500000  0.210726  0.813303  1
  B  B8  1  0.500000  0.284562  0.315733  1
  B  B9  1  0.500000  0.715438  0.684267  1
  B  B10  1  0.500000  0.866933  0.032510  1
  B  B11  1  0.500000  0.133067  0.967490  1
  B  B12  1  0.500000  0.362701  0.469065  1
  B  B13  1  0.500000  0.637299  0.530935  1
  B  B14  1  0.500000  0.887071  0.452985  1
  B  B15  1  0.500000  0.112929  0.547015  1
  B  B16  1  0.500000  0.385099  0.047333  1
  B  B17  1  0.500000  0.614901  0.952667  1
  B  B18  1  0.500000  0.977234  0.308920  1
  B  B19  1  0.500000  0.022766  0.691080  1
  B  B20  1  0.500000  0.475328  0.193842  1
  B  B21  1  0.500000  0.524672  0.806158  1
  W  W22  1  0.000000  0.630088  0.085350  1
  W  W23  1  0.000000  0.369912  0.914650  1
