# generated using pymatgen
data_TaNb15(GaTe4)4
_symmetry_space_group_name_H-M   'P 1'
_cell_length_a   4.90077400
_cell_length_b   11.18955010
_cell_length_c   19.38024417
_cell_angle_alpha   90.01515851
_cell_angle_beta   90.00000000
_cell_angle_gamma   90.00000000
_symmetry_Int_Tables_number   1
_chemical_formula_structural   TaNb15(GaTe4)4
_chemical_formula_sum   'Ta1 Nb15 Ga4 Te16'
_cell_volume   1062.76325343
_cell_formula_units_Z   1
loop_
 _symmetry_equiv_pos_site_id
 _symmetry_equiv_pos_as_xyz
  1  'x, y, z'
loop_
 _atom_site_type_symbol
 _atom_site_label
 _atom_site_symmetry_multiplicity
 _atom_site_fract_x
 _atom_site_fract_y
 _atom_site_fract_z
 _atom_site_occupancy
  Ta  Ta0  1  0.500000  0.794984  0.036418  1
  Nb  Nb1  1  0.500000  0.564839  0.381341  1
  Nb  Nb2  1  0.500000  0.435538  0.618542  1
  Nb  Nb3  1  0.500000  0.065004  0.118459  1
  Nb  Nb4  1  0.500000  0.935820  0.881597  1
  Nb  Nb5  1  0.500000  0.706299  0.536635  1
  Nb  Nb6  1  0.500000  0.293610  0.463344  1
  Nb  Nb7  1  0.500000  0.205928  0.963387  1
  Nb  Nb8  1  0.000000  0.691352  0.441800  1
  Nb  Nb9  1  0.000000  0.308794  0.558177  1
  Nb  Nb10  1  0.000000  0.191151  0.058300  1
  Nb  Nb11  1  0.000000  0.809321  0.942266  1
  Nb  Nb12  1  0.000000  0.399963  0.389926  1
  Nb  Nb13  1  0.000000  0.599857  0.609928  1
  Nb  Nb14  1  0.000000  0.900019  0.109564  1
  Nb  Nb15  1  0.000000  0.099598  0.890065  1
  Ga  Ga16  1  0.249873  0.500008  0.499995  1
  Ga  Ga17  1  0.750258  0.000339  0.999983  1
  Ga  Ga18  1  0.750127  0.500008  0.499995  1
  Ga  Ga19  1  0.249742  0.000339  0.999983  1
  Te  Te20  1  0.000000  0.841147  0.561093  1
  Te  Te21  1  0.000000  0.158742  0.438816  1
  Te  Te22  1  0.000000  0.340572  0.938917  1
  Te  Te23  1  0.000000  0.658205  0.061265  1
  Te  Te24  1  0.500000  0.334724  0.317826  1
  Te  Te25  1  0.500000  0.665405  0.682120  1
  Te  Te26  1  0.500000  0.833343  0.181260  1
  Te  Te27  1  0.500000  0.165186  0.817718  1
  Te  Te28  1  0.500000  0.817102  0.403845  1
  Te  Te29  1  0.500000  0.183175  0.596099  1
  Te  Te30  1  0.500000  0.316914  0.096213  1
  Te  Te31  1  0.500000  0.683082  0.904974  1
  Te  Te32  1  0.000000  0.605852  0.303104  1
  Te  Te33  1  0.000000  0.394394  0.696854  1
  Te  Te34  1  0.000000  0.105345  0.196801  1
  Te  Te35  1  0.000000  0.894041  0.803391  1
