# generated using pymatgen
data_HoLuPa2(Ni2Sn)2
_symmetry_space_group_name_H-M   'P 1'
_cell_length_a   7.34237545
_cell_length_b   7.34237480
_cell_length_c   3.61663800
_cell_angle_alpha   90.00000000
_cell_angle_beta   90.00000000
_cell_angle_gamma   93.55879045
_symmetry_Int_Tables_number   1
_chemical_formula_structural   HoLuPa2(Ni2Sn)2
_chemical_formula_sum   'Ho1 Lu1 Pa2 Ni4 Sn2'
_cell_volume   194.59868040
_cell_formula_units_Z   1
loop_
 _symmetry_equiv_pos_site_id
 _symmetry_equiv_pos_as_xyz
  1  'x, y, z'
loop_
 _atom_site_type_symbol
 _atom_site_label
 _atom_site_symmetry_multiplicity
 _atom_site_fract_x
 _atom_site_fract_y
 _atom_site_fract_z
 _atom_site_occupancy
  Ho  Ho0  1  0.827040  0.672960  0.500000  1
  Lu  Lu1  1  0.173010  0.326990  0.500000  1
  Pa  Pa2  1  0.674737  0.175533  0.500000  1
  Pa  Pa3  1  0.324467  0.825263  0.500000  1
  Ni  Ni4  1  0.872321  0.366741  0.000000  1
  Ni  Ni5  1  0.133259  0.627679  0.000000  1
  Ni  Ni6  1  0.380494  0.119506  0.000000  1
  Ni  Ni7  1  0.616160  0.883840  0.000000  1
  Sn  Sn8  1  0.497903  0.499392  0.000000  1
  Sn  Sn9  1  0.000608  0.002097  0.000000  1
