# generated using pymatgen
data_Li3Er4Si8Pd
_symmetry_space_group_name_H-M   'P 1'
_cell_length_a   3.79462000
_cell_length_b   7.47314555
_cell_length_c   10.04643864
_cell_angle_alpha   90.03067906
_cell_angle_beta   90.00000000
_cell_angle_gamma   90.00000000
_symmetry_Int_Tables_number   1
_chemical_formula_structural   Li3Er4Si8Pd
_chemical_formula_sum   'Li3 Er4 Si8 Pd1'
_cell_volume   284.89433007
_cell_formula_units_Z   1
loop_
 _symmetry_equiv_pos_site_id
 _symmetry_equiv_pos_as_xyz
  1  'x, y, z'
loop_
 _atom_site_type_symbol
 _atom_site_label
 _atom_site_symmetry_multiplicity
 _atom_site_fract_x
 _atom_site_fract_y
 _atom_site_fract_z
 _atom_site_occupancy
  Li  Li0  1  0.750000  0.007208  0.606982  1
  Li  Li1  1  0.250000  0.491222  0.109795  1
  Li  Li2  1  0.750000  0.505636  0.890233  1
  Er  Er3  1  0.250000  0.136976  0.864891  1
  Er  Er4  1  0.750000  0.862953  0.135250  1
  Er  Er5  1  0.250000  0.640695  0.632798  1
  Er  Er6  1  0.750000  0.366651  0.364751  1
  Si  Si7  1  0.750000  0.266449  0.069505  1
  Si  Si8  1  0.250000  0.729644  0.931363  1
  Si  Si9  1  0.750000  0.770800  0.435719  1
  Si  Si10  1  0.250000  0.227803  0.564555  1
  Si  Si11  1  0.750000  0.843980  0.819951  1
  Si  Si12  1  0.250000  0.155616  0.183738  1
  Si  Si13  1  0.750000  0.340674  0.677512  1
  Si  Si14  1  0.250000  0.659533  0.320365  1
  Pd  Pd15  1  0.250000  0.994160  0.392593  1
