# generated using pymatgen
data_HoEr3(Si2Rh)2
_symmetry_space_group_name_H-M   'P 1'
_cell_length_a   5.65323894
_cell_length_b   5.65323933
_cell_length_c   10.00903401
_cell_angle_alpha   63.74404414
_cell_angle_beta   63.74404214
_cell_angle_gamma   43.43400626
_symmetry_Int_Tables_number   1
_chemical_formula_structural   HoEr3(Si2Rh)2
_chemical_formula_sum   'Ho1 Er3 Si4 Rh2'
_cell_volume   193.38914191
_cell_formula_units_Z   1
loop_
 _symmetry_equiv_pos_site_id
 _symmetry_equiv_pos_as_xyz
  1  'x, y, z'
loop_
 _atom_site_type_symbol
 _atom_site_label
 _atom_site_symmetry_multiplicity
 _atom_site_fract_x
 _atom_site_fract_y
 _atom_site_fract_z
 _atom_site_occupancy
  Ho  Ho0  1  0.814574  0.814574  0.109770  1
  Er  Er1  1  0.000211  0.000211  0.326137  1
  Er  Er2  1  0.185432  0.185432  0.889399  1
  Er  Er3  1  0.999402  0.999402  0.674115  1
  Si  Si4  1  0.361791  0.361791  0.565231  1
  Si  Si5  1  0.487929  0.487929  0.879712  1
  Si  Si6  1  0.638099  0.638099  0.435240  1
  Si  Si7  1  0.512685  0.512685  0.119737  1
  Rh  Rh8  1  0.725470  0.725470  0.629833  1
  Rh  Rh9  1  0.274406  0.274406  0.370825  1
