# generated using pymatgen
data_La3Tb2In3Br
_symmetry_space_group_name_H-M   'P 1'
_cell_length_a   9.63431000
_cell_length_b   9.63430982
_cell_length_c   6.83547600
_cell_angle_alpha   90.00000000
_cell_angle_beta   90.00000000
_cell_angle_gamma   120.00000062
_symmetry_Int_Tables_number   1
_chemical_formula_structural   La3Tb2In3Br
_chemical_formula_sum   'La6 Tb4 In6 Br2'
_cell_volume   549.46573705
_cell_formula_units_Z   2
loop_
 _symmetry_equiv_pos_site_id
 _symmetry_equiv_pos_as_xyz
  1  'x, y, z'
loop_
 _atom_site_type_symbol
 _atom_site_label
 _atom_site_symmetry_multiplicity
 _atom_site_fract_x
 _atom_site_fract_y
 _atom_site_fract_z
 _atom_site_occupancy
  La  La0  1  0.732193  0.732193  0.250000  1
  La  La1  1  0.000000  0.732193  0.750000  1
  La  La2  1  0.732193  0.000000  0.750000  1
  La  La3  1  0.267807  0.267807  0.750000  1
  La  La4  1  0.000000  0.267807  0.250000  1
  La  La5  1  0.267807  0.000000  0.250000  1
  Tb  Tb6  1  0.333333  0.666667  0.500000  1
  Tb  Tb7  1  0.666667  0.333333  0.500000  1
  Tb  Tb8  1  0.333333  0.666667  0.000000  1
  Tb  Tb9  1  0.666667  0.333333  0.000000  1
  In  In10  1  0.394448  0.000000  0.750000  1
  In  In11  1  0.000000  0.605552  0.250000  1
  In  In12  1  0.605552  0.000000  0.250000  1
  In  In13  1  0.000000  0.394448  0.750000  1
  In  In14  1  0.394448  0.394448  0.250000  1
  In  In15  1  0.605552  0.605552  0.750000  1
  Br  Br16  1  0.000000  0.000000  0.500000  1
  Br  Br17  1  0.000000  0.000000  0.000000  1
