# generated using pymatgen
data_Sm3Dy3U4O20
_symmetry_space_group_name_H-M   'P 1'
_cell_length_a   6.68364135
_cell_length_b   7.56822106
_cell_length_c   8.48379469
_cell_angle_alpha   101.09313713
_cell_angle_beta   97.71581796
_cell_angle_gamma   107.18485561
_symmetry_Int_Tables_number   1
_chemical_formula_structural   Sm3Dy3U4O20
_chemical_formula_sum   'Sm3 Dy3 U4 O20'
_cell_volume   393.87220694
_cell_formula_units_Z   1
loop_
 _symmetry_equiv_pos_site_id
 _symmetry_equiv_pos_as_xyz
  1  'x, y, z'
loop_
 _atom_site_type_symbol
 _atom_site_label
 _atom_site_symmetry_multiplicity
 _atom_site_fract_x
 _atom_site_fract_y
 _atom_site_fract_z
 _atom_site_occupancy
  Sm  Sm0  1  0.198353  0.896995  0.892471  1
  Sm  Sm1  1  0.000000  0.500000  0.500000  1
  Sm  Sm2  1  0.801647  0.103005  0.107529  1
  Dy  Dy3  1  0.613732  0.703358  0.698144  1
  Dy  Dy4  1  0.386268  0.296642  0.301856  1
  Dy  Dy5  1  0.000000  0.000000  0.500000  1
  U  U6  1  0.401900  0.804098  0.303266  1
  U  U7  1  0.200414  0.401025  0.900318  1
  U  U8  1  0.799586  0.598975  0.099682  1
  U  U9  1  0.598100  0.195902  0.696734  1
  O  O10  1  0.440270  0.531887  0.137143  1
  O  O11  1  0.557122  0.987303  0.837083  1
  O  O12  1  0.269718  0.146879  0.743533  1
  O  O13  1  0.364143  0.595213  0.441744  1
  O  O14  1  0.056183  0.731650  0.331748  1
  O  O15  1  0.442878  0.012697  0.162917  1
  O  O16  1  0.153223  0.188094  0.033247  1
  O  O17  1  0.559730  0.468113  0.862857  1
  O  O18  1  0.853704  0.339200  0.948894  1
  O  O19  1  0.259466  0.605284  0.760261  1
  O  O20  1  0.948279  0.774418  0.650429  1
  O  O21  1  0.355070  0.062538  0.454523  1
  O  O22  1  0.644930  0.937462  0.545477  1
  O  O23  1  0.051721  0.225582  0.349571  1
  O  O24  1  0.740534  0.394716  0.239739  1
  O  O25  1  0.146296  0.660800  0.051106  1
  O  O26  1  0.846777  0.811906  0.966753  1
  O  O27  1  0.943817  0.268350  0.668252  1
  O  O28  1  0.635857  0.404787  0.558256  1
  O  O29  1  0.730282  0.853121  0.256467  1
