# generated using pymatgen
data_HoTa3Pd9PtRh2
_symmetry_space_group_name_H-M   'P 1'
_cell_length_a   5.64688463
_cell_length_b   5.64688442
_cell_length_c   9.18867400
_cell_angle_alpha   90.00000000
_cell_angle_beta   90.00000000
_cell_angle_gamma   119.69022860
_symmetry_Int_Tables_number   1
_chemical_formula_structural   HoTa3Pd9PtRh2
_chemical_formula_sum   'Ho1 Ta3 Pd9 Pt1 Rh2'
_cell_volume   254.53556767
_cell_formula_units_Z   1
loop_
 _symmetry_equiv_pos_site_id
 _symmetry_equiv_pos_as_xyz
  1  'x, y, z'
loop_
 _atom_site_type_symbol
 _atom_site_label
 _atom_site_symmetry_multiplicity
 _atom_site_fract_x
 _atom_site_fract_y
 _atom_site_fract_z
 _atom_site_occupancy
  Ho  Ho0  1  0.333310  0.666690  0.000000  1
  Ta  Ta1  1  0.667535  0.332465  0.500000  1
  Ta  Ta2  1  0.997484  0.002516  0.740070  1
  Ta  Ta3  1  0.997484  0.002516  0.259930  1
  Pd  Pd4  1  0.832404  0.167596  0.000000  1
  Pd  Pd5  1  0.832496  0.666102  0.000000  1
  Pd  Pd6  1  0.333898  0.167504  0.000000  1
  Pd  Pd7  1  0.994165  0.496118  0.743490  1
  Pd  Pd8  1  0.502700  0.497300  0.742720  1
  Pd  Pd9  1  0.503882  0.005835  0.743490  1
  Pd  Pd10  1  0.994165  0.496118  0.256510  1
  Pd  Pd11  1  0.502700  0.497300  0.257280  1
  Pd  Pd12  1  0.503882  0.005835  0.256510  1
  Pt  Pt13  1  0.167995  0.832005  0.500000  1
  Rh  Rh14  1  0.167659  0.331762  0.500000  1
  Rh  Rh15  1  0.668238  0.832341  0.500000  1
