# generated using pymatgen
data_Sr4TbHo3(BO4)4
_symmetry_space_group_name_H-M   'P 1'
_cell_length_a   3.66696000
_cell_length_b   9.73563759
_cell_length_c   10.97311079
_cell_angle_alpha   89.93452290
_cell_angle_beta   90.00000000
_cell_angle_gamma   90.00000000
_symmetry_Int_Tables_number   1
_chemical_formula_structural   Sr4TbHo3(BO4)4
_chemical_formula_sum   'Sr4 Tb1 Ho3 B4 O16'
_cell_volume   391.74192400
_cell_formula_units_Z   1
loop_
 _symmetry_equiv_pos_site_id
 _symmetry_equiv_pos_as_xyz
  1  'x, y, z'
loop_
 _atom_site_type_symbol
 _atom_site_label
 _atom_site_symmetry_multiplicity
 _atom_site_fract_x
 _atom_site_fract_y
 _atom_site_fract_z
 _atom_site_occupancy
  Sr  Sr0  1  0.250000  0.658377  0.084033  1
  Sr  Sr1  1  0.750000  0.341993  0.915435  1
  Sr  Sr2  1  0.750000  0.158643  0.416523  1
  Sr  Sr3  1  0.250000  0.841363  0.584063  1
  Tb  Tb4  1  0.250000  0.081641  0.110034  1
  Ho  Ho5  1  0.750000  0.918604  0.889337  1
  Ho  Ho6  1  0.750000  0.581054  0.390177  1
  Ho  Ho7  1  0.250000  0.419176  0.609899  1
  B  B8  1  0.250000  0.363608  0.205239  1
  B  B9  1  0.750000  0.636799  0.795401  1
  B  B10  1  0.750000  0.862712  0.295945  1
  B  B11  1  0.250000  0.136960  0.704538  1
  O  O12  1  0.250000  0.489783  0.264158  1
  O  O13  1  0.750000  0.511030  0.735561  1
  O  O14  1  0.750000  0.988819  0.236570  1
  O  O15  1  0.250000  0.010932  0.764054  1
  O  O16  1  0.250000  0.240728  0.270726  1
  O  O17  1  0.750000  0.760453  0.730910  1
  O  O18  1  0.750000  0.739432  0.231218  1
  O  O19  1  0.250000  0.260626  0.768847  1
  O  O20  1  0.250000  0.357954  0.077526  1
  O  O21  1  0.750000  0.641014  0.922960  1
  O  O22  1  0.750000  0.857791  0.423457  1
  O  O23  1  0.250000  0.141753  0.576957  1
  O  O24  1  0.250000  0.612697  0.500035  1
  O  O25  1  0.750000  0.387432  0.500115  1
  O  O26  1  0.750000  0.112716  0.997392  1
  O  O27  1  0.250000  0.885912  0.998891  1
