# generated using pymatgen
data_Y20Ir5Ru4Pt3
_symmetry_space_group_name_H-M   'P 1'
_cell_length_a   10.90764894
_cell_length_b   10.90764894
_cell_length_c   6.48753216
_cell_angle_alpha   90.01772801
_cell_angle_beta   90.01772801
_cell_angle_gamma   90.09572580
_symmetry_Int_Tables_number   1
_chemical_formula_structural   Y20Ir5Ru4Pt3
_chemical_formula_sum   'Y20 Ir5 Ru4 Pt3'
_cell_volume   771.86469900
_cell_formula_units_Z   1
loop_
 _symmetry_equiv_pos_site_id
 _symmetry_equiv_pos_as_xyz
  1  'x, y, z'
loop_
 _atom_site_type_symbol
 _atom_site_label
 _atom_site_symmetry_multiplicity
 _atom_site_fract_x
 _atom_site_fract_y
 _atom_site_fract_z
 _atom_site_occupancy
  Y  Y0  1  0.295493  0.085816  0.374495  1
  Y  Y1  1  0.294602  0.910742  0.879111  1
  Y  Y2  1  0.703588  0.088112  0.875928  1
  Y  Y3  1  0.703016  0.911600  0.375563  1
  Y  Y4  1  0.584361  0.793059  0.879093  1
  Y  Y5  1  0.584314  0.206896  0.379017  1
  Y  Y6  1  0.412745  0.793127  0.378786  1
  Y  Y7  1  0.415376  0.206975  0.879130  1
  Y  Y8  1  0.206941  0.415639  0.620907  1
  Y  Y9  1  0.206873  0.587255  0.121214  1
  Y  Y10  1  0.793104  0.415686  0.120983  1
  Y  Y11  1  0.793025  0.584624  0.620870  1
  Y  Y12  1  0.914184  0.704507  0.125505  1
  Y  Y13  1  0.911888  0.296412  0.624072  1
  Y  Y14  1  0.089258  0.705398  0.620889  1
  Y  Y15  1  0.088400  0.296984  0.124437  1
  Y  Y16  1  0.001494  0.998245  0.498687  1
  Y  Y17  1  0.001755  0.998506  0.001313  1
  Y  Y18  1  0.499874  0.500151  0.000340  1
  Y  Y19  1  0.499849  0.500126  0.499660  1
  Ir  Ir20  1  0.151294  0.848706  0.250000  1
  Ir  Ir21  1  0.653455  0.346545  0.750000  1
  Ir  Ir22  1  0.653499  0.653506  0.250016  1
  Ir  Ir23  1  0.346494  0.346501  0.249984  1
  Ir  Ir24  1  0.347238  0.652762  0.750000  1
  Ru  Ru25  1  0.500403  0.000060  0.124844  1
  Ru  Ru26  1  0.500473  0.000130  0.625528  1
  Ru  Ru27  1  0.999870  0.499527  0.874472  1
  Ru  Ru28  1  0.999940  0.499597  0.375156  1
  Pt  Pt29  1  0.847632  0.152368  0.250000  1
  Pt  Pt30  1  0.847035  0.847471  0.750029  1
  Pt  Pt31  1  0.152529  0.152965  0.749971  1
