# generated using pymatgen
data_Sm3Hg3Pd2
_symmetry_space_group_name_H-M   'P 1'
_cell_length_a   7.67757400
_cell_length_b   7.67757339
_cell_length_c   3.83143900
_cell_angle_alpha   90.00000000
_cell_angle_beta   90.00000000
_cell_angle_gamma   119.99999400
_symmetry_Int_Tables_number   1
_chemical_formula_structural   Sm3Hg3Pd2
_chemical_formula_sum   'Sm3 Hg3 Pd2'
_cell_volume   195.58725941
_cell_formula_units_Z   1
loop_
 _symmetry_equiv_pos_site_id
 _symmetry_equiv_pos_as_xyz
  1  'x, y, z'
loop_
 _atom_site_type_symbol
 _atom_site_label
 _atom_site_symmetry_multiplicity
 _atom_site_fract_x
 _atom_site_fract_y
 _atom_site_fract_z
 _atom_site_occupancy
  Sm  Sm0  1  0.586254  0.000000  0.500000  1
  Sm  Sm1  1  0.413745  0.413745  0.500000  1
  Sm  Sm2  1  0.000000  0.586255  0.500000  1
  Hg  Hg3  1  0.235713  0.000000  0.000000  1
  Hg  Hg4  1  0.000000  0.235713  0.000000  1
  Hg  Hg5  1  0.764287  0.764287  0.000000  1
  Pd  Pd6  1  0.666666  0.333333  0.000000  1
  Pd  Pd7  1  0.333334  0.666667  0.000000  1
