# generated using pymatgen
data_Dy7YEr2(SiB4)4
_symmetry_space_group_name_H-M   'P 1'
_cell_length_a   7.22071702
_cell_length_b   7.22071702
_cell_length_c   8.06494900
_cell_angle_alpha   89.99775794
_cell_angle_beta   90.00224206
_cell_angle_gamma   89.99277925
_symmetry_Int_Tables_number   1
_chemical_formula_structural   Dy7YEr2(SiB4)4
_chemical_formula_sum   'Dy7 Y1 Er2 Si4 B16'
_cell_volume   420.49638989
_cell_formula_units_Z   1
loop_
 _symmetry_equiv_pos_site_id
 _symmetry_equiv_pos_as_xyz
  1  'x, y, z'
loop_
 _atom_site_type_symbol
 _atom_site_label
 _atom_site_symmetry_multiplicity
 _atom_site_fract_x
 _atom_site_fract_y
 _atom_site_fract_z
 _atom_site_occupancy
  Dy  Dy0  1  0.680201  0.180131  0.224760  1
  Dy  Dy1  1  0.319815  0.819852  0.775253  1
  Dy  Dy2  1  0.319869  0.819799  0.224760  1
  Dy  Dy3  1  0.819635  0.680365  0.224743  1
  Dy  Dy4  1  0.819735  0.680265  0.775297  1
  Dy  Dy5  1  0.680148  0.180185  0.775253  1
  Dy  Dy6  1  0.180244  0.319756  0.775337  1
  Y  Y7  1  0.180249  0.319751  0.225002  1
  Er  Er8  1  0.999942  0.999911  0.500004  1
  Er  Er9  1  0.500089  0.500058  0.500004  1
  Si  Si10  1  0.115339  0.615464  0.500170  1
  Si  Si11  1  0.884536  0.384661  0.500170  1
  Si  Si12  1  0.384719  0.115281  0.500178  1
  Si  Si13  1  0.615344  0.884656  0.499984  1
  B  B14  1  0.172664  0.038946  0.999926  1
  B  B15  1  0.827306  0.960902  0.000031  1
  B  B16  1  0.960772  0.172579  0.999875  1
  B  B17  1  0.327421  0.539228  0.999875  1
  B  B18  1  0.039032  0.827321  0.000002  1
  B  B19  1  0.672679  0.460968  0.000002  1
  B  B20  1  0.539098  0.672694  0.000031  1
  B  B21  1  0.461054  0.327336  0.999926  1
  B  B22  1  0.089733  0.589867  0.999806  1
  B  B23  1  0.910133  0.410267  0.999806  1
  B  B24  1  0.410282  0.089718  0.999859  1
  B  B25  1  0.589845  0.910155  0.000003  1
  B  B26  1  0.999879  0.999782  0.163007  1
  B  B27  1  0.000039  0.000019  0.836965  1
  B  B28  1  0.499981  0.499961  0.836965  1
  B  B29  1  0.500218  0.500121  0.163007  1
