# generated using pymatgen
data_LaSc3Sb10
_symmetry_space_group_name_H-M   'P 1'
_cell_length_a   4.17981000
_cell_length_b   12.98764124
_cell_length_c   14.31668500
_cell_angle_alpha   78.20911872
_cell_angle_beta   90.00000000
_cell_angle_gamma   90.00000000
_symmetry_Int_Tables_number   1
_chemical_formula_structural   LaSc3Sb10
_chemical_formula_sum   'La2 Sc6 Sb20'
_cell_volume   760.79489150
_cell_formula_units_Z   2
loop_
 _symmetry_equiv_pos_site_id
 _symmetry_equiv_pos_as_xyz
  1  'x, y, z'
loop_
 _atom_site_type_symbol
 _atom_site_label
 _atom_site_symmetry_multiplicity
 _atom_site_fract_x
 _atom_site_fract_y
 _atom_site_fract_z
 _atom_site_occupancy
  La  La0  1  0.250000  0.954451  0.359353  1
  La  La1  1  0.750000  0.045549  0.640647  1
  Sc  Sc2  1  0.250000  0.400224  0.771592  1
  Sc  Sc3  1  0.750000  0.599776  0.228408  1
  Sc  Sc4  1  0.250000  0.655987  0.858146  1
  Sc  Sc5  1  0.750000  0.344013  0.141854  1
  Sc  Sc6  1  0.250000  0.660501  0.577098  1
  Sc  Sc7  1  0.750000  0.339499  0.422902  1
  Sb  Sb8  1  0.250000  0.152213  0.783570  1
  Sb  Sb9  1  0.750000  0.847787  0.216430  1
  Sb  Sb10  1  0.250000  0.164223  0.476656  1
  Sb  Sb11  1  0.750000  0.835777  0.523344  1
  Sb  Sb12  1  0.250000  0.165885  0.162455  1
  Sb  Sb13  1  0.750000  0.834115  0.837545  1
  Sb  Sb14  1  0.250000  0.422057  0.974293  1
  Sb  Sb15  1  0.750000  0.577943  0.025707  1
  Sb  Sb16  1  0.750000  0.026688  0.911722  1
  Sb  Sb17  1  0.250000  0.973312  0.088278  1
  Sb  Sb18  1  0.750000  0.156419  0.317572  1
  Sb  Sb19  1  0.250000  0.843581  0.682428  1
  Sb  Sb20  1  0.750000  0.279918  0.935104  1
  Sb  Sb21  1  0.250000  0.720082  0.064896  1
  Sb  Sb22  1  0.750000  0.293328  0.658132  1
  Sb  Sb23  1  0.250000  0.706672  0.341868  1
  Sb  Sb24  1  0.750000  0.575569  0.736565  1
  Sb  Sb25  1  0.250000  0.424431  0.263435  1
  Sb  Sb26  1  0.750000  0.568886  0.444944  1
  Sb  Sb27  1  0.250000  0.431114  0.555056  1
