# generated using pymatgen
data_Tm(Si2Ir3)2
_symmetry_space_group_name_H-M   'P 1'
_cell_length_a   7.02907900
_cell_length_b   7.02907927
_cell_length_c   3.82738300
_cell_angle_alpha   90.00000000
_cell_angle_beta   90.00000000
_cell_angle_gamma   120.00000344
_symmetry_Int_Tables_number   1
_chemical_formula_structural   Tm(Si2Ir3)2
_chemical_formula_sum   'Tm1 Si4 Ir6'
_cell_volume   163.76813584
_cell_formula_units_Z   1
loop_
 _symmetry_equiv_pos_site_id
 _symmetry_equiv_pos_as_xyz
  1  'x, y, z'
loop_
 _atom_site_type_symbol
 _atom_site_label
 _atom_site_symmetry_multiplicity
 _atom_site_fract_x
 _atom_site_fract_y
 _atom_site_fract_z
 _atom_site_occupancy
  Tm  Tm0  1  0.000000  0.000000  0.000000  1
  Si  Si1  1  0.333333  0.666667  0.000000  1
  Si  Si2  1  0.393285  0.196643  0.500000  1
  Si  Si3  1  0.803357  0.196643  0.500000  1
  Si  Si4  1  0.803356  0.606715  0.500000  1
  Ir  Ir5  1  0.532949  0.065899  0.000000  1
  Ir  Ir6  1  0.532951  0.467050  0.000000  1
  Ir  Ir7  1  0.934100  0.467050  0.000000  1
  Ir  Ir8  1  0.196624  0.393249  0.500000  1
  Ir  Ir9  1  0.196625  0.803376  0.500000  1
  Ir  Ir10  1  0.606751  0.803376  0.500000  1
