# generated using pymatgen
data_CaYGa3Ru
_symmetry_space_group_name_H-M   'P 1'
_cell_length_a   5.51373700
_cell_length_b   5.51373698
_cell_length_c   8.73767700
_cell_angle_alpha   90.00000000
_cell_angle_beta   90.00000000
_cell_angle_gamma   120.00000612
_symmetry_Int_Tables_number   1
_chemical_formula_structural   CaYGa3Ru
_chemical_formula_sum   'Ca2 Y2 Ga6 Ru2'
_cell_volume   230.04811731
_cell_formula_units_Z   2
loop_
 _symmetry_equiv_pos_site_id
 _symmetry_equiv_pos_as_xyz
  1  'x, y, z'
loop_
 _atom_site_type_symbol
 _atom_site_label
 _atom_site_symmetry_multiplicity
 _atom_site_fract_x
 _atom_site_fract_y
 _atom_site_fract_z
 _atom_site_occupancy
  Ca  Ca0  1  0.666667  0.333334  0.054637  1
  Ca  Ca1  1  0.666667  0.333334  0.445363  1
  Y  Y2  1  0.333334  0.666668  0.550357  1
  Y  Y3  1  0.333334  0.666668  0.949644  1
  Ga  Ga4  1  0.162651  0.325302  0.250000  1
  Ga  Ga5  1  0.162651  0.837349  0.250000  1
  Ga  Ga6  1  0.674699  0.837349  0.250000  1
  Ga  Ga7  1  0.325126  0.162562  0.750000  1
  Ga  Ga8  1  0.837437  0.162562  0.750000  1
  Ga  Ga9  1  0.837437  0.674872  0.750000  1
  Ru  Ru10  1  0.000000  0.000000  0.001819  1
  Ru  Ru11  1  0.000000  0.000000  0.498181  1
