# generated using pymatgen
data_Cs3TcO4
_symmetry_space_group_name_H-M   'P 1'
_cell_length_a   6.91118500
_cell_length_b   9.28692800
_cell_length_c   12.84977300
_cell_angle_alpha   90.00000000
_cell_angle_beta   90.00000000
_cell_angle_gamma   90.00000000
_symmetry_Int_Tables_number   1
_chemical_formula_structural   Cs3TcO4
_chemical_formula_sum   'Cs12 Tc4 O16'
_cell_volume   824.74568605
_cell_formula_units_Z   4
loop_
 _symmetry_equiv_pos_site_id
 _symmetry_equiv_pos_as_xyz
  1  'x, y, z'
loop_
 _atom_site_type_symbol
 _atom_site_label
 _atom_site_symmetry_multiplicity
 _atom_site_fract_x
 _atom_site_fract_y
 _atom_site_fract_z
 _atom_site_occupancy
  Cs  Cs0  1  0.702023  0.007771  0.144647  1
  Cs  Cs1  1  0.797977  0.492229  0.644647  1
  Cs  Cs2  1  0.297977  0.507771  0.855353  1
  Cs  Cs3  1  0.202023  0.992229  0.355353  1
  Cs  Cs4  1  0.297977  0.992229  0.855353  1
  Cs  Cs5  1  0.202023  0.507771  0.355353  1
  Cs  Cs6  1  0.702023  0.492229  0.144647  1
  Cs  Cs7  1  0.797977  0.007771  0.644647  1
  Cs  Cs8  1  0.154674  0.250000  0.079745  1
  Cs  Cs9  1  0.345326  0.250000  0.579745  1
  Cs  Cs10  1  0.845326  0.750000  0.920255  1
  Cs  Cs11  1  0.654674  0.750000  0.420255  1
  Tc  Tc12  1  0.274123  0.750000  0.113041  1
  Tc  Tc13  1  0.225877  0.750000  0.613041  1
  Tc  Tc14  1  0.725877  0.250000  0.886959  1
  Tc  Tc15  1  0.774123  0.250000  0.386959  1
  O  O16  1  0.429291  0.750000  0.232245  1
  O  O17  1  0.070709  0.750000  0.732245  1
  O  O18  1  0.570709  0.250000  0.767755  1
  O  O19  1  0.929291  0.250000  0.267755  1
  O  O20  1  0.446014  0.750000  0.001019  1
  O  O21  1  0.053986  0.750000  0.501019  1
  O  O22  1  0.553986  0.250000  0.998981  1
  O  O23  1  0.946014  0.250000  0.498981  1
  O  O24  1  0.125781  0.584610  0.112365  1
  O  O25  1  0.374219  0.915390  0.612365  1
  O  O26  1  0.874219  0.084610  0.887635  1
  O  O27  1  0.625781  0.415390  0.387635  1
  O  O28  1  0.874219  0.415390  0.887635  1
  O  O29  1  0.625781  0.084610  0.387635  1
  O  O30  1  0.125781  0.915390  0.112365  1
  O  O31  1  0.374219  0.584610  0.612365  1
