# generated using pymatgen
data_Tb5SnBi2C
_symmetry_space_group_name_H-M   'P 1'
_cell_length_a   9.09283699
_cell_length_b   9.09283779
_cell_length_c   6.56062700
_cell_angle_alpha   90.00000000
_cell_angle_beta   90.00000000
_cell_angle_gamma   119.82187765
_symmetry_Int_Tables_number   1
_chemical_formula_structural   Tb5SnBi2C
_chemical_formula_sum   'Tb10 Sn2 Bi4 C2'
_cell_volume   470.59958340
_cell_formula_units_Z   2
loop_
 _symmetry_equiv_pos_site_id
 _symmetry_equiv_pos_as_xyz
  1  'x, y, z'
loop_
 _atom_site_type_symbol
 _atom_site_label
 _atom_site_symmetry_multiplicity
 _atom_site_fract_x
 _atom_site_fract_y
 _atom_site_fract_z
 _atom_site_occupancy
  Tb  Tb0  1  0.667571  0.329800  0.004264  1
  Tb  Tb1  1  0.329800  0.667571  0.004264  1
  Tb  Tb2  1  0.329800  0.667571  0.495736  1
  Tb  Tb3  1  0.667571  0.329800  0.495736  1
  Tb  Tb4  1  0.792040  0.792040  0.750000  1
  Tb  Tb5  1  0.210437  0.999920  0.750000  1
  Tb  Tb6  1  0.999920  0.210437  0.750000  1
  Tb  Tb7  1  0.208884  0.208884  0.250000  1
  Tb  Tb8  1  0.791789  0.004729  0.250000  1
  Tb  Tb9  1  0.004729  0.791789  0.250000  1
  Sn  Sn10  1  0.403873  0.000243  0.250000  1
  Sn  Sn11  1  0.000243  0.403873  0.250000  1
  Bi  Bi12  1  0.402800  0.402800  0.750000  1
  Bi  Bi13  1  0.595282  0.998666  0.750000  1
  Bi  Bi14  1  0.998666  0.595282  0.750000  1
  Bi  Bi15  1  0.598629  0.598629  0.250000  1
  C  C16  1  0.998983  0.998983  0.998700  1
  C  C17  1  0.998983  0.998983  0.501300  1
