# generated using pymatgen
data_Na2AgAs2O7
_symmetry_space_group_name_H-M   'P 1'
_cell_length_a   8.39495507
_cell_length_b   8.39495596
_cell_length_c   8.59524205
_cell_angle_alpha   66.87768835
_cell_angle_beta   66.87768714
_cell_angle_gamma   43.55529388
_symmetry_Int_Tables_number   1
_chemical_formula_structural   Na2AgAs2O7
_chemical_formula_sum   'Na4 Ag2 As4 O14'
_cell_volume   378.23918573
_cell_formula_units_Z   2
loop_
 _symmetry_equiv_pos_site_id
 _symmetry_equiv_pos_as_xyz
  1  'x, y, z'
loop_
 _atom_site_type_symbol
 _atom_site_label
 _atom_site_symmetry_multiplicity
 _atom_site_fract_x
 _atom_site_fract_y
 _atom_site_fract_z
 _atom_site_occupancy
  Na  Na0  1  0.913225  0.631745  0.301401  1
  Na  Na1  1  0.368255  0.086775  0.198599  1
  Na  Na2  1  0.086775  0.368255  0.698599  1
  Na  Na3  1  0.631745  0.913225  0.801401  1
  Ag  Ag4  1  0.000000  0.000000  0.500000  1
  Ag  Ag5  1  0.000000  0.000000  0.000000  1
  As  As6  1  0.460153  0.760605  0.649592  1
  As  As7  1  0.239395  0.539847  0.850408  1
  As  As8  1  0.539847  0.239395  0.350408  1
  As  As9  1  0.760605  0.460153  0.149592  1
  O  O10  1  0.493245  0.506755  0.750000  1
  O  O11  1  0.506755  0.493245  0.250000  1
  O  O12  1  0.287802  0.950358  0.794713  1
  O  O13  1  0.049642  0.712198  0.705287  1
  O  O14  1  0.712198  0.049642  0.205287  1
  O  O15  1  0.950358  0.287802  0.294713  1
  O  O16  1  0.729015  0.667427  0.593100  1
  O  O17  1  0.332573  0.270985  0.906900  1
  O  O18  1  0.270985  0.332573  0.406900  1
  O  O19  1  0.667427  0.729015  0.093100  1
  O  O20  1  0.880649  0.334743  0.972837  1
  O  O21  1  0.665257  0.119351  0.527163  1
  O  O22  1  0.119351  0.665257  0.027163  1
  O  O23  1  0.334743  0.880649  0.472837  1
