# generated using pymatgen
data_Be4SiOs
_symmetry_space_group_name_H-M   'P 1'
_cell_length_a   4.26375016
_cell_length_b   4.26374987
_cell_length_c   4.26374900
_cell_angle_alpha   59.99999900
_cell_angle_beta   60.00000124
_cell_angle_gamma   59.99999411
_symmetry_Int_Tables_number   1
_chemical_formula_structural   Be4SiOs
_chemical_formula_sum   'Be4 Si1 Os1'
_cell_volume   54.81003536
_cell_formula_units_Z   1
loop_
 _symmetry_equiv_pos_site_id
 _symmetry_equiv_pos_as_xyz
  1  'x, y, z'
loop_
 _atom_site_type_symbol
 _atom_site_label
 _atom_site_symmetry_multiplicity
 _atom_site_fract_x
 _atom_site_fract_y
 _atom_site_fract_z
 _atom_site_occupancy
  Be  Be0  1  0.625146  0.625146  0.124563  1
  Be  Be1  1  0.625146  0.124563  0.625146  1
  Be  Be2  1  0.124563  0.625146  0.625146  1
  Be  Be3  1  0.625146  0.625146  0.625146  1
  Si  Si4  1  0.000000  0.000000  0.000000  1
  Os  Os5  1  0.250000  0.250000  0.250000  1
