# generated using pymatgen
data_Dy3Ho2Lu3(CdIr)2
_symmetry_space_group_name_H-M   'P 1'
_cell_length_a   9.54746227
_cell_length_b   9.54749316
_cell_length_c   9.55666800
_cell_angle_alpha   59.96820632
_cell_angle_beta   59.96809918
_cell_angle_gamma   59.93353630
_symmetry_Int_Tables_number   1
_chemical_formula_structural   Dy3Ho2Lu3(CdIr)2
_chemical_formula_sum   'Dy6 Ho4 Lu6 Cd4 Ir4'
_cell_volume   615.37687568
_cell_formula_units_Z   2
loop_
 _symmetry_equiv_pos_site_id
 _symmetry_equiv_pos_as_xyz
  1  'x, y, z'
loop_
 _atom_site_type_symbol
 _atom_site_label
 _atom_site_symmetry_multiplicity
 _atom_site_fract_x
 _atom_site_fract_y
 _atom_site_fract_z
 _atom_site_occupancy
  Dy  Dy0  1  0.188913  0.811214  0.811365  1
  Dy  Dy1  1  0.811209  0.188908  0.188517  1
  Dy  Dy2  1  0.811209  0.188908  0.811366  1
  Dy  Dy3  1  0.188913  0.811214  0.188508  1
  Dy  Dy4  1  0.811402  0.811418  0.188590  1
  Dy  Dy5  1  0.188717  0.188727  0.811278  1
  Ho  Ho6  1  0.599874  0.599887  0.599082  1
  Ho  Ho7  1  0.599874  0.599887  0.201158  1
  Ho  Ho8  1  0.600069  0.201230  0.599350  1
  Ho  Ho9  1  0.201249  0.600084  0.599334  1
  Lu  Lu10  1  0.062522  0.436589  0.437885  1
  Lu  Lu11  1  0.436590  0.062518  0.062990  1
  Lu  Lu12  1  0.436590  0.062518  0.437903  1
  Lu  Lu13  1  0.062522  0.436589  0.063003  1
  Lu  Lu14  1  0.437232  0.437233  0.062768  1
  Lu  Lu15  1  0.062794  0.062809  0.437198  1
  Cd  Cd16  1  0.830098  0.830098  0.830536  1
  Cd  Cd17  1  0.830098  0.830098  0.509267  1
  Cd  Cd18  1  0.830320  0.508229  0.830726  1
  Cd  Cd19  1  0.508234  0.830324  0.830722  1
  Ir  Ir20  1  0.391248  0.391226  0.390275  1
  Ir  Ir21  1  0.391248  0.391226  0.827250  1
  Ir  Ir22  1  0.391412  0.827669  0.390460  1
  Ir  Ir23  1  0.827661  0.391398  0.390471  1
