# generated using pymatgen
data_La4Ga9GePt6
_symmetry_space_group_name_H-M   'P 1'
_cell_length_a   8.71143741
_cell_length_b   8.71143762
_cell_length_c   8.71143700
_cell_angle_alpha   138.80149236
_cell_angle_beta   106.76323089
_cell_angle_gamma   87.65884501
_symmetry_Int_Tables_number   1
_chemical_formula_structural   La4Ga9GePt6
_chemical_formula_sum   'La4 Ga9 Ge1 Pt6'
_cell_volume   400.34856745
_cell_formula_units_Z   1
loop_
 _symmetry_equiv_pos_site_id
 _symmetry_equiv_pos_as_xyz
  1  'x, y, z'
loop_
 _atom_site_type_symbol
 _atom_site_label
 _atom_site_symmetry_multiplicity
 _atom_site_fract_x
 _atom_site_fract_y
 _atom_site_fract_z
 _atom_site_occupancy
  La  La0  1  0.098633  0.864983  0.227512  1
  La  La1  1  0.637471  0.371120  0.272488  1
  La  La2  1  0.901367  0.128880  0.766351  1
  La  La3  1  0.362529  0.635017  0.733649  1
  Ga  Ga4  1  0.277634  0.027634  0.750000  1
  Ga  Ga5  1  0.275664  0.525664  0.250000  1
  Ga  Ga6  1  0.000000  0.250000  0.250000  1
  Ga  Ga7  1  0.243569  0.393429  0.846727  1
  Ga  Ga8  1  0.756431  0.603157  0.149860  1
  Ga  Ga9  1  0.722366  0.472366  0.750000  1
  Ga  Ga10  1  0.546703  0.896843  0.653273  1
  Ga  Ga11  1  0.724336  0.974336  0.250000  1
  Ga  Ga12  1  0.453297  0.106571  0.350140  1
  Ge  Ge13  1  0.000000  0.750000  0.750000  1
  Pt  Pt14  1  0.028632  0.638603  0.390046  1
  Pt  Pt15  1  0.751443  0.861397  0.890028  1
  Pt  Pt16  1  0.971368  0.361415  0.609972  1
  Pt  Pt17  1  0.248557  0.138585  0.109954  1
  Pt  Pt18  1  0.500000  0.750000  0.250000  1
  Pt  Pt19  1  0.500000  0.250000  0.750000  1
