# generated using pymatgen
data_DyMg3Pa7Pt8Pb
_symmetry_space_group_name_H-M   'P 1'
_cell_length_a   7.80122171
_cell_length_b   7.82057027
_cell_length_c   7.35964100
_cell_angle_alpha   90.03216242
_cell_angle_beta   90.07514122
_cell_angle_gamma   90.34161384
_symmetry_Int_Tables_number   1
_chemical_formula_structural   DyMg3Pa7Pt8Pb
_chemical_formula_sum   'Dy1 Mg3 Pa7 Pt8 Pb1'
_cell_volume   449.00327667
_cell_formula_units_Z   1
loop_
 _symmetry_equiv_pos_site_id
 _symmetry_equiv_pos_as_xyz
  1  'x, y, z'
loop_
 _atom_site_type_symbol
 _atom_site_label
 _atom_site_symmetry_multiplicity
 _atom_site_fract_x
 _atom_site_fract_y
 _atom_site_fract_z
 _atom_site_occupancy
  Dy  Dy0  1  0.176224  0.829041  0.501247  1
  Mg  Mg1  1  0.497025  0.999760  0.748853  1
  Mg  Mg2  1  0.496933  0.998616  0.251248  1
  Mg  Mg3  1  0.000305  0.503105  0.746997  1
  Pa  Pa4  1  0.670558  0.674170  0.998992  1
  Pa  Pa5  1  0.331109  0.326899  0.500534  1
  Pa  Pa6  1  0.828981  0.166432  0.500824  1
  Pa  Pa7  1  0.666397  0.674065  0.501810  1
  Pa  Pa8  1  0.331261  0.325221  0.999048  1
  Pa  Pa9  1  0.828123  0.167124  0.998421  1
  Pa  Pa10  1  0.173403  0.830894  0.998472  1
  Pt  Pt11  1  0.860637  0.869663  0.751006  1
  Pt  Pt12  1  0.130703  0.140692  0.750933  1
  Pt  Pt13  1  0.636890  0.364436  0.749411  1
  Pt  Pt14  1  0.625722  0.357641  0.249904  1
  Pt  Pt15  1  0.381497  0.634038  0.243610  1
  Pt  Pt16  1  0.136120  0.127939  0.246538  1
  Pt  Pt17  1  0.856833  0.877822  0.249678  1
  Pt  Pt18  1  0.370862  0.628586  0.756970  1
  Pb  Pb19  1  0.000418  0.503853  0.255505  1
