# generated using pymatgen
data_Ho16MgIn3Ir3Pd
_symmetry_space_group_name_H-M   'P 1'
_cell_length_a   9.62544944
_cell_length_b   9.64152414
_cell_length_c   9.64152513
_cell_angle_alpha   60.13184144
_cell_angle_beta   60.03132395
_cell_angle_gamma   60.03132018
_symmetry_Int_Tables_number   1
_chemical_formula_structural   Ho16MgIn3Ir3Pd
_chemical_formula_sum   'Ho16 Mg1 In3 Ir3 Pd1'
_cell_volume   633.62771756
_cell_formula_units_Z   1
loop_
 _symmetry_equiv_pos_site_id
 _symmetry_equiv_pos_as_xyz
  1  'x, y, z'
loop_
 _atom_site_type_symbol
 _atom_site_label
 _atom_site_symmetry_multiplicity
 _atom_site_fract_x
 _atom_site_fract_y
 _atom_site_fract_z
 _atom_site_occupancy
  Ho  Ho0  1  0.439011  0.433812  0.062675  1
  Ho  Ho1  1  0.653247  0.646703  0.050614  1
  Ho  Ho2  1  0.183872  0.811764  0.193045  1
  Ho  Ho3  1  0.061121  0.440002  0.059394  1
  Ho  Ho4  1  0.186664  0.809432  0.809432  1
  Ho  Ho5  1  0.063185  0.436624  0.436624  1
  Ho  Ho6  1  0.813062  0.187988  0.187988  1
  Ho  Ho7  1  0.654604  0.649206  0.649206  1
  Ho  Ho8  1  0.809963  0.191542  0.808364  1
  Ho  Ho9  1  0.183872  0.193045  0.811764  1
  Ho  Ho10  1  0.045166  0.650909  0.650909  1
  Ho  Ho11  1  0.441442  0.061275  0.061275  1
  Ho  Ho12  1  0.061121  0.059394  0.440002  1
  Ho  Ho13  1  0.653247  0.050614  0.646703  1
  Ho  Ho14  1  0.809963  0.808364  0.191542  1
  Ho  Ho15  1  0.439011  0.062675  0.433812  1
  Mg  Mg16  1  0.422160  0.422559  0.422559  1
  In  In17  1  0.416700  0.417622  0.747918  1
  In  In18  1  0.416700  0.747918  0.417622  1
  In  In19  1  0.749116  0.416842  0.416842  1
  Ir  Ir20  1  0.856442  0.858490  0.858490  1
  Ir  Ir21  1  0.856670  0.425827  0.859234  1
  Ir  Ir22  1  0.856670  0.859234  0.425827  1
  Pd  Pd23  1  0.426996  0.858164  0.858164  1
