# generated using pymatgen
data_Ta12ReTc7(B3Ru)4
_symmetry_space_group_name_H-M   'P 1'
_cell_length_a   3.15648800
_cell_length_b   9.06954246
_cell_length_c   15.69661067
_cell_angle_alpha   89.97587344
_cell_angle_beta   90.00000000
_cell_angle_gamma   90.00000000
_symmetry_Int_Tables_number   1
_chemical_formula_structural   Ta12ReTc7(B3Ru)4
_chemical_formula_sum   'Ta12 Re1 Tc7 B12 Ru4'
_cell_volume   449.36099140
_cell_formula_units_Z   1
loop_
 _symmetry_equiv_pos_site_id
 _symmetry_equiv_pos_as_xyz
  1  'x, y, z'
loop_
 _atom_site_type_symbol
 _atom_site_label
 _atom_site_symmetry_multiplicity
 _atom_site_fract_x
 _atom_site_fract_y
 _atom_site_fract_z
 _atom_site_occupancy
  Ta  Ta0  1  0.000000  0.803573  0.493024  1
  Ta  Ta1  1  0.000000  0.196446  0.506387  1
  Ta  Ta2  1  0.000000  0.304118  0.006565  1
  Ta  Ta3  1  0.000000  0.695588  0.993549  1
  Ta  Ta4  1  0.000000  0.516421  0.595290  1
  Ta  Ta5  1  0.000000  0.484331  0.404462  1
  Ta  Ta6  1  0.000000  0.015573  0.904700  1
  Ta  Ta7  1  0.000000  0.984214  0.095403  1
  Ta  Ta8  1  0.000000  0.681021  0.205291  1
  Ta  Ta9  1  0.000000  0.318608  0.794741  1
  Ta  Ta10  1  0.000000  0.181176  0.294494  1
  Ta  Ta11  1  0.000000  0.817741  0.705981  1
  Re  Re12  1  0.500000  0.981690  0.595913  1
  Tc  Tc13  1  0.500000  0.716912  0.356625  1
  Tc  Tc14  1  0.500000  0.283766  0.643133  1
  Tc  Tc15  1  0.500000  0.216807  0.143074  1
  Tc  Tc16  1  0.500000  0.782861  0.857115  1
  Tc  Tc17  1  0.500000  0.518379  0.096038  1
  Tc  Tc18  1  0.500000  0.481323  0.904086  1
  Tc  Tc19  1  0.500000  0.018488  0.404002  1
  B  B20  1  0.500000  0.604470  0.494801  1
  B  B21  1  0.500000  0.395719  0.504954  1
  B  B22  1  0.500000  0.104727  0.005065  1
  B  B23  1  0.500000  0.895028  0.995079  1
  B  B24  1  0.000000  0.610663  0.834187  1
  B  B25  1  0.000000  0.388903  0.165954  1
  B  B26  1  0.000000  0.111587  0.665954  1
  B  B27  1  0.000000  0.889097  0.334003  1
  B  B28  1  0.500000  0.717843  0.601043  1
  B  B29  1  0.500000  0.283233  0.398679  1
  B  B30  1  0.500000  0.216840  0.898925  1
  B  B31  1  0.500000  0.782983  0.101159  1
  Ru  Ru32  1  0.500000  0.568581  0.732523  1
  Ru  Ru33  1  0.500000  0.431176  0.267481  1
  Ru  Ru34  1  0.500000  0.068969  0.767862  1
  Ru  Ru35  1  0.500000  0.931144  0.232459  1
