# generated using pymatgen
data_LiHo6Co16NiP12
_symmetry_space_group_name_H-M   'P 1'
_cell_length_a   3.69816800
_cell_length_b   10.50006400
_cell_length_c   12.16339500
_cell_angle_alpha   90.00000000
_cell_angle_beta   90.00000000
_cell_angle_gamma   90.00000000
_symmetry_Int_Tables_number   1
_chemical_formula_structural   LiHo6Co16NiP12
_chemical_formula_sum   'Li1 Ho6 Co16 Ni1 P12'
_cell_volume   472.31679955
_cell_formula_units_Z   1
loop_
 _symmetry_equiv_pos_site_id
 _symmetry_equiv_pos_as_xyz
  1  'x, y, z'
loop_
 _atom_site_type_symbol
 _atom_site_label
 _atom_site_symmetry_multiplicity
 _atom_site_fract_x
 _atom_site_fract_y
 _atom_site_fract_z
 _atom_site_occupancy
  Li  Li0  1  0.500000  0.500000  0.152528  1
  Ho  Ho1  1  0.000000  0.500000  0.520742  1
  Ho  Ho2  1  0.500000  0.000000  0.478310  1
  Ho  Ho3  1  0.500000  0.818917  0.206582  1
  Ho  Ho4  1  0.500000  0.181083  0.206582  1
  Ho  Ho5  1  0.000000  0.683982  0.795139  1
  Ho  Ho6  1  0.000000  0.316018  0.795139  1
  Co  Co7  1  0.000000  0.500000  0.986038  1
  Co  Co8  1  0.500000  0.000000  0.012899  1
  Co  Co9  1  0.500000  0.296552  0.432151  1
  Co  Co10  1  0.500000  0.703448  0.432151  1
  Co  Co11  1  0.000000  0.201907  0.570130  1
  Co  Co12  1  0.000000  0.798093  0.570130  1
  Co  Co13  1  0.500000  0.879307  0.709454  1
  Co  Co14  1  0.500000  0.120693  0.709454  1
  Co  Co15  1  0.000000  0.622322  0.292931  1
  Co  Co16  1  0.000000  0.377678  0.292931  1
  Co  Co17  1  0.500000  0.330829  0.994693  1
  Co  Co18  1  0.500000  0.669171  0.994693  1
  Co  Co19  1  0.000000  0.164945  0.003277  1
  Co  Co20  1  0.000000  0.835055  0.003277  1
  Co  Co21  1  0.000000  0.000000  0.839731  1
  Co  Co22  1  0.000000  0.000000  0.296540  1
  Ni  Ni23  1  0.500000  0.500000  0.703701  1
  P  P24  1  0.500000  0.309403  0.615937  1
  P  P25  1  0.500000  0.690597  0.615937  1
  P  P26  1  0.000000  0.189209  0.384762  1
  P  P27  1  0.000000  0.810791  0.384762  1
  P  P28  1  0.500000  0.500000  0.885326  1
  P  P29  1  0.000000  0.000000  0.117240  1
  P  P30  1  0.500000  0.848007  0.892094  1
  P  P31  1  0.500000  0.151993  0.892094  1
  P  P32  1  0.000000  0.657188  0.105756  1
  P  P33  1  0.000000  0.342812  0.105756  1
  P  P34  1  0.500000  0.500000  0.345692  1
  P  P35  1  0.000000  0.000000  0.655442  1
