# generated using pymatgen
data_Li2CeHoSi3
_symmetry_space_group_name_H-M   'P 1'
_cell_length_a   9.31129306
_cell_length_b   9.31129198
_cell_length_c   6.75955800
_cell_angle_alpha   90.00000000
_cell_angle_beta   90.00000000
_cell_angle_gamma   153.10416320
_symmetry_Int_Tables_number   1
_chemical_formula_structural   Li2CeHoSi3
_chemical_formula_sum   'Li4 Ce2 Ho2 Si6'
_cell_volume   265.11356387
_cell_formula_units_Z   2
loop_
 _symmetry_equiv_pos_site_id
 _symmetry_equiv_pos_as_xyz
  1  'x, y, z'
loop_
 _atom_site_type_symbol
 _atom_site_label
 _atom_site_symmetry_multiplicity
 _atom_site_fract_x
 _atom_site_fract_y
 _atom_site_fract_z
 _atom_site_occupancy
  Li  Li0  1  0.190570  0.809430  0.060343  1
  Li  Li1  1  0.190570  0.809430  0.439657  1
  Li  Li2  1  0.809430  0.190570  0.939657  1
  Li  Li3  1  0.809430  0.190570  0.560343  1
  Ce  Ce4  1  0.553199  0.446801  0.250000  1
  Ce  Ce5  1  0.446801  0.553199  0.750000  1
  Ho  Ho6  1  0.345361  0.654639  0.250000  1
  Ho  Ho7  1  0.654639  0.345361  0.750000  1
  Si  Si8  1  0.722046  0.277954  0.250000  1
  Si  Si9  1  0.277954  0.722046  0.750000  1
  Si  Si10  1  0.059336  0.940664  0.927042  1
  Si  Si11  1  0.940664  0.059336  0.072958  1
  Si  Si12  1  0.940664  0.059336  0.427042  1
  Si  Si13  1  0.059336  0.940664  0.572958  1
