# generated using pymatgen
data_Cs5Np2S4Br9
_symmetry_space_group_name_H-M   'P 1'
_cell_length_a   11.22345807
_cell_length_b   11.22345816
_cell_length_c   11.22345956
_cell_angle_alpha   139.21385747
_cell_angle_beta   120.22474948
_cell_angle_gamma   74.89751968
_symmetry_Int_Tables_number   1
_chemical_formula_structural   Cs5Np2S4Br9
_chemical_formula_sum   'Cs5 Np2 S4 Br9'
_cell_volume   779.55570270
_cell_formula_units_Z   1
loop_
 _symmetry_equiv_pos_site_id
 _symmetry_equiv_pos_as_xyz
  1  'x, y, z'
loop_
 _atom_site_type_symbol
 _atom_site_label
 _atom_site_symmetry_multiplicity
 _atom_site_fract_x
 _atom_site_fract_y
 _atom_site_fract_z
 _atom_site_occupancy
  Cs  Cs0  1  0.431087  0.657132  0.773955  1
  Cs  Cs1  1  0.883178  0.657132  0.226045  1
  Cs  Cs2  1  0.500000  0.000000  0.500000  1
  Cs  Cs3  1  0.568913  0.342868  0.226045  1
  Cs  Cs4  1  0.116822  0.342868  0.773955  1
  Np  Np5  1  0.105446  0.105446  0.000000  1
  Np  Np6  1  0.894554  0.894554  0.000000  1
  S  S7  1  0.091933  0.772593  0.864526  1
  S  S8  1  0.908067  0.772593  0.680660  1
  S  S9  1  0.908067  0.227407  0.135474  1
  S  S10  1  0.091933  0.227407  0.319340  1
  Br  Br11  1  0.218730  0.472350  0.253621  1
  Br  Br12  1  0.120819  0.863917  0.256902  1
  Br  Br13  1  0.392987  0.136083  0.256902  1
  Br  Br14  1  0.218730  0.965109  0.746379  1
  Br  Br15  1  0.781270  0.034891  0.253621  1
  Br  Br16  1  0.607013  0.863917  0.743098  1
  Br  Br17  1  0.781270  0.527650  0.746379  1
  Br  Br18  1  0.500000  0.500000  0.000000  1
  Br  Br19  1  0.879181  0.136083  0.743098  1
