# generated using pymatgen
data_LaNdCuNi9
_symmetry_space_group_name_H-M   'P 1'
_cell_length_a   3.96709900
_cell_length_b   4.97889100
_cell_length_c   8.61305200
_cell_angle_alpha   90.00000000
_cell_angle_beta   90.00000000
_cell_angle_gamma   90.00000000
_symmetry_Int_Tables_number   1
_chemical_formula_structural   LaNdCuNi9
_chemical_formula_sum   'La1 Nd1 Cu1 Ni9'
_cell_volume   170.12288005
_cell_formula_units_Z   1
loop_
 _symmetry_equiv_pos_site_id
 _symmetry_equiv_pos_as_xyz
  1  'x, y, z'
loop_
 _atom_site_type_symbol
 _atom_site_label
 _atom_site_symmetry_multiplicity
 _atom_site_fract_x
 _atom_site_fract_y
 _atom_site_fract_z
 _atom_site_occupancy
  La  La0  1  0.000000  0.000000  0.995883  1
  Nd  Nd1  1  0.000000  0.500000  0.503418  1
  Cu  Cu2  1  0.000000  0.000000  0.334281  1
  Ni  Ni3  1  0.000000  0.500000  0.833300  1
  Ni  Ni4  1  0.000000  0.500000  0.167113  1
  Ni  Ni5  1  0.000000  0.000000  0.666184  1
  Ni  Ni6  1  0.500000  0.500000  0.999674  1
  Ni  Ni7  1  0.500000  0.000000  0.501053  1
  Ni  Ni8  1  0.500000  0.252799  0.251893  1
  Ni  Ni9  1  0.500000  0.747852  0.747654  1
  Ni  Ni10  1  0.500000  0.747201  0.251893  1
  Ni  Ni11  1  0.500000  0.252148  0.747654  1
