# generated using pymatgen
data_Tb3Nb3(B2Ru5)2
_symmetry_space_group_name_H-M   'P 1'
_cell_length_a   9.60876662
_cell_length_b   9.60876662
_cell_length_c   3.13484200
_cell_angle_alpha   90.00000000
_cell_angle_beta   90.00000000
_cell_angle_gamma   90.46650008
_symmetry_Int_Tables_number   1
_chemical_formula_structural   Tb3Nb3(B2Ru5)2
_chemical_formula_sum   'Tb3 Nb3 B4 Ru10'
_cell_volume   289.42534009
_cell_formula_units_Z   1
loop_
 _symmetry_equiv_pos_site_id
 _symmetry_equiv_pos_as_xyz
  1  'x, y, z'
loop_
 _atom_site_type_symbol
 _atom_site_label
 _atom_site_symmetry_multiplicity
 _atom_site_fract_x
 _atom_site_fract_y
 _atom_site_fract_z
 _atom_site_occupancy
  Tb  Tb0  1  0.824003  0.675027  0.000000  1
  Tb  Tb1  1  0.175027  0.324003  0.000000  1
  Tb  Tb2  1  0.325442  0.825442  0.000000  1
  Nb  Nb3  1  0.676109  0.176109  0.000000  1
  Nb  Nb4  1  0.498024  0.502660  0.000000  1
  Nb  Nb5  1  0.002660  0.998024  0.000000  1
  B  B6  1  0.623522  0.881655  0.000000  1
  B  B7  1  0.381655  0.123522  0.000000  1
  B  B8  1  0.119157  0.619157  0.000000  1
  B  B9  1  0.875601  0.375601  0.000000  1
  Ru  Ru10  1  0.571073  0.722522  0.500000  1
  Ru  Ru11  1  0.441180  0.280285  0.500000  1
  Ru  Ru12  1  0.069300  0.780087  0.500000  1
  Ru  Ru13  1  0.915325  0.213405  0.500000  1
  Ru  Ru14  1  0.280087  0.569300  0.500000  1
  Ru  Ru15  1  0.713405  0.415325  0.500000  1
  Ru  Ru16  1  0.222522  0.071073  0.500000  1
  Ru  Ru17  1  0.780285  0.941180  0.500000  1
  Ru  Ru18  1  0.509816  0.009816  0.500000  1
  Ru  Ru19  1  0.995807  0.495807  0.500000  1
