# generated using pymatgen
data_Pu4ReW3C8
_symmetry_space_group_name_H-M   'P 1'
_cell_length_a   3.29396900
_cell_length_b   5.68968635
_cell_length_c   10.90036263
_cell_angle_alpha   90.05906698
_cell_angle_beta   90.00000000
_cell_angle_gamma   90.00000000
_symmetry_Int_Tables_number   1
_chemical_formula_structural   Pu4ReW3C8
_chemical_formula_sum   'Pu4 Re1 W3 C8'
_cell_volume   204.29067758
_cell_formula_units_Z   1
loop_
 _symmetry_equiv_pos_site_id
 _symmetry_equiv_pos_as_xyz
  1  'x, y, z'
loop_
 _atom_site_type_symbol
 _atom_site_label
 _atom_site_symmetry_multiplicity
 _atom_site_fract_x
 _atom_site_fract_y
 _atom_site_fract_z
 _atom_site_occupancy
  Pu  Pu0  1  0.250000  0.084377  0.861595  1
  Pu  Pu1  1  0.250000  0.584940  0.639606  1
  Pu  Pu2  1  0.750000  0.917491  0.139653  1
  Pu  Pu3  1  0.750000  0.415005  0.359274  1
  Re  Re4  1  0.250000  0.413396  0.106544  1
  W  W5  1  0.250000  0.913929  0.392064  1
  W  W6  1  0.750000  0.586129  0.895037  1
  W  W7  1  0.750000  0.086489  0.606810  1
  C  C8  1  0.250000  0.164394  0.245019  1
  C  C9  1  0.250000  0.660437  0.251706  1
  C  C10  1  0.750000  0.836232  0.754832  1
  C  C11  1  0.750000  0.337493  0.746467  1
  C  C12  1  0.250000  0.733784  0.989264  1
  C  C13  1  0.250000  0.235757  0.510719  1
  C  C14  1  0.750000  0.265952  0.013204  1
  C  C15  1  0.750000  0.764195  0.488207  1
