# generated using pymatgen
data_Ca2LaPr17Ga12
_symmetry_space_group_name_H-M   'P 1'
_cell_length_a   7.92962600
_cell_length_b   7.92962600
_cell_length_c   14.76889200
_cell_angle_alpha   90.00000000
_cell_angle_beta   90.00000000
_cell_angle_gamma   90.00000000
_symmetry_Int_Tables_number   1
_chemical_formula_structural   Ca2LaPr17Ga12
_chemical_formula_sum   'Ca2 La1 Pr17 Ga12'
_cell_volume   928.65269485
_cell_formula_units_Z   1
loop_
 _symmetry_equiv_pos_site_id
 _symmetry_equiv_pos_as_xyz
  1  'x, y, z'
loop_
 _atom_site_type_symbol
 _atom_site_label
 _atom_site_symmetry_multiplicity
 _atom_site_fract_x
 _atom_site_fract_y
 _atom_site_fract_z
 _atom_site_occupancy
  Ca  Ca0  1  0.000000  0.500000  0.246747  1
  Ca  Ca1  1  0.500000  0.000000  0.253392  1
  La  La2  1  0.000000  0.500000  0.709966  1
  Pr  Pr3  1  0.816041  0.840280  0.604421  1
  Pr  Pr4  1  0.175910  0.831310  0.102435  1
  Pr  Pr5  1  0.168649  0.824117  0.397642  1
  Pr  Pr6  1  0.831351  0.175883  0.397642  1
  Pr  Pr7  1  0.675883  0.668649  0.397642  1
  Pr  Pr8  1  0.659720  0.316041  0.604421  1
  Pr  Pr9  1  0.340280  0.683959  0.604421  1
  Pr  Pr10  1  0.668690  0.675910  0.102435  1
  Pr  Pr11  1  0.684415  0.339961  0.895850  1
  Pr  Pr12  1  0.839961  0.815585  0.895850  1
  Pr  Pr13  1  0.324117  0.331351  0.397642  1
  Pr  Pr14  1  0.183959  0.159720  0.604421  1
  Pr  Pr15  1  0.824090  0.168690  0.102435  1
  Pr  Pr16  1  0.315585  0.660039  0.895850  1
  Pr  Pr17  1  0.331310  0.324090  0.102435  1
  Pr  Pr18  1  0.160039  0.184415  0.895850  1
  Pr  Pr19  1  0.500000  0.000000  0.787939  1
  Ga  Ga20  1  0.617336  0.382300  0.250139  1
  Ga  Ga21  1  0.119256  0.880795  0.750346  1
  Ga  Ga22  1  0.380795  0.380744  0.750346  1
  Ga  Ga23  1  0.382664  0.617700  0.250139  1
  Ga  Ga24  1  0.882300  0.882664  0.250139  1
  Ga  Ga25  1  0.619205  0.619256  0.750346  1
  Ga  Ga26  1  0.000000  0.500000  0.496805  1
  Ga  Ga27  1  0.880744  0.119205  0.750346  1
  Ga  Ga28  1  0.500000  0.000000  0.491983  1
  Ga  Ga29  1  0.500000  0.000000  0.000558  1
  Ga  Ga30  1  0.117700  0.117336  0.250139  1
  Ga  Ga31  1  0.000000  0.500000  0.009284  1
