# generated using pymatgen
data_HoZn(GaNi)2
_symmetry_space_group_name_H-M   'P 1'
_cell_length_a   4.07769400
_cell_length_b   8.92873130
_cell_length_c   8.92456974
_cell_angle_alpha   120.01542166
_cell_angle_beta   90.00000000
_cell_angle_gamma   90.00000000
_symmetry_Int_Tables_number   1
_chemical_formula_structural   HoZn(GaNi)2
_chemical_formula_sum   'Ho3 Zn3 Ga6 Ni6'
_cell_volume   281.35510215
_cell_formula_units_Z   3
loop_
 _symmetry_equiv_pos_site_id
 _symmetry_equiv_pos_as_xyz
  1  'x, y, z'
loop_
 _atom_site_type_symbol
 _atom_site_label
 _atom_site_symmetry_multiplicity
 _atom_site_fract_x
 _atom_site_fract_y
 _atom_site_fract_z
 _atom_site_occupancy
  Ho  Ho0  1  0.500000  0.333273  0.666646  1
  Ho  Ho1  1  0.500000  0.666627  0.333354  1
  Ho  Ho2  1  0.000000  0.000030  0.000000  1
  Zn  Zn3  1  0.500000  0.707629  0.000000  1
  Zn  Zn4  1  0.500000  0.292324  0.292293  1
  Zn  Zn5  1  0.500000  0.000030  0.707707  1
  Ga  Ga6  1  0.000000  0.510044  0.000000  1
  Ga  Ga7  1  0.000000  0.489922  0.489740  1
  Ga  Ga8  1  0.000000  0.000182  0.510260  1
  Ga  Ga9  1  0.500000  0.290210  0.000000  1
  Ga  Ga10  1  0.500000  0.709753  0.709705  1
  Ga  Ga11  1  0.500000  0.000047  0.290295  1
  Ni  Ni12  1  0.000000  0.176940  0.370183  1
  Ni  Ni13  1  0.000000  0.193232  0.823123  1
  Ni  Ni14  1  0.000000  0.629925  0.807059  1
  Ni  Ni15  1  0.000000  0.806757  0.629817  1
  Ni  Ni16  1  0.000000  0.370109  0.176877  1
  Ni  Ni17  1  0.000000  0.822865  0.192941  1
