# generated using pymatgen
data_Zn4GaReN6
_symmetry_space_group_name_H-M   'P 1'
_cell_length_a   5.72305102
_cell_length_b   5.72305197
_cell_length_c   5.35236497
_cell_angle_alpha   90.04451151
_cell_angle_beta   90.04450713
_cell_angle_gamma   119.88924187
_symmetry_Int_Tables_number   1
_chemical_formula_structural   Zn4GaReN6
_chemical_formula_sum   'Zn4 Ga1 Re1 N6'
_cell_volume   151.98991029
_cell_formula_units_Z   1
loop_
 _symmetry_equiv_pos_site_id
 _symmetry_equiv_pos_as_xyz
  1  'x, y, z'
loop_
 _atom_site_type_symbol
 _atom_site_label
 _atom_site_symmetry_multiplicity
 _atom_site_fract_x
 _atom_site_fract_y
 _atom_site_fract_z
 _atom_site_occupancy
  Zn  Zn0  1  0.501001  0.167007  0.511133  1
  Zn  Zn1  1  0.167007  0.501001  0.511133  1
  Zn  Zn2  1  0.475020  0.829746  0.035888  1
  Zn  Zn3  1  0.829746  0.475020  0.035888  1
  Ga  Ga4  1  0.185205  0.185204  0.042813  1
  Re  Re5  1  0.836588  0.836588  0.538379  1
  N  N6  1  0.489559  0.164963  0.142426  1
  N  N7  1  0.164963  0.489559  0.142426  1
  N  N8  1  0.527651  0.832659  0.644425  1
  N  N9  1  0.832659  0.527651  0.644425  1
  N  N10  1  0.141445  0.141445  0.664433  1
  N  N11  1  0.849158  0.849158  0.197870  1
