# generated using pymatgen
data_SnF18
_symmetry_space_group_name_H-M   'P 1'
_cell_length_a   6.05525330
_cell_length_b   9.08339780
_cell_length_c   13.58138556
_cell_angle_alpha   102.97234291
_cell_angle_beta   88.96702041
_cell_angle_gamma   107.22620889
_symmetry_Int_Tables_number   1
_chemical_formula_structural   SnF18
_chemical_formula_sum   'Sn2 F36'
_cell_volume   694.34641418
_cell_formula_units_Z   2
loop_
 _symmetry_equiv_pos_site_id
 _symmetry_equiv_pos_as_xyz
  1  'x, y, z'
loop_
 _atom_site_type_symbol
 _atom_site_label
 _atom_site_symmetry_multiplicity
 _atom_site_fract_x
 _atom_site_fract_y
 _atom_site_fract_z
 _atom_site_occupancy
  Sn  Sn0  1  0.153470  0.953092  0.270995  1
  Sn  Sn1  1  0.846530  0.046908  0.729005  1
  F  F2  1  0.719981  0.603481  0.352639  1
  F  F3  1  0.280019  0.396519  0.647361  1
  F  F4  1  0.041595  0.326637  0.369387  1
  F  F5  1  0.958405  0.673363  0.630613  1
  F  F6  1  0.202146  0.894600  0.963539  1
  F  F7  1  0.797854  0.105400  0.036461  1
  F  F8  1  0.870769  0.965020  0.362154  1
  F  F9  1  0.129231  0.034980  0.637846  1
  F  F10  1  0.017961  0.725428  0.237115  1
  F  F11  1  0.982039  0.274572  0.762885  1
  F  F12  1  0.556840  0.501697  0.404291  1
  F  F13  1  0.443160  0.498303  0.595709  1
  F  F14  1  0.024546  0.027003  0.170404  1
  F  F15  1  0.975454  0.972997  0.829596  1
  F  F16  1  0.201377  0.081469  0.417646  1
  F  F17  1  0.798623  0.918531  0.582354  1
  F  F18  1  0.046285  0.421281  0.298231  1
  F  F19  1  0.953715  0.578719  0.701769  1
  F  F20  1  0.744014  0.698171  0.050373  1
  F  F21  1  0.255986  0.301829  0.949627  1
  F  F22  1  0.823753  0.569869  0.999243  1
  F  F23  1  0.176247  0.430131  0.000757  1
  F  F24  1  0.537348  0.573025  0.847035  1
  F  F25  1  0.462652  0.426975  0.152965  1
  F  F26  1  0.469904  0.114121  0.253955  1
  F  F27  1  0.530096  0.885879  0.746045  1
  F  F28  1  0.264286  0.838824  0.481940  1
  F  F29  1  0.735714  0.161176  0.518060  1
  F  F30  1  0.324973  0.851100  0.035530  1
  F  F31  1  0.675027  0.148900  0.964470  1
  F  F32  1  0.454488  0.892422  0.277227  1
  F  F33  1  0.545512  0.107578  0.722773  1
  F  F34  1  0.607864  0.340480  0.175551  1
  F  F35  1  0.392136  0.659520  0.824449  1
  F  F36  1  0.349446  0.704725  0.458085  1
  F  F37  1  0.650554  0.295275  0.541915  1
