# generated using pymatgen
data_La5GdTl4In2O18
_symmetry_space_group_name_H-M   'P 1'
_cell_length_a   6.74503160
_cell_length_b   6.74565168
_cell_length_c   12.54544321
_cell_angle_alpha   89.97531570
_cell_angle_beta   90.04938163
_cell_angle_gamma   119.99695435
_symmetry_Int_Tables_number   1
_chemical_formula_structural   La5GdTl4In2O18
_chemical_formula_sum   'La5 Gd1 Tl4 In2 O18'
_cell_volume   494.35360764
_cell_formula_units_Z   1
loop_
 _symmetry_equiv_pos_site_id
 _symmetry_equiv_pos_as_xyz
  1  'x, y, z'
loop_
 _atom_site_type_symbol
 _atom_site_label
 _atom_site_symmetry_multiplicity
 _atom_site_fract_x
 _atom_site_fract_y
 _atom_site_fract_z
 _atom_site_occupancy
  La  La0  1  0.659932  0.327041  0.962971  1
  La  La1  1  0.340652  0.673536  0.464100  1
  La  La2  1  0.667116  0.326464  0.464100  1
  La  La3  1  0.332890  0.672959  0.962971  1
  La  La4  1  0.996367  0.000000  0.995783  1
  Gd  Gd5  1  0.003554  0.000000  0.495259  1
  Tl  Tl6  1  0.667438  0.667226  0.724924  1
  Tl  Tl7  1  0.000213  0.332774  0.724924  1
  Tl  Tl8  1  0.332125  0.332673  0.228742  1
  Tl  Tl9  1  0.999451  0.667327  0.228742  1
  In  In10  1  0.330584  0.000000  0.724987  1
  In  In11  1  0.668925  0.000000  0.228845  1
  O  O12  1  0.686883  0.687981  0.897392  1
  O  O13  1  0.998902  0.312019  0.897392  1
  O  O14  1  0.303444  0.302607  0.400512  1
  O  O15  1  0.000837  0.697393  0.400512  1
  O  O16  1  0.304656  0.000000  0.897181  1
  O  O17  1  0.703813  0.000000  0.400538  1
  O  O18  1  0.656633  0.652612  0.553772  1
  O  O19  1  0.004021  0.347388  0.553772  1
  O  O20  1  0.355212  0.358268  0.057278  1
  O  O21  1  0.996944  0.641732  0.057278  1
  O  O22  1  0.351907  0.000000  0.554371  1
  O  O23  1  0.638560  0.000000  0.057763  1
  O  O24  1  0.014240  0.000000  0.692229  1
  O  O25  1  0.984932  0.000000  0.197314  1
  O  O26  1  0.650712  0.317391  0.748978  1
  O  O27  1  0.349357  0.682975  0.255088  1
  O  O28  1  0.666384  0.317025  0.255088  1
  O  O29  1  0.333319  0.682609  0.748978  1
