# generated using pymatgen
data_Tb3ErTm8Co5Sn
_symmetry_space_group_name_H-M   'P 1'
_cell_length_a   8.21206165
_cell_length_b   8.20761473
_cell_length_c   8.20718401
_cell_angle_alpha   106.84617369
_cell_angle_beta   110.92812367
_cell_angle_gamma   110.64319783
_symmetry_Int_Tables_number   1
_chemical_formula_structural   Tb3ErTm8Co5Sn
_chemical_formula_sum   'Tb3 Er1 Tm8 Co5 Sn1'
_cell_volume   425.31505483
_cell_formula_units_Z   1
loop_
 _symmetry_equiv_pos_site_id
 _symmetry_equiv_pos_as_xyz
  1  'x, y, z'
loop_
 _atom_site_type_symbol
 _atom_site_label
 _atom_site_symmetry_multiplicity
 _atom_site_fract_x
 _atom_site_fract_y
 _atom_site_fract_z
 _atom_site_occupancy
  Tb  Tb0  1  0.477647  0.289476  0.188099  1
  Tb  Tb1  1  0.103956  0.290737  0.813067  1
  Tb  Tb2  1  0.896529  0.711430  0.185074  1
  Er  Er3  1  0.807780  0.207833  0.016813  1
  Tm  Tm4  1  0.522945  0.710666  0.812157  1
  Tm  Tm5  1  0.308207  0.621426  0.315853  1
  Tm  Tm6  1  0.308170  0.992566  0.686790  1
  Tm  Tm7  1  0.692347  0.379212  0.686176  1
  Tm  Tm8  1  0.692532  0.006432  0.313477  1
  Tm  Tm9  1  0.194431  0.212503  0.405918  1
  Tm  Tm10  1  0.807693  0.790496  0.599464  1
  Tm  Tm11  1  0.194502  0.788480  0.982017  1
  Co  Co12  1  0.498547  0.614153  0.110630  1
  Co  Co13  1  0.497801  0.388358  0.884113  1
  Co  Co14  1  0.374066  0.999442  0.374744  1
  Co  Co15  1  0.622560  0.998504  0.623774  1
  Co  Co16  1  0.000719  0.997826  0.002315  1
  Sn  Sn17  1  0.999567  0.500458  0.499519  1
