# generated using pymatgen
data_Eu4Zn2CuGeRh4
_symmetry_space_group_name_H-M   'P 1'
_cell_length_a   4.52053700
_cell_length_b   7.36239322
_cell_length_c   7.41661220
_cell_angle_alpha   89.81907405
_cell_angle_beta   90.00000000
_cell_angle_gamma   90.00000000
_symmetry_Int_Tables_number   1
_chemical_formula_structural   Eu4Zn2CuGeRh4
_chemical_formula_sum   'Eu4 Zn2 Cu1 Ge1 Rh4'
_cell_volume   246.83824122
_cell_formula_units_Z   1
loop_
 _symmetry_equiv_pos_site_id
 _symmetry_equiv_pos_as_xyz
  1  'x, y, z'
loop_
 _atom_site_type_symbol
 _atom_site_label
 _atom_site_symmetry_multiplicity
 _atom_site_fract_x
 _atom_site_fract_y
 _atom_site_fract_z
 _atom_site_occupancy
  Eu  Eu0  1  0.000000  0.761152  0.561015  1
  Eu  Eu1  1  0.000000  0.258469  0.442777  1
  Eu  Eu2  1  0.500000  0.741212  0.942423  1
  Eu  Eu3  1  0.500000  0.238142  0.054861  1
  Zn  Zn4  1  0.000000  0.431227  0.840535  1
  Zn  Zn5  1  0.000000  0.932721  0.158732  1
  Cu  Cu6  1  0.500000  0.070663  0.661599  1
  Ge  Ge7  1  0.500000  0.573921  0.338590  1
  Rh  Rh8  1  0.000000  0.069921  0.829524  1
  Rh  Rh9  1  0.000000  0.569501  0.174197  1
  Rh  Rh10  1  0.500000  0.428858  0.649555  1
  Rh  Rh11  1  0.500000  0.924211  0.346191  1
