# generated using pymatgen
data_Y12Co4TcBi
_symmetry_space_group_name_H-M   'P 1'
_cell_length_a   8.37663391
_cell_length_b   8.37663384
_cell_length_c   8.37663405
_cell_angle_alpha   110.35797824
_cell_angle_beta   111.78693282
_cell_angle_gamma   106.31747146
_symmetry_Int_Tables_number   1
_chemical_formula_structural   Y12Co4TcBi
_chemical_formula_sum   'Y12 Co4 Tc1 Bi1'
_cell_volume   451.37137046
_cell_formula_units_Z   1
loop_
 _symmetry_equiv_pos_site_id
 _symmetry_equiv_pos_as_xyz
  1  'x, y, z'
loop_
 _atom_site_type_symbol
 _atom_site_label
 _atom_site_symmetry_multiplicity
 _atom_site_fract_x
 _atom_site_fract_y
 _atom_site_fract_z
 _atom_site_occupancy
  Y  Y0  1  0.283108  0.183147  0.466254  1
  Y  Y1  1  0.716892  0.816853  0.533746  1
  Y  Y2  1  0.283108  0.816853  0.099962  1
  Y  Y3  1  0.716892  0.183147  0.900038  1
  Y  Y4  1  0.616540  0.308760  0.307781  1
  Y  Y5  1  0.383460  0.691240  0.692219  1
  Y  Y6  1  0.000979  0.308760  0.692219  1
  Y  Y7  1  0.999021  0.691240  0.307781  1
  Y  Y8  1  0.213440  0.410624  0.197183  1
  Y  Y9  1  0.786560  0.589376  0.802817  1
  Y  Y10  1  0.213440  0.016257  0.802817  1
  Y  Y11  1  0.786560  0.983743  0.197183  1
  Co  Co12  1  0.000000  0.381497  0.381497  1
  Co  Co13  1  0.000000  0.618503  0.618503  1
  Co  Co14  1  0.390614  0.890614  0.500000  1
  Co  Co15  1  0.609386  0.109386  0.500000  1
  Tc  Tc16  1  0.000000  0.000000  0.000000  1
  Bi  Bi17  1  0.500000  0.500000  0.000000  1
