# generated using pymatgen
data_Pr7Ho13Pt16
_symmetry_space_group_name_H-M   'P 1'
_cell_length_a   7.58253570
_cell_length_b   7.67650910
_cell_length_c   14.79705178
_cell_angle_alpha   89.99711623
_cell_angle_beta   89.96662941
_cell_angle_gamma   89.94985135
_symmetry_Int_Tables_number   1
_chemical_formula_structural   Pr7Ho13Pt16
_chemical_formula_sum   'Pr7 Ho13 Pt16'
_cell_volume   861.29749783
_cell_formula_units_Z   1
loop_
 _symmetry_equiv_pos_site_id
 _symmetry_equiv_pos_as_xyz
  1  'x, y, z'
loop_
 _atom_site_type_symbol
 _atom_site_label
 _atom_site_symmetry_multiplicity
 _atom_site_fract_x
 _atom_site_fract_y
 _atom_site_fract_z
 _atom_site_occupancy
  Pr  Pr0  1  0.499188  0.677516  0.094598  1
  Pr  Pr1  1  0.500655  0.322636  0.594063  1
  Pr  Pr2  1  0.000428  0.177990  0.906208  1
  Pr  Pr3  1  0.999905  0.175084  0.592728  1
  Pr  Pr4  1  0.500664  0.322595  0.905777  1
  Pr  Pr5  1  0.499233  0.678963  0.406445  1
  Pr  Pr6  1  0.000214  0.822492  0.094319  1
  Ho  Ho7  1  0.681144  0.990606  0.251573  1
  Ho  Ho8  1  0.180005  0.510507  0.251245  1
  Ho  Ho9  1  0.820277  0.490636  0.749525  1
  Ho  Ho10  1  0.319753  0.009280  0.749804  1
  Ho  Ho11  1  0.657318  0.832825  0.623083  1
  Ho  Ho12  1  0.156951  0.667395  0.875921  1
  Ho  Ho13  1  0.843566  0.332258  0.376631  1
  Ho  Ho14  1  0.342806  0.167546  0.124424  1
  Ho  Ho15  1  0.340572  0.165847  0.377197  1
  Ho  Ho16  1  0.843338  0.331712  0.124590  1
  Ho  Ho17  1  0.154738  0.669142  0.622190  1
  Ho  Ho18  1  0.656935  0.832175  0.876249  1
  Ho  Ho19  1  0.996226  0.819528  0.404667  1
  Pt  Pt20  1  0.817893  0.639496  0.253517  1
  Pt  Pt21  1  0.312038  0.863151  0.251557  1
  Pt  Pt22  1  0.685981  0.136533  0.749641  1
  Pt  Pt23  1  0.185825  0.363724  0.749551  1
  Pt  Pt24  1  0.547602  0.377916  0.250491  1
  Pt  Pt25  1  0.045620  0.119592  0.251766  1
  Pt  Pt26  1  0.953199  0.877104  0.749790  1
  Pt  Pt27  1  0.453260  0.623167  0.749533  1
  Pt  Pt28  1  0.823200  0.541021  0.541197  1
  Pt  Pt29  1  0.322147  0.962695  0.956843  1
  Pt  Pt30  1  0.686455  0.031562  0.455314  1
  Pt  Pt31  1  0.177328  0.462675  0.043340  1
  Pt  Pt32  1  0.175132  0.469279  0.454718  1
  Pt  Pt33  1  0.677683  0.037340  0.043330  1
  Pt  Pt34  1  0.320879  0.961020  0.541178  1
  Pt  Pt35  1  0.821843  0.536994  0.956993  1
