# generated using pymatgen
data_Tm4Lu4B24MoRu3
_symmetry_space_group_name_H-M   'P 1'
_cell_length_a   3.60496100
_cell_length_b   9.07162852
_cell_length_c   11.45075095
_cell_angle_alpha   89.87367409
_cell_angle_beta   90.00000000
_cell_angle_gamma   90.00000000
_symmetry_Int_Tables_number   1
_chemical_formula_structural   Tm4Lu4B24MoRu3
_chemical_formula_sum   'Tm4 Lu4 B24 Mo1 Ru3'
_cell_volume   374.47147537
_cell_formula_units_Z   1
loop_
 _symmetry_equiv_pos_site_id
 _symmetry_equiv_pos_as_xyz
  1  'x, y, z'
loop_
 _atom_site_type_symbol
 _atom_site_label
 _atom_site_symmetry_multiplicity
 _atom_site_fract_x
 _atom_site_fract_y
 _atom_site_fract_z
 _atom_site_occupancy
  Tm  Tm0  1  0.000000  0.321646  0.413526  1
  Tm  Tm1  1  0.000000  0.677890  0.584559  1
  Tm  Tm2  1  0.000000  0.820173  0.087170  1
  Tm  Tm3  1  0.000000  0.177924  0.914847  1
  Lu  Lu4  1  0.000000  0.945393  0.372589  1
  Lu  Lu5  1  0.000000  0.057772  0.628758  1
  Lu  Lu6  1  0.000000  0.442991  0.126872  1
  Lu  Lu7  1  0.000000  0.556893  0.870879  1
  B  B8  1  0.500000  0.551063  0.435992  1
  B  B9  1  0.500000  0.445984  0.567817  1
  B  B10  1  0.500000  0.053662  0.066628  1
  B  B11  1  0.500000  0.946168  0.933452  1
  B  B12  1  0.500000  0.752048  0.421849  1
  B  B13  1  0.500000  0.251001  0.580905  1
  B  B14  1  0.500000  0.249293  0.080165  1
  B  B15  1  0.500000  0.750427  0.919192  1
  B  B16  1  0.500000  0.795295  0.264041  1
  B  B17  1  0.500000  0.207995  0.735045  1
  B  B18  1  0.500000  0.291193  0.233621  1
  B  B19  1  0.500000  0.708520  0.765105  1
  B  B20  1  0.500000  0.631038  0.182225  1
  B  B21  1  0.500000  0.368676  0.815782  1
  B  B22  1  0.500000  0.130849  0.314869  1
  B  B23  1  0.500000  0.869847  0.684733  1
  B  B24  1  0.500000  0.982715  0.212712  1
  B  B25  1  0.500000  0.018030  0.787834  1
  B  B26  1  0.500000  0.477369  0.286487  1
  B  B27  1  0.500000  0.517406  0.713069  1
  B  B28  1  0.500000  0.603617  0.027022  1
  B  B29  1  0.500000  0.395682  0.970534  1
  B  B30  1  0.500000  0.104896  0.471771  1
  B  B31  1  0.500000  0.898050  0.529726  1
  Mo  Mo32  1  0.000000  0.637811  0.320847  1
  Ru  Ru33  1  0.000000  0.360679  0.680766  1
  Ru  Ru34  1  0.000000  0.138103  0.178267  1
  Ru  Ru35  1  0.000000  0.861905  0.820346  1
