# generated using pymatgen
data_Ca21Tl7Ga8
_symmetry_space_group_name_H-M   'P 1'
_cell_length_a   11.54963498
_cell_length_b   11.54963501
_cell_length_c   11.54963500
_cell_angle_alpha   59.99999717
_cell_angle_beta   59.99999707
_cell_angle_gamma   59.99999484
_symmetry_Int_Tables_number   1
_chemical_formula_structural   Ca21Tl7Ga8
_chemical_formula_sum   'Ca21 Tl7 Ga8'
_cell_volume   1089.40595440
_cell_formula_units_Z   1
loop_
 _symmetry_equiv_pos_site_id
 _symmetry_equiv_pos_as_xyz
  1  'x, y, z'
loop_
 _atom_site_type_symbol
 _atom_site_label
 _atom_site_symmetry_multiplicity
 _atom_site_fract_x
 _atom_site_fract_y
 _atom_site_fract_z
 _atom_site_occupancy
  Ca  Ca0  1  0.867034  0.867034  0.398895  1
  Ca  Ca1  1  0.601105  0.132966  0.132966  1
  Ca  Ca2  1  0.867034  0.398895  0.867034  1
  Ca  Ca3  1  0.132966  0.132966  0.132966  1
  Ca  Ca4  1  0.398895  0.867034  0.867034  1
  Ca  Ca5  1  0.867034  0.867034  0.867034  1
  Ca  Ca6  1  0.173315  0.826685  0.500000  1
  Ca  Ca7  1  0.826685  0.500000  0.500000  1
  Ca  Ca8  1  0.132966  0.132966  0.601105  1
  Ca  Ca9  1  0.826685  0.173315  0.500000  1
  Ca  Ca10  1  0.173315  0.500000  0.500000  1
  Ca  Ca11  1  0.132966  0.601105  0.132966  1
  Ca  Ca12  1  0.500000  0.500000  0.173315  1
  Ca  Ca13  1  0.500000  0.173315  0.826685  1
  Ca  Ca14  1  0.500000  0.826685  0.173315  1
  Ca  Ca15  1  0.500000  0.500000  0.826685  1
  Ca  Ca16  1  0.500000  0.173315  0.500000  1
  Ca  Ca17  1  0.173315  0.500000  0.826685  1
  Ca  Ca18  1  0.000000  0.000000  0.000000  1
  Ca  Ca19  1  0.500000  0.826685  0.500000  1
  Ca  Ca20  1  0.826685  0.500000  0.173315  1
  Tl  Tl21  1  0.787109  0.212891  0.787109  1
  Tl  Tl22  1  0.787109  0.212891  0.212891  1
  Tl  Tl23  1  0.212891  0.787109  0.212891  1
  Tl  Tl24  1  0.212891  0.787109  0.787109  1
  Tl  Tl25  1  0.787109  0.787109  0.212891  1
  Tl  Tl26  1  0.212891  0.212891  0.787109  1
  Tl  Tl27  1  0.500000  0.500000  0.500000  1
  Ga  Ga28  1  0.690635  0.928097  0.690635  1
  Ga  Ga29  1  0.690635  0.690635  0.928097  1
  Ga  Ga30  1  0.690635  0.690635  0.690635  1
  Ga  Ga31  1  0.309365  0.071903  0.309365  1
  Ga  Ga32  1  0.928097  0.690635  0.690635  1
  Ga  Ga33  1  0.309365  0.309365  0.071903  1
  Ga  Ga34  1  0.071903  0.309365  0.309365  1
  Ga  Ga35  1  0.309365  0.309365  0.309365  1
