# generated using pymatgen
data_AgBi3Ir2(RuO7)2
_symmetry_space_group_name_H-M   'P 1'
_cell_length_a   7.40293342
_cell_length_b   7.39662847
_cell_length_c   7.25160558
_cell_angle_alpha   59.15339194
_cell_angle_beta   59.30724694
_cell_angle_gamma   59.97179607
_symmetry_Int_Tables_number   1
_chemical_formula_structural   AgBi3Ir2(RuO7)2
_chemical_formula_sum   'Ag1 Bi3 Ir2 Ru2 O14'
_cell_volume   277.40428101
_cell_formula_units_Z   1
loop_
 _symmetry_equiv_pos_site_id
 _symmetry_equiv_pos_as_xyz
  1  'x, y, z'
loop_
 _atom_site_type_symbol
 _atom_site_label
 _atom_site_symmetry_multiplicity
 _atom_site_fract_x
 _atom_site_fract_y
 _atom_site_fract_z
 _atom_site_occupancy
  Ag  Ag0  1  0.125000  0.125000  0.625000  1
  Bi  Bi1  1  0.125000  0.625000  0.125000  1
  Bi  Bi2  1  0.625000  0.125000  0.125000  1
  Bi  Bi3  1  0.125000  0.125000  0.125000  1
  Ir  Ir4  1  0.625000  0.625000  0.125000  1
  Ir  Ir5  1  0.625000  0.125000  0.625000  1
  Ru  Ru6  1  0.125000  0.625000  0.625000  1
  Ru  Ru7  1  0.625000  0.625000  0.625000  1
  O  O8  1  0.246217  0.245490  0.262075  1
  O  O9  1  0.003783  0.004510  0.987925  1
  O  O10  1  0.562118  0.946741  0.544145  1
  O  O11  1  0.297243  0.705142  0.291064  1
  O  O12  1  0.543449  0.544858  0.958936  1
  O  O13  1  0.944294  0.565673  0.545739  1
  O  O14  1  0.542704  0.954427  0.960164  1
  O  O15  1  0.946996  0.946741  0.544145  1
  O  O16  1  0.952757  0.544858  0.958936  1
  O  O17  1  0.707296  0.295573  0.289836  1
  O  O18  1  0.305706  0.684327  0.704261  1
  O  O19  1  0.687882  0.303259  0.705855  1
  O  O20  1  0.303004  0.303259  0.705855  1
  O  O21  1  0.706551  0.705142  0.291064  1
