# generated using pymatgen
data_Tb4HoSn4
_symmetry_space_group_name_H-M   'P 1'
_cell_length_a   8.06325700
_cell_length_b   8.20190800
_cell_length_c   15.54820200
_cell_angle_alpha   90.00000000
_cell_angle_beta   90.00000000
_cell_angle_gamma   90.00000000
_symmetry_Int_Tables_number   1
_chemical_formula_structural   Tb4HoSn4
_chemical_formula_sum   'Tb16 Ho4 Sn16'
_cell_volume   1028.26622297
_cell_formula_units_Z   4
loop_
 _symmetry_equiv_pos_site_id
 _symmetry_equiv_pos_as_xyz
  1  'x, y, z'
loop_
 _atom_site_type_symbol
 _atom_site_label
 _atom_site_symmetry_multiplicity
 _atom_site_fract_x
 _atom_site_fract_y
 _atom_site_fract_z
 _atom_site_occupancy
  Tb  Tb0  1  0.367793  0.835413  0.878627  1
  Tb  Tb1  1  0.867793  0.664587  0.621373  1
  Tb  Tb2  1  0.632207  0.164587  0.378627  1
  Tb  Tb3  1  0.132207  0.335413  0.121373  1
  Tb  Tb4  1  0.632207  0.164587  0.121373  1
  Tb  Tb5  1  0.132207  0.335413  0.378627  1
  Tb  Tb6  1  0.367793  0.835413  0.621373  1
  Tb  Tb7  1  0.867793  0.664587  0.878627  1
  Tb  Tb8  1  0.520267  0.319344  0.902250  1
  Tb  Tb9  1  0.020267  0.180656  0.597750  1
  Tb  Tb10  1  0.479733  0.680656  0.402250  1
  Tb  Tb11  1  0.979733  0.819344  0.097750  1
  Tb  Tb12  1  0.479733  0.680656  0.097750  1
  Tb  Tb13  1  0.979733  0.819344  0.402250  1
  Tb  Tb14  1  0.520267  0.319344  0.597750  1
  Tb  Tb15  1  0.020267  0.180656  0.902250  1
  Ho  Ho16  1  0.197915  0.502205  0.750000  1
  Ho  Ho17  1  0.697915  0.997795  0.750000  1
  Ho  Ho18  1  0.802085  0.497795  0.250000  1
  Ho  Ho19  1  0.302085  0.002205  0.250000  1
  Sn  Sn20  1  0.291682  0.033253  0.042336  1
  Sn  Sn21  1  0.791682  0.466747  0.457664  1
  Sn  Sn22  1  0.708318  0.966747  0.542336  1
  Sn  Sn23  1  0.208318  0.533253  0.957664  1
  Sn  Sn24  1  0.708318  0.966747  0.957664  1
  Sn  Sn25  1  0.208318  0.533253  0.542336  1
  Sn  Sn26  1  0.291682  0.033253  0.457664  1
  Sn  Sn27  1  0.791682  0.466747  0.042336  1
  Sn  Sn28  1  0.565183  0.619052  0.750000  1
  Sn  Sn29  1  0.065183  0.880948  0.750000  1
  Sn  Sn30  1  0.434817  0.380948  0.250000  1
  Sn  Sn31  1  0.934817  0.119052  0.250000  1
  Sn  Sn32  1  0.327552  0.145106  0.750000  1
  Sn  Sn33  1  0.827552  0.354894  0.750000  1
  Sn  Sn34  1  0.672448  0.854894  0.250000  1
  Sn  Sn35  1  0.172448  0.645106  0.250000  1
