# generated using pymatgen
data_HoTm19FeCo3Sb8
_symmetry_space_group_name_H-M   'P 1'
_cell_length_a   7.77017109
_cell_length_b   8.73533100
_cell_length_c   12.06492925
_cell_angle_alpha   90.00000000
_cell_angle_beta   90.09752716
_cell_angle_gamma   90.00000000
_symmetry_Int_Tables_number   1
_chemical_formula_structural   HoTm19FeCo3Sb8
_chemical_formula_sum   'Ho1 Tm19 Fe1 Co3 Sb8'
_cell_volume   818.90608358
_cell_formula_units_Z   1
loop_
 _symmetry_equiv_pos_site_id
 _symmetry_equiv_pos_as_xyz
  1  'x, y, z'
loop_
 _atom_site_type_symbol
 _atom_site_label
 _atom_site_symmetry_multiplicity
 _atom_site_fract_x
 _atom_site_fract_y
 _atom_site_fract_z
 _atom_site_occupancy
  Ho  Ho0  1  0.377791  0.250000  0.692615  1
  Tm  Tm1  1  0.157683  0.750000  0.205917  1
  Tm  Tm2  1  0.654989  0.250000  0.295670  1
  Tm  Tm3  1  0.844763  0.250000  0.797139  1
  Tm  Tm4  1  0.344816  0.750000  0.702971  1
  Tm  Tm5  1  0.449893  0.750000  0.997719  1
  Tm  Tm6  1  0.946453  0.250000  0.503136  1
  Tm  Tm7  1  0.548587  0.250000  0.002045  1
  Tm  Tm8  1  0.049020  0.750000  0.496660  1
  Tm  Tm9  1  0.622117  0.750000  0.307096  1
  Tm  Tm10  1  0.123553  0.250000  0.190961  1
  Tm  Tm11  1  0.878299  0.750000  0.808983  1
  Tm  Tm12  1  0.823673  0.963159  0.065713  1
  Tm  Tm13  1  0.325277  0.032432  0.435832  1
  Tm  Tm14  1  0.176224  0.463916  0.934803  1
  Tm  Tm15  1  0.677589  0.540851  0.564940  1
  Tm  Tm16  1  0.176224  0.036084  0.934803  1
  Tm  Tm17  1  0.677589  0.959149  0.564940  1
  Tm  Tm18  1  0.823673  0.536841  0.065713  1
  Tm  Tm19  1  0.325277  0.467568  0.435832  1
  Fe  Fe20  1  0.428451  0.750000  0.488298  1
  Co  Co21  1  0.934667  0.250000  0.009063  1
  Co  Co22  1  0.567619  0.250000  0.508484  1
  Co  Co23  1  0.066363  0.750000  0.992257  1
  Sb  Sb24  1  0.930435  0.993237  0.327399  1
  Sb  Sb25  1  0.430764  0.008167  0.171813  1
  Sb  Sb26  1  0.068180  0.492173  0.672172  1
  Sb  Sb27  1  0.570329  0.508538  0.827819  1
  Sb  Sb28  1  0.068180  0.007827  0.672172  1
  Sb  Sb29  1  0.570329  0.991462  0.827819  1
  Sb  Sb30  1  0.930435  0.506763  0.327399  1
  Sb  Sb31  1  0.430764  0.491833  0.171813  1
