# generated using pymatgen
data_Tb5Er5(In2Ir)4
_symmetry_space_group_name_H-M   'P 1'
_cell_length_a   3.66278600
_cell_length_b   7.99753405
_cell_length_c   18.25229664
_cell_angle_alpha   89.85343236
_cell_angle_beta   90.00000000
_cell_angle_gamma   90.00000000
_symmetry_Int_Tables_number   1
_chemical_formula_structural   Tb5Er5(In2Ir)4
_chemical_formula_sum   'Tb5 Er5 In8 Ir4'
_cell_volume   534.66744397
_cell_formula_units_Z   1
loop_
 _symmetry_equiv_pos_site_id
 _symmetry_equiv_pos_as_xyz
  1  'x, y, z'
loop_
 _atom_site_type_symbol
 _atom_site_label
 _atom_site_symmetry_multiplicity
 _atom_site_fract_x
 _atom_site_fract_y
 _atom_site_fract_z
 _atom_site_occupancy
  Tb  Tb0  1  0.000000  0.500750  0.499785  1
  Tb  Tb1  1  0.000000  0.999043  0.999988  1
  Tb  Tb2  1  0.000000  0.743398  0.278805  1
  Tb  Tb3  1  0.000000  0.257795  0.720919  1
  Tb  Tb4  1  0.000000  0.757305  0.778893  1
  Er  Er5  1  0.000000  0.242530  0.221499  1
  Er  Er6  1  0.000000  0.613715  0.090423  1
  Er  Er7  1  0.000000  0.384464  0.910672  1
  Er  Er8  1  0.000000  0.885590  0.589484  1
  Er  Er9  1  0.000000  0.115831  0.410037  1
  In  In10  1  0.500000  0.704427  0.933728  1
  In  In11  1  0.500000  0.293359  0.067048  1
  In  In12  1  0.500000  0.796052  0.433284  1
  In  In13  1  0.500000  0.205419  0.566198  1
  In  In14  1  0.500000  0.575000  0.649518  1
  In  In15  1  0.500000  0.424880  0.350047  1
  In  In16  1  0.500000  0.926926  0.149876  1
  In  In17  1  0.500000  0.074539  0.850173  1
  Ir  Ir18  1  0.500000  0.515167  0.195384  1
  Ir  Ir19  1  0.500000  0.480320  0.805213  1
  Ir  Ir20  1  0.500000  0.980740  0.694851  1
  Ir  Ir21  1  0.500000  0.022749  0.304175  1
