# generated using pymatgen
data_Er2Tm2Co3Si4Ru
_symmetry_space_group_name_H-M   'P 1'
_cell_length_a   4.19327000
_cell_length_b   6.80315472
_cell_length_c   6.95213201
_cell_angle_alpha   90.20013598
_cell_angle_beta   90.00000000
_cell_angle_gamma   90.00000000
_symmetry_Int_Tables_number   1
_chemical_formula_structural   Er2Tm2Co3Si4Ru
_chemical_formula_sum   'Er2 Tm2 Co3 Si4 Ru1'
_cell_volume   198.32548988
_cell_formula_units_Z   1
loop_
 _symmetry_equiv_pos_site_id
 _symmetry_equiv_pos_as_xyz
  1  'x, y, z'
loop_
 _atom_site_type_symbol
 _atom_site_label
 _atom_site_symmetry_multiplicity
 _atom_site_fract_x
 _atom_site_fract_y
 _atom_site_fract_z
 _atom_site_occupancy
  Er  Er0  1  0.750000  0.012975  0.192454  1
  Er  Er1  1  0.750000  0.511675  0.315516  1
  Tm  Tm2  1  0.250000  0.985036  0.804704  1
  Tm  Tm3  1  0.250000  0.481071  0.686682  1
  Co  Co4  1  0.750000  0.853085  0.569483  1
  Co  Co5  1  0.250000  0.154555  0.436529  1
  Co  Co6  1  0.750000  0.350226  0.931647  1
  Si  Si7  1  0.250000  0.297991  0.102381  1
  Si  Si8  1  0.750000  0.696424  0.886721  1
  Si  Si9  1  0.250000  0.805613  0.399659  1
  Si  Si10  1  0.750000  0.196352  0.608298  1
  Ru  Ru11  1  0.250000  0.654997  0.065924  1
