# generated using pymatgen
data_CeFeH4
_symmetry_space_group_name_H-M   'P 1'
_cell_length_a   6.23441382
_cell_length_b   6.23441426
_cell_length_c   4.85163605
_cell_angle_alpha   89.98547623
_cell_angle_beta   90.01452621
_cell_angle_gamma   145.61688732
_symmetry_Int_Tables_number   1
_chemical_formula_structural   CeFeH4
_chemical_formula_sum   'Ce2 Fe2 H8'
_cell_volume   106.49165137
_cell_formula_units_Z   2
loop_
 _symmetry_equiv_pos_site_id
 _symmetry_equiv_pos_as_xyz
  1  'x, y, z'
loop_
 _atom_site_type_symbol
 _atom_site_label
 _atom_site_symmetry_multiplicity
 _atom_site_fract_x
 _atom_site_fract_y
 _atom_site_fract_z
 _atom_site_occupancy
  Ce  Ce0  1  0.367617  0.632381  0.249833  1
  Ce  Ce1  1  0.631716  0.368282  0.750124  1
  Fe  Fe2  1  0.097068  0.902930  0.250297  1
  Fe  Fe3  1  0.903094  0.096904  0.749691  1
  H  H4  1  0.000293  0.999707  0.999486  1
  H  H5  1  0.193873  0.806125  0.009622  1
  H  H6  1  0.586389  0.413609  0.250076  1
  H  H7  1  0.193962  0.806036  0.490749  1
  H  H8  1  0.000296  0.999704  0.500522  1
  H  H9  1  0.805896  0.194102  0.510073  1
  H  H10  1  0.413799  0.586199  0.749942  1
  H  H11  1  0.805987  0.194011  0.989587  1
