# generated using pymatgen
data_Y17Ho3(Ag3Ru)2
_symmetry_space_group_name_H-M   'P 1'
_cell_length_a   9.53523413
_cell_length_b   9.53523467
_cell_length_c   9.68235919
_cell_angle_alpha   90.04912386
_cell_angle_beta   89.95087967
_cell_angle_gamma   119.94120481
_symmetry_Int_Tables_number   1
_chemical_formula_structural   Y17Ho3(Ag3Ru)2
_chemical_formula_sum   'Y17 Ho3 Ag6 Ru2'
_cell_volume   762.83630293
_cell_formula_units_Z   1
loop_
 _symmetry_equiv_pos_site_id
 _symmetry_equiv_pos_as_xyz
  1  'x, y, z'
loop_
 _atom_site_type_symbol
 _atom_site_label
 _atom_site_symmetry_multiplicity
 _atom_site_fract_x
 _atom_site_fract_y
 _atom_site_fract_z
 _atom_site_occupancy
  Y  Y0  1  0.208626  0.417441  0.441012  1
  Y  Y1  1  0.582559  0.791374  0.441012  1
  Y  Y2  1  0.791393  0.208607  0.559041  1
  Y  Y3  1  0.791546  0.582780  0.558974  1
  Y  Y4  1  0.417220  0.208454  0.558974  1
  Y  Y5  1  0.791380  0.208620  0.940971  1
  Y  Y6  1  0.791376  0.582696  0.940925  1
  Y  Y7  1  0.417304  0.208624  0.940925  1
  Y  Y8  1  0.208613  0.791387  0.059214  1
  Y  Y9  1  0.208689  0.417295  0.059022  1
  Y  Y10  1  0.582705  0.791311  0.059022  1
  Y  Y11  1  0.541099  0.458901  0.250010  1
  Y  Y12  1  0.540891  0.081997  0.250121  1
  Y  Y13  1  0.918003  0.459109  0.250121  1
  Y  Y14  1  0.458943  0.541057  0.749984  1
  Y  Y15  1  0.458762  0.917692  0.749828  1
  Y  Y16  1  0.082308  0.541238  0.749828  1
  Ho  Ho17  1  0.000155  0.999845  0.499941  1
  Ho  Ho18  1  0.000012  0.999988  0.999900  1
  Ho  Ho19  1  0.208870  0.791130  0.440621  1
  Ag  Ag20  1  0.884039  0.115961  0.250011  1
  Ag  Ag21  1  0.884088  0.768097  0.250021  1
  Ag  Ag22  1  0.231903  0.115912  0.250021  1
  Ag  Ag23  1  0.115956  0.884044  0.749930  1
  Ag  Ag24  1  0.115935  0.231905  0.749998  1
  Ag  Ag25  1  0.768095  0.884065  0.749998  1
  Ru  Ru26  1  0.332897  0.667103  0.250604  1
  Ru  Ru27  1  0.666632  0.333368  0.749975  1
