# generated using pymatgen
data_AcLa(SiTc)2
_symmetry_space_group_name_H-M   'P 1'
_cell_length_a   4.44025300
_cell_length_b   4.44025300
_cell_length_c   7.02166000
_cell_angle_alpha   90.00000000
_cell_angle_beta   90.00000000
_cell_angle_gamma   90.00000000
_symmetry_Int_Tables_number   1
_chemical_formula_structural   AcLa(SiTc)2
_chemical_formula_sum   'Ac1 La1 Si2 Tc2'
_cell_volume   138.43797217
_cell_formula_units_Z   1
loop_
 _symmetry_equiv_pos_site_id
 _symmetry_equiv_pos_as_xyz
  1  'x, y, z'
loop_
 _atom_site_type_symbol
 _atom_site_label
 _atom_site_symmetry_multiplicity
 _atom_site_fract_x
 _atom_site_fract_y
 _atom_site_fract_z
 _atom_site_occupancy
  Ac  Ac0  1  0.000000  0.500000  0.314807  1
  La  La1  1  0.500000  0.000000  0.699852  1
  Si  Si2  1  0.000000  0.500000  0.836412  1
  Si  Si3  1  0.500000  0.000000  0.156891  1
  Tc  Tc4  1  0.000000  0.000000  0.996019  1
  Tc  Tc5  1  0.500000  0.500000  0.996019  1
