# generated using pymatgen
data_Lu4InNi
_symmetry_space_group_name_H-M   'P 1'
_cell_length_a   9.37628748
_cell_length_b   9.37628787
_cell_length_c   9.37628700
_cell_angle_alpha   59.99999953
_cell_angle_beta   59.99999816
_cell_angle_gamma   60.00000014
_symmetry_Int_Tables_number   1
_chemical_formula_structural   Lu4InNi
_chemical_formula_sum   'Lu16 In4 Ni4'
_cell_volume   582.87809444
_cell_formula_units_Z   4
loop_
 _symmetry_equiv_pos_site_id
 _symmetry_equiv_pos_as_xyz
  1  'x, y, z'
loop_
 _atom_site_type_symbol
 _atom_site_label
 _atom_site_symmetry_multiplicity
 _atom_site_fract_x
 _atom_site_fract_y
 _atom_site_fract_z
 _atom_site_occupancy
  Lu  Lu0  1  0.347474  0.347474  0.347474  1
  Lu  Lu1  1  0.347474  0.347474  0.957578  1
  Lu  Lu2  1  0.347474  0.957578  0.347474  1
  Lu  Lu3  1  0.957578  0.347474  0.347474  1
  Lu  Lu4  1  0.812577  0.187423  0.187423  1
  Lu  Lu5  1  0.187423  0.812577  0.812577  1
  Lu  Lu6  1  0.187423  0.812577  0.187423  1
  Lu  Lu7  1  0.812577  0.187423  0.812577  1
  Lu  Lu8  1  0.187423  0.187423  0.812577  1
  Lu  Lu9  1  0.812577  0.812577  0.187423  1
  Lu  Lu10  1  0.937464  0.562536  0.562536  1
  Lu  Lu11  1  0.562536  0.937464  0.937464  1
  Lu  Lu12  1  0.562536  0.937464  0.562536  1
  Lu  Lu13  1  0.937464  0.562536  0.937464  1
  Lu  Lu14  1  0.562536  0.562536  0.937464  1
  Lu  Lu15  1  0.937464  0.937464  0.562536  1
  In  In16  1  0.583164  0.583164  0.583164  1
  In  In17  1  0.583164  0.583164  0.250506  1
  In  In18  1  0.583164  0.250506  0.583164  1
  In  In19  1  0.250506  0.583164  0.583164  1
  Ni  Ni20  1  0.142062  0.142062  0.142062  1
  Ni  Ni21  1  0.142062  0.142062  0.573813  1
  Ni  Ni22  1  0.142062  0.573813  0.142062  1
  Ni  Ni23  1  0.573813  0.142062  0.142062  1
