# generated using pymatgen
data_Sr2Yb(DySn2)2
_symmetry_space_group_name_H-M   'P 1'
_cell_length_a   8.04975600
_cell_length_b   8.58109800
_cell_length_c   16.34961200
_cell_angle_alpha   90.00000000
_cell_angle_beta   90.00000000
_cell_angle_gamma   90.00000000
_symmetry_Int_Tables_number   1
_chemical_formula_structural   Sr2Yb(DySn2)2
_chemical_formula_sum   'Sr8 Yb4 Dy8 Sn16'
_cell_volume   1129.36163119
_cell_formula_units_Z   4
loop_
 _symmetry_equiv_pos_site_id
 _symmetry_equiv_pos_as_xyz
  1  'x, y, z'
loop_
 _atom_site_type_symbol
 _atom_site_label
 _atom_site_symmetry_multiplicity
 _atom_site_fract_x
 _atom_site_fract_y
 _atom_site_fract_z
 _atom_site_occupancy
  Sr  Sr0  1  0.505413  0.683057  0.593540  1
  Sr  Sr1  1  0.005413  0.816943  0.906460  1
  Sr  Sr2  1  0.494587  0.316943  0.093540  1
  Sr  Sr3  1  0.994587  0.183057  0.406460  1
  Sr  Sr4  1  0.494587  0.316943  0.406460  1
  Sr  Sr5  1  0.994587  0.183057  0.093540  1
  Sr  Sr6  1  0.505413  0.683057  0.906460  1
  Sr  Sr7  1  0.005413  0.816943  0.593540  1
  Yb  Yb8  1  0.836552  0.508396  0.750000  1
  Yb  Yb9  1  0.336552  0.991604  0.750000  1
  Yb  Yb10  1  0.163448  0.491604  0.250000  1
  Yb  Yb11  1  0.663448  0.008396  0.250000  1
  Dy  Dy12  1  0.673247  0.167589  0.622599  1
  Dy  Dy13  1  0.173247  0.332411  0.877401  1
  Dy  Dy14  1  0.326753  0.832411  0.122599  1
  Dy  Dy15  1  0.826753  0.667589  0.377401  1
  Dy  Dy16  1  0.326753  0.832411  0.377401  1
  Dy  Dy17  1  0.826753  0.667589  0.122599  1
  Dy  Dy18  1  0.673247  0.167589  0.877401  1
  Dy  Dy19  1  0.173247  0.332411  0.622599  1
  Sn  Sn20  1  0.663619  0.960269  0.458996  1
  Sn  Sn21  1  0.163619  0.539731  0.041004  1
  Sn  Sn22  1  0.336381  0.039731  0.958996  1
  Sn  Sn23  1  0.836381  0.460269  0.541004  1
  Sn  Sn24  1  0.336381  0.039731  0.541004  1
  Sn  Sn25  1  0.836381  0.460269  0.958996  1
  Sn  Sn26  1  0.663619  0.960269  0.041004  1
  Sn  Sn27  1  0.163619  0.539731  0.458996  1
  Sn  Sn28  1  0.470828  0.370057  0.750000  1
  Sn  Sn29  1  0.970828  0.129943  0.750000  1
  Sn  Sn30  1  0.529172  0.629943  0.250000  1
  Sn  Sn31  1  0.029172  0.870057  0.250000  1
  Sn  Sn32  1  0.717854  0.882198  0.750000  1
  Sn  Sn33  1  0.217854  0.617802  0.750000  1
  Sn  Sn34  1  0.282146  0.117802  0.250000  1
  Sn  Sn35  1  0.782146  0.382198  0.250000  1
