# generated using pymatgen
data_LaPr3Al6(Si2Pt3)2
_symmetry_space_group_name_H-M   'P 1'
_cell_length_a   8.49087994
_cell_length_b   8.48580577
_cell_length_c   8.48580522
_cell_angle_alpha   137.99224313
_cell_angle_beta   103.52173154
_cell_angle_gamma   91.31666355
_symmetry_Int_Tables_number   1
_chemical_formula_structural   LaPr3Al6(Si2Pt3)2
_chemical_formula_sum   'La1 Pr3 Al6 Si4 Pt6'
_cell_volume   379.22222402
_cell_formula_units_Z   1
loop_
 _symmetry_equiv_pos_site_id
 _symmetry_equiv_pos_as_xyz
  1  'x, y, z'
loop_
 _atom_site_type_symbol
 _atom_site_label
 _atom_site_symmetry_multiplicity
 _atom_site_fract_x
 _atom_site_fract_y
 _atom_site_fract_z
 _atom_site_occupancy
  La  La0  1  0.871753  0.629146  0.242608  1
  Pr  Pr1  1  0.129007  0.371704  0.757302  1
  Pr  Pr2  1  0.385680  0.128382  0.257298  1
  Pr  Pr3  1  0.613496  0.871309  0.742188  1
  Al  Al4  1  0.498724  0.749451  0.249809  1
  Al  Al5  1  0.498724  0.248915  0.749274  1
  Al  Al6  1  0.240472  0.990885  0.751625  1
  Al  Al7  1  0.760828  0.510606  0.749219  1
  Al  Al8  1  0.760828  0.011609  0.250222  1
  Al  Al9  1  0.240472  0.488846  0.249587  1
  Si  Si10  1  0.032749  0.889112  0.143638  1
  Si  Si11  1  0.967997  0.111346  0.856650  1
  Si  Si12  1  0.744470  0.388065  0.356405  1
  Si  Si13  1  0.255317  0.611433  0.643884  1
  Pt  Pt14  1  0.999976  0.749858  0.749964  1
  Pt  Pt15  1  0.999976  0.250012  0.250118  1
  Pt  Pt16  1  0.239816  0.867635  0.372184  1
  Pt  Pt17  1  0.758616  0.131494  0.627120  1
  Pt  Pt18  1  0.496426  0.368470  0.127957  1
  Pt  Pt19  1  0.504672  0.631723  0.872949  1
