# generated using pymatgen
data_SmDy2YNi13C4
_symmetry_space_group_name_H-M   'P 1'
_cell_length_a   8.40448719
_cell_length_b   8.40448748
_cell_length_c   3.87336800
_cell_angle_alpha   90.00000000
_cell_angle_beta   90.00000000
_cell_angle_gamma   90.76014283
_symmetry_Int_Tables_number   1
_chemical_formula_structural   SmDy2YNi13C4
_chemical_formula_sum   'Sm1 Dy2 Y1 Ni13 C4'
_cell_volume   273.57284883
_cell_formula_units_Z   1
loop_
 _symmetry_equiv_pos_site_id
 _symmetry_equiv_pos_as_xyz
  1  'x, y, z'
loop_
 _atom_site_type_symbol
 _atom_site_label
 _atom_site_symmetry_multiplicity
 _atom_site_fract_x
 _atom_site_fract_y
 _atom_site_fract_z
 _atom_site_occupancy
  Sm  Sm0  1  0.651762  0.651762  0.500000  1
  Dy  Dy1  1  0.813195  0.187943  0.500000  1
  Dy  Dy2  1  0.187943  0.813195  0.500000  1
  Y  Y3  1  0.348363  0.348363  0.500000  1
  Ni  Ni4  1  0.499107  0.002489  0.500000  1
  Ni  Ni5  1  0.002489  0.499107  0.500000  1
  Ni  Ni6  1  0.000767  0.000767  0.000000  1
  Ni  Ni7  1  0.429157  0.784363  0.000000  1
  Ni  Ni8  1  0.569663  0.213954  0.000000  1
  Ni  Ni9  1  0.213954  0.569663  0.000000  1
  Ni  Ni10  1  0.784363  0.429157  0.000000  1
  Ni  Ni11  1  0.710125  0.928686  0.000000  1
  Ni  Ni12  1  0.290884  0.073592  0.000000  1
  Ni  Ni13  1  0.073592  0.290884  0.000000  1
  Ni  Ni14  1  0.928686  0.710125  0.000000  1
  Ni  Ni15  1  0.878617  0.878617  0.500000  1
  Ni  Ni16  1  0.123332  0.123332  0.500000  1
  C  C17  1  0.440711  0.554855  0.000000  1
  C  C18  1  0.554855  0.440711  0.000000  1
  C  C19  1  0.499717  0.998717  0.000000  1
  C  C20  1  0.998717  0.499717  0.000000  1
