# generated using pymatgen
data_VSb12Pt2Rh
_symmetry_space_group_name_H-M   'P 1'
_cell_length_a   8.24885668
_cell_length_b   8.17987611
_cell_length_c   8.25904995
_cell_angle_alpha   109.38776401
_cell_angle_beta   109.67688619
_cell_angle_gamma   109.23291423
_symmetry_Int_Tables_number   1
_chemical_formula_structural   VSb12Pt2Rh
_chemical_formula_sum   'V1 Sb12 Pt2 Rh1'
_cell_volume   429.60006935
_cell_formula_units_Z   1
loop_
 _symmetry_equiv_pos_site_id
 _symmetry_equiv_pos_as_xyz
  1  'x, y, z'
loop_
 _atom_site_type_symbol
 _atom_site_label
 _atom_site_symmetry_multiplicity
 _atom_site_fract_x
 _atom_site_fract_y
 _atom_site_fract_z
 _atom_site_occupancy
  V  V0  1  0.000000  0.500000  0.000000  1
  Sb  Sb1  1  0.157351  0.811318  0.662527  1
  Sb  Sb2  1  0.842649  0.188682  0.337473  1
  Sb  Sb3  1  0.847199  0.503863  0.658952  1
  Sb  Sb4  1  0.152801  0.496137  0.341048  1
  Sb  Sb5  1  0.811802  0.656882  0.152665  1
  Sb  Sb6  1  0.188198  0.343118  0.847335  1
  Sb  Sb7  1  0.505092  0.660723  0.849510  1
  Sb  Sb8  1  0.494908  0.339277  0.150490  1
  Sb  Sb9  1  0.659445  0.154036  0.817957  1
  Sb  Sb10  1  0.340555  0.845964  0.182043  1
  Sb  Sb11  1  0.655424  0.849736  0.503690  1
  Sb  Sb12  1  0.344576  0.150264  0.496310  1
  Pt  Pt13  1  0.000000  0.000000  0.500000  1
  Pt  Pt14  1  0.500000  0.500000  0.500000  1
  Rh  Rh15  1  0.500000  0.000000  0.000000  1
