# generated using pymatgen
data_Tm2LuThCdIr
_symmetry_space_group_name_H-M   'P 1'
_cell_length_a   9.65513860
_cell_length_b   9.65598788
_cell_length_c   9.66016090
_cell_angle_alpha   59.76588399
_cell_angle_beta   59.76845132
_cell_angle_gamma   59.82810821
_symmetry_Int_Tables_number   1
_chemical_formula_structural   Tm2LuThCdIr
_chemical_formula_sum   'Tm8 Lu4 Th4 Cd4 Ir4'
_cell_volume   633.75854803
_cell_formula_units_Z   4
loop_
 _symmetry_equiv_pos_site_id
 _symmetry_equiv_pos_as_xyz
  1  'x, y, z'
loop_
 _atom_site_type_symbol
 _atom_site_label
 _atom_site_symmetry_multiplicity
 _atom_site_fract_x
 _atom_site_fract_y
 _atom_site_fract_z
 _atom_site_occupancy
  Tm  Tm0  1  0.437117  0.437110  0.062513  1
  Tm  Tm1  1  0.063833  0.063858  0.435751  1
  Tm  Tm2  1  0.186020  0.815644  0.815378  1
  Tm  Tm3  1  0.815892  0.184994  0.184536  1
  Tm  Tm4  1  0.815678  0.186017  0.815338  1
  Tm  Tm5  1  0.185030  0.815897  0.184523  1
  Tm  Tm6  1  0.815809  0.815807  0.185497  1
  Tm  Tm7  1  0.184961  0.184964  0.815564  1
  Lu  Lu8  1  0.062323  0.437403  0.437263  1
  Lu  Lu9  1  0.436346  0.063477  0.063334  1
  Lu  Lu10  1  0.437085  0.062506  0.437309  1
  Lu  Lu11  1  0.063538  0.436200  0.063379  1
  Th  Th12  1  0.600288  0.600303  0.599524  1
  Th  Th13  1  0.601753  0.601650  0.197584  1
  Th  Th14  1  0.601379  0.196928  0.601963  1
  Th  Th15  1  0.196855  0.601339  0.601954  1
  Cd  Cd16  1  0.833257  0.833252  0.834175  1
  Cd  Cd17  1  0.832852  0.832851  0.498672  1
  Cd  Cd18  1  0.832668  0.498751  0.833341  1
  Cd  Cd19  1  0.498791  0.832635  0.833340  1
  Ir  Ir20  1  0.391674  0.391634  0.392940  1
  Ir  Ir21  1  0.391057  0.391032  0.823682  1
  Ir  Ir22  1  0.391885  0.823880  0.391224  1
  Ir  Ir23  1  0.823910  0.391868  0.391214  1
