# generated using pymatgen
data_Dy4Sc4Re(B8Ru)3
_symmetry_space_group_name_H-M   'P 1'
_cell_length_a   3.57524600
_cell_length_b   8.98251272
_cell_length_c   11.36878091
_cell_angle_alpha   90.04580747
_cell_angle_beta   90.00000000
_cell_angle_gamma   90.00000000
_symmetry_Int_Tables_number   1
_chemical_formula_structural   Dy4Sc4Re(B8Ru)3
_chemical_formula_sum   'Dy4 Sc4 Re1 B24 Ru3'
_cell_volume   365.10478815
_cell_formula_units_Z   1
loop_
 _symmetry_equiv_pos_site_id
 _symmetry_equiv_pos_as_xyz
  1  'x, y, z'
loop_
 _atom_site_type_symbol
 _atom_site_label
 _atom_site_symmetry_multiplicity
 _atom_site_fract_x
 _atom_site_fract_y
 _atom_site_fract_z
 _atom_site_occupancy
  Dy  Dy0  1  0.000000  0.320357  0.415208  1
  Dy  Dy1  1  0.000000  0.680808  0.587130  1
  Dy  Dy2  1  0.000000  0.820631  0.084232  1
  Dy  Dy3  1  0.000000  0.178542  0.913671  1
  Sc  Sc4  1  0.000000  0.945154  0.372615  1
  Sc  Sc5  1  0.000000  0.053717  0.627448  1
  Sc  Sc6  1  0.000000  0.444630  0.127578  1
  Sc  Sc7  1  0.000000  0.555684  0.872818  1
  Re  Re8  1  0.000000  0.859392  0.818471  1
  B  B9  1  0.500000  0.555345  0.432689  1
  B  B10  1  0.500000  0.444619  0.567268  1
  B  B11  1  0.500000  0.055469  0.067651  1
  B  B12  1  0.500000  0.945497  0.933024  1
  B  B13  1  0.500000  0.753654  0.418333  1
  B  B14  1  0.500000  0.246323  0.581498  1
  B  B15  1  0.500000  0.253356  0.081692  1
  B  B16  1  0.500000  0.746261  0.918490  1
  B  B17  1  0.500000  0.793721  0.264886  1
  B  B18  1  0.500000  0.206222  0.734588  1
  B  B19  1  0.500000  0.294073  0.235049  1
  B  B20  1  0.500000  0.705059  0.764773  1
  B  B21  1  0.500000  0.628849  0.182660  1
  B  B22  1  0.500000  0.370949  0.816950  1
  B  B23  1  0.500000  0.129111  0.317452  1
  B  B24  1  0.500000  0.871008  0.682820  1
  B  B25  1  0.500000  0.982540  0.214237  1
  B  B26  1  0.500000  0.018806  0.785820  1
  B  B27  1  0.500000  0.482244  0.286027  1
  B  B28  1  0.500000  0.517593  0.713883  1
  B  B29  1  0.500000  0.598221  0.027240  1
  B  B30  1  0.500000  0.400840  0.973437  1
  B  B31  1  0.500000  0.099354  0.472847  1
  B  B32  1  0.500000  0.901100  0.526131  1
  Ru  Ru33  1  0.000000  0.640328  0.318292  1
  Ru  Ru34  1  0.000000  0.359731  0.681186  1
  Ru  Ru35  1  0.000000  0.140811  0.181904  1
