# generated using pymatgen
data_Li2Yb5Si8Ni15
_symmetry_space_group_name_H-M   'P 1'
_cell_length_a   13.12906907
_cell_length_b   13.12906979
_cell_length_c   3.93083700
_cell_angle_alpha   90.00000000
_cell_angle_beta   90.00000000
_cell_angle_gamma   141.78093571
_symmetry_Int_Tables_number   1
_chemical_formula_structural   Li2Yb5Si8Ni15
_chemical_formula_sum   'Li2 Yb5 Si8 Ni15'
_cell_volume   419.19092479
_cell_formula_units_Z   1
loop_
 _symmetry_equiv_pos_site_id
 _symmetry_equiv_pos_as_xyz
  1  'x, y, z'
loop_
 _atom_site_type_symbol
 _atom_site_label
 _atom_site_symmetry_multiplicity
 _atom_site_fract_x
 _atom_site_fract_y
 _atom_site_fract_z
 _atom_site_occupancy
  Li  Li0  1  0.388010  0.060108  0.000000  1
  Li  Li1  1  0.060108  0.388010  0.000000  1
  Yb  Yb2  1  0.817765  0.605516  0.000000  1
  Yb  Yb3  1  0.605516  0.817765  0.000000  1
  Yb  Yb4  1  0.182548  0.789042  0.500000  1
  Yb  Yb5  1  0.789042  0.182548  0.500000  1
  Yb  Yb6  1  0.219584  0.219584  0.500000  1
  Si  Si7  1  0.153425  0.993881  0.000000  1
  Si  Si8  1  0.993881  0.153425  0.000000  1
  Si  Si9  1  0.489326  0.965095  0.000000  1
  Si  Si10  1  0.965095  0.489326  0.000000  1
  Si  Si11  1  0.581956  0.305358  0.500000  1
  Si  Si12  1  0.305358  0.581956  0.500000  1
  Si  Si13  1  0.495335  0.495335  0.000000  1
  Si  Si14  1  0.756848  0.756848  0.500000  1
  Ni  Ni15  1  0.675938  0.276856  0.000000  1
  Ni  Ni16  1  0.276856  0.675938  0.000000  1
  Ni  Ni17  1  0.447295  0.282398  0.000000  1
  Ni  Ni18  1  0.282398  0.447295  0.000000  1
  Ni  Ni19  1  0.003960  0.872513  0.500000  1
  Ni  Ni20  1  0.872513  0.003960  0.500000  1
  Ni  Ni21  1  0.299700  0.079548  0.500000  1
  Ni  Ni22  1  0.079548  0.299700  0.500000  1
  Ni  Ni23  1  0.518036  0.083882  0.500000  1
  Ni  Ni24  1  0.083882  0.518036  0.500000  1
  Ni  Ni25  1  0.846862  0.450725  0.500000  1
  Ni  Ni26  1  0.450725  0.846862  0.500000  1
  Ni  Ni27  1  0.576022  0.476545  0.500000  1
  Ni  Ni28  1  0.476545  0.576022  0.500000  1
  Ni  Ni29  1  0.922164  0.922164  0.000000  1
