# generated using pymatgen
data_La16Cd4Ir3Os
_symmetry_space_group_name_H-M   'P 1'
_cell_length_a   10.15732348
_cell_length_b   10.15732321
_cell_length_c   10.15728127
_cell_angle_alpha   59.63977071
_cell_angle_beta   59.63976892
_cell_angle_gamma   59.63995125
_symmetry_Int_Tables_number   1
_chemical_formula_structural   La16Cd4Ir3Os
_chemical_formula_sum   'La16 Cd4 Ir3 Os1'
_cell_volume   734.94026382
_cell_formula_units_Z   1
loop_
 _symmetry_equiv_pos_site_id
 _symmetry_equiv_pos_as_xyz
  1  'x, y, z'
loop_
 _atom_site_type_symbol
 _atom_site_label
 _atom_site_symmetry_multiplicity
 _atom_site_fract_x
 _atom_site_fract_y
 _atom_site_fract_z
 _atom_site_occupancy
  La  La0  1  0.596687  0.596687  0.596695  1
  La  La1  1  0.595996  0.595996  0.208983  1
  La  La2  1  0.595990  0.208984  0.595996  1
  La  La3  1  0.208984  0.595990  0.595996  1
  La  La4  1  0.062322  0.439664  0.439662  1
  La  La5  1  0.440458  0.059360  0.059356  1
  La  La6  1  0.439664  0.062322  0.439662  1
  La  La7  1  0.059360  0.440458  0.059356  1
  La  La8  1  0.439665  0.439665  0.062327  1
  La  La9  1  0.059352  0.059352  0.440466  1
  La  La10  1  0.190386  0.810356  0.810358  1
  La  La11  1  0.806475  0.191505  0.191499  1
  La  La12  1  0.810356  0.190386  0.810358  1
  La  La13  1  0.191505  0.806475  0.191499  1
  La  La14  1  0.810359  0.810359  0.190387  1
  La  La15  1  0.191506  0.191506  0.806464  1
  Cd  Cd16  1  0.829136  0.829136  0.829137  1
  Cd  Cd17  1  0.829473  0.829473  0.510757  1
  Cd  Cd18  1  0.829473  0.510757  0.829472  1
  Cd  Cd19  1  0.510757  0.829473  0.829472  1
  Ir  Ir20  1  0.391467  0.391467  0.828929  1
  Ir  Ir21  1  0.391464  0.828928  0.391465  1
  Ir  Ir22  1  0.828928  0.391464  0.391465  1
  Os  Os23  1  0.390237  0.390237  0.390237  1
