# generated using pymatgen
data_Dy4Tc3B8Ru7
_symmetry_space_group_name_H-M   'P 1'
_cell_length_a   3.08654500
_cell_length_b   8.77637228
_cell_length_c   10.19702737
_cell_angle_alpha   90.12086847
_cell_angle_beta   90.00000000
_cell_angle_gamma   90.00000000
_symmetry_Int_Tables_number   1
_chemical_formula_structural   Dy4Tc3B8Ru7
_chemical_formula_sum   'Dy4 Tc3 B8 Ru7'
_cell_volume   276.22327420
_cell_formula_units_Z   1
loop_
 _symmetry_equiv_pos_site_id
 _symmetry_equiv_pos_as_xyz
  1  'x, y, z'
loop_
 _atom_site_type_symbol
 _atom_site_label
 _atom_site_symmetry_multiplicity
 _atom_site_fract_x
 _atom_site_fract_y
 _atom_site_fract_z
 _atom_site_occupancy
  Dy  Dy0  1  0.500000  0.839330  0.181284  1
  Dy  Dy1  1  0.500000  0.159832  0.818516  1
  Dy  Dy2  1  0.500000  0.660168  0.682899  1
  Dy  Dy3  1  0.500000  0.339888  0.317146  1
  Tc  Tc4  1  0.000000  0.658543  0.954046  1
  Tc  Tc5  1  0.000000  0.341044  0.045625  1
  Tc  Tc6  1  0.000000  0.843612  0.455099  1
  B  B7  1  0.500000  0.963513  0.586988  1
  B  B8  1  0.500000  0.029794  0.411499  1
  B  B9  1  0.500000  0.849297  0.902912  1
  B  B10  1  0.500000  0.152019  0.097648  1
  B  B11  1  0.500000  0.650337  0.400660  1
  B  B12  1  0.500000  0.351542  0.599272  1
  B  B13  1  0.500000  0.467279  0.913705  1
  B  B14  1  0.500000  0.533986  0.085776  1
  Ru  Ru15  1  0.000000  0.160421  0.546556  1
  Ru  Ru16  1  0.000000  0.000243  0.000333  1
  Ru  Ru17  1  0.000000  0.406602  0.759381  1
  Ru  Ru18  1  0.000000  0.592701  0.240001  1
  Ru  Ru19  1  0.000000  0.499823  0.500251  1
  Ru  Ru20  1  0.000000  0.907833  0.739508  1
  Ru  Ru21  1  0.000000  0.092191  0.260895  1
