# generated using pymatgen
data_Er2LuCoSn3Pt2
_symmetry_space_group_name_H-M   'P 1'
_cell_length_a   7.51743387
_cell_length_b   7.54150879
_cell_length_c   3.77155100
_cell_angle_alpha   90.00000000
_cell_angle_beta   90.00000000
_cell_angle_gamma   120.10599071
_symmetry_Int_Tables_number   1
_chemical_formula_structural   Er2LuCoSn3Pt2
_chemical_formula_sum   'Er2 Lu1 Co1 Sn3 Pt2'
_cell_volume   184.97525806
_cell_formula_units_Z   1
loop_
 _symmetry_equiv_pos_site_id
 _symmetry_equiv_pos_as_xyz
  1  'x, y, z'
loop_
 _atom_site_type_symbol
 _atom_site_label
 _atom_site_symmetry_multiplicity
 _atom_site_fract_x
 _atom_site_fract_y
 _atom_site_fract_z
 _atom_site_occupancy
  Er  Er0  1  0.403034  0.403135  0.500000  1
  Er  Er1  1  0.596966  0.000101  0.500000  1
  Lu  Lu2  1  0.000000  0.597460  0.500000  1
  Co  Co3  1  0.000000  0.999107  0.500000  1
  Sn  Sn4  1  0.749964  0.748742  0.000000  1
  Sn  Sn5  1  0.250036  0.998777  0.000000  1
  Sn  Sn6  1  0.000000  0.250747  0.000000  1
  Pt  Pt7  1  0.669377  0.335654  0.000000  1
  Pt  Pt8  1  0.330623  0.666277  0.000000  1
