# generated using pymatgen
data_Er3Lu5Tc3OsC8
_symmetry_space_group_name_H-M   'P 1'
_cell_length_a   4.99905500
_cell_length_b   6.48214686
_cell_length_c   9.69474555
_cell_angle_alpha   89.72491373
_cell_angle_beta   90.00000000
_cell_angle_gamma   90.00000000
_symmetry_Int_Tables_number   1
_chemical_formula_structural   Er3Lu5Tc3OsC8
_chemical_formula_sum   'Er3 Lu5 Tc3 Os1 C8'
_cell_volume   314.15081468
_cell_formula_units_Z   1
loop_
 _symmetry_equiv_pos_site_id
 _symmetry_equiv_pos_as_xyz
  1  'x, y, z'
loop_
 _atom_site_type_symbol
 _atom_site_label
 _atom_site_symmetry_multiplicity
 _atom_site_fract_x
 _atom_site_fract_y
 _atom_site_fract_z
 _atom_site_occupancy
  Er  Er0  1  0.750000  0.465449  0.783316  1
  Er  Er1  1  0.750000  0.967096  0.714504  1
  Er  Er2  1  0.250000  0.032561  0.283585  1
  Lu  Lu3  1  0.250000  0.674158  0.558338  1
  Lu  Lu4  1  0.750000  0.325911  0.440612  1
  Lu  Lu5  1  0.750000  0.826234  0.059157  1
  Lu  Lu6  1  0.250000  0.172996  0.941943  1
  Lu  Lu7  1  0.250000  0.533160  0.217204  1
  Tc  Tc8  1  0.250000  0.716594  0.868411  1
  Tc  Tc9  1  0.750000  0.284009  0.131032  1
  Tc  Tc10  1  0.750000  0.782443  0.368571  1
  Os  Os11  1  0.250000  0.217453  0.631562  1
  C  C12  1  0.250000  0.449249  0.759172  1
  C  C13  1  0.750000  0.551430  0.240235  1
  C  C14  1  0.750000  0.051591  0.260046  1
  C  C15  1  0.250000  0.950377  0.741016  1
  C  C16  1  0.250000  0.825243  0.053537  1
  C  C17  1  0.750000  0.172720  0.946706  1
  C  C18  1  0.750000  0.671853  0.553921  1
  C  C19  1  0.250000  0.329469  0.447134  1
