# generated using pymatgen
data_Nb12Al15Cu7Ir2
_symmetry_space_group_name_H-M   'P 1'
_cell_length_a   8.77817114
_cell_length_b   8.84070530
_cell_length_c   8.18112500
_cell_angle_alpha   90.00000000
_cell_angle_beta   90.00000000
_cell_angle_gamma   120.69208270
_symmetry_Int_Tables_number   1
_chemical_formula_structural   Nb12Al15Cu7Ir2
_chemical_formula_sum   'Nb12 Al15 Cu7 Ir2'
_cell_volume   545.96330673
_cell_formula_units_Z   1
loop_
 _symmetry_equiv_pos_site_id
 _symmetry_equiv_pos_as_xyz
  1  'x, y, z'
loop_
 _atom_site_type_symbol
 _atom_site_label
 _atom_site_symmetry_multiplicity
 _atom_site_fract_x
 _atom_site_fract_y
 _atom_site_fract_z
 _atom_site_occupancy
  Nb  Nb0  1  0.330827  0.995084  0.067648  1
  Nb  Nb1  1  0.670659  0.007778  0.932003  1
  Nb  Nb2  1  0.998513  0.331419  0.069272  1
  Nb  Nb3  1  0.670659  0.007778  0.567997  1
  Nb  Nb4  1  0.998513  0.331419  0.430728  1
  Nb  Nb5  1  0.999118  0.667012  0.930278  1
  Nb  Nb6  1  0.330827  0.995084  0.432352  1
  Nb  Nb7  1  0.999118  0.667012  0.569722  1
  Nb  Nb8  1  0.667016  0.664180  0.067203  1
  Nb  Nb9  1  0.332197  0.335396  0.932691  1
  Nb  Nb10  1  0.332197  0.335396  0.567309  1
  Nb  Nb11  1  0.667016  0.664180  0.432797  1
  Al  Al12  1  0.653373  0.504479  0.750000  1
  Al  Al13  1  0.657499  0.152987  0.250000  1
  Al  Al14  1  0.345693  0.497456  0.250000  1
  Al  Al15  1  0.844587  0.339459  0.750000  1
  Al  Al16  1  0.156601  0.660146  0.250000  1
  Al  Al17  1  0.339197  0.672331  0.511740  1
  Al  Al18  1  0.659862  0.334666  0.494623  1
  Al  Al19  1  0.659862  0.334666  0.005377  1
  Al  Al20  1  0.339197  0.672331  0.988260  1
  Al  Al21  1  0.182612  0.002852  0.750000  1
  Al  Al22  1  0.822799  0.991527  0.250000  1
  Al  Al23  1  0.010006  0.176543  0.750000  1
  Al  Al24  1  0.992103  0.821526  0.250000  1
  Al  Al25  1  0.826003  0.833686  0.750000  1
  Al  Al26  1  0.175771  0.167611  0.250000  1
  Cu  Cu27  1  0.165471  0.495295  0.750000  1
  Cu  Cu28  1  0.832874  0.501314  0.250000  1
  Cu  Cu29  1  0.506970  0.672547  0.750000  1
  Cu  Cu30  1  0.503897  0.168193  0.750000  1
  Cu  Cu31  1  0.494553  0.328795  0.250000  1
  Cu  Cu32  1  0.497774  0.829930  0.250000  1
  Cu  Cu33  1  0.334160  0.840744  0.750000  1
  Ir  Ir34  1  0.001239  0.999587  0.500595  1
  Ir  Ir35  1  0.001239  0.999587  0.999405  1
