# generated using pymatgen
data_CeNd3(HgPd2)2
_symmetry_space_group_name_H-M   'P 1'
_cell_length_a   7.83718918
_cell_length_b   7.83718918
_cell_length_c   3.88117200
_cell_angle_alpha   90.00000000
_cell_angle_beta   90.00000000
_cell_angle_gamma   88.99370534
_symmetry_Int_Tables_number   1
_chemical_formula_structural   CeNd3(HgPd2)2
_chemical_formula_sum   'Ce1 Nd3 Hg2 Pd4'
_cell_volume   238.35077310
_cell_formula_units_Z   1
loop_
 _symmetry_equiv_pos_site_id
 _symmetry_equiv_pos_as_xyz
  1  'x, y, z'
loop_
 _atom_site_type_symbol
 _atom_site_label
 _atom_site_symmetry_multiplicity
 _atom_site_fract_x
 _atom_site_fract_y
 _atom_site_fract_z
 _atom_site_occupancy
  Ce  Ce0  1  0.325288  0.174712  0.500001  1
  Nd  Nd1  1  0.824096  0.324874  0.500001  1
  Nd  Nd2  1  0.175126  0.675905  0.500001  1
  Nd  Nd3  1  0.675685  0.824316  0.500001  1
  Hg  Hg4  1  0.999309  0.000667  0.000000  1
  Hg  Hg5  1  0.499333  0.500691  0.000000  1
  Pd  Pd6  1  0.619578  0.129270  0.000000  1
  Pd  Pd7  1  0.133939  0.366061  0.000000  1
  Pd  Pd8  1  0.876915  0.623084  0.000000  1
  Pd  Pd9  1  0.370730  0.880421  0.000000  1
