# generated using pymatgen
data_Hf3FeRe2SiGe2
_symmetry_space_group_name_H-M   'P 1'
_cell_length_a   6.95680526
_cell_length_b   6.87236659
_cell_length_c   3.43675900
_cell_angle_alpha   90.00000000
_cell_angle_beta   90.00000000
_cell_angle_gamma   119.59930310
_symmetry_Int_Tables_number   1
_chemical_formula_structural   Hf3FeRe2SiGe2
_chemical_formula_sum   'Hf3 Fe1 Re2 Si1 Ge2'
_cell_volume   142.86810948
_cell_formula_units_Z   1
loop_
 _symmetry_equiv_pos_site_id
 _symmetry_equiv_pos_as_xyz
  1  'x, y, z'
loop_
 _atom_site_type_symbol
 _atom_site_label
 _atom_site_symmetry_multiplicity
 _atom_site_fract_x
 _atom_site_fract_y
 _atom_site_fract_z
 _atom_site_occupancy
  Hf  Hf0  1  0.591176  0.989578  0.500000  1
  Hf  Hf1  1  0.408824  0.398403  0.500000  1
  Hf  Hf2  1  0.000000  0.605099  0.500000  1
  Fe  Fe3  1  0.000000  0.249290  0.000000  1
  Re  Re4  1  0.247471  0.001005  0.000000  1
  Re  Re5  1  0.752529  0.753533  0.000000  1
  Si  Si6  1  0.000000  0.021248  0.500000  1
  Ge  Ge7  1  0.323669  0.652758  0.000000  1
  Ge  Ge8  1  0.676331  0.329087  0.000000  1
