# generated using pymatgen
data_SmThSiPd14
_symmetry_space_group_name_H-M   'P 1'
_cell_length_a   9.00434700
_cell_length_b   9.00434700
_cell_length_c   7.09588700
_cell_angle_alpha   90.00000000
_cell_angle_beta   90.00000000
_cell_angle_gamma   90.00000000
_symmetry_Int_Tables_number   1
_chemical_formula_structural   SmThSiPd14
_chemical_formula_sum   'Sm2 Th2 Si2 Pd28'
_cell_volume   575.32220586
_cell_formula_units_Z   2
loop_
 _symmetry_equiv_pos_site_id
 _symmetry_equiv_pos_as_xyz
  1  'x, y, z'
loop_
 _atom_site_type_symbol
 _atom_site_label
 _atom_site_symmetry_multiplicity
 _atom_site_fract_x
 _atom_site_fract_y
 _atom_site_fract_z
 _atom_site_occupancy
  Sm  Sm0  1  0.500000  0.000000  0.934200  1
  Sm  Sm1  1  0.000000  0.500000  0.065800  1
  Th  Th2  1  0.000000  0.000000  0.500000  1
  Th  Th3  1  0.500000  0.500000  0.500000  1
  Si  Si4  1  0.500000  0.000000  0.449567  1
  Si  Si5  1  0.000000  0.500000  0.550433  1
  Pd  Pd6  1  0.334974  0.834974  0.614470  1
  Pd  Pd7  1  0.334974  0.165026  0.614470  1
  Pd  Pd8  1  0.665026  0.834974  0.614470  1
  Pd  Pd9  1  0.665026  0.165026  0.614470  1
  Pd  Pd10  1  0.165026  0.665026  0.385530  1
  Pd  Pd11  1  0.165026  0.334974  0.385530  1
  Pd  Pd12  1  0.834974  0.665026  0.385530  1
  Pd  Pd13  1  0.834974  0.334974  0.385530  1
  Pd  Pd14  1  0.500000  0.769849  0.258196  1
  Pd  Pd15  1  0.500000  0.230151  0.258196  1
  Pd  Pd16  1  0.269849  0.000000  0.258196  1
  Pd  Pd17  1  0.730151  0.000000  0.258196  1
  Pd  Pd18  1  0.000000  0.730151  0.741804  1
  Pd  Pd19  1  0.000000  0.269849  0.741804  1
  Pd  Pd20  1  0.230151  0.500000  0.741804  1
  Pd  Pd21  1  0.769849  0.500000  0.741804  1
  Pd  Pd22  1  0.500000  0.349385  0.851731  1
  Pd  Pd23  1  0.500000  0.650615  0.851731  1
  Pd  Pd24  1  0.849385  0.000000  0.851731  1
  Pd  Pd25  1  0.150615  0.000000  0.851731  1
  Pd  Pd26  1  0.000000  0.150615  0.148269  1
  Pd  Pd27  1  0.000000  0.849385  0.148269  1
  Pd  Pd28  1  0.650615  0.500000  0.148269  1
  Pd  Pd29  1  0.349385  0.500000  0.148269  1
  Pd  Pd30  1  0.250000  0.750000  0.000000  1
  Pd  Pd31  1  0.250000  0.250000  0.000000  1
  Pd  Pd32  1  0.750000  0.750000  0.000000  1
  Pd  Pd33  1  0.750000  0.250000  0.000000  1
