# generated using pymatgen
data_LiCr5(SiRu2)6
_symmetry_space_group_name_H-M   'P 1'
_cell_length_a   4.17523200
_cell_length_b   5.90118300
_cell_length_c   12.52956800
_cell_angle_alpha   90.00000000
_cell_angle_beta   90.00144524
_cell_angle_gamma   90.00000000
_symmetry_Int_Tables_number   1
_chemical_formula_structural   LiCr5(SiRu2)6
_chemical_formula_sum   'Li1 Cr5 Si6 Ru12'
_cell_volume   308.71362147
_cell_formula_units_Z   1
loop_
 _symmetry_equiv_pos_site_id
 _symmetry_equiv_pos_as_xyz
  1  'x, y, z'
loop_
 _atom_site_type_symbol
 _atom_site_label
 _atom_site_symmetry_multiplicity
 _atom_site_fract_x
 _atom_site_fract_y
 _atom_site_fract_z
 _atom_site_occupancy
  Li  Li0  1  0.500532  0.500000  0.833324  1
  Cr  Cr1  1  0.999994  0.000000  0.995336  1
  Cr  Cr2  1  0.499640  0.500000  0.165447  1
  Cr  Cr3  1  0.999673  0.000000  0.333359  1
  Cr  Cr4  1  0.499979  0.500000  0.501217  1
  Cr  Cr5  1  0.000367  0.000000  0.671293  1
  Si  Si6  1  0.999985  0.500000  0.996745  1
  Si  Si7  1  0.499641  0.000000  0.163106  1
  Si  Si8  1  0.999644  0.500000  0.333339  1
  Si  Si9  1  0.500001  0.000000  0.503593  1
  Si  Si10  1  0.000360  0.500000  0.669916  1
  Si  Si11  1  0.500341  0.000000  0.833304  1
  Ru  Ru12  1  0.499971  0.248539  0.001917  1
  Ru  Ru13  1  0.499971  0.751460  0.001917  1
  Ru  Ru14  1  0.999645  0.250011  0.167541  1
  Ru  Ru15  1  0.999645  0.749990  0.167541  1
  Ru  Ru16  1  0.499698  0.248280  0.333371  1
  Ru  Ru17  1  0.499698  0.751722  0.333371  1
  Ru  Ru18  1  0.999996  0.250048  0.499159  1
  Ru  Ru19  1  0.999996  0.749953  0.499159  1
  Ru  Ru20  1  0.500303  0.248502  0.664723  1
  Ru  Ru21  1  0.500303  0.751500  0.664723  1
  Ru  Ru22  1  0.000309  0.245983  0.833297  1
  Ru  Ru23  1  0.000309  0.754018  0.833297  1
