# generated using pymatgen
data_TbNd16(DyIr4)3
_symmetry_space_group_name_H-M   'P 1'
_cell_length_a   11.20289700
_cell_length_b   11.20289700
_cell_length_c   6.52789800
_cell_angle_alpha   90.00000000
_cell_angle_beta   90.00000000
_cell_angle_gamma   90.00000000
_symmetry_Int_Tables_number   1
_chemical_formula_structural   TbNd16(DyIr4)3
_chemical_formula_sum   'Tb1 Nd16 Dy3 Ir12'
_cell_volume   819.28319349
_cell_formula_units_Z   1
loop_
 _symmetry_equiv_pos_site_id
 _symmetry_equiv_pos_as_xyz
  1  'x, y, z'
loop_
 _atom_site_type_symbol
 _atom_site_label
 _atom_site_symmetry_multiplicity
 _atom_site_fract_x
 _atom_site_fract_y
 _atom_site_fract_z
 _atom_site_occupancy
  Tb  Tb0  1  0.500000  0.500000  0.500000  1
  Nd  Nd1  1  0.289598  0.088209  0.380765  1
  Nd  Nd2  1  0.289598  0.911764  0.880743  1
  Nd  Nd3  1  0.710402  0.088236  0.880743  1
  Nd  Nd4  1  0.710402  0.911791  0.380765  1
  Nd  Nd5  1  0.588237  0.789623  0.880811  1
  Nd  Nd6  1  0.588233  0.210295  0.380761  1
  Nd  Nd7  1  0.411767  0.789705  0.380761  1
  Nd  Nd8  1  0.411763  0.210377  0.880811  1
  Nd  Nd9  1  0.210295  0.411767  0.619239  1
  Nd  Nd10  1  0.210377  0.588237  0.119189  1
  Nd  Nd11  1  0.789623  0.411763  0.119189  1
  Nd  Nd12  1  0.789705  0.588233  0.619239  1
  Nd  Nd13  1  0.911764  0.710402  0.119257  1
  Nd  Nd14  1  0.911791  0.289598  0.619235  1
  Nd  Nd15  1  0.088209  0.710402  0.619235  1
  Nd  Nd16  1  0.088236  0.289598  0.119257  1
  Dy  Dy17  1  0.000000  0.000000  0.500000  1
  Dy  Dy18  1  0.000000  0.000000  0.000000  1
  Dy  Dy19  1  0.500000  0.500000  0.000000  1
  Ir  Ir20  1  0.850561  0.149429  0.250012  1
  Ir  Ir21  1  0.850571  0.850561  0.749988  1
  Ir  Ir22  1  0.149429  0.149439  0.749988  1
  Ir  Ir23  1  0.149439  0.850571  0.250012  1
  Ir  Ir24  1  0.649663  0.350353  0.750316  1
  Ir  Ir25  1  0.649647  0.649663  0.249684  1
  Ir  Ir26  1  0.350353  0.350337  0.249684  1
  Ir  Ir27  1  0.350337  0.649647  0.750316  1
  Ir  Ir28  1  0.500000  0.000000  0.119809  1
  Ir  Ir29  1  0.500000  0.000000  0.619775  1
  Ir  Ir30  1  0.000000  0.500000  0.880191  1
  Ir  Ir31  1  0.000000  0.500000  0.380225  1
