# generated using pymatgen
data_K4(PdO2)3
_symmetry_space_group_name_H-M   'P 1'
_cell_length_a   5.55535630
_cell_length_b   5.55535651
_cell_length_c   8.69683969
_cell_angle_alpha   89.08711607
_cell_angle_beta   89.08711389
_cell_angle_gamma   68.85958981
_symmetry_Int_Tables_number   1
_chemical_formula_structural   K4(PdO2)3
_chemical_formula_sum   'K4 Pd3 O6'
_cell_volume   250.29143063
_cell_formula_units_Z   1
loop_
 _symmetry_equiv_pos_site_id
 _symmetry_equiv_pos_as_xyz
  1  'x, y, z'
loop_
 _atom_site_type_symbol
 _atom_site_label
 _atom_site_symmetry_multiplicity
 _atom_site_fract_x
 _atom_site_fract_y
 _atom_site_fract_z
 _atom_site_occupancy
  K  K0  1  0.673265  0.673265  0.629102  1
  K  K1  1  0.326735  0.326735  0.370898  1
  K  K2  1  0.652461  0.652461  0.105301  1
  K  K3  1  0.347539  0.347539  0.894699  1
  Pd  Pd4  1  0.000000  0.000000  0.000000  1
  Pd  Pd5  1  0.962920  0.962920  0.330843  1
  Pd  Pd6  1  0.037080  0.037080  0.669157  1
  O  O7  1  0.138973  0.717840  0.159708  1
  O  O8  1  0.717840  0.138973  0.159708  1
  O  O9  1  0.861027  0.282160  0.840292  1
  O  O10  1  0.282160  0.861027  0.840292  1
  O  O11  1  0.209149  0.790851  0.500000  1
  O  O12  1  0.790851  0.209149  0.500000  1
