# generated using pymatgen
data_Sm5Th3(SiI6)2
_symmetry_space_group_name_H-M   'P 1'
_cell_length_a   4.31217800
_cell_length_b   14.25939270
_cell_length_c   15.10214826
_cell_angle_alpha   89.83089607
_cell_angle_beta   90.00000000
_cell_angle_gamma   90.00000000
_symmetry_Int_Tables_number   1
_chemical_formula_structural   Sm5Th3(SiI6)2
_chemical_formula_sum   'Sm5 Th3 Si2 I12'
_cell_volume   928.61254636
_cell_formula_units_Z   1
loop_
 _symmetry_equiv_pos_site_id
 _symmetry_equiv_pos_as_xyz
  1  'x, y, z'
loop_
 _atom_site_type_symbol
 _atom_site_label
 _atom_site_symmetry_multiplicity
 _atom_site_fract_x
 _atom_site_fract_y
 _atom_site_fract_z
 _atom_site_occupancy
  Sm  Sm0  1  0.500000  0.113799  0.348524  1
  Sm  Sm1  1  0.500000  0.887461  0.650079  1
  Sm  Sm2  1  0.500000  0.613136  0.151301  1
  Sm  Sm3  1  0.500000  0.386850  0.848572  1
  Sm  Sm4  1  0.000000  0.388787  0.074632  1
  Th  Th5  1  0.000000  0.108743  0.572642  1
  Th  Th6  1  0.000000  0.891262  0.427340  1
  Th  Th7  1  0.000000  0.609212  0.927016  1
  Si  Si8  1  0.500000  0.000390  0.499541  1
  Si  Si9  1  0.500000  0.499625  0.000125  1
  I  I10  1  0.500000  0.244077  0.161980  1
  I  I11  1  0.500000  0.756684  0.838110  1
  I  I12  1  0.500000  0.743443  0.337572  1
  I  I13  1  0.500000  0.256754  0.662321  1
  I  I14  1  0.000000  0.259714  0.413328  1
  I  I15  1  0.000000  0.740285  0.586896  1
  I  I16  1  0.000000  0.759429  0.086872  1
  I  I17  1  0.000000  0.241459  0.914172  1
  I  I18  1  0.000000  0.999504  0.239329  1
  I  I19  1  0.000000  0.000165  0.760714  1
  I  I20  1  0.000000  0.498941  0.259664  1
  I  I21  1  0.000000  0.500282  0.739269  1
