# generated using pymatgen
data_Tb3ThAl8(Ga5Ir3)2
_symmetry_space_group_name_H-M   'P 1'
_cell_length_a   7.58553344
_cell_length_b   7.59111744
_cell_length_c   9.54456954
_cell_angle_alpha   90.12519155
_cell_angle_beta   89.89531156
_cell_angle_gamma   119.65465793
_symmetry_Int_Tables_number   1
_chemical_formula_structural   Tb3ThAl8(Ga5Ir3)2
_chemical_formula_sum   'Tb3 Th1 Al8 Ga10 Ir6'
_cell_volume   477.61551353
_cell_formula_units_Z   1
loop_
 _symmetry_equiv_pos_site_id
 _symmetry_equiv_pos_as_xyz
  1  'x, y, z'
loop_
 _atom_site_type_symbol
 _atom_site_label
 _atom_site_symmetry_multiplicity
 _atom_site_fract_x
 _atom_site_fract_y
 _atom_site_fract_z
 _atom_site_occupancy
  Tb  Tb0  1  0.002485  0.333986  0.753777  1
  Tb  Tb1  1  0.671484  0.997567  0.249930  1
  Tb  Tb2  1  0.324905  0.998496  0.746128  1
  Th  Th3  1  0.998745  0.670309  0.250143  1
  Al  Al4  1  0.002310  0.329872  0.429986  1
  Al  Al5  1  0.666213  0.000731  0.575438  1
  Al  Al6  1  0.663566  0.998951  0.924434  1
  Al  Al7  1  0.340470  0.007177  0.070077  1
  Al  Al8  1  0.331982  0.331335  0.557648  1
  Al  Al9  1  0.663649  0.666375  0.450838  1
  Al  Al10  1  0.663690  0.666390  0.049228  1
  Al  Al11  1  0.331273  0.332137  0.942439  1
  Ga  Ga12  1  0.131174  0.132814  0.250081  1
  Ga  Ga13  1  0.870372  0.878358  0.749980  1
  Ga  Ga14  1  0.998462  0.328681  0.078320  1
  Ga  Ga15  1  0.000590  0.666301  0.915836  1
  Ga  Ga16  1  0.998176  0.662866  0.584312  1
  Ga  Ga17  1  0.342107  0.004621  0.421539  1
  Ga  Ga18  1  0.348125  0.549184  0.250573  1
  Ga  Ga19  1  0.650816  0.445266  0.749557  1
  Ga  Ga20  1  0.545046  0.342018  0.249392  1
  Ga  Ga21  1  0.453092  0.659864  0.750374  1
  Ir  Ir22  1  0.669038  0.328521  0.999679  1
  Ir  Ir23  1  0.330576  0.673534  0.001859  1
  Ir  Ir24  1  0.328249  0.667922  0.499884  1
  Ir  Ir25  1  0.674436  0.330451  0.498657  1
  Ir  Ir26  1  0.000641  0.997053  0.001289  1
  Ir  Ir27  1  0.998328  0.999220  0.498601  1
