# generated using pymatgen
data_Li8La7DySn3Sb5
_symmetry_space_group_name_H-M   'P 1'
_cell_length_a   9.58588655
_cell_length_b   9.58588734
_cell_length_c   7.76571400
_cell_angle_alpha   90.04930508
_cell_angle_beta   89.95069492
_cell_angle_gamma   119.94278473
_symmetry_Int_Tables_number   1
_chemical_formula_structural   Li8La7DySn3Sb5
_chemical_formula_sum   'Li8 La7 Dy1 Sn3 Sb5'
_cell_volume   618.33882144
_cell_formula_units_Z   1
loop_
 _symmetry_equiv_pos_site_id
 _symmetry_equiv_pos_as_xyz
  1  'x, y, z'
loop_
 _atom_site_type_symbol
 _atom_site_label
 _atom_site_symmetry_multiplicity
 _atom_site_fract_x
 _atom_site_fract_y
 _atom_site_fract_z
 _atom_site_occupancy
  Li  Li0  1  0.166433  0.833567  0.209477  1
  Li  Li1  1  0.331415  0.165451  0.699404  1
  Li  Li2  1  0.834549  0.668585  0.699404  1
  Li  Li3  1  0.166072  0.332539  0.210484  1
  Li  Li4  1  0.667461  0.833928  0.210484  1
  Li  Li5  1  0.834376  0.165624  0.696965  1
  Li  Li6  1  0.333206  0.666794  0.805284  1
  Li  Li7  1  0.666923  0.333077  0.308885  1
  La  La8  1  0.510486  0.489514  0.991685  1
  La  La9  1  0.021278  0.509366  0.490140  1
  La  La10  1  0.490634  0.978722  0.490140  1
  La  La11  1  0.512393  0.022265  0.991801  1
  La  La12  1  0.977735  0.487607  0.991801  1
  La  La13  1  0.489530  0.510470  0.490403  1
  La  La14  1  0.999021  0.000979  0.985113  1
  Dy  Dy15  1  0.998486  0.001514  0.481244  1
  Sn  Sn16  1  0.836026  0.163974  0.256604  1
  Sn  Sn17  1  0.333580  0.666420  0.218890  1
  Sn  Sn18  1  0.666171  0.333829  0.721251  1
  Sb  Sb19  1  0.164357  0.835643  0.743179  1
  Sb  Sb20  1  0.327630  0.163890  0.254667  1
  Sb  Sb21  1  0.836110  0.672370  0.254667  1
  Sb  Sb22  1  0.165335  0.329206  0.744018  1
  Sb  Sb23  1  0.670794  0.834665  0.744018  1
