# generated using pymatgen
data_Dy3HoTmSn3
_symmetry_space_group_name_H-M   'P 1'
_cell_length_a   6.50809100
_cell_length_b   8.94757853
_cell_length_c   8.94812409
_cell_angle_alpha   119.99797838
_cell_angle_beta   89.99951892
_cell_angle_gamma   90.00095746
_symmetry_Int_Tables_number   1
_chemical_formula_structural   Dy3HoTmSn3
_chemical_formula_sum   'Dy6 Ho2 Tm2 Sn6'
_cell_volume   451.26392040
_cell_formula_units_Z   2
loop_
 _symmetry_equiv_pos_site_id
 _symmetry_equiv_pos_as_xyz
  1  'x, y, z'
loop_
 _atom_site_type_symbol
 _atom_site_label
 _atom_site_symmetry_multiplicity
 _atom_site_fract_x
 _atom_site_fract_y
 _atom_site_fract_z
 _atom_site_occupancy
  Dy  Dy0  1  0.750183  0.239359  0.000000  1
  Dy  Dy1  1  0.750195  0.760559  0.760611  1
  Dy  Dy2  1  0.750195  0.999948  0.239389  1
  Dy  Dy3  1  0.249815  0.760641  0.000000  1
  Dy  Dy4  1  0.249803  0.239440  0.239387  1
  Dy  Dy5  1  0.249803  0.000053  0.760613  1
  Ho  Ho6  1  0.500004  0.333347  0.666714  1
  Ho  Ho7  1  0.500004  0.666632  0.333286  1
  Tm  Tm8  1  0.999996  0.666653  0.333284  1
  Tm  Tm9  1  0.999996  0.333370  0.666716  1
  Sn  Sn10  1  0.750571  0.604556  0.000000  1
  Sn  Sn11  1  0.750558  0.395344  0.395339  1
  Sn  Sn12  1  0.750558  0.000005  0.604661  1
  Sn  Sn13  1  0.249426  0.395439  0.000000  1
  Sn  Sn14  1  0.249446  0.604658  0.604664  1
  Sn  Sn15  1  0.249446  0.999993  0.395336  1
