# generated using pymatgen
data_Te10Ir2Se3
_symmetry_space_group_name_H-M   'P 1'
_cell_length_a   4.09687260
_cell_length_b   7.00457376
_cell_length_c   15.87996935
_cell_angle_alpha   103.58025010
_cell_angle_beta   90.38889326
_cell_angle_gamma   107.31219269
_symmetry_Int_Tables_number   1
_chemical_formula_structural   Te10Ir2Se3
_chemical_formula_sum   'Te10 Ir2 Se3'
_cell_volume   421.45162249
_cell_formula_units_Z   1
loop_
 _symmetry_equiv_pos_site_id
 _symmetry_equiv_pos_as_xyz
  1  'x, y, z'
loop_
 _atom_site_type_symbol
 _atom_site_label
 _atom_site_symmetry_multiplicity
 _atom_site_fract_x
 _atom_site_fract_y
 _atom_site_fract_z
 _atom_site_occupancy
  Te  Te0  1  0.850952  0.737066  0.101753  1
  Te  Te1  1  0.485206  0.923353  0.891094  1
  Te  Te2  1  0.058061  0.118447  0.672031  1
  Te  Te3  1  0.628826  0.272340  0.482220  1
  Te  Te4  1  0.211550  0.452729  0.296720  1
  Te  Te5  1  0.521981  0.072202  0.134527  1
  Te  Te6  1  0.154539  0.247020  0.911074  1
  Te  Te7  1  0.751830  0.462276  0.701247  1
  Te  Te8  1  0.370176  0.760799  0.503250  1
  Te  Te9  1  0.956159  0.948438  0.325727  1
  Ir  Ir10  1  0.000998  0.017822  0.498995  1
  Ir  Ir11  1  0.583531  0.198932  0.305974  1
  Se  Se12  1  0.814649  0.570935  0.877556  1
  Se  Se13  1  0.415225  0.797975  0.681393  1
  Se  Se14  1  0.196316  0.419666  0.116439  1
