# generated using pymatgen
data_CeNd3Dy4(ReB6)4
_symmetry_space_group_name_H-M   'P 1'
_cell_length_a   3.73450400
_cell_length_b   9.24254287
_cell_length_c   11.67669735
_cell_angle_alpha   90.07290110
_cell_angle_beta   90.00000000
_cell_angle_gamma   90.00000000
_symmetry_Int_Tables_number   1
_chemical_formula_structural   CeNd3Dy4(ReB6)4
_chemical_formula_sum   'Ce1 Nd3 Dy4 Re4 B24'
_cell_volume   403.03621801
_cell_formula_units_Z   1
loop_
 _symmetry_equiv_pos_site_id
 _symmetry_equiv_pos_as_xyz
  1  'x, y, z'
loop_
 _atom_site_type_symbol
 _atom_site_label
 _atom_site_symmetry_multiplicity
 _atom_site_fract_x
 _atom_site_fract_y
 _atom_site_fract_z
 _atom_site_occupancy
  Ce  Ce0  1  0.000000  0.323442  0.414339  1
  Nd  Nd1  1  0.000000  0.677520  0.585739  1
  Nd  Nd2  1  0.000000  0.822738  0.085736  1
  Nd  Nd3  1  0.000000  0.177042  0.914132  1
  Dy  Dy4  1  0.000000  0.942304  0.369509  1
  Dy  Dy5  1  0.000000  0.057544  0.630509  1
  Dy  Dy6  1  0.000000  0.442404  0.130368  1
  Dy  Dy7  1  0.000000  0.557417  0.868879  1
  Re  Re8  1  0.000000  0.636318  0.320648  1
  Re  Re9  1  0.000000  0.361256  0.677825  1
  Re  Re10  1  0.000000  0.140560  0.182587  1
  Re  Re11  1  0.000000  0.861225  0.819468  1
  B  B12  1  0.500000  0.552831  0.430696  1
  B  B13  1  0.500000  0.444430  0.567783  1
  B  B14  1  0.500000  0.055007  0.069714  1
  B  B15  1  0.500000  0.945811  0.931077  1
  B  B16  1  0.500000  0.748762  0.415898  1
  B  B17  1  0.500000  0.251045  0.582265  1
  B  B18  1  0.500000  0.249080  0.084443  1
  B  B19  1  0.500000  0.750821  0.916135  1
  B  B20  1  0.500000  0.790212  0.266368  1
  B  B21  1  0.500000  0.209698  0.733412  1
  B  B22  1  0.500000  0.291236  0.235335  1
  B  B23  1  0.500000  0.709281  0.765793  1
  B  B24  1  0.500000  0.629294  0.186685  1
  B  B25  1  0.500000  0.370495  0.812974  1
  B  B26  1  0.500000  0.131206  0.314869  1
  B  B27  1  0.500000  0.870444  0.686351  1
  B  B28  1  0.500000  0.984578  0.213287  1
  B  B29  1  0.500000  0.016288  0.787150  1
  B  B30  1  0.500000  0.482799  0.287887  1
  B  B31  1  0.500000  0.515770  0.712619  1
  B  B32  1  0.500000  0.596658  0.026936  1
  B  B33  1  0.500000  0.403232  0.972758  1
  B  B34  1  0.500000  0.099338  0.472425  1
  B  B35  1  0.500000  0.901914  0.527399  1
