# generated using pymatgen
data_Dy8Sc12ZnSi14Os
_symmetry_space_group_name_H-M   'P 1'
_cell_length_a   7.11639330
_cell_length_b   7.42742875
_cell_length_c   14.01903437
_cell_angle_alpha   89.74610630
_cell_angle_beta   89.80639928
_cell_angle_gamma   90.44603435
_symmetry_Int_Tables_number   1
_chemical_formula_structural   Dy8Sc12ZnSi14Os
_chemical_formula_sum   'Dy8 Sc12 Zn1 Si14 Os1'
_cell_volume   740.96310393
_cell_formula_units_Z   1
loop_
 _symmetry_equiv_pos_site_id
 _symmetry_equiv_pos_as_xyz
  1  'x, y, z'
loop_
 _atom_site_type_symbol
 _atom_site_label
 _atom_site_symmetry_multiplicity
 _atom_site_fract_x
 _atom_site_fract_y
 _atom_site_fract_z
 _atom_site_occupancy
  Dy  Dy0  1  0.012158  0.179424  0.096733  1
  Dy  Dy1  1  0.991310  0.828701  0.902845  1
  Dy  Dy2  1  0.488424  0.677050  0.904538  1
  Dy  Dy3  1  0.989804  0.827841  0.597172  1
  Dy  Dy4  1  0.511674  0.323656  0.096219  1
  Dy  Dy5  1  0.010559  0.176808  0.402334  1
  Dy  Dy6  1  0.512267  0.323270  0.401841  1
  Dy  Dy7  1  0.491493  0.676792  0.597128  1
  Sc  Sc8  1  0.155920  0.495803  0.752734  1
  Sc  Sc9  1  0.838406  0.495830  0.250781  1
  Sc  Sc10  1  0.338852  0.004788  0.249892  1
  Sc  Sc11  1  0.668842  0.997692  0.750064  1
  Sc  Sc12  1  0.324626  0.169779  0.628440  1
  Sc  Sc13  1  0.669755  0.825282  0.373816  1
  Sc  Sc14  1  0.170837  0.675672  0.373026  1
  Sc  Sc15  1  0.671891  0.825647  0.125915  1
  Sc  Sc16  1  0.831850  0.321763  0.627411  1
  Sc  Sc17  1  0.317384  0.171063  0.872555  1
  Sc  Sc18  1  0.838318  0.318138  0.872328  1
  Sc  Sc19  1  0.171622  0.678412  0.125424  1
  Zn  Zn20  1  0.160691  0.465567  0.538372  1
  Si  Si21  1  0.968471  0.885137  0.249720  1
  Si  Si22  1  0.468589  0.614757  0.249426  1
  Si  Si23  1  0.529793  0.390754  0.750540  1
  Si  Si24  1  0.285978  0.867759  0.750519  1
  Si  Si25  1  0.713712  0.128874  0.249381  1
  Si  Si26  1  0.215033  0.370811  0.249465  1
  Si  Si27  1  0.778741  0.627447  0.751440  1
  Si  Si28  1  0.841332  0.536463  0.460217  1
  Si  Si29  1  0.343558  0.963741  0.460211  1
  Si  Si30  1  0.844463  0.536665  0.038529  1
  Si  Si31  1  0.654615  0.033641  0.538097  1
  Si  Si32  1  0.158301  0.468667  0.963535  1
  Si  Si33  1  0.653953  0.034605  0.961773  1
  Si  Si34  1  0.345705  0.966080  0.039711  1
  Os  Os35  1  0.031071  0.115621  0.747868  1
