# generated using pymatgen
data_Y13Ho3MgHg3Ir4
_symmetry_space_group_name_H-M   'P 1'
_cell_length_a   9.64154345
_cell_length_b   9.64504973
_cell_length_c   9.64505000
_cell_angle_alpha   59.99999908
_cell_angle_beta   59.98796846
_cell_angle_gamma   59.98796097
_symmetry_Int_Tables_number   1
_chemical_formula_structural   Y13Ho3MgHg3Ir4
_chemical_formula_sum   'Y13 Ho3 Mg1 Hg3 Ir4'
_cell_volume   634.10545438
_cell_formula_units_Z   1
loop_
 _symmetry_equiv_pos_site_id
 _symmetry_equiv_pos_as_xyz
  1  'x, y, z'
loop_
 _atom_site_type_symbol
 _atom_site_label
 _atom_site_symmetry_multiplicity
 _atom_site_fract_x
 _atom_site_fract_y
 _atom_site_fract_z
 _atom_site_occupancy
  Y  Y0  1  0.192940  0.602353  0.602353  1
  Y  Y1  1  0.059197  0.440543  0.440543  1
  Y  Y2  1  0.437149  0.062091  0.062091  1
  Y  Y3  1  0.437149  0.062091  0.438669  1
  Y  Y4  1  0.059197  0.440543  0.059715  1
  Y  Y5  1  0.437149  0.438669  0.062091  1
  Y  Y6  1  0.059197  0.059715  0.440543  1
  Y  Y7  1  0.185902  0.812848  0.812848  1
  Y  Y8  1  0.811700  0.187571  0.187571  1
  Y  Y9  1  0.811700  0.187571  0.813158  1
  Y  Y10  1  0.185902  0.812848  0.188402  1
  Y  Y11  1  0.811700  0.813158  0.187571  1
  Y  Y12  1  0.185902  0.188402  0.812848  1
  Ho  Ho13  1  0.600011  0.598048  0.598048  1
  Ho  Ho14  1  0.600011  0.598048  0.203893  1
  Ho  Ho15  1  0.600011  0.203893  0.598048  1
  Mg  Mg16  1  0.536228  0.821258  0.821258  1
  Hg  Hg17  1  0.830876  0.836282  0.836282  1
  Hg  Hg18  1  0.830876  0.836282  0.496561  1
  Hg  Hg19  1  0.830876  0.496561  0.836282  1
  Ir  Ir20  1  0.391325  0.393185  0.393185  1
  Ir  Ir21  1  0.391325  0.393185  0.822303  1
  Ir  Ir22  1  0.391325  0.822303  0.393185  1
  Ir  Ir23  1  0.822350  0.392550  0.392550  1
