# generated using pymatgen
data_Ho16MgIn3Pt4
_symmetry_space_group_name_H-M   'P 1'
_cell_length_a   9.68730589
_cell_length_b   9.68734190
_cell_length_c   9.68735269
_cell_angle_alpha   60.01488398
_cell_angle_beta   60.01469257
_cell_angle_gamma   60.01478587
_symmetry_Int_Tables_number   1
_chemical_formula_structural   Ho16MgIn3Pt4
_chemical_formula_sum   'Ho16 Mg1 In3 Pt4'
_cell_volume   643.04789710
_cell_formula_units_Z   1
loop_
 _symmetry_equiv_pos_site_id
 _symmetry_equiv_pos_as_xyz
  1  'x, y, z'
loop_
 _atom_site_type_symbol
 _atom_site_label
 _atom_site_symmetry_multiplicity
 _atom_site_fract_x
 _atom_site_fract_y
 _atom_site_fract_z
 _atom_site_occupancy
  Ho  Ho0  1  0.599682  0.599683  0.599680  1
  Ho  Ho1  1  0.600920  0.600917  0.196570  1
  Ho  Ho2  1  0.600916  0.196572  0.600916  1
  Ho  Ho3  1  0.196573  0.600915  0.600917  1
  Ho  Ho4  1  0.060229  0.440738  0.440739  1
  Ho  Ho5  1  0.440789  0.061234  0.061235  1
  Ho  Ho6  1  0.440738  0.060229  0.440736  1
  Ho  Ho7  1  0.061237  0.440787  0.061235  1
  Ho  Ho8  1  0.440736  0.440739  0.060229  1
  Ho  Ho9  1  0.061239  0.061235  0.440784  1
  Ho  Ho10  1  0.184836  0.815655  0.815657  1
  Ho  Ho11  1  0.812444  0.187658  0.187655  1
  Ho  Ho12  1  0.815656  0.184835  0.815656  1
  Ho  Ho13  1  0.187659  0.812441  0.187656  1
  Ho  Ho14  1  0.815653  0.815655  0.184840  1
  Ho  Ho15  1  0.187659  0.187653  0.812447  1
  Mg  Mg16  1  0.827952  0.827951  0.827944  1
  In  In17  1  0.832228  0.832246  0.501651  1
  In  In18  1  0.832240  0.501654  0.832237  1
  In  In19  1  0.501637  0.832236  0.832252  1
  Pt  Pt20  1  0.393515  0.393517  0.393513  1
  Pt  Pt21  1  0.391694  0.391690  0.822071  1
  Pt  Pt22  1  0.391694  0.822070  0.391689  1
  Pt  Pt23  1  0.822072  0.391690  0.391690  1
