# generated using pymatgen
data_Tb3HoEr4(WO6)4
_symmetry_space_group_name_H-M   'P 1'
_cell_length_a   5.39317700
_cell_length_b   7.69305375
_cell_length_c   11.43139226
_cell_angle_alpha   75.49626647
_cell_angle_beta   90.00000000
_cell_angle_gamma   90.00000000
_symmetry_Int_Tables_number   1
_chemical_formula_structural   Tb3HoEr4(WO6)4
_chemical_formula_sum   'Tb3 Ho1 Er4 W4 O24'
_cell_volume   459.17352476
_cell_formula_units_Z   1
loop_
 _symmetry_equiv_pos_site_id
 _symmetry_equiv_pos_as_xyz
  1  'x, y, z'
loop_
 _atom_site_type_symbol
 _atom_site_label
 _atom_site_symmetry_multiplicity
 _atom_site_fract_x
 _atom_site_fract_y
 _atom_site_fract_z
 _atom_site_occupancy
  Tb  Tb0  1  0.684070  0.500000  0.250000  1
  Tb  Tb1  1  0.315585  0.500000  0.750000  1
  Tb  Tb2  1  0.741231  0.000000  0.250000  1
  Ho  Ho3  1  0.259353  0.000000  0.750000  1
  Er  Er4  1  0.183395  0.205987  0.422145  1
  Er  Er5  1  0.183395  0.794013  0.077855  1
  Er  Er6  1  0.816872  0.794169  0.578363  1
  Er  Er7  1  0.816872  0.205831  0.921637  1
  W  W8  1  0.255835  0.276325  0.114503  1
  W  W9  1  0.255835  0.723675  0.385497  1
  W  W10  1  0.744063  0.724208  0.885189  1
  W  W11  1  0.744063  0.275792  0.614811  1
  O  O12  1  0.455909  0.209249  0.273584  1
  O  O13  1  0.455909  0.790751  0.226416  1
  O  O14  1  0.542583  0.792100  0.726367  1
  O  O15  1  0.542583  0.207900  0.773633  1
  O  O16  1  0.046593  0.059917  0.103101  1
  O  O17  1  0.046593  0.940083  0.396899  1
  O  O18  1  0.955257  0.940384  0.895881  1
  O  O19  1  0.955257  0.059616  0.604119  1
  O  O20  1  0.981868  0.288618  0.228959  1
  O  O21  1  0.981868  0.711382  0.271041  1
  O  O22  1  0.018169  0.712008  0.770883  1
  O  O23  1  0.018169  0.287992  0.729117  1
  O  O24  1  0.850445  0.364680  0.451654  1
  O  O25  1  0.850445  0.635320  0.048346  1
  O  O26  1  0.149086  0.634690  0.548591  1
  O  O27  1  0.149086  0.365310  0.951409  1
  O  O28  1  0.641199  0.510454  0.614054  1
  O  O29  1  0.641199  0.489546  0.885946  1
  O  O30  1  0.359087  0.489001  0.386274  1
  O  O31  1  0.359087  0.510999  0.113726  1
  O  O32  1  0.463751  0.154091  0.568974  1
  O  O33  1  0.463751  0.845909  0.931026  1
  O  O34  1  0.535768  0.844957  0.431837  1
  O  O35  1  0.535768  0.155043  0.068163  1
