# generated using pymatgen
data_MnBe8AlRu2
_symmetry_space_group_name_H-M   'P 1'
_cell_length_a   4.30046300
_cell_length_b   4.30046221
_cell_length_c   7.03478100
_cell_angle_alpha   90.00000000
_cell_angle_beta   90.00000000
_cell_angle_gamma   120.00001380
_symmetry_Int_Tables_number   1
_chemical_formula_structural   MnBe8AlRu2
_chemical_formula_sum   'Mn1 Be8 Al1 Ru2'
_cell_volume   112.67083268
_cell_formula_units_Z   1
loop_
 _symmetry_equiv_pos_site_id
 _symmetry_equiv_pos_as_xyz
  1  'x, y, z'
loop_
 _atom_site_type_symbol
 _atom_site_label
 _atom_site_symmetry_multiplicity
 _atom_site_fract_x
 _atom_site_fract_y
 _atom_site_fract_z
 _atom_site_occupancy
  Mn  Mn0  1  0.333333  0.666667  0.436038  1
  Be  Be1  1  0.000000  0.000000  0.003783  1
  Be  Be2  1  0.000000  0.000000  0.504288  1
  Be  Be3  1  0.832364  0.664728  0.253286  1
  Be  Be4  1  0.170586  0.829414  0.746907  1
  Be  Be5  1  0.658828  0.829414  0.746907  1
  Be  Be6  1  0.335272  0.167636  0.253286  1
  Be  Be7  1  0.832364  0.167636  0.253286  1
  Be  Be8  1  0.170586  0.341172  0.746907  1
  Al  Al9  1  0.666667  0.333333  0.935555  1
  Ru  Ru10  1  0.333333  0.666667  0.062572  1
  Ru  Ru11  1  0.666667  0.333333  0.557185  1
