# generated using pymatgen
data_PrPa(WN3)2
_symmetry_space_group_name_H-M   'P 1'
_cell_length_a   5.52330000
_cell_length_b   5.68486600
_cell_length_c   7.95967500
_cell_angle_alpha   90.00000000
_cell_angle_beta   90.00000000
_cell_angle_gamma   90.00000000
_symmetry_Int_Tables_number   1
_chemical_formula_structural   PrPa(WN3)2
_chemical_formula_sum   'Pr2 Pa2 W4 N12'
_cell_volume   249.92758946
_cell_formula_units_Z   2
loop_
 _symmetry_equiv_pos_site_id
 _symmetry_equiv_pos_as_xyz
  1  'x, y, z'
loop_
 _atom_site_type_symbol
 _atom_site_label
 _atom_site_symmetry_multiplicity
 _atom_site_fract_x
 _atom_site_fract_y
 _atom_site_fract_z
 _atom_site_occupancy
  Pr  Pr0  1  0.506439  0.542666  0.750000  1
  Pr  Pr1  1  0.993561  0.042666  0.750000  1
  Pa  Pa2  1  0.494613  0.434552  0.250000  1
  Pa  Pa3  1  0.005387  0.934552  0.250000  1
  W  W4  1  0.505698  0.000289  0.502832  1
  W  W5  1  0.994302  0.500289  0.997168  1
  W  W6  1  0.994302  0.500289  0.502832  1
  W  W7  1  0.505698  0.000289  0.997168  1
  N  N8  1  0.703295  0.293698  0.531379  1
  N  N9  1  0.300422  0.698924  0.059048  1
  N  N10  1  0.199578  0.198924  0.059048  1
  N  N11  1  0.437092  0.992956  0.750000  1
  N  N12  1  0.887582  0.544006  0.250000  1
  N  N13  1  0.300422  0.698924  0.440952  1
  N  N14  1  0.796705  0.793698  0.968621  1
  N  N15  1  0.703295  0.293698  0.968621  1
  N  N16  1  0.796705  0.793698  0.531379  1
  N  N17  1  0.062908  0.492956  0.750000  1
  N  N18  1  0.199578  0.198924  0.440952  1
  N  N19  1  0.612418  0.044006  0.250000  1
