# generated using pymatgen
data_Pa2Al9FeRh2
_symmetry_space_group_name_H-M   'P 1'
_cell_length_a   7.56991810
_cell_length_b   7.56991844
_cell_length_c   9.33894100
_cell_angle_alpha   90.00000000
_cell_angle_beta   90.00000000
_cell_angle_gamma   119.17129673
_symmetry_Int_Tables_number   1
_chemical_formula_structural   Pa2Al9FeRh2
_chemical_formula_sum   'Pa4 Al18 Fe2 Rh4'
_cell_volume   467.27980601
_cell_formula_units_Z   2
loop_
 _symmetry_equiv_pos_site_id
 _symmetry_equiv_pos_as_xyz
  1  'x, y, z'
loop_
 _atom_site_type_symbol
 _atom_site_label
 _atom_site_symmetry_multiplicity
 _atom_site_fract_x
 _atom_site_fract_y
 _atom_site_fract_z
 _atom_site_occupancy
  Pa  Pa0  1  0.995057  0.677221  0.750000  1
  Pa  Pa1  1  0.004943  0.322779  0.250000  1
  Pa  Pa2  1  0.677221  0.995057  0.750000  1
  Pa  Pa3  1  0.322779  0.004943  0.250000  1
  Al  Al4  1  0.126090  0.126090  0.750000  1
  Al  Al5  1  0.873910  0.873910  0.250000  1
  Al  Al6  1  0.003018  0.332317  0.575264  1
  Al  Al7  1  0.996982  0.667683  0.424736  1
  Al  Al8  1  0.996982  0.667683  0.075264  1
  Al  Al9  1  0.332317  0.003018  0.924736  1
  Al  Al10  1  0.003018  0.332317  0.924736  1
  Al  Al11  1  0.667683  0.996982  0.075264  1
  Al  Al12  1  0.667683  0.996982  0.424736  1
  Al  Al13  1  0.332317  0.003018  0.575264  1
  Al  Al14  1  0.330256  0.330256  0.047363  1
  Al  Al15  1  0.669744  0.669744  0.952637  1
  Al  Al16  1  0.669744  0.669744  0.547363  1
  Al  Al17  1  0.330256  0.330256  0.452637  1
  Al  Al18  1  0.342374  0.550191  0.750000  1
  Al  Al19  1  0.657626  0.449809  0.250000  1
  Al  Al20  1  0.550191  0.342374  0.750000  1
  Al  Al21  1  0.449809  0.657626  0.250000  1
  Fe  Fe22  1  0.000000  0.000000  0.500000  1
  Fe  Fe23  1  0.000000  0.000000  0.000000  1
  Rh  Rh24  1  0.673081  0.326919  0.500000  1
  Rh  Rh25  1  0.326919  0.673081  0.500000  1
  Rh  Rh26  1  0.326919  0.673081  0.000000  1
  Rh  Rh27  1  0.673081  0.326919  0.000000  1
