# generated using pymatgen
data_Ho2Sc(AgGe)3
_symmetry_space_group_name_H-M   'P 1'
_cell_length_a   7.07876727
_cell_length_b   7.13254547
_cell_length_c   4.14401100
_cell_angle_alpha   90.00000000
_cell_angle_beta   90.00000000
_cell_angle_gamma   120.25162129
_symmetry_Int_Tables_number   1
_chemical_formula_structural   Ho2Sc(AgGe)3
_chemical_formula_sum   'Ho2 Sc1 Ag3 Ge3'
_cell_volume   180.73695702
_cell_formula_units_Z   1
loop_
 _symmetry_equiv_pos_site_id
 _symmetry_equiv_pos_as_xyz
  1  'x, y, z'
loop_
 _atom_site_type_symbol
 _atom_site_label
 _atom_site_symmetry_multiplicity
 _atom_site_fract_x
 _atom_site_fract_y
 _atom_site_fract_z
 _atom_site_occupancy
  Ho  Ho0  1  0.416633  0.417671  0.000000  1
  Ho  Ho1  1  0.583367  0.001038  0.000000  1
  Sc  Sc2  1  0.000000  0.584692  0.000000  1
  Ag  Ag3  1  0.748696  0.747129  0.500000  1
  Ag  Ag4  1  0.251304  0.998433  0.500000  1
  Ag  Ag5  1  0.000000  0.254022  0.500000  1
  Ge  Ge6  1  0.674762  0.338996  0.500000  1
  Ge  Ge7  1  0.325238  0.664235  0.500000  1
  Ge  Ge8  1  0.000000  0.993784  0.000000  1
