# generated using pymatgen
data_Ho2Ga9Co2Ni
_symmetry_space_group_name_H-M   'P 1'
_cell_length_a   7.36605352
_cell_length_b   7.36605319
_cell_length_c   9.34549611
_cell_angle_alpha   89.93436305
_cell_angle_beta   89.93436080
_cell_angle_gamma   119.78770815
_symmetry_Int_Tables_number   1
_chemical_formula_structural   Ho2Ga9Co2Ni
_chemical_formula_sum   'Ho4 Ga18 Co4 Ni2'
_cell_volume   440.07495343
_cell_formula_units_Z   2
loop_
 _symmetry_equiv_pos_site_id
 _symmetry_equiv_pos_as_xyz
  1  'x, y, z'
loop_
 _atom_site_type_symbol
 _atom_site_label
 _atom_site_symmetry_multiplicity
 _atom_site_fract_x
 _atom_site_fract_y
 _atom_site_fract_z
 _atom_site_occupancy
  Ho  Ho0  1  0.503283  0.831579  0.750063  1
  Ho  Ho1  1  0.497227  0.168867  0.249931  1
  Ho  Ho2  1  0.168421  0.496717  0.249937  1
  Ho  Ho3  1  0.831133  0.502773  0.750069  1
  Ga  Ga4  1  0.163429  0.949491  0.748346  1
  Ga  Ga5  1  0.836823  0.051266  0.249989  1
  Ga  Ga6  1  0.050509  0.836571  0.251654  1
  Ga  Ga7  1  0.948734  0.163177  0.750011  1
  Ga  Ga8  1  0.621788  0.621279  0.248588  1
  Ga  Ga9  1  0.378721  0.378212  0.751412  1
  Ga  Ga10  1  0.167216  0.169189  0.059756  1
  Ga  Ga11  1  0.834660  0.834515  0.559543  1
  Ga  Ga12  1  0.830811  0.832784  0.940244  1
  Ga  Ga13  1  0.165485  0.165340  0.440457  1
  Ga  Ga14  1  0.500475  0.833967  0.073172  1
  Ga  Ga15  1  0.500974  0.163719  0.573253  1
  Ga  Ga16  1  0.166033  0.499525  0.926828  1
  Ga  Ga17  1  0.836281  0.499026  0.426747  1
  Ga  Ga18  1  0.503229  0.167979  0.926988  1
  Ga  Ga19  1  0.498750  0.836087  0.426663  1
  Ga  Ga20  1  0.832021  0.496771  0.073012  1
  Ga  Ga21  1  0.163913  0.501250  0.573337  1
  Co  Co22  1  0.500115  0.499885  0.000000  1
  Co  Co23  1  0.828866  0.171134  0.500000  1
  Co  Co24  1  0.829103  0.170897  0.000000  1
  Co  Co25  1  0.171261  0.828739  0.500000  1
  Ni  Ni26  1  0.170781  0.829219  0.000000  1
  Ni  Ni27  1  0.499956  0.500044  0.500000  1
