# generated using pymatgen
data_Li22Pt3Rh
_symmetry_space_group_name_H-M   'P 1'
_cell_length_a   8.15844246
_cell_length_b   8.15844374
_cell_length_c   8.15844275
_cell_angle_alpha   109.43367452
_cell_angle_beta   109.43367137
_cell_angle_gamma   109.43366742
_symmetry_Int_Tables_number   1
_chemical_formula_structural   Li22Pt3Rh
_chemical_formula_sum   'Li22 Pt3 Rh1'
_cell_volume   418.60292915
_cell_formula_units_Z   1
loop_
 _symmetry_equiv_pos_site_id
 _symmetry_equiv_pos_as_xyz
  1  'x, y, z'
loop_
 _atom_site_type_symbol
 _atom_site_label
 _atom_site_symmetry_multiplicity
 _atom_site_fract_x
 _atom_site_fract_y
 _atom_site_fract_z
 _atom_site_occupancy
  Li  Li0  1  0.999451  0.800309  0.999451  1
  Li  Li1  1  0.800309  0.999451  0.999451  1
  Li  Li2  1  0.999451  0.999451  0.800309  1
  Li  Li3  1  0.199888  0.199888  0.199888  1
  Li  Li4  1  0.352101  0.604476  0.352101  1
  Li  Li5  1  0.252983  0.999956  0.648678  1
  Li  Li6  1  0.648678  0.999956  0.252983  1
  Li  Li7  1  0.252983  0.648678  0.999956  1
  Li  Li8  1  0.746578  0.746578  0.396384  1
  Li  Li9  1  0.396384  0.746578  0.746578  1
  Li  Li10  1  0.999956  0.648678  0.252983  1
  Li  Li11  1  0.999956  0.252983  0.648678  1
  Li  Li12  1  0.648678  0.252983  0.999956  1
  Li  Li13  1  0.352101  0.352101  0.604476  1
  Li  Li14  1  0.604476  0.352101  0.352101  1
  Li  Li15  1  0.746578  0.396384  0.746578  1
  Li  Li16  1  0.341697  0.341697  0.000799  1
  Li  Li17  1  0.998922  0.658631  0.658631  1
  Li  Li18  1  0.000799  0.341697  0.341697  1
  Li  Li19  1  0.341697  0.000799  0.341697  1
  Li  Li20  1  0.658631  0.998922  0.658631  1
  Li  Li21  1  0.658631  0.658631  0.998922  1
  Pt  Pt22  1  0.000187  0.340552  0.000187  1
  Pt  Pt23  1  0.340552  0.000187  0.000187  1
  Pt  Pt24  1  0.000187  0.000187  0.340552  1
  Rh  Rh25  1  0.658144  0.658144  0.658144  1
