# generated using pymatgen
data_Tm3Zn3Cu2Ir
_symmetry_space_group_name_H-M   'P 1'
_cell_length_a   7.19124400
_cell_length_b   7.19124314
_cell_length_c   3.72928600
_cell_angle_alpha   90.00000000
_cell_angle_beta   90.00000000
_cell_angle_gamma   120.00000394
_symmetry_Int_Tables_number   1
_chemical_formula_structural   Tm3Zn3Cu2Ir
_chemical_formula_sum   'Tm3 Zn3 Cu2 Ir1'
_cell_volume   167.01839384
_cell_formula_units_Z   1
loop_
 _symmetry_equiv_pos_site_id
 _symmetry_equiv_pos_as_xyz
  1  'x, y, z'
loop_
 _atom_site_type_symbol
 _atom_site_label
 _atom_site_symmetry_multiplicity
 _atom_site_fract_x
 _atom_site_fract_y
 _atom_site_fract_z
 _atom_site_occupancy
  Tm  Tm0  1  0.413837  0.404256  0.000000  1
  Tm  Tm1  1  0.595744  0.009581  0.000000  1
  Tm  Tm2  1  0.990419  0.586163  0.000000  1
  Zn  Zn3  1  0.749389  0.749783  0.500000  1
  Zn  Zn4  1  0.250217  0.999606  0.500000  1
  Zn  Zn5  1  0.000394  0.250611  0.500000  1
  Cu  Cu6  1  0.000000  0.000000  0.000000  1
  Cu  Cu7  1  0.333333  0.666667  0.500000  1
  Ir  Ir8  1  0.666667  0.333333  0.500000  1
