# generated using pymatgen
data_Zr6PI15
_symmetry_space_group_name_H-M   'P 1'
_cell_length_a   10.06811913
_cell_length_b   10.06811908
_cell_length_c   10.06811900
_cell_angle_alpha   109.47121645
_cell_angle_beta   109.47121635
_cell_angle_gamma   109.47122503
_symmetry_Int_Tables_number   1
_chemical_formula_structural   Zr6PI15
_chemical_formula_sum   'Zr6 P1 I15'
_cell_volume   785.63922813
_cell_formula_units_Z   1
loop_
 _symmetry_equiv_pos_site_id
 _symmetry_equiv_pos_as_xyz
  1  'x, y, z'
loop_
 _atom_site_type_symbol
 _atom_site_label
 _atom_site_symmetry_multiplicity
 _atom_site_fract_x
 _atom_site_fract_y
 _atom_site_fract_z
 _atom_site_occupancy
  Zr  Zr0  1  0.217306  0.000000  0.217306  1
  Zr  Zr1  1  0.217306  0.217306  0.000000  1
  Zr  Zr2  1  0.782694  0.000000  0.782694  1
  Zr  Zr3  1  0.000000  0.217306  0.217306  1
  Zr  Zr4  1  0.000000  0.782694  0.782694  1
  Zr  Zr5  1  0.782694  0.782694  0.000000  1
  P  P6  1  0.000000  0.000000  0.000000  1
  I  I7  1  0.000000  0.752698  0.247302  1
  I  I8  1  0.247302  0.752698  0.000000  1
  I  I9  1  0.505396  0.752698  0.752698  1
  I  I10  1  0.000000  0.247302  0.752698  1
  I  I11  1  0.752698  0.000000  0.247302  1
  I  I12  1  0.247302  0.494604  0.247302  1
  I  I13  1  0.752698  0.247302  0.000000  1
  I  I14  1  0.500000  0.500000  0.000000  1
  I  I15  1  0.247302  0.247302  0.494604  1
  I  I16  1  0.752698  0.505396  0.752698  1
  I  I17  1  0.752698  0.752698  0.505396  1
  I  I18  1  0.494604  0.247302  0.247302  1
  I  I19  1  0.247302  0.000000  0.752698  1
  I  I20  1  0.000000  0.500000  0.500000  1
  I  I21  1  0.500000  0.000000  0.500000  1
