# generated using pymatgen
data_ScTa4NbSi7Ni16
_symmetry_space_group_name_H-M   'P 1'
_cell_length_a   7.96237455
_cell_length_b   7.97820481
_cell_length_c   7.97390237
_cell_angle_alpha   60.00036695
_cell_angle_beta   60.08354856
_cell_angle_gamma   60.02989415
_symmetry_Int_Tables_number   1
_chemical_formula_structural   ScTa4NbSi7Ni16
_chemical_formula_sum   'Sc1 Ta4 Nb1 Si7 Ni16'
_cell_volume   358.48956955
_cell_formula_units_Z   1
loop_
 _symmetry_equiv_pos_site_id
 _symmetry_equiv_pos_as_xyz
  1  'x, y, z'
loop_
 _atom_site_type_symbol
 _atom_site_label
 _atom_site_symmetry_multiplicity
 _atom_site_fract_x
 _atom_site_fract_y
 _atom_site_fract_z
 _atom_site_occupancy
  Sc  Sc0  1  0.796225  0.204057  0.795943  1
  Ta  Ta1  1  0.798245  0.795990  0.204011  1
  Ta  Ta2  1  0.797059  0.202952  0.205235  1
  Ta  Ta3  1  0.205245  0.794765  0.797048  1
  Ta  Ta4  1  0.200203  0.799951  0.200050  1
  Nb  Nb5  1  0.203923  0.201550  0.798451  1
  Si  Si6  1  0.502202  0.496624  0.503376  1
  Si  Si7  1  0.499389  0.499870  0.001824  1
  Si  Si8  1  0.001083  0.998176  0.500130  1
  Si  Si9  1  0.498706  0.000512  0.500795  1
  Si  Si10  1  0.001865  0.499517  0.500483  1
  Si  Si11  1  0.498968  0.999123  0.000877  1
  Si  Si12  1  0.000014  0.499205  0.999488  1
  Ni  Ni13  1  0.502913  0.830337  0.833946  1
  Ni  Ni14  1  0.830775  0.503775  0.832646  1
  Ni  Ni15  1  0.833711  0.832308  0.501098  1
  Ni  Ni16  1  0.167118  0.498902  0.167692  1
  Ni  Ni17  1  0.167196  0.167354  0.496225  1
  Ni  Ni18  1  0.498877  0.166689  0.167671  1
  Ni  Ni19  1  0.833237  0.832329  0.833311  1
  Ni  Ni20  1  0.383438  0.384762  0.381854  1
  Ni  Ni21  1  0.150055  0.618146  0.615238  1
  Ni  Ni22  1  0.616479  0.147080  0.614411  1
  Ni  Ni23  1  0.615922  0.616873  0.151068  1
  Ni  Ni24  1  0.383862  0.848932  0.383127  1
  Ni  Ni25  1  0.377972  0.385589  0.852920  1
  Ni  Ni26  1  0.852586  0.385765  0.377184  1
  Ni  Ni27  1  0.615534  0.622816  0.614235  1
  Ni  Ni28  1  0.167197  0.166054  0.169663  1
