# generated using pymatgen
data_TbTm2In3Pt2Rh
_symmetry_space_group_name_H-M   'P 1'
_cell_length_a   7.67542546
_cell_length_b   7.64787385
_cell_length_c   3.80076600
_cell_angle_alpha   90.00000000
_cell_angle_beta   90.00000000
_cell_angle_gamma   119.88133208
_symmetry_Int_Tables_number   1
_chemical_formula_structural   TbTm2In3Pt2Rh
_chemical_formula_sum   'Tb1 Tm2 In3 Pt2 Rh1'
_cell_volume   193.44745336
_cell_formula_units_Z   1
loop_
 _symmetry_equiv_pos_site_id
 _symmetry_equiv_pos_as_xyz
  1  'x, y, z'
loop_
 _atom_site_type_symbol
 _atom_site_label
 _atom_site_symmetry_multiplicity
 _atom_site_fract_x
 _atom_site_fract_y
 _atom_site_fract_z
 _atom_site_occupancy
  Tb  Tb0  1  0.000000  0.403686  0.500000  1
  Tm  Tm1  1  0.596572  0.596331  0.500000  1
  Tm  Tm2  1  0.403428  0.999759  0.500000  1
  In  In3  1  0.259515  0.258305  0.000000  1
  In  In4  1  0.000000  0.742682  0.000000  1
  In  In5  1  0.740485  0.998790  0.000000  1
  Pt  Pt6  1  0.336396  0.669107  0.000000  1
  Pt  Pt7  1  0.663604  0.332710  0.000000  1
  Rh  Rh8  1  0.000000  0.998631  0.500000  1
