# generated using pymatgen
data_La2SmRuI3
_symmetry_space_group_name_H-M   'P 1'
_cell_length_a   4.35134200
_cell_length_b   9.54746270
_cell_length_c   12.49377801
_cell_angle_alpha   87.67036477
_cell_angle_beta   90.00000000
_cell_angle_gamma   90.00000000
_symmetry_Int_Tables_number   1
_chemical_formula_structural   La2SmRuI3
_chemical_formula_sum   'La4 Sm2 Ru2 I6'
_cell_volume   518.61596640
_cell_formula_units_Z   2
loop_
 _symmetry_equiv_pos_site_id
 _symmetry_equiv_pos_as_xyz
  1  'x, y, z'
loop_
 _atom_site_type_symbol
 _atom_site_label
 _atom_site_symmetry_multiplicity
 _atom_site_fract_x
 _atom_site_fract_y
 _atom_site_fract_z
 _atom_site_occupancy
  La  La0  1  0.750000  0.119420  0.670163  1
  La  La1  1  0.250000  0.880580  0.329837  1
  La  La2  1  0.750000  0.099497  0.102542  1
  La  La3  1  0.250000  0.900503  0.897458  1
  Sm  Sm4  1  0.250000  0.314036  0.879602  1
  Sm  Sm5  1  0.750000  0.685964  0.120398  1
  Ru  Ru6  1  0.750000  0.115746  0.870158  1
  Ru  Ru7  1  0.250000  0.884254  0.129842  1
  I  I8  1  0.750000  0.133897  0.380384  1
  I  I9  1  0.250000  0.866103  0.619616  1
  I  I10  1  0.250000  0.373626  0.625786  1
  I  I11  1  0.750000  0.626374  0.374214  1
  I  I12  1  0.750000  0.602356  0.869773  1
  I  I13  1  0.250000  0.397644  0.130227  1
