# generated using pymatgen
data_PrNd3Al17SiIr6
_symmetry_space_group_name_H-M   'P 1'
_cell_length_a   7.60515056
_cell_length_b   7.59400291
_cell_length_c   9.59920001
_cell_angle_alpha   89.97254146
_cell_angle_beta   89.95475769
_cell_angle_gamma   119.55727276
_symmetry_Int_Tables_number   1
_chemical_formula_structural   PrNd3Al17SiIr6
_chemical_formula_sum   'Pr1 Nd3 Al17 Si1 Ir6'
_cell_volume   482.24101017
_cell_formula_units_Z   1
loop_
 _symmetry_equiv_pos_site_id
 _symmetry_equiv_pos_as_xyz
  1  'x, y, z'
loop_
 _atom_site_type_symbol
 _atom_site_label
 _atom_site_symmetry_multiplicity
 _atom_site_fract_x
 _atom_site_fract_y
 _atom_site_fract_z
 _atom_site_occupancy
  Pr  Pr0  1  0.994724  0.664828  0.247318  1
  Nd  Nd1  1  0.005189  0.329977  0.754257  1
  Nd  Nd2  1  0.675056  0.000985  0.247096  1
  Nd  Nd3  1  0.329006  0.005328  0.750645  1
  Al  Al4  1  0.131132  0.131297  0.249751  1
  Al  Al5  1  0.868940  0.871023  0.749583  1
  Al  Al6  1  0.996382  0.669227  0.924237  1
  Al  Al7  1  0.997546  0.665232  0.573235  1
  Al  Al8  1  0.335091  0.001522  0.427411  1
  Al  Al9  1  0.003087  0.334643  0.432453  1
  Al  Al10  1  0.664334  0.997640  0.572608  1
  Al  Al11  1  0.659988  0.992747  0.924565  1
  Al  Al12  1  0.334609  0.001843  0.073312  1
  Al  Al13  1  0.334833  0.334033  0.548963  1
  Al  Al14  1  0.666427  0.667282  0.451432  1
  Al  Al15  1  0.665188  0.666276  0.050264  1
  Al  Al16  1  0.338064  0.334779  0.951021  1
  Al  Al17  1  0.341893  0.547299  0.250513  1
  Al  Al18  1  0.660704  0.452761  0.750352  1
  Al  Al19  1  0.543612  0.339167  0.249984  1
  Al  Al20  1  0.452043  0.658004  0.749573  1
  Si  Si21  1  0.003461  0.334099  0.071348  1
  Ir  Ir22  1  0.678969  0.329026  0.001661  1
  Ir  Ir23  1  0.320349  0.662887  0.000281  1
  Ir  Ir24  1  0.328526  0.670370  0.499682  1
  Ir  Ir25  1  0.671189  0.329086  0.499207  1
  Ir  Ir26  1  0.999571  0.007714  0.999885  1
  Ir  Ir27  1  0.000087  0.000926  0.499367  1
