# generated using pymatgen
data_Ca12Sn2Hg2N3
_symmetry_space_group_name_H-M   'P 1'
_cell_length_a   4.94679500
_cell_length_b   4.94679500
_cell_length_c   20.20290100
_cell_angle_alpha   90.00000000
_cell_angle_beta   90.00000000
_cell_angle_gamma   90.00000000
_symmetry_Int_Tables_number   1
_chemical_formula_structural   Ca12Sn2Hg2N3
_chemical_formula_sum   'Ca12 Sn2 Hg2 N3'
_cell_volume   494.38076133
_cell_formula_units_Z   1
loop_
 _symmetry_equiv_pos_site_id
 _symmetry_equiv_pos_as_xyz
  1  'x, y, z'
loop_
 _atom_site_type_symbol
 _atom_site_label
 _atom_site_symmetry_multiplicity
 _atom_site_fract_x
 _atom_site_fract_y
 _atom_site_fract_z
 _atom_site_occupancy
  Ca  Ca0  1  0.500000  0.500000  0.859860  1
  Ca  Ca1  1  0.500000  0.500000  0.140140  1
  Ca  Ca2  1  0.500000  0.500000  0.381437  1
  Ca  Ca3  1  0.500000  0.500000  0.618563  1
  Ca  Ca4  1  0.500000  0.000000  0.000000  1
  Ca  Ca5  1  0.500000  0.000000  0.262207  1
  Ca  Ca6  1  0.500000  0.000000  0.500000  1
  Ca  Ca7  1  0.500000  0.000000  0.737793  1
  Ca  Ca8  1  0.000000  0.500000  0.000000  1
  Ca  Ca9  1  0.000000  0.500000  0.262207  1
  Ca  Ca10  1  0.000000  0.500000  0.500000  1
  Ca  Ca11  1  0.000000  0.500000  0.737793  1
  Sn  Sn12  1  0.000000  0.000000  0.375974  1
  Sn  Sn13  1  0.000000  0.000000  0.624026  1
  Hg  Hg14  1  0.000000  0.000000  0.891527  1
  Hg  Hg15  1  0.000000  0.000000  0.108473  1
  N  N16  1  0.500000  0.500000  0.251430  1
  N  N17  1  0.500000  0.500000  0.500000  1
  N  N18  1  0.500000  0.500000  0.748570  1
