# generated using pymatgen
data_K11Li(SbO4)4
_symmetry_space_group_name_H-M   'P 1'
_cell_length_a   8.41190867
_cell_length_b   8.41190248
_cell_length_c   10.82545805
_cell_angle_alpha   112.87529570
_cell_angle_beta   112.87610377
_cell_angle_gamma   89.99075108
_symmetry_Int_Tables_number   1
_chemical_formula_structural   K11Li(SbO4)4
_chemical_formula_sum   'K11 Li1 Sb4 O16'
_cell_volume   639.89291580
_cell_formula_units_Z   1
loop_
 _symmetry_equiv_pos_site_id
 _symmetry_equiv_pos_as_xyz
  1  'x, y, z'
loop_
 _atom_site_type_symbol
 _atom_site_label
 _atom_site_symmetry_multiplicity
 _atom_site_fract_x
 _atom_site_fract_y
 _atom_site_fract_z
 _atom_site_occupancy
  K  K0  1  0.289158  0.289158  0.578306  1
  K  K1  1  0.499984  0.999970  0.999996  1
  K  K2  1  0.249982  0.750046  0.500004  1
  K  K3  1  0.910177  0.910178  0.233196  1
  K  K4  1  0.089622  0.676960  0.766520  1
  K  K5  1  0.710726  0.710731  0.421700  1
  K  K6  1  0.999978  0.499981  0.999998  1
  K  K7  1  0.676969  0.089629  0.766533  1
  K  K8  1  0.323067  0.323065  0.233303  1
  K  K9  1  0.750039  0.249973  0.500003  1
  K  K10  1  0.499980  0.499978  0.999999  1
  Li  Li11  1  0.000064  0.000084  0.000006  1
  Sb  Sb12  1  0.868031  0.381780  0.249765  1
  Sb  Sb13  1  0.132009  0.132007  0.750270  1
  Sb  Sb14  1  0.618238  0.618241  0.750306  1
  Sb  Sb15  1  0.381784  0.868034  0.249769  1
  O  O16  1  0.428087  0.021193  0.449354  1
  O  O17  1  0.807478  0.807480  0.889484  1
  O  O18  1  0.631167  0.330810  0.220581  1
  O  O19  1  0.330808  0.631166  0.220580  1
  O  O20  1  0.021194  0.428088  0.449359  1
  O  O21  1  0.589479  0.889815  0.220637  1
  O  O22  1  0.368858  0.110189  0.779404  1
  O  O23  1  0.192612  0.918346  0.110725  1
  O  O24  1  0.572019  0.572015  0.550791  1
  O  O25  1  0.081758  0.081755  0.889245  1
  O  O26  1  0.669177  0.410472  0.779353  1
  O  O27  1  0.978723  0.978721  0.550680  1
  O  O28  1  0.889818  0.589483  0.220642  1
  O  O29  1  0.918343  0.192621  0.110728  1
  O  O30  1  0.110196  0.368857  0.779409  1
  O  O31  1  0.410475  0.669174  0.779355  1
