# generated using pymatgen
data_Tb8Lu12Si15B
_symmetry_space_group_name_H-M   'P 1'
_cell_length_a   7.22632739
_cell_length_b   7.60894992
_cell_length_c   14.34258800
_cell_angle_alpha   90.00000000
_cell_angle_beta   90.00000000
_cell_angle_gamma   89.39118710
_symmetry_Int_Tables_number   1
_chemical_formula_structural   Tb8Lu12Si15B
_chemical_formula_sum   'Tb8 Lu12 Si15 B1'
_cell_volume   788.57928497
_cell_formula_units_Z   1
loop_
 _symmetry_equiv_pos_site_id
 _symmetry_equiv_pos_as_xyz
  1  'x, y, z'
loop_
 _atom_site_type_symbol
 _atom_site_label
 _atom_site_symmetry_multiplicity
 _atom_site_fract_x
 _atom_site_fract_y
 _atom_site_fract_z
 _atom_site_occupancy
  Tb  Tb0  1  0.520253  0.675768  0.596651  1
  Tb  Tb1  1  0.021132  0.818892  0.902168  1
  Tb  Tb2  1  0.479535  0.319141  0.097268  1
  Tb  Tb3  1  0.978476  0.178649  0.403259  1
  Tb  Tb4  1  0.479535  0.319141  0.402732  1
  Tb  Tb5  1  0.978476  0.178649  0.096741  1
  Tb  Tb6  1  0.520253  0.675768  0.903349  1
  Tb  Tb7  1  0.021132  0.818892  0.597832  1
  Lu  Lu8  1  0.662466  0.189815  0.628943  1
  Lu  Lu9  1  0.193901  0.325727  0.872031  1
  Lu  Lu10  1  0.322090  0.821555  0.122644  1
  Lu  Lu11  1  0.820287  0.677020  0.376601  1
  Lu  Lu12  1  0.322090  0.821555  0.377356  1
  Lu  Lu13  1  0.820287  0.677020  0.123399  1
  Lu  Lu14  1  0.662466  0.189815  0.871057  1
  Lu  Lu15  1  0.193901  0.325727  0.627969  1
  Lu  Lu16  1  0.834336  0.509345  0.750000  1
  Lu  Lu17  1  0.343529  0.981662  0.750000  1
  Lu  Lu18  1  0.152035  0.491018  0.250000  1
  Lu  Lu19  1  0.651800  0.009540  0.250000  1
  Si  Si20  1  0.654279  0.969142  0.463900  1
  Si  Si21  1  0.152861  0.530289  0.038024  1
  Si  Si22  1  0.346366  0.030358  0.959603  1
  Si  Si23  1  0.852392  0.467119  0.541263  1
  Si  Si24  1  0.346366  0.030358  0.540397  1
  Si  Si25  1  0.852392  0.467119  0.958737  1
  Si  Si26  1  0.654279  0.969142  0.036100  1
  Si  Si27  1  0.152861  0.530289  0.461976  1
  Si  Si28  1  0.971434  0.114424  0.750000  1
  Si  Si29  1  0.523087  0.610250  0.250000  1
  Si  Si30  1  0.023577  0.888740  0.250000  1
  Si  Si31  1  0.727239  0.877059  0.750000  1
  Si  Si32  1  0.247688  0.613500  0.750000  1
  Si  Si33  1  0.272865  0.127640  0.250000  1
  Si  Si34  1  0.775221  0.370831  0.250000  1
  B  B35  1  0.469111  0.399040  0.750000  1
