# generated using pymatgen
data_Ho16Hg4Ir3Pd
_symmetry_space_group_name_H-M   'P 1'
_cell_length_a   9.57822309
_cell_length_b   9.58224696
_cell_length_c   9.58224800
_cell_angle_alpha   59.99999642
_cell_angle_beta   59.98609843
_cell_angle_gamma   59.98610427
_symmetry_Int_Tables_number   1
_chemical_formula_structural   Ho16Hg4Ir3Pd
_chemical_formula_sum   'Ho16 Hg4 Ir3 Pd1'
_cell_volume   621.74662612
_cell_formula_units_Z   1
loop_
 _symmetry_equiv_pos_site_id
 _symmetry_equiv_pos_as_xyz
  1  'x, y, z'
loop_
 _atom_site_type_symbol
 _atom_site_label
 _atom_site_symmetry_multiplicity
 _atom_site_fract_x
 _atom_site_fract_y
 _atom_site_fract_z
 _atom_site_occupancy
  Ho  Ho0  1  0.438875  0.433675  0.063725  1
  Ho  Ho1  1  0.651885  0.646820  0.054477  1
  Ho  Ho2  1  0.185736  0.810033  0.194197  1
  Ho  Ho3  1  0.063764  0.436895  0.062447  1
  Ho  Ho4  1  0.185736  0.810033  0.810033  1
  Ho  Ho5  1  0.063764  0.436895  0.436895  1
  Ho  Ho6  1  0.811098  0.189228  0.189228  1
  Ho  Ho7  1  0.651885  0.646820  0.646820  1
  Ho  Ho8  1  0.811098  0.189228  0.810447  1
  Ho  Ho9  1  0.185736  0.194197  0.810033  1
  Ho  Ho10  1  0.048826  0.650392  0.650392  1
  Ho  Ho11  1  0.438875  0.063725  0.063725  1
  Ho  Ho12  1  0.063764  0.062447  0.436895  1
  Ho  Ho13  1  0.651885  0.054477  0.646820  1
  Ho  Ho14  1  0.811098  0.810447  0.189228  1
  Ho  Ho15  1  0.438875  0.063725  0.433675  1
  Hg  Hg16  1  0.415298  0.415854  0.415854  1
  Hg  Hg17  1  0.415298  0.415854  0.752994  1
  Hg  Hg18  1  0.415298  0.752994  0.415854  1
  Hg  Hg19  1  0.754111  0.415297  0.415297  1
  Ir  Ir20  1  0.856398  0.858193  0.858193  1
  Ir  Ir21  1  0.856398  0.427215  0.858193  1
  Ir  Ir22  1  0.856398  0.858193  0.427215  1
  Pd  Pd23  1  0.427904  0.857365  0.857365  1
