# generated using pymatgen
data_HfTa6(NbN4)3
_symmetry_space_group_name_H-M   'P 1'
_cell_length_a   5.25691905
_cell_length_b   5.25584233
_cell_length_c   10.46163806
_cell_angle_alpha   90.01067461
_cell_angle_beta   89.99955827
_cell_angle_gamma   119.99160652
_symmetry_Int_Tables_number   1
_chemical_formula_structural   HfTa6(NbN4)3
_chemical_formula_sum   'Hf1 Ta6 Nb3 N12'
_cell_volume   250.34599974
_cell_formula_units_Z   1
loop_
 _symmetry_equiv_pos_site_id
 _symmetry_equiv_pos_as_xyz
  1  'x, y, z'
loop_
 _atom_site_type_symbol
 _atom_site_label
 _atom_site_symmetry_multiplicity
 _atom_site_fract_x
 _atom_site_fract_y
 _atom_site_fract_z
 _atom_site_occupancy
  Hf  Hf0  1  0.331768  0.666661  0.499808  1
  Ta  Ta1  1  0.665268  0.333271  0.000090  1
  Ta  Ta2  1  0.665339  0.333381  0.500126  1
  Ta  Ta3  1  0.332169  0.666742  0.000128  1
  Ta  Ta4  1  0.677076  0.999032  0.751399  1
  Ta  Ta5  1  0.676660  0.677364  0.248516  1
  Ta  Ta6  1  0.001047  0.323396  0.248440  1
  Nb  Nb7  1  0.001056  0.676697  0.751689  1
  Nb  Nb8  1  0.323599  0.324308  0.751610  1
  Nb  Nb9  1  0.324118  0.999160  0.248223  1
  N  N10  1  0.345542  0.343272  0.376492  1
  N  N11  1  0.664509  0.005812  0.376928  1
  N  N12  1  0.990427  0.650622  0.376474  1
  N  N13  1  0.996327  0.337479  0.880471  1
  N  N14  1  0.663139  0.000078  0.120044  1
  N  N15  1  0.658928  0.662420  0.880482  1
  N  N16  1  0.345054  0.000117  0.879820  1
  N  N17  1  0.660621  0.658235  0.622537  1
  N  N18  1  0.990510  0.336007  0.622553  1
  N  N19  1  0.996161  0.655279  0.120580  1
  N  N20  1  0.349711  0.006061  0.623019  1
  N  N21  1  0.340972  0.344603  0.120572  1
