# generated using pymatgen
data_Y3Er7(TmNi2)2
_symmetry_space_group_name_H-M   'P 1'
_cell_length_a   6.30144091
_cell_length_b   6.78171634
_cell_length_c   9.47824818
_cell_angle_alpha   89.97107376
_cell_angle_beta   90.22951161
_cell_angle_gamma   90.09375798
_symmetry_Int_Tables_number   1
_chemical_formula_structural   Y3Er7(TmNi2)2
_chemical_formula_sum   'Y3 Er7 Tm2 Ni4'
_cell_volume   405.04515850
_cell_formula_units_Z   1
loop_
 _symmetry_equiv_pos_site_id
 _symmetry_equiv_pos_as_xyz
  1  'x, y, z'
loop_
 _atom_site_type_symbol
 _atom_site_label
 _atom_site_symmetry_multiplicity
 _atom_site_fract_x
 _atom_site_fract_y
 _atom_site_fract_z
 _atom_site_occupancy
  Y  Y0  1  0.635901  0.030244  0.250009  1
  Y  Y1  1  0.364390  0.969332  0.749914  1
  Y  Y2  1  0.135768  0.469409  0.749411  1
  Er  Er3  1  0.863365  0.532869  0.250588  1
  Er  Er4  1  0.178693  0.179371  0.066920  1
  Er  Er5  1  0.820868  0.820553  0.934247  1
  Er  Er6  1  0.680124  0.321751  0.934304  1
  Er  Er7  1  0.820356  0.820652  0.565170  1
  Er  Er8  1  0.319530  0.677937  0.066873  1
  Er  Er9  1  0.178916  0.179129  0.433588  1
  Tm  Tm10  1  0.319738  0.678503  0.433876  1
  Tm  Tm11  1  0.679412  0.321648  0.564891  1
  Ni  Ni12  1  0.447762  0.394722  0.251961  1
  Ni  Ni13  1  0.557300  0.606197  0.748808  1
  Ni  Ni14  1  0.942682  0.106614  0.749711  1
  Ni  Ni15  1  0.055195  0.891072  0.249727  1
