# generated using pymatgen
data_Nd2LuIn3(TeO6)3
_symmetry_space_group_name_H-M   'P 1'
_cell_length_a   9.08094575
_cell_length_b   9.08094673
_cell_length_c   5.20387667
_cell_angle_alpha   89.53892118
_cell_angle_beta   90.46108306
_cell_angle_gamma   119.88643930
_symmetry_Int_Tables_number   1
_chemical_formula_structural   Nd2LuIn3(TeO6)3
_chemical_formula_sum   'Nd2 Lu1 In3 Te3 O18'
_cell_volume   372.04622007
_cell_formula_units_Z   1
loop_
 _symmetry_equiv_pos_site_id
 _symmetry_equiv_pos_as_xyz
  1  'x, y, z'
loop_
 _atom_site_type_symbol
 _atom_site_label
 _atom_site_symmetry_multiplicity
 _atom_site_fract_x
 _atom_site_fract_y
 _atom_site_fract_z
 _atom_site_occupancy
  Nd  Nd0  1  0.613770  0.004502  0.001380  1
  Nd  Nd1  1  0.004502  0.613770  0.998620  1
  Lu  Lu2  1  0.376035  0.376035  0.000000  1
  In  In3  1  0.284895  0.999084  0.503681  1
  In  In4  1  0.999084  0.284895  0.496319  1
  In  In5  1  0.716652  0.716652  0.500000  1
  Te  Te6  1  0.003368  0.003368  0.000000  1
  Te  Te7  1  0.335190  0.661501  0.496516  1
  Te  Te8  1  0.661501  0.335190  0.503484  1
  O  O9  1  0.090005  0.888031  0.786492  1
  O  O10  1  0.120534  0.210691  0.791967  1
  O  O11  1  0.800135  0.916564  0.785313  1
  O  O12  1  0.210691  0.120534  0.208033  1
  O  O13  1  0.916564  0.800135  0.214687  1
  O  O14  1  0.888031  0.090005  0.213508  1
  O  O15  1  0.457154  0.584138  0.719756  1
  O  O16  1  0.394475  0.854810  0.718417  1
  O  O17  1  0.129180  0.530999  0.691849  1
  O  O18  1  0.854810  0.394475  0.281583  1
  O  O19  1  0.530999  0.129180  0.308151  1
  O  O20  1  0.584138  0.457154  0.280244  1
  O  O21  1  0.239548  0.771619  0.279421  1
  O  O22  1  0.236564  0.462151  0.268852  1
  O  O23  1  0.544416  0.773990  0.297812  1
  O  O24  1  0.462151  0.236564  0.731148  1
  O  O25  1  0.773990  0.544416  0.702188  1
  O  O26  1  0.771619  0.239548  0.720579  1
