# generated using pymatgen
data_Zr4TiAlSb2
_symmetry_space_group_name_H-M   'P 1'
_cell_length_a   5.46998821
_cell_length_b   8.28729362
_cell_length_c   8.28729253
_cell_angle_alpha   83.74178850
_cell_angle_beta   70.71359091
_cell_angle_gamma   70.71360488
_symmetry_Int_Tables_number   1
_chemical_formula_structural   Zr4TiAlSb2
_chemical_formula_sum   'Zr8 Ti2 Al2 Sb4'
_cell_volume   334.69156466
_cell_formula_units_Z   2
loop_
 _symmetry_equiv_pos_site_id
 _symmetry_equiv_pos_as_xyz
  1  'x, y, z'
loop_
 _atom_site_type_symbol
 _atom_site_label
 _atom_site_symmetry_multiplicity
 _atom_site_fract_x
 _atom_site_fract_y
 _atom_site_fract_z
 _atom_site_occupancy
  Zr  Zr0  1  0.080000  0.135801  0.704605  1
  Zr  Zr1  1  0.920000  0.864199  0.295395  1
  Zr  Zr2  1  0.784261  0.295393  0.135798  1
  Zr  Zr3  1  0.420000  0.295395  0.864199  1
  Zr  Zr4  1  0.215739  0.704607  0.864202  1
  Zr  Zr5  1  0.580000  0.704605  0.135801  1
  Zr  Zr6  1  0.715739  0.864202  0.704607  1
  Zr  Zr7  1  0.284261  0.135798  0.295393  1
  Ti  Ti8  1  0.250000  0.500046  0.499954  1
  Ti  Ti9  1  0.750000  0.499954  0.500046  1
  Al  Al10  1  0.250000  0.999993  0.000007  1
  Al  Al11  1  0.750000  0.000007  0.999993  1
  Sb  Sb12  1  0.156229  0.500003  0.187656  1
  Sb  Sb13  1  0.843771  0.499997  0.812344  1
  Sb  Sb14  1  0.343771  0.812344  0.499997  1
  Sb  Sb15  1  0.656229  0.187656  0.500003  1
