# generated using pymatgen
data_TbEr5Al24Ir5Ru3
_symmetry_space_group_name_H-M   'P 1'
_cell_length_a   8.80359700
_cell_length_b   8.80974672
_cell_length_c   9.49283016
_cell_angle_alpha   90.12039985
_cell_angle_beta   90.00000000
_cell_angle_gamma   119.97690733
_symmetry_Int_Tables_number   1
_chemical_formula_structural   TbEr5Al24Ir5Ru3
_chemical_formula_sum   'Tb1 Er5 Al24 Ir5 Ru3'
_cell_volume   637.74880436
_cell_formula_units_Z   1
loop_
 _symmetry_equiv_pos_site_id
 _symmetry_equiv_pos_as_xyz
  1  'x, y, z'
loop_
 _atom_site_type_symbol
 _atom_site_label
 _atom_site_symmetry_multiplicity
 _atom_site_fract_x
 _atom_site_fract_y
 _atom_site_fract_z
 _atom_site_occupancy
  Tb  Tb0  1  0.194032  0.388065  0.249633  1
  Er  Er1  1  0.805220  0.610440  0.750350  1
  Er  Er2  1  0.611063  0.805715  0.250796  1
  Er  Er3  1  0.389092  0.194503  0.749160  1
  Er  Er4  1  0.194652  0.805715  0.250796  1
  Er  Er5  1  0.805410  0.194503  0.749160  1
  Al  Al6  1  0.333737  0.667477  0.027911  1
  Al  Al7  1  0.666524  0.333046  0.971707  1
  Al  Al8  1  0.665639  0.331277  0.526580  1
  Al  Al9  1  0.334625  0.669251  0.473790  1
  Al  Al10  1  0.162737  0.325474  0.576973  1
  Al  Al11  1  0.837259  0.674520  0.423423  1
  Al  Al12  1  0.673916  0.837689  0.577259  1
  Al  Al13  1  0.837344  0.674687  0.076858  1
  Al  Al14  1  0.326232  0.162153  0.422996  1
  Al  Al15  1  0.162649  0.325298  0.922746  1
  Al  Al16  1  0.163773  0.837689  0.577259  1
  Al  Al17  1  0.325576  0.162474  0.076197  1
  Al  Al18  1  0.835921  0.162153  0.422996  1
  Al  Al19  1  0.674577  0.837362  0.923541  1
  Al  Al20  1  0.836897  0.162474  0.076197  1
  Al  Al21  1  0.162785  0.837362  0.923541  1
  Al  Al22  1  0.561793  0.123586  0.251149  1
  Al  Al23  1  0.438164  0.876328  0.748887  1
  Al  Al24  1  0.874905  0.438103  0.249667  1
  Al  Al25  1  0.124668  0.562078  0.750339  1
  Al  Al26  1  0.563199  0.438103  0.249667  1
  Al  Al27  1  0.437410  0.562078  0.750339  1
  Al  Al28  1  0.000196  0.000392  0.249932  1
  Al  Al29  1  0.999474  0.998947  0.750084  1
  Ir  Ir30  1  0.500117  0.000235  0.999936  1
  Ir  Ir31  1  0.999796  0.500147  0.999733  1
  Ir  Ir32  1  0.500351  0.500147  0.999733  1
  Ir  Ir33  1  0.999781  0.500135  0.500282  1
  Ir  Ir34  1  0.500354  0.500135  0.500282  1
  Ru  Ru35  1  0.500129  0.000259  0.500099  1
  Ru  Ru36  1  0.999999  0.999999  0.999966  1
  Ru  Ru37  1  0.000001  0.000001  0.500038  1
