# generated using pymatgen
data_DyHo2WO7
_symmetry_space_group_name_H-M   'P 1'
_cell_length_a   6.45741815
_cell_length_b   6.45741881
_cell_length_c   7.47176800
_cell_angle_alpha   90.00000000
_cell_angle_beta   90.00000000
_cell_angle_gamma   109.13008897
_symmetry_Int_Tables_number   1
_chemical_formula_structural   DyHo2WO7
_chemical_formula_sum   'Dy2 Ho4 W2 O14'
_cell_volume   294.35439765
_cell_formula_units_Z   2
loop_
 _symmetry_equiv_pos_site_id
 _symmetry_equiv_pos_as_xyz
  1  'x, y, z'
loop_
 _atom_site_type_symbol
 _atom_site_label
 _atom_site_symmetry_multiplicity
 _atom_site_fract_x
 _atom_site_fract_y
 _atom_site_fract_z
 _atom_site_occupancy
  Dy  Dy0  1  0.515253  0.515253  0.500000  1
  Dy  Dy1  1  0.484747  0.484747  0.000000  1
  Ho  Ho2  1  0.998483  0.466913  0.747387  1
  Ho  Ho3  1  0.001517  0.533087  0.247387  1
  Ho  Ho4  1  0.533087  0.001517  0.752613  1
  Ho  Ho5  1  0.466913  0.998483  0.252613  1
  W  W6  1  0.000202  0.000202  0.500000  1
  W  W7  1  0.999798  0.999798  0.000000  1
  O  O8  1  0.637442  0.362558  0.750000  1
  O  O9  1  0.362558  0.637442  0.250000  1
  O  O10  1  0.924334  0.075666  0.750000  1
  O  O11  1  0.075666  0.924334  0.250000  1
  O  O12  1  0.919090  0.673615  0.527721  1
  O  O13  1  0.080910  0.326385  0.027721  1
  O  O14  1  0.326385  0.080910  0.972279  1
  O  O15  1  0.673615  0.919090  0.472279  1
  O  O16  1  0.368150  0.631850  0.750000  1
  O  O17  1  0.631850  0.368150  0.250000  1
  O  O18  1  0.931885  0.680476  0.967394  1
  O  O19  1  0.068115  0.319524  0.467394  1
  O  O20  1  0.319524  0.068115  0.532606  1
  O  O21  1  0.680476  0.931885  0.032606  1
