# generated using pymatgen
data_Zr10TlZn2Bi3Pb2
_symmetry_space_group_name_H-M   'P 1'
_cell_length_a   8.84176200
_cell_length_b   8.85246123
_cell_length_c   5.94750800
_cell_angle_alpha   90.00000000
_cell_angle_beta   90.00000000
_cell_angle_gamma   119.96001987
_symmetry_Int_Tables_number   1
_chemical_formula_structural   Zr10TlZn2Bi3Pb2
_chemical_formula_sum   'Zr10 Tl1 Zn2 Bi3 Pb2'
_cell_volume   403.31404125
_cell_formula_units_Z   1
loop_
 _symmetry_equiv_pos_site_id
 _symmetry_equiv_pos_as_xyz
  1  'x, y, z'
loop_
 _atom_site_type_symbol
 _atom_site_label
 _atom_site_symmetry_multiplicity
 _atom_site_fract_x
 _atom_site_fract_y
 _atom_site_fract_z
 _atom_site_occupancy
  Zr  Zr0  1  0.334509  0.667866  0.002486  1
  Zr  Zr1  1  0.666643  0.332134  0.497514  1
  Zr  Zr2  1  0.666643  0.332134  0.002486  1
  Zr  Zr3  1  0.334509  0.667866  0.497514  1
  Zr  Zr4  1  0.267364  0.000000  0.250000  1
  Zr  Zr5  1  0.264454  0.263885  0.750000  1
  Zr  Zr6  1  0.000569  0.736115  0.750000  1
  Zr  Zr7  1  0.996734  0.263974  0.250000  1
  Zr  Zr8  1  0.732760  0.736026  0.250000  1
  Zr  Zr9  1  0.735383  0.000000  0.750000  1
  Tl  Tl10  1  0.615984  0.000000  0.250000  1
  Zn  Zn11  1  0.999353  0.000000  0.003452  1
  Zn  Zn12  1  0.999353  0.000000  0.496548  1
  Bi  Bi13  1  0.614031  0.613602  0.750000  1
  Bi  Bi14  1  0.000430  0.386398  0.750000  1
  Bi  Bi15  1  0.387768  0.000000  0.750000  1
  Pb  Pb16  1  0.999614  0.615708  0.250000  1
  Pb  Pb17  1  0.383905  0.384292  0.250000  1
