# generated using pymatgen
data_CeLu(Be12Ni)2
_symmetry_space_group_name_H-M   'P 1'
_cell_length_a   7.25598221
_cell_length_b   7.31179342
_cell_length_c   7.22897919
_cell_angle_alpha   59.86796587
_cell_angle_beta   59.83276193
_cell_angle_gamma   59.49957073
_symmetry_Int_Tables_number   1
_chemical_formula_structural   CeLu(Be12Ni)2
_chemical_formula_sum   'Ce1 Lu1 Be24 Ni2'
_cell_volume   269.54667518
_cell_formula_units_Z   1
loop_
 _symmetry_equiv_pos_site_id
 _symmetry_equiv_pos_as_xyz
  1  'x, y, z'
loop_
 _atom_site_type_symbol
 _atom_site_label
 _atom_site_symmetry_multiplicity
 _atom_site_fract_x
 _atom_site_fract_y
 _atom_site_fract_z
 _atom_site_occupancy
  Ce  Ce0  1  0.998394  0.001611  0.998386  1
  Lu  Lu1  1  0.501265  0.498736  0.501262  1
  Be  Be2  1  0.317282  0.539316  0.183579  1
  Be  Be3  1  0.183588  0.959830  0.317282  1
  Be  Be4  1  0.043331  0.685385  0.457202  1
  Be  Be5  1  0.457221  0.814084  0.043312  1
  Be  Be6  1  0.683019  0.035605  0.815556  1
  Be  Be7  1  0.815543  0.465815  0.683015  1
  Be  Be8  1  0.955801  0.545618  0.311693  1
  Be  Be9  1  0.543018  0.951672  0.190771  1
  Be  Be10  1  0.190792  0.314545  0.543020  1
  Be  Be11  1  0.311687  0.186864  0.955846  1
  Be  Be12  1  0.461190  0.034882  0.686300  1
  Be  Be13  1  0.039377  0.464653  0.813514  1
  Be  Be14  1  0.813515  0.682455  0.039354  1
  Be  Be15  1  0.686293  0.817629  0.461182  1
  Be  Be16  1  0.312542  0.956639  0.543208  1
  Be  Be17  1  0.188125  0.542815  0.955199  1
  Be  Be18  1  0.543252  0.187634  0.312527  1
  Be  Be19  1  0.955145  0.313845  0.188172  1
  Be  Be20  1  0.686728  0.461698  0.039832  1
  Be  Be21  1  0.813461  0.039091  0.460980  1
  Be  Be22  1  0.039897  0.811709  0.686732  1
  Be  Be23  1  0.460938  0.686479  0.813443  1
  Be  Be24  1  0.250053  0.249950  0.250082  1
  Be  Be25  1  0.749469  0.750528  0.749451  1
  Ni  Ni26  1  0.548930  0.309092  0.950146  1
  Ni  Ni27  1  0.950145  0.191821  0.548957  1
