# generated using pymatgen
data_ErTm(Ga3Ir)3
_symmetry_space_group_name_H-M   'P 1'
_cell_length_a   7.56440155
_cell_length_b   7.56477057
_cell_length_c   9.46830200
_cell_angle_alpha   90.00000000
_cell_angle_beta   90.00000000
_cell_angle_gamma   119.99243784
_symmetry_Int_Tables_number   1
_chemical_formula_structural   ErTm(Ga3Ir)3
_chemical_formula_sum   'Er2 Tm2 Ga18 Ir6'
_cell_volume   469.25202795
_cell_formula_units_Z   2
loop_
 _symmetry_equiv_pos_site_id
 _symmetry_equiv_pos_as_xyz
  1  'x, y, z'
loop_
 _atom_site_type_symbol
 _atom_site_label
 _atom_site_symmetry_multiplicity
 _atom_site_fract_x
 _atom_site_fract_y
 _atom_site_fract_z
 _atom_site_occupancy
  Er  Er0  1  0.997016  0.667576  0.750000  1
  Er  Er1  1  0.002984  0.332424  0.250000  1
  Tm  Tm2  1  0.667622  0.997057  0.750000  1
  Tm  Tm3  1  0.332378  0.002943  0.250000  1
  Ga  Ga4  1  0.127235  0.127285  0.750000  1
  Ga  Ga5  1  0.872765  0.872715  0.250000  1
  Ga  Ga6  1  0.998508  0.333659  0.581290  1
  Ga  Ga7  1  0.001492  0.666341  0.418710  1
  Ga  Ga8  1  0.001492  0.666341  0.081290  1
  Ga  Ga9  1  0.333866  0.998607  0.918777  1
  Ga  Ga10  1  0.998508  0.333659  0.918710  1
  Ga  Ga11  1  0.666134  0.001393  0.081223  1
  Ga  Ga12  1  0.666134  0.001393  0.418777  1
  Ga  Ga13  1  0.333866  0.998607  0.581223  1
  Ga  Ga14  1  0.332329  0.332245  0.065649  1
  Ga  Ga15  1  0.667671  0.667755  0.934351  1
  Ga  Ga16  1  0.667671  0.667755  0.565649  1
  Ga  Ga17  1  0.332329  0.332245  0.434351  1
  Ga  Ga18  1  0.338797  0.546134  0.750000  1
  Ga  Ga19  1  0.661203  0.453866  0.250000  1
  Ga  Ga20  1  0.546059  0.338683  0.750000  1
  Ga  Ga21  1  0.453941  0.661317  0.250000  1
  Ir  Ir22  1  0.671784  0.328118  0.499998  1
  Ir  Ir23  1  0.328216  0.671882  0.500002  1
  Ir  Ir24  1  0.328216  0.671882  0.999998  1
  Ir  Ir25  1  0.671784  0.328118  0.000002  1
  Ir  Ir26  1  0.000000  0.000000  0.500000  1
  Ir  Ir27  1  0.000000  0.000000  0.000000  1
