# generated using pymatgen
data_NpB2OsRh2
_symmetry_space_group_name_H-M   'P 1'
_cell_length_a   5.52705700
_cell_length_b   5.64851273
_cell_length_c   2.94171900
_cell_angle_alpha   90.00000000
_cell_angle_beta   90.00000000
_cell_angle_gamma   119.29121847
_symmetry_Int_Tables_number   1
_chemical_formula_structural   NpB2OsRh2
_chemical_formula_sum   'Np1 B2 Os1 Rh2'
_cell_volume   80.09724374
_cell_formula_units_Z   1
loop_
 _symmetry_equiv_pos_site_id
 _symmetry_equiv_pos_as_xyz
  1  'x, y, z'
loop_
 _atom_site_type_symbol
 _atom_site_label
 _atom_site_symmetry_multiplicity
 _atom_site_fract_x
 _atom_site_fract_y
 _atom_site_fract_z
 _atom_site_occupancy
  Np  Np0  1  0.000000  0.000000  0.000000  1
  B  B1  1  0.338096  0.676194  0.000000  1
  B  B2  1  0.661904  0.323806  0.000000  1
  Os  Os3  1  0.500000  0.000000  0.500000  1
  Rh  Rh4  1  0.500000  0.500000  0.500000  1
  Rh  Rh5  1  0.000000  0.500000  0.500000  1
