# generated using pymatgen
data_TmH2Cl
_symmetry_space_group_name_H-M   'P 1'
_cell_length_a   10.13774819
_cell_length_b   10.13774844
_cell_length_c   10.13774832
_cell_angle_alpha   20.70049255
_cell_angle_beta   20.70048656
_cell_angle_gamma   20.70049316
_symmetry_Int_Tables_number   1
_chemical_formula_structural   TmH2Cl
_chemical_formula_sum   'Tm2 H4 Cl2'
_cell_volume   113.96958322
_cell_formula_units_Z   2
loop_
 _symmetry_equiv_pos_site_id
 _symmetry_equiv_pos_as_xyz
  1  'x, y, z'
loop_
 _atom_site_type_symbol
 _atom_site_label
 _atom_site_symmetry_multiplicity
 _atom_site_fract_x
 _atom_site_fract_y
 _atom_site_fract_z
 _atom_site_occupancy
  Tm  Tm0  1  0.886609  0.886609  0.886609  1
  Tm  Tm1  1  0.113391  0.113391  0.113391  1
  H  H2  1  0.813595  0.813595  0.813595  1
  H  H3  1  0.186405  0.186405  0.186405  1
  H  H4  1  0.546154  0.546154  0.546154  1
  H  H5  1  0.453846  0.453846  0.453846  1
  Cl  Cl6  1  0.721105  0.721105  0.721105  1
  Cl  Cl7  1  0.278895  0.278895  0.278895  1
