# generated using pymatgen
data_Tl3Zn5Ga
_symmetry_space_group_name_H-M   'P 1'
_cell_length_a   19.57325496
_cell_length_b   19.57325522
_cell_length_c   5.97888000
_cell_angle_alpha   90.00000000
_cell_angle_beta   90.00000000
_cell_angle_gamma   169.90047106
_symmetry_Int_Tables_number   1
_chemical_formula_structural   Tl3Zn5Ga
_chemical_formula_sum   'Tl6 Zn10 Ga2'
_cell_volume   401.67342361
_cell_formula_units_Z   2
loop_
 _symmetry_equiv_pos_site_id
 _symmetry_equiv_pos_as_xyz
  1  'x, y, z'
loop_
 _atom_site_type_symbol
 _atom_site_label
 _atom_site_symmetry_multiplicity
 _atom_site_fract_x
 _atom_site_fract_y
 _atom_site_fract_z
 _atom_site_occupancy
  Tl  Tl0  1  0.135811  0.864189  0.500000  1
  Tl  Tl1  1  0.803646  0.196354  0.500000  1
  Tl  Tl2  1  0.471072  0.528928  0.500000  1
  Tl  Tl3  1  0.531546  0.468454  0.000000  1
  Tl  Tl4  1  0.193455  0.806545  0.000000  1
  Tl  Tl5  1  0.861796  0.138204  0.000000  1
  Zn  Zn6  1  0.576306  0.423694  0.500000  1
  Zn  Zn7  1  0.242270  0.757730  0.500000  1
  Zn  Zn8  1  0.910364  0.089636  0.500000  1
  Zn  Zn9  1  0.089452  0.910548  0.000000  1
  Zn  Zn10  1  0.030888  0.969112  0.500000  1
  Zn  Zn11  1  0.695840  0.304160  0.500000  1
  Zn  Zn12  1  0.364156  0.635844  0.500000  1
  Zn  Zn13  1  0.635102  0.364898  0.000000  1
  Zn  Zn14  1  0.304577  0.695423  0.000000  1
  Zn  Zn15  1  0.974293  0.025707  0.000000  1
  Ga  Ga16  1  0.755330  0.244670  0.000000  1
  Ga  Ga17  1  0.424086  0.575914  0.000000  1
