# generated using pymatgen
data_Y12CoTc3
_symmetry_space_group_name_H-M   'P 1'
_cell_length_a   6.32102453
_cell_length_b   7.36695390
_cell_length_c   9.24373100
_cell_angle_alpha   90.00000000
_cell_angle_beta   90.00000000
_cell_angle_gamma   90.18806595
_symmetry_Int_Tables_number   1
_chemical_formula_structural   Y12CoTc3
_chemical_formula_sum   'Y12 Co1 Tc3'
_cell_volume   430.44769554
_cell_formula_units_Z   1
loop_
 _symmetry_equiv_pos_site_id
 _symmetry_equiv_pos_as_xyz
  1  'x, y, z'
loop_
 _atom_site_type_symbol
 _atom_site_label
 _atom_site_symmetry_multiplicity
 _atom_site_fract_x
 _atom_site_fract_y
 _atom_site_fract_z
 _atom_site_occupancy
  Y  Y0  1  0.331703  0.676765  0.064975  1
  Y  Y1  1  0.162500  0.176258  0.438205  1
  Y  Y2  1  0.665112  0.327461  0.564472  1
  Y  Y3  1  0.833324  0.821700  0.936483  1
  Y  Y4  1  0.665112  0.327461  0.935528  1
  Y  Y5  1  0.833324  0.821700  0.563517  1
  Y  Y6  1  0.331703  0.676765  0.435025  1
  Y  Y7  1  0.162500  0.176258  0.061795  1
  Y  Y8  1  0.872221  0.542614  0.250000  1
  Y  Y9  1  0.627149  0.042637  0.250000  1
  Y  Y10  1  0.142482  0.455067  0.750000  1
  Y  Y11  1  0.372193  0.950924  0.750000  1
  Co  Co12  1  0.538660  0.616431  0.750000  1
  Tc  Tc13  1  0.039122  0.886537  0.250000  1
  Tc  Tc14  1  0.460143  0.388058  0.250000  1
  Tc  Tc15  1  0.962751  0.113363  0.750000  1
