# generated using pymatgen
data_LaTbPrRuI3
_symmetry_space_group_name_H-M   'P 1'
_cell_length_a   4.32039100
_cell_length_b   9.52271032
_cell_length_c   12.45881350
_cell_angle_alpha   88.61686544
_cell_angle_beta   90.00000000
_cell_angle_gamma   90.00000000
_symmetry_Int_Tables_number   1
_chemical_formula_structural   LaTbPrRuI3
_chemical_formula_sum   'La2 Tb2 Pr2 Ru2 I6'
_cell_volume   512.42906607
_cell_formula_units_Z   2
loop_
 _symmetry_equiv_pos_site_id
 _symmetry_equiv_pos_as_xyz
  1  'x, y, z'
loop_
 _atom_site_type_symbol
 _atom_site_label
 _atom_site_symmetry_multiplicity
 _atom_site_fract_x
 _atom_site_fract_y
 _atom_site_fract_z
 _atom_site_occupancy
  La  La0  1  0.250000  0.881933  0.327690  1
  La  La1  1  0.750000  0.118067  0.672310  1
  Tb  Tb2  1  0.750000  0.691139  0.118524  1
  Tb  Tb3  1  0.250000  0.308861  0.881476  1
  Pr  Pr4  1  0.250000  0.899388  0.897770  1
  Pr  Pr5  1  0.750000  0.100612  0.102230  1
  Ru  Ru6  1  0.250000  0.883224  0.131506  1
  Ru  Ru7  1  0.750000  0.116776  0.868494  1
  I  I8  1  0.250000  0.861518  0.619236  1
  I  I9  1  0.750000  0.138482  0.380764  1
  I  I10  1  0.750000  0.625473  0.367881  1
  I  I11  1  0.250000  0.374527  0.632119  1
  I  I12  1  0.250000  0.399938  0.126745  1
  I  I13  1  0.750000  0.600062  0.873255  1
