# generated using pymatgen
data_Tb7(HoGa4)5
_symmetry_space_group_name_H-M   'P 1'
_cell_length_a   6.11542343
_cell_length_b   9.66152114
_cell_length_c   11.55962708
_cell_angle_alpha   89.99643238
_cell_angle_beta   90.02709628
_cell_angle_gamma   90.01577313
_symmetry_Int_Tables_number   1
_chemical_formula_structural   Tb7(HoGa4)5
_chemical_formula_sum   'Tb7 Ho5 Ga20'
_cell_volume   682.99228693
_cell_formula_units_Z   1
loop_
 _symmetry_equiv_pos_site_id
 _symmetry_equiv_pos_as_xyz
  1  'x, y, z'
loop_
 _atom_site_type_symbol
 _atom_site_label
 _atom_site_symmetry_multiplicity
 _atom_site_fract_x
 _atom_site_fract_y
 _atom_site_fract_z
 _atom_site_occupancy
  Tb  Tb0  1  0.609925  0.991153  0.851314  1
  Tb  Tb1  1  0.109757  0.009001  0.648647  1
  Tb  Tb2  1  0.390200  0.491082  0.148965  1
  Tb  Tb3  1  0.109797  0.491041  0.648421  1
  Tb  Tb4  1  0.390166  0.008923  0.148739  1
  Tb  Tb5  1  0.890175  0.990926  0.351258  1
  Tb  Tb6  1  0.609929  0.508996  0.851331  1
  Ho  Ho7  1  0.849085  0.749967  0.075459  1
  Ho  Ho8  1  0.651108  0.749858  0.575191  1
  Ho  Ho9  1  0.151045  0.250012  0.924753  1
  Ho  Ho10  1  0.348633  0.249996  0.424585  1
  Ho  Ho11  1  0.890045  0.509014  0.351138  1
  Ga  Ga12  1  0.875206  0.053879  0.089737  1
  Ga  Ga13  1  0.624880  0.446150  0.589718  1
  Ga  Ga14  1  0.124853  0.553865  0.910220  1
  Ga  Ga15  1  0.375184  0.946023  0.410238  1
  Ga  Ga16  1  0.124857  0.946135  0.910202  1
  Ga  Ga17  1  0.374591  0.553772  0.410193  1
  Ga  Ga18  1  0.875269  0.446238  0.090065  1
  Ga  Ga19  1  0.624831  0.053891  0.589736  1
  Ga  Ga20  1  0.172305  0.749811  0.253128  1
  Ga  Ga21  1  0.327719  0.750032  0.753002  1
  Ga  Ga22  1  0.827660  0.250070  0.746893  1
  Ga  Ga23  1  0.672639  0.250243  0.247253  1
  Ga  Ga24  1  0.373025  0.750012  0.003702  1
  Ga  Ga25  1  0.126829  0.749893  0.503806  1
  Ga  Ga26  1  0.626979  0.250055  0.996406  1
  Ga  Ga27  1  0.873010  0.250355  0.495818  1
  Ga  Ga28  1  0.601243  0.749619  0.300215  1
  Ga  Ga29  1  0.899121  0.750020  0.800164  1
  Ga  Ga30  1  0.399049  0.249965  0.699872  1
  Ga  Ga31  1  0.100889  0.250002  0.199832  1
