# generated using pymatgen
data_Ho9Er(Bi3C)2
_symmetry_space_group_name_H-M   'P 1'
_cell_length_a   6.46298400
_cell_length_b   9.11235156
_cell_length_c   9.10979206
_cell_angle_alpha   120.00971547
_cell_angle_beta   89.99837291
_cell_angle_gamma   90.00308456
_symmetry_Int_Tables_number   1
_chemical_formula_structural   Ho9Er(Bi3C)2
_chemical_formula_sum   'Ho9 Er1 Bi6 C2'
_cell_volume   464.57958032
_cell_formula_units_Z   1
loop_
 _symmetry_equiv_pos_site_id
 _symmetry_equiv_pos_as_xyz
  1  'x, y, z'
loop_
 _atom_site_type_symbol
 _atom_site_label
 _atom_site_symmetry_multiplicity
 _atom_site_fract_x
 _atom_site_fract_y
 _atom_site_fract_z
 _atom_site_occupancy
  Ho  Ho0  1  0.500032  0.333314  0.666644  1
  Ho  Ho1  1  0.500029  0.666700  0.333355  1
  Ho  Ho2  1  0.999962  0.666705  0.333359  1
  Ho  Ho3  1  0.999963  0.333320  0.666637  1
  Ho  Ho4  1  0.750000  0.792642  0.792690  1
  Ho  Ho5  1  0.750003  0.999916  0.207305  1
  Ho  Ho6  1  0.249998  0.792995  0.000035  1
  Ho  Ho7  1  0.250001  0.207565  0.207303  1
  Ho  Ho8  1  0.249997  0.000298  0.792740  1
  Er  Er9  1  0.750042  0.205792  0.999946  1
  Bi  Bi10  1  0.750002  0.598560  0.999989  1
  Bi  Bi11  1  0.749996  0.401302  0.401161  1
  Bi  Bi12  1  0.749997  0.000129  0.598830  1
  Bi  Bi13  1  0.249999  0.401254  0.000014  1
  Bi  Bi14  1  0.249997  0.598667  0.598573  1
  Bi  Bi15  1  0.249997  0.000105  0.401417  1
  C  C16  1  0.500344  0.000368  0.999998  1
  C  C17  1  0.999642  0.000368  0.000003  1
