# generated using pymatgen
data_Dy17Ho2LuSn16
_symmetry_space_group_name_H-M   'P 1'
_cell_length_a   8.02519400
_cell_length_b   8.16089921
_cell_length_c   15.47592800
_cell_angle_alpha   90.00000000
_cell_angle_beta   90.00000000
_cell_angle_gamma   89.94253283
_symmetry_Int_Tables_number   1
_chemical_formula_structural   Dy17Ho2LuSn16
_chemical_formula_sum   'Dy17 Ho2 Lu1 Sn16'
_cell_volume   1013.56133760
_cell_formula_units_Z   1
loop_
 _symmetry_equiv_pos_site_id
 _symmetry_equiv_pos_as_xyz
  1  'x, y, z'
loop_
 _atom_site_type_symbol
 _atom_site_label
 _atom_site_symmetry_multiplicity
 _atom_site_fract_x
 _atom_site_fract_y
 _atom_site_fract_z
 _atom_site_occupancy
  Dy  Dy0  1  0.367556  0.836813  0.877621  1
  Dy  Dy1  1  0.868177  0.662691  0.622300  1
  Dy  Dy2  1  0.632127  0.163068  0.377918  1
  Dy  Dy3  1  0.132156  0.337006  0.121582  1
  Dy  Dy4  1  0.632127  0.163068  0.122082  1
  Dy  Dy5  1  0.132156  0.337006  0.378418  1
  Dy  Dy6  1  0.367556  0.836813  0.622379  1
  Dy  Dy7  1  0.868177  0.662691  0.877700  1
  Dy  Dy8  1  0.520734  0.321059  0.902397  1
  Dy  Dy9  1  0.021227  0.179606  0.597653  1
  Dy  Dy10  1  0.479302  0.679357  0.402856  1
  Dy  Dy11  1  0.979196  0.820638  0.097457  1
  Dy  Dy12  1  0.479302  0.679357  0.097144  1
  Dy  Dy13  1  0.979196  0.820638  0.402543  1
  Dy  Dy14  1  0.520734  0.321059  0.597603  1
  Dy  Dy15  1  0.021227  0.179606  0.902347  1
  Dy  Dy16  1  0.698662  0.997401  0.750000  1
  Ho  Ho17  1  0.800924  0.496927  0.250000  1
  Ho  Ho18  1  0.300950  0.002939  0.250000  1
  Lu  Lu19  1  0.199042  0.503329  0.750000  1
  Sn  Sn20  1  0.292391  0.035868  0.041467  1
  Sn  Sn21  1  0.792268  0.463831  0.458433  1
  Sn  Sn22  1  0.707834  0.964148  0.541888  1
  Sn  Sn23  1  0.207759  0.535695  0.957109  1
  Sn  Sn24  1  0.707834  0.964148  0.958112  1
  Sn  Sn25  1  0.207759  0.535695  0.542891  1
  Sn  Sn26  1  0.292391  0.035868  0.458533  1
  Sn  Sn27  1  0.792268  0.463831  0.041567  1
  Sn  Sn28  1  0.563585  0.617620  0.750000  1
  Sn  Sn29  1  0.065823  0.880410  0.750000  1
  Sn  Sn30  1  0.433780  0.381150  0.250000  1
  Sn  Sn31  1  0.934341  0.118866  0.250000  1
  Sn  Sn32  1  0.329641  0.149997  0.750000  1
  Sn  Sn33  1  0.831041  0.352672  0.750000  1
  Sn  Sn34  1  0.670244  0.851918  0.250000  1
  Sn  Sn35  1  0.170513  0.647214  0.250000  1
