# generated using pymatgen
data_KSm6AuI12
_symmetry_space_group_name_H-M   'P 1'
_cell_length_a   9.97838160
_cell_length_b   9.97838144
_cell_length_c   9.97838000
_cell_angle_alpha   105.51584212
_cell_angle_beta   105.51583590
_cell_angle_gamma   105.51583829
_symmetry_Int_Tables_number   1
_chemical_formula_structural   KSm6AuI12
_chemical_formula_sum   'K1 Sm6 Au1 I12'
_cell_volume   858.72060561
_cell_formula_units_Z   1
loop_
 _symmetry_equiv_pos_site_id
 _symmetry_equiv_pos_as_xyz
  1  'x, y, z'
loop_
 _atom_site_type_symbol
 _atom_site_label
 _atom_site_symmetry_multiplicity
 _atom_site_fract_x
 _atom_site_fract_y
 _atom_site_fract_z
 _atom_site_occupancy
  K  K0  1  0.500000  0.500000  0.500000  1
  Sm  Sm1  1  0.021366  0.097793  0.307980  1
  Sm  Sm2  1  0.307981  0.021365  0.097792  1
  Sm  Sm3  1  0.097792  0.307981  0.021365  1
  Sm  Sm4  1  0.978634  0.902207  0.692020  1
  Sm  Sm5  1  0.692019  0.978635  0.902208  1
  Sm  Sm6  1  0.902208  0.692019  0.978635  1
  Au  Au7  1  0.000000  0.000000  0.000000  1
  I  I8  1  0.563473  0.645810  0.880699  1
  I  I9  1  0.880700  0.563473  0.645809  1
  I  I10  1  0.645808  0.880700  0.563474  1
  I  I11  1  0.436527  0.354190  0.119301  1
  I  I12  1  0.119300  0.436527  0.354191  1
  I  I13  1  0.354192  0.119300  0.436526  1
  I  I14  1  0.076679  0.223966  0.676197  1
  I  I15  1  0.676198  0.076679  0.223966  1
  I  I16  1  0.223967  0.676197  0.076679  1
  I  I17  1  0.923321  0.776034  0.323803  1
  I  I18  1  0.323802  0.923321  0.776034  1
  I  I19  1  0.776033  0.323803  0.923321  1
