# generated using pymatgen
data_NdZnCd2As3
_symmetry_space_group_name_H-M   'P 1'
_cell_length_a   4.31851015
_cell_length_b   4.32102520
_cell_length_c   22.07037400
_cell_angle_alpha   90.00000000
_cell_angle_beta   90.00000000
_cell_angle_gamma   60.01894325
_symmetry_Int_Tables_number   1
_chemical_formula_structural   NdZnCd2As3
_chemical_formula_sum   'Nd2 Zn2 Cd4 As6'
_cell_volume   356.73353474
_cell_formula_units_Z   2
loop_
 _symmetry_equiv_pos_site_id
 _symmetry_equiv_pos_as_xyz
  1  'x, y, z'
loop_
 _atom_site_type_symbol
 _atom_site_label
 _atom_site_symmetry_multiplicity
 _atom_site_fract_x
 _atom_site_fract_y
 _atom_site_fract_z
 _atom_site_occupancy
  Nd  Nd0  1  0.997954  0.000758  0.500042  1
  Nd  Nd1  1  0.997954  0.000758  0.999958  1
  Zn  Zn2  1  0.267768  0.364325  0.750000  1
  Zn  Zn3  1  0.635511  0.633494  0.250000  1
  Cd  Cd4  1  0.333837  0.336504  0.128334  1
  Cd  Cd5  1  0.670026  0.665655  0.871620  1
  Cd  Cd6  1  0.670026  0.665655  0.628380  1
  Cd  Cd7  1  0.333837  0.336504  0.371666  1
  As  As8  1  0.333433  0.333501  0.577914  1
  As  As9  1  0.665645  0.668386  0.422169  1
  As  As10  1  0.665645  0.668386  0.077831  1
  As  As11  1  0.333433  0.333501  0.922086  1
  As  As12  1  0.595834  0.700189  0.750000  1
  As  As13  1  0.299897  0.297484  0.250000  1
