# generated using pymatgen
data_Tb2Th2NbAl7
_symmetry_space_group_name_H-M   'P 1'
_cell_length_a   5.61959900
_cell_length_b   5.61960006
_cell_length_c   9.28644100
_cell_angle_alpha   90.00000000
_cell_angle_beta   90.00000000
_cell_angle_gamma   119.99998790
_symmetry_Int_Tables_number   1
_chemical_formula_structural   Tb2Th2NbAl7
_chemical_formula_sum   'Tb2 Th2 Nb1 Al7'
_cell_volume   253.97485621
_cell_formula_units_Z   1
loop_
 _symmetry_equiv_pos_site_id
 _symmetry_equiv_pos_as_xyz
  1  'x, y, z'
loop_
 _atom_site_type_symbol
 _atom_site_label
 _atom_site_symmetry_multiplicity
 _atom_site_fract_x
 _atom_site_fract_y
 _atom_site_fract_z
 _atom_site_occupancy
  Tb  Tb0  1  0.666667  0.333333  0.438869  1
  Tb  Tb1  1  0.333333  0.666667  0.561131  1
  Th  Th2  1  0.333333  0.666667  0.948103  1
  Th  Th3  1  0.666667  0.333333  0.051897  1
  Nb  Nb4  1  0.000000  0.000000  0.000000  1
  Al  Al5  1  0.000000  0.000000  0.500000  1
  Al  Al6  1  0.663352  0.831676  0.256568  1
  Al  Al7  1  0.168324  0.831676  0.256568  1
  Al  Al8  1  0.168324  0.336648  0.256568  1
  Al  Al9  1  0.336648  0.168324  0.743432  1
  Al  Al10  1  0.831676  0.168324  0.743432  1
  Al  Al11  1  0.831676  0.663352  0.743432  1
