# generated using pymatgen
data_Y5ZnIn4Co
_symmetry_space_group_name_H-M   'P 1'
_cell_length_a   3.58665700
_cell_length_b   8.19776678
_cell_length_c   18.25608316
_cell_angle_alpha   89.28579148
_cell_angle_beta   90.00000000
_cell_angle_gamma   90.00000000
_symmetry_Int_Tables_number   1
_chemical_formula_structural   Y5ZnIn4Co
_chemical_formula_sum   'Y10 Zn2 In8 Co2'
_cell_volume   536.73419965
_cell_formula_units_Z   2
loop_
 _symmetry_equiv_pos_site_id
 _symmetry_equiv_pos_as_xyz
  1  'x, y, z'
loop_
 _atom_site_type_symbol
 _atom_site_label
 _atom_site_symmetry_multiplicity
 _atom_site_fract_x
 _atom_site_fract_y
 _atom_site_fract_z
 _atom_site_occupancy
  Y  Y0  1  0.500000  0.212387  0.774280  1
  Y  Y1  1  0.500000  0.787613  0.225720  1
  Y  Y2  1  0.500000  0.234611  0.283556  1
  Y  Y3  1  0.500000  0.765389  0.716444  1
  Y  Y4  1  0.500000  0.114857  0.587591  1
  Y  Y5  1  0.500000  0.885143  0.412409  1
  Y  Y6  1  0.500000  0.378703  0.079577  1
  Y  Y7  1  0.500000  0.621297  0.920423  1
  Y  Y8  1  0.500000  0.000000  0.000000  1
  Y  Y9  1  0.500000  0.500000  0.500000  1
  Zn  Zn10  1  0.000000  0.480963  0.200044  1
  Zn  Zn11  1  0.000000  0.519037  0.799956  1
  In  In12  1  0.000000  0.078827  0.150975  1
  In  In13  1  0.000000  0.921173  0.849025  1
  In  In14  1  0.000000  0.420382  0.650305  1
  In  In15  1  0.000000  0.579618  0.349695  1
  In  In16  1  0.000000  0.203740  0.431880  1
  In  In17  1  0.000000  0.796260  0.568120  1
  In  In18  1  0.000000  0.291510  0.927495  1
  In  In19  1  0.000000  0.708490  0.072505  1
  Co  Co20  1  0.000000  0.019015  0.694767  1
  Co  Co21  1  0.000000  0.980985  0.305233  1
