# generated using pymatgen
data_Zr5HgSb2
_symmetry_space_group_name_H-M   'P 1'
_cell_length_a   5.64819714
_cell_length_b   8.46091052
_cell_length_c   8.46091120
_cell_angle_alpha   83.60337758
_cell_angle_beta   70.50151685
_cell_angle_gamma   70.50151525
_symmetry_Int_Tables_number   1
_chemical_formula_structural   Zr5HgSb2
_chemical_formula_sum   'Zr10 Hg2 Sb4'
_cell_volume   359.29016382
_cell_formula_units_Z   2
loop_
 _symmetry_equiv_pos_site_id
 _symmetry_equiv_pos_as_xyz
  1  'x, y, z'
loop_
 _atom_site_type_symbol
 _atom_site_label
 _atom_site_symmetry_multiplicity
 _atom_site_fract_x
 _atom_site_fract_y
 _atom_site_fract_z
 _atom_site_occupancy
  Zr  Zr0  1  0.250000  0.500000  0.500000  1
  Zr  Zr1  1  0.750000  0.500000  0.500000  1
  Zr  Zr2  1  0.077948  0.146548  0.697557  1
  Zr  Zr3  1  0.922052  0.853452  0.302443  1
  Zr  Zr4  1  0.775505  0.302443  0.146548  1
  Zr  Zr5  1  0.422052  0.302443  0.853452  1
  Zr  Zr6  1  0.224495  0.697557  0.853452  1
  Zr  Zr7  1  0.577948  0.697557  0.146548  1
  Zr  Zr8  1  0.724495  0.853452  0.697557  1
  Zr  Zr9  1  0.275505  0.146548  0.302443  1
  Hg  Hg10  1  0.250000  0.000000  0.000000  1
  Hg  Hg11  1  0.750000  0.000000  0.000000  1
  Sb  Sb12  1  0.163731  0.500000  0.172538  1
  Sb  Sb13  1  0.836269  0.500000  0.827462  1
  Sb  Sb14  1  0.336269  0.827462  0.500000  1
  Sb  Sb15  1  0.663731  0.172538  0.500000  1
