# generated using pymatgen
data_Pr5Y3(Si3Ir)4
_symmetry_space_group_name_H-M   'P 1'
_cell_length_a   8.25628100
_cell_length_b   8.25628017
_cell_length_c   8.30423700
_cell_angle_alpha   90.00000000
_cell_angle_beta   90.00000000
_cell_angle_gamma   119.99999129
_symmetry_Int_Tables_number   1
_chemical_formula_structural   Pr5Y3(Si3Ir)4
_chemical_formula_sum   'Pr5 Y3 Si12 Ir4'
_cell_volume   490.22933202
_cell_formula_units_Z   1
loop_
 _symmetry_equiv_pos_site_id
 _symmetry_equiv_pos_as_xyz
  1  'x, y, z'
loop_
 _atom_site_type_symbol
 _atom_site_label
 _atom_site_symmetry_multiplicity
 _atom_site_fract_x
 _atom_site_fract_y
 _atom_site_fract_z
 _atom_site_occupancy
  Pr  Pr0  1  0.000000  0.000000  0.250000  1
  Pr  Pr1  1  0.000000  0.000000  0.750000  1
  Pr  Pr2  1  0.504495  0.495505  0.250000  1
  Pr  Pr3  1  0.504495  0.008990  0.250000  1
  Pr  Pr4  1  0.991010  0.495505  0.250000  1
  Y  Y5  1  0.492576  0.507424  0.750000  1
  Y  Y6  1  0.492576  0.985151  0.750000  1
  Y  Y7  1  0.014849  0.507424  0.750000  1
  Si  Si8  1  0.167015  0.832985  0.507371  1
  Si  Si9  1  0.167015  0.334031  0.507371  1
  Si  Si10  1  0.665969  0.832985  0.507371  1
  Si  Si11  1  0.831466  0.168534  0.504041  1
  Si  Si12  1  0.831466  0.662931  0.504041  1
  Si  Si13  1  0.337069  0.168534  0.504041  1
  Si  Si14  1  0.831466  0.168534  0.995959  1
  Si  Si15  1  0.831466  0.662931  0.995959  1
  Si  Si16  1  0.337069  0.168534  0.995959  1
  Si  Si17  1  0.167015  0.832985  0.992629  1
  Si  Si18  1  0.167015  0.334031  0.992629  1
  Si  Si19  1  0.665969  0.832985  0.992629  1
  Ir  Ir20  1  0.333333  0.666667  0.492138  1
  Ir  Ir21  1  0.666667  0.333333  0.543051  1
  Ir  Ir22  1  0.666667  0.333333  0.956949  1
  Ir  Ir23  1  0.333333  0.666667  0.007862  1
