# generated using pymatgen
data_SrPrMg2Au3
_symmetry_space_group_name_H-M   'P 1'
_cell_length_a   4.56163500
_cell_length_b   8.35265300
_cell_length_c   9.38621600
_cell_angle_alpha   90.00000000
_cell_angle_beta   90.00000000
_cell_angle_gamma   90.00000000
_symmetry_Int_Tables_number   1
_chemical_formula_structural   SrPrMg2Au3
_chemical_formula_sum   'Sr2 Pr2 Mg4 Au6'
_cell_volume   357.63129554
_cell_formula_units_Z   2
loop_
 _symmetry_equiv_pos_site_id
 _symmetry_equiv_pos_as_xyz
  1  'x, y, z'
loop_
 _atom_site_type_symbol
 _atom_site_label
 _atom_site_symmetry_multiplicity
 _atom_site_fract_x
 _atom_site_fract_y
 _atom_site_fract_z
 _atom_site_occupancy
  Sr  Sr0  1  0.500000  0.000000  0.728360  1
  Sr  Sr1  1  0.000000  0.500000  0.271640  1
  Pr  Pr2  1  0.000000  0.000000  0.344465  1
  Pr  Pr3  1  0.500000  0.500000  0.655535  1
  Mg  Mg4  1  0.000000  0.309552  0.899452  1
  Mg  Mg5  1  0.500000  0.190448  0.100548  1
  Mg  Mg6  1  0.000000  0.690448  0.899452  1
  Mg  Mg7  1  0.500000  0.809552  0.100548  1
  Au  Au8  1  0.000000  0.744665  0.600809  1
  Au  Au9  1  0.500000  0.755335  0.399191  1
  Au  Au10  1  0.500000  0.500000  0.984242  1
  Au  Au11  1  0.000000  0.000000  0.015758  1
  Au  Au12  1  0.500000  0.244665  0.399191  1
  Au  Au13  1  0.000000  0.255335  0.600809  1
