# generated using pymatgen
data_Tb2Ho2AlNi13
_symmetry_space_group_name_H-M   'P 1'
_cell_length_a   4.91846844
_cell_length_b   4.99016395
_cell_length_c   12.47313100
_cell_angle_alpha   78.46091744
_cell_angle_beta   78.65963009
_cell_angle_gamma   59.51662355
_symmetry_Int_Tables_number   1
_chemical_formula_structural   Tb2Ho2AlNi13
_chemical_formula_sum   'Tb2 Ho2 Al1 Ni13'
_cell_volume   256.84510130
_cell_formula_units_Z   1
loop_
 _symmetry_equiv_pos_site_id
 _symmetry_equiv_pos_as_xyz
  1  'x, y, z'
loop_
 _atom_site_type_symbol
 _atom_site_label
 _atom_site_symmetry_multiplicity
 _atom_site_fract_x
 _atom_site_fract_y
 _atom_site_fract_z
 _atom_site_occupancy
  Tb  Tb0  1  0.946231  0.946278  0.161213  1
  Tb  Tb1  1  0.053769  0.053722  0.838787  1
  Ho  Ho2  1  0.853049  0.851730  0.443490  1
  Ho  Ho3  1  0.146951  0.148270  0.556510  1
  Al  Al4  1  0.000000  0.500000  0.000000  1
  Ni  Ni5  1  0.500000  0.500000  0.500000  1
  Ni  Ni6  1  0.720894  0.722696  0.833713  1
  Ni  Ni7  1  0.279106  0.277304  0.166287  1
  Ni  Ni8  1  0.610417  0.611734  0.166114  1
  Ni  Ni9  1  0.389583  0.388266  0.833886  1
  Ni  Ni10  1  0.500000  0.000000  0.000000  1
  Ni  Ni11  1  0.500000  0.500000  0.000000  1
  Ni  Ni12  1  0.390405  0.389411  0.330627  1
  Ni  Ni13  1  0.892981  0.388003  0.331015  1
  Ni  Ni14  1  0.390405  0.889559  0.330627  1
  Ni  Ni15  1  0.609595  0.610589  0.669373  1
  Ni  Ni16  1  0.107019  0.611997  0.668985  1
  Ni  Ni17  1  0.609595  0.110441  0.669373  1
