# generated using pymatgen
data_Nd3Sm3(SiPd5)2
_symmetry_space_group_name_H-M   'P 1'
_cell_length_a   8.37887382
_cell_length_b   8.36954301
_cell_length_c   8.36954212
_cell_angle_alpha   127.04273323
_cell_angle_beta   126.10767647
_cell_angle_gamma   78.92125281
_symmetry_Int_Tables_number   1
_chemical_formula_structural   Nd3Sm3(SiPd5)2
_chemical_formula_sum   'Nd3 Sm3 Si2 Pd10'
_cell_volume   366.22522187
_cell_formula_units_Z   1
loop_
 _symmetry_equiv_pos_site_id
 _symmetry_equiv_pos_as_xyz
  1  'x, y, z'
loop_
 _atom_site_type_symbol
 _atom_site_label
 _atom_site_symmetry_multiplicity
 _atom_site_fract_x
 _atom_site_fract_y
 _atom_site_fract_z
 _atom_site_occupancy
  Nd  Nd0  1  0.387108  0.249792  0.137316  1
  Nd  Nd1  1  0.774817  0.549690  0.225126  1
  Nd  Nd2  1  0.612264  0.750149  0.862115  1
  Sm  Sm3  1  0.822694  0.049363  0.773330  1
  Sm  Sm4  1  0.222441  0.450161  0.772280  1
  Sm  Sm5  1  0.176972  0.950392  0.226579  1
  Si  Si6  1  0.212800  0.750096  0.462704  1
  Si  Si7  1  0.787569  0.249871  0.537696  1
  Pd  Pd8  1  0.832859  0.594684  0.641189  1
  Pd  Pd9  1  0.544559  0.306195  0.637619  1
  Pd  Pd10  1  0.454241  0.093453  0.760872  1
  Pd  Pd11  1  0.832859  0.191670  0.238175  1
  Pd  Pd12  1  0.168730  0.405545  0.361062  1
  Pd  Pd13  1  0.454241  0.693369  0.360788  1
  Pd  Pd14  1  0.544559  0.906940  0.238364  1
  Pd  Pd15  1  0.168730  0.807667  0.763185  1
  Pd  Pd16  1  0.001279  0.001479  0.501798  1
  Pd  Pd17  1  0.001279  0.499480  0.999799  1
