# generated using pymatgen
data_Er4MnAl2VB16
_symmetry_space_group_name_H-M   'P 1'
_cell_length_a   3.46891000
_cell_length_b   5.93032994
_cell_length_c   11.47436053
_cell_angle_alpha   90.31695634
_cell_angle_beta   90.00000000
_cell_angle_gamma   90.00000000
_symmetry_Int_Tables_number   1
_chemical_formula_structural   Er4MnAl2VB16
_chemical_formula_sum   'Er4 Mn1 Al2 V1 B16'
_cell_volume   236.04441808
_cell_formula_units_Z   1
loop_
 _symmetry_equiv_pos_site_id
 _symmetry_equiv_pos_as_xyz
  1  'x, y, z'
loop_
 _atom_site_type_symbol
 _atom_site_label
 _atom_site_symmetry_multiplicity
 _atom_site_fract_x
 _atom_site_fract_y
 _atom_site_fract_z
 _atom_site_occupancy
  Er  Er0  1  0.500000  0.371439  0.154214  1
  Er  Er1  1  0.500000  0.627160  0.847358  1
  Er  Er2  1  0.500000  0.126984  0.646567  1
  Er  Er3  1  0.500000  0.874292  0.350996  1
  Mn  Mn4  1  0.500000  0.375394  0.420460  1
  Al  Al5  1  0.500000  0.137118  0.909032  1
  Al  Al6  1  0.500000  0.861559  0.093223  1
  V  V7  1  0.500000  0.625386  0.579142  1
  B  B8  1  0.000000  0.114052  0.047819  1
  B  B9  1  0.000000  0.885683  0.953169  1
  B  B10  1  0.000000  0.384966  0.544681  1
  B  B11  1  0.000000  0.611480  0.451160  1
  B  B12  1  0.000000  0.137859  0.466078  1
  B  B13  1  0.000000  0.866361  0.531048  1
  B  B14  1  0.000000  0.366203  0.969607  1
  B  B15  1  0.000000  0.632520  0.031016  1
  B  B16  1  0.000000  0.028776  0.194245  1
  B  B17  1  0.000000  0.973360  0.806548  1
  B  B18  1  0.000000  0.476457  0.691699  1
  B  B19  1  0.000000  0.520665  0.308825  1
  B  B20  1  0.000000  0.218322  0.316920  1
  B  B21  1  0.000000  0.786691  0.685277  1
  B  B22  1  0.000000  0.288204  0.812565  1
  B  B23  1  0.000000  0.709071  0.188354  1
