# generated using pymatgen
data_Li2NpTcH6
_symmetry_space_group_name_H-M   'P 1'
_cell_length_a   4.96908823
_cell_length_b   4.96908681
_cell_length_c   4.96909100
_cell_angle_alpha   120.00024755
_cell_angle_beta   120.00029141
_cell_angle_gamma   59.99981143
_symmetry_Int_Tables_number   1
_chemical_formula_structural   Li2NpTcH6
_chemical_formula_sum   'Li2 Np1 Tc1 H6'
_cell_volume   86.75866413
_cell_formula_units_Z   1
loop_
 _symmetry_equiv_pos_site_id
 _symmetry_equiv_pos_as_xyz
  1  'x, y, z'
loop_
 _atom_site_type_symbol
 _atom_site_label
 _atom_site_symmetry_multiplicity
 _atom_site_fract_x
 _atom_site_fract_y
 _atom_site_fract_z
 _atom_site_occupancy
  Li  Li0  1  0.499999  0.500000  0.500000  1
  Li  Li1  1  0.250002  0.250000  0.749998  1
  Np  Np2  1  0.749998  0.750004  0.249998  1
  Tc  Tc3  1  0.999995  0.999995  0.999993  1
  H  H4  1  0.249631  0.249630  0.249631  1
  H  H5  1  0.750373  0.249628  0.249629  1
  H  H6  1  0.249631  0.750372  0.249629  1
  H  H7  1  0.750373  0.249628  0.750371  1
  H  H8  1  0.249631  0.750372  0.750373  1
  H  H9  1  0.750373  0.750373  0.750374  1
