# generated using pymatgen
data_Zr11PaMn3I16
_symmetry_space_group_name_H-M   'P 1'
_cell_length_a   9.03467354
_cell_length_b   12.05222921
_cell_length_c   13.01701300
_cell_angle_alpha   119.14290648
_cell_angle_beta   100.64935816
_cell_angle_gamma   99.65142745
_symmetry_Int_Tables_number   1
_chemical_formula_structural   Zr11PaMn3I16
_chemical_formula_sum   'Zr11 Pa1 Mn3 I16'
_cell_volume   1160.54107199
_cell_formula_units_Z   1
loop_
 _symmetry_equiv_pos_site_id
 _symmetry_equiv_pos_as_xyz
  1  'x, y, z'
loop_
 _atom_site_type_symbol
 _atom_site_label
 _atom_site_symmetry_multiplicity
 _atom_site_fract_x
 _atom_site_fract_y
 _atom_site_fract_z
 _atom_site_occupancy
  Zr  Zr0  1  0.943116  0.709214  0.628032  1
  Zr  Zr1  1  0.773776  0.522072  0.334767  1
  Zr  Zr2  1  0.213500  0.485958  0.667426  1
  Zr  Zr3  1  0.309869  0.736050  0.643793  1
  Zr  Zr4  1  0.705136  0.264963  0.357569  1
  Zr  Zr5  1  0.145854  0.550533  0.353312  1
  Zr  Zr6  1  0.843045  0.458484  0.654210  1
  Zr  Zr7  1  0.401942  0.367421  0.284917  1
  Zr  Zr8  1  0.594853  0.637217  0.708861  1
  Zr  Zr9  1  0.453670  0.319692  0.523249  1
  Zr  Zr10  1  0.546493  0.682295  0.486093  1
  Pa  Pa11  1  0.078102  0.278747  0.363626  1
  Mn  Mn12  1  0.987669  0.492775  0.495294  1
  Mn  Mn13  1  0.312736  0.472709  0.482421  1
  Mn  Mn14  1  0.638204  0.488244  0.492462  1
  I  I15  1  0.404503  0.748720  0.884493  1
  I  I16  1  0.603288  0.245933  0.116888  1
  I  I17  1  0.197645  0.970667  0.786503  1
  I  I18  1  0.795212  0.009333  0.205748  1
  I  I19  1  0.325801  0.095038  0.252587  1
  I  I20  1  0.659746  0.913636  0.752619  1
  I  I21  1  0.591177  0.445781  0.796584  1
  I  I22  1  0.460049  0.564681  0.209393  1
  I  I23  1  0.315377  0.834377  0.470716  1
  I  I24  1  0.690514  0.164253  0.525120  1
  I  I25  1  0.163597  0.186732  0.551834  1
  I  I26  1  0.847567  0.821468  0.475345  1
  I  I27  1  0.923141  0.577245  0.170080  1
  I  I28  1  0.071928  0.438842  0.839327  1
  I  I29  1  0.934530  0.742634  0.869394  1
  I  I30  1  0.067962  0.274286  0.117336  1
