# generated using pymatgen
data_Sr3CaU2O9
_symmetry_space_group_name_H-M   'P 1'
_cell_length_a   6.09096699
_cell_length_b   10.55004721
_cell_length_c   8.58248339
_cell_angle_alpha   66.17096791
_cell_angle_beta   89.80202102
_cell_angle_gamma   72.90309431
_symmetry_Int_Tables_number   1
_chemical_formula_structural   Sr3CaU2O9
_chemical_formula_sum   'Sr6 Ca2 U4 O18'
_cell_volume   477.98998327
_cell_formula_units_Z   2
loop_
 _symmetry_equiv_pos_site_id
 _symmetry_equiv_pos_as_xyz
  1  'x, y, z'
loop_
 _atom_site_type_symbol
 _atom_site_label
 _atom_site_symmetry_multiplicity
 _atom_site_fract_x
 _atom_site_fract_y
 _atom_site_fract_z
 _atom_site_occupancy
  Sr  Sr0  1  0.831192  0.313405  0.083014  1
  Sr  Sr1  1  0.154177  0.658837  0.426453  1
  Sr  Sr2  1  0.486415  0.006141  0.724853  1
  Sr  Sr3  1  0.502115  0.019912  0.250293  1
  Sr  Sr4  1  0.846939  0.327207  0.608457  1
  Sr  Sr5  1  0.179183  0.674537  0.906833  1
  Ca  Ca6  1  0.995785  0.000360  0.501502  1
  Ca  Ca7  1  0.337526  0.332994  0.831800  1
  U  U8  1  0.002348  0.995075  0.003131  1
  U  U9  1  0.330984  0.338246  0.330171  1
  U  U10  1  0.666711  0.666671  0.666682  1
  U  U11  1  0.666706  0.666637  0.166711  1
  O  O12  1  0.955698  0.474548  0.196221  1
  O  O13  1  0.312633  0.775979  0.576703  1
  O  O14  1  0.655043  0.117418  0.884218  1
  O  O15  1  0.377612  0.858693  0.137193  1
  O  O16  1  0.678225  0.215888  0.449245  1
  O  O17  1  0.020751  0.557380  0.756623  1
  O  O18  1  0.590770  0.717249  0.900698  1
  O  O19  1  0.915598  0.032634  0.220773  1
  O  O20  1  0.243343  0.378327  0.546002  1
  O  O21  1  0.916521  0.783903  0.112943  1
  O  O22  1  0.243416  0.141063  0.426102  1
  O  O23  1  0.603245  0.463935  0.778545  1
  O  O24  1  0.742590  0.616092  0.432691  1
  O  O25  1  0.089924  0.955092  0.787254  1
  O  O26  1  0.417772  0.300663  0.112536  1
  O  O27  1  0.416820  0.549392  0.220340  1
  O  O28  1  0.730102  0.869406  0.554838  1
  O  O29  1  0.089854  0.192318  0.907176  1
