# generated using pymatgen
data_Gd2CuTe2(SO7)2
_symmetry_space_group_name_H-M   'P 1'
_cell_length_a   5.44287033
_cell_length_b   8.37378888
_cell_length_c   8.42631873
_cell_angle_alpha   115.69050361
_cell_angle_beta   105.87108505
_cell_angle_gamma   96.17409897
_symmetry_Int_Tables_number   1
_chemical_formula_structural   Gd2CuTe2(SO7)2
_chemical_formula_sum   'Gd2 Cu1 Te2 S2 O14'
_cell_volume   321.36836815
_cell_formula_units_Z   1
loop_
 _symmetry_equiv_pos_site_id
 _symmetry_equiv_pos_as_xyz
  1  'x, y, z'
loop_
 _atom_site_type_symbol
 _atom_site_label
 _atom_site_symmetry_multiplicity
 _atom_site_fract_x
 _atom_site_fract_y
 _atom_site_fract_z
 _atom_site_occupancy
  Gd  Gd0  1  0.169647  0.236274  0.530660  1
  Gd  Gd1  1  0.830353  0.763726  0.469340  1
  Cu  Cu2  1  0.500000  0.500000  0.000000  1
  Te  Te3  1  0.121409  0.757252  0.139137  1
  Te  Te4  1  0.878591  0.242748  0.860863  1
  S  S5  1  0.584519  0.269832  0.266900  1
  S  S6  1  0.415481  0.730168  0.733100  1
  O  O7  1  0.386072  0.180291  0.316413  1
  O  O8  1  0.613928  0.819709  0.683587  1
  O  O9  1  0.304111  0.532776  0.586600  1
  O  O10  1  0.695889  0.467224  0.413400  1
  O  O11  1  0.807241  0.179625  0.272516  1
  O  O12  1  0.192759  0.820375  0.727484  1
  O  O13  1  0.459538  0.249401  0.078396  1
  O  O14  1  0.540462  0.750599  0.921604  1
  O  O15  1  0.883850  0.572050  0.146548  1
  O  O16  1  0.116150  0.427950  0.853452  1
  O  O17  1  0.437110  0.690024  0.222227  1
  O  O18  1  0.562890  0.309976  0.777773  1
  O  O19  1  0.128700  0.919551  0.384637  1
  O  O20  1  0.871300  0.080449  0.615363  1
