# generated using pymatgen
data_Ce4Zn4Pd3Ru
_symmetry_space_group_name_H-M   'P 1'
_cell_length_a   4.37040900
_cell_length_b   6.93584437
_cell_length_c   8.03808315
_cell_angle_alpha   90.86755001
_cell_angle_beta   90.00000000
_cell_angle_gamma   90.00000000
_symmetry_Int_Tables_number   1
_chemical_formula_structural   Ce4Zn4Pd3Ru
_chemical_formula_sum   'Ce4 Zn4 Pd3 Ru1'
_cell_volume   243.62627752
_cell_formula_units_Z   1
loop_
 _symmetry_equiv_pos_site_id
 _symmetry_equiv_pos_as_xyz
  1  'x, y, z'
loop_
 _atom_site_type_symbol
 _atom_site_label
 _atom_site_symmetry_multiplicity
 _atom_site_fract_x
 _atom_site_fract_y
 _atom_site_fract_z
 _atom_site_occupancy
  Ce  Ce0  1  0.250000  0.542770  0.199608  1
  Ce  Ce1  1  0.750000  0.460075  0.809247  1
  Ce  Ce2  1  0.250000  0.029680  0.306161  1
  Ce  Ce3  1  0.750000  0.952972  0.671123  1
  Zn  Zn4  1  0.250000  0.141332  0.929230  1
  Zn  Zn5  1  0.750000  0.853963  0.065432  1
  Zn  Zn6  1  0.250000  0.638971  0.569111  1
  Zn  Zn7  1  0.750000  0.364870  0.434238  1
  Pd  Pd8  1  0.250000  0.255034  0.608435  1
  Pd  Pd9  1  0.750000  0.241948  0.112314  1
  Pd  Pd10  1  0.250000  0.755251  0.889834  1
  Ru  Ru11  1  0.750000  0.763134  0.405267  1
