# generated using pymatgen
data_La15Sm(DySn4)4
_symmetry_space_group_name_H-M   'P 1'
_cell_length_a   8.40624667
_cell_length_b   8.51442937
_cell_length_c   16.16387949
_cell_angle_alpha   90.05266628
_cell_angle_beta   89.88119526
_cell_angle_gamma   90.17033856
_symmetry_Int_Tables_number   1
_chemical_formula_structural   La15Sm(DySn4)4
_chemical_formula_sum   'La15 Sm1 Dy4 Sn16'
_cell_volume   1156.91179038
_cell_formula_units_Z   1
loop_
 _symmetry_equiv_pos_site_id
 _symmetry_equiv_pos_as_xyz
  1  'x, y, z'
loop_
 _atom_site_type_symbol
 _atom_site_label
 _atom_site_symmetry_multiplicity
 _atom_site_fract_x
 _atom_site_fract_y
 _atom_site_fract_z
 _atom_site_occupancy
  La  La0  1  0.868176  0.661030  0.620108  1
  La  La1  1  0.631722  0.160809  0.380353  1
  La  La2  1  0.132400  0.338529  0.119063  1
  La  La3  1  0.632124  0.161376  0.119806  1
  La  La4  1  0.131606  0.338783  0.380303  1
  La  La5  1  0.368559  0.838962  0.620054  1
  La  La6  1  0.868668  0.661389  0.880171  1
  La  La7  1  0.520047  0.318624  0.901648  1
  La  La8  1  0.020578  0.180994  0.598659  1
  La  La9  1  0.479737  0.681172  0.401664  1
  La  La10  1  0.979839  0.818655  0.098176  1
  La  La11  1  0.479674  0.681198  0.097832  1
  La  La12  1  0.979633  0.818929  0.401614  1
  La  La13  1  0.520257  0.318959  0.598718  1
  La  La14  1  0.020481  0.180664  0.901655  1
  Sm  Sm15  1  0.366739  0.839846  0.878861  1
  Dy  Dy16  1  0.201569  0.502131  0.750624  1
  Dy  Dy17  1  0.700224  0.998090  0.750422  1
  Dy  Dy18  1  0.799059  0.498574  0.250030  1
  Dy  Dy19  1  0.298711  0.001303  0.249802  1
  Sn  Sn20  1  0.290935  0.030859  0.043208  1
  Sn  Sn21  1  0.790328  0.467443  0.454288  1
  Sn  Sn22  1  0.710083  0.967406  0.545984  1
  Sn  Sn23  1  0.212436  0.537084  0.953988  1
  Sn  Sn24  1  0.704200  0.965383  0.953562  1
  Sn  Sn25  1  0.209846  0.532610  0.545845  1
  Sn  Sn26  1  0.290067  0.032460  0.454238  1
  Sn  Sn27  1  0.790922  0.467285  0.045832  1
  Sn  Sn28  1  0.563115  0.617685  0.751022  1
  Sn  Sn29  1  0.067377  0.884765  0.751319  1
  Sn  Sn30  1  0.434760  0.385021  0.249945  1
  Sn  Sn31  1  0.934977  0.114806  0.249944  1
  Sn  Sn32  1  0.325185  0.145146  0.751141  1
  Sn  Sn33  1  0.825019  0.351910  0.750319  1
  Sn  Sn34  1  0.675634  0.852594  0.249896  1
  Sn  Sn35  1  0.175314  0.647527  0.249905  1
