# generated using pymatgen
data_ZrAlV6Sn5
_symmetry_space_group_name_H-M   'P 1'
_cell_length_a   5.41186907
_cell_length_b   5.41485591
_cell_length_c   9.17695200
_cell_angle_alpha   90.00000000
_cell_angle_beta   90.00000000
_cell_angle_gamma   60.00950103
_symmetry_Int_Tables_number   1
_chemical_formula_structural   ZrAlV6Sn5
_chemical_formula_sum   'Zr1 Al1 V6 Sn5'
_cell_volume   232.91896312
_cell_formula_units_Z   1
loop_
 _symmetry_equiv_pos_site_id
 _symmetry_equiv_pos_as_xyz
  1  'x, y, z'
loop_
 _atom_site_type_symbol
 _atom_site_label
 _atom_site_symmetry_multiplicity
 _atom_site_fract_x
 _atom_site_fract_y
 _atom_site_fract_z
 _atom_site_occupancy
  Zr  Zr0  1  0.000007  0.999991  0.500000  1
  Al  Al1  1  0.332959  0.333707  0.500000  1
  V  V2  1  0.493045  0.013832  0.256561  1
  V  V3  1  0.013835  0.493141  0.256505  1
  V  V4  1  0.492974  0.493175  0.256533  1
  V  V5  1  0.493045  0.013832  0.743439  1
  V  V6  1  0.013835  0.493141  0.743495  1
  V  V7  1  0.492974  0.493175  0.743467  1
  Sn  Sn8  1  0.000025  0.999954  0.178316  1
  Sn  Sn9  1  0.000025  0.999954  0.821684  1
  Sn  Sn10  1  0.666916  0.666255  0.000000  1
  Sn  Sn11  1  0.333124  0.333699  0.000000  1
  Sn  Sn12  1  0.667035  0.666141  0.500000  1
