# generated using pymatgen
data_Ac2La2NdRu2
_symmetry_space_group_name_H-M   'P 1'
_cell_length_a   9.30761431
_cell_length_b   9.30761446
_cell_length_c   7.47093898
_cell_angle_alpha   84.96392198
_cell_angle_beta   84.96392069
_cell_angle_gamma   43.14813978
_symmetry_Int_Tables_number   1
_chemical_formula_structural   Ac2La2NdRu2
_chemical_formula_sum   'Ac4 La4 Nd2 Ru4'
_cell_volume   440.64892904
_cell_formula_units_Z   2
loop_
 _symmetry_equiv_pos_site_id
 _symmetry_equiv_pos_as_xyz
  1  'x, y, z'
loop_
 _atom_site_type_symbol
 _atom_site_label
 _atom_site_symmetry_multiplicity
 _atom_site_fract_x
 _atom_site_fract_y
 _atom_site_fract_z
 _atom_site_occupancy
  Ac  Ac0  1  0.363045  0.214277  0.816718  1
  Ac  Ac1  1  0.785723  0.636955  0.683282  1
  Ac  Ac2  1  0.636955  0.785723  0.183282  1
  Ac  Ac3  1  0.214277  0.363045  0.316718  1
  La  La4  1  0.011844  0.807839  0.902776  1
  La  La5  1  0.192161  0.988156  0.597224  1
  La  La6  1  0.988156  0.192161  0.097224  1
  La  La7  1  0.807839  0.011844  0.402776  1
  Nd  Nd8  1  0.567791  0.432209  0.750000  1
  Nd  Nd9  1  0.432209  0.567791  0.250000  1
  Ru  Ru10  1  0.166654  0.625091  0.588651  1
  Ru  Ru11  1  0.374909  0.833346  0.911349  1
  Ru  Ru12  1  0.833346  0.374909  0.411349  1
  Ru  Ru13  1  0.625091  0.166654  0.088651  1
