# generated using pymatgen
data_CeTm(SnIr)2
_symmetry_space_group_name_H-M   'P 1'
_cell_length_a   7.46003500
_cell_length_b   7.46003404
_cell_length_c   8.02841800
_cell_angle_alpha   90.00000000
_cell_angle_beta   90.00000000
_cell_angle_gamma   120.00000752
_symmetry_Int_Tables_number   1
_chemical_formula_structural   CeTm(SnIr)2
_chemical_formula_sum   'Ce3 Tm3 Sn6 Ir6'
_cell_volume   386.93877180
_cell_formula_units_Z   3
loop_
 _symmetry_equiv_pos_site_id
 _symmetry_equiv_pos_as_xyz
  1  'x, y, z'
loop_
 _atom_site_type_symbol
 _atom_site_label
 _atom_site_symmetry_multiplicity
 _atom_site_fract_x
 _atom_site_fract_y
 _atom_site_fract_z
 _atom_site_occupancy
  Ce  Ce0  1  0.999489  0.410337  0.250000  1
  Ce  Ce1  1  0.589663  0.589151  0.250000  1
  Ce  Ce2  1  0.410849  0.000511  0.250000  1
  Tm  Tm3  1  0.000245  0.406167  0.750000  1
  Tm  Tm4  1  0.593833  0.594078  0.750000  1
  Tm  Tm5  1  0.405922  0.999755  0.750000  1
  Sn  Sn6  1  0.256993  0.257128  0.505035  1
  Sn  Sn7  1  0.000134  0.743007  0.505035  1
  Sn  Sn8  1  0.000134  0.743007  0.994965  1
  Sn  Sn9  1  0.742872  0.999866  0.505035  1
  Sn  Sn10  1  0.742872  0.999866  0.994965  1
  Sn  Sn11  1  0.256993  0.257128  0.994965  1
  Ir  Ir12  1  0.333333  0.666667  0.500622  1
  Ir  Ir13  1  0.666667  0.333333  0.502036  1
  Ir  Ir14  1  0.333333  0.666667  0.999378  1
  Ir  Ir15  1  0.000000  0.000000  0.750000  1
  Ir  Ir16  1  0.000000  0.000000  0.250000  1
  Ir  Ir17  1  0.666667  0.333333  0.997964  1
