# generated using pymatgen
data_Ac6Yb2SbPd24
_symmetry_space_group_name_H-M   'P 1'
_cell_length_a   8.65137600
_cell_length_b   8.67457000
_cell_length_c   8.67457000
_cell_angle_alpha   89.99914795
_cell_angle_beta   90.00000000
_cell_angle_gamma   90.00000000
_symmetry_Int_Tables_number   1
_chemical_formula_structural   Ac6Yb2SbPd24
_chemical_formula_sum   'Ac6 Yb2 Sb1 Pd24'
_cell_volume   651.00016600
_cell_formula_units_Z   1
loop_
 _symmetry_equiv_pos_site_id
 _symmetry_equiv_pos_as_xyz
  1  'x, y, z'
loop_
 _atom_site_type_symbol
 _atom_site_label
 _atom_site_symmetry_multiplicity
 _atom_site_fract_x
 _atom_site_fract_y
 _atom_site_fract_z
 _atom_site_occupancy
  Ac  Ac0  1  0.253965  0.747161  0.747161  1
  Ac  Ac1  1  0.745851  0.747302  0.747302  1
  Ac  Ac2  1  0.745851  0.252698  0.252698  1
  Ac  Ac3  1  0.250596  0.252759  0.747241  1
  Ac  Ac4  1  0.250596  0.747241  0.252759  1
  Ac  Ac5  1  0.253965  0.252839  0.252839  1
  Yb  Yb6  1  0.747926  0.746537  0.253463  1
  Yb  Yb7  1  0.747926  0.253463  0.746537  1
  Sb  Sb8  1  0.999011  0.000000  0.000000  1
  Pd  Pd9  1  0.995183  0.995488  0.314400  1
  Pd  Pd10  1  0.731830  0.000000  0.500000  1
  Pd  Pd11  1  0.731830  0.500000  0.000000  1
  Pd  Pd12  1  0.504853  0.007978  0.732364  1
  Pd  Pd13  1  0.994135  0.732260  0.497203  1
  Pd  Pd14  1  0.504853  0.992022  0.267636  1
  Pd  Pd15  1  0.994135  0.267740  0.502797  1
  Pd  Pd16  1  0.504853  0.732364  0.007978  1
  Pd  Pd17  1  0.256187  0.500000  0.500000  1
  Pd  Pd18  1  0.505274  0.493731  0.744005  1
  Pd  Pd19  1  0.505274  0.506269  0.255995  1
  Pd  Pd20  1  0.505274  0.255995  0.506269  1
  Pd  Pd21  1  0.505274  0.744005  0.493731  1
  Pd  Pd22  1  0.744532  0.500000  0.500000  1
  Pd  Pd23  1  0.319287  0.000000  0.000000  1
  Pd  Pd24  1  0.995183  0.004512  0.685600  1
  Pd  Pd25  1  0.994135  0.502797  0.267740  1
  Pd  Pd26  1  0.995183  0.314400  0.995488  1
  Pd  Pd27  1  0.995183  0.685600  0.004512  1
  Pd  Pd28  1  0.687619  0.000000  0.000000  1
  Pd  Pd29  1  0.267627  0.500000  0.000000  1
  Pd  Pd30  1  0.267627  0.000000  0.500000  1
  Pd  Pd31  1  0.994135  0.497203  0.732260  1
  Pd  Pd32  1  0.504853  0.267636  0.992022  1
