# generated using pymatgen
data_Ca2NbVO6
_symmetry_space_group_name_H-M   'P 1'
_cell_length_a   5.64735100
_cell_length_b   5.47672977
_cell_length_c   9.53952091
_cell_angle_alpha   55.18778844
_cell_angle_beta   90.00000000
_cell_angle_gamma   90.00000000
_symmetry_Int_Tables_number   1
_chemical_formula_structural   Ca2NbVO6
_chemical_formula_sum   'Ca4 Nb2 V2 O12'
_cell_volume   242.24252823
_cell_formula_units_Z   2
loop_
 _symmetry_equiv_pos_site_id
 _symmetry_equiv_pos_as_xyz
  1  'x, y, z'
loop_
 _atom_site_type_symbol
 _atom_site_label
 _atom_site_symmetry_multiplicity
 _atom_site_fract_x
 _atom_site_fract_y
 _atom_site_fract_z
 _atom_site_occupancy
  Ca  Ca0  1  0.446571  0.234670  0.751292  1
  Ca  Ca1  1  0.553429  0.765330  0.248708  1
  Ca  Ca2  1  0.946571  0.765330  0.748708  1
  Ca  Ca3  1  0.053429  0.234670  0.251292  1
  Nb  Nb4  1  0.000000  0.500000  0.500000  1
  Nb  Nb5  1  0.500000  0.500000  0.000000  1
  V  V6  1  0.000000  0.000000  0.000000  1
  V  V7  1  0.500000  0.000000  0.500000  1
  O  O8  1  0.030183  0.346291  0.748534  1
  O  O9  1  0.969817  0.653709  0.251466  1
  O  O10  1  0.530183  0.653709  0.751466  1
  O  O11  1  0.469817  0.346291  0.248534  1
  O  O12  1  0.704631  0.844315  0.952485  1
  O  O13  1  0.295369  0.155685  0.047515  1
  O  O14  1  0.204631  0.155685  0.547515  1
  O  O15  1  0.795369  0.844315  0.452485  1
  O  O16  1  0.209837  0.749619  0.948604  1
  O  O17  1  0.790163  0.250381  0.051396  1
  O  O18  1  0.709837  0.250381  0.551396  1
  O  O19  1  0.290163  0.749619  0.448604  1
