# generated using pymatgen
data_K6AsRhF12
_symmetry_space_group_name_H-M   'P 1'
_cell_length_a   6.32330184
_cell_length_b   6.09603318
_cell_length_c   10.60925200
_cell_angle_alpha   55.18146507
_cell_angle_beta   90.09020283
_cell_angle_gamma   90.06047983
_symmetry_Int_Tables_number   1
_chemical_formula_structural   K6AsRhF12
_chemical_formula_sum   'K6 As1 Rh1 F12'
_cell_volume   335.73750182
_cell_formula_units_Z   1
loop_
 _symmetry_equiv_pos_site_id
 _symmetry_equiv_pos_as_xyz
  1  'x, y, z'
loop_
 _atom_site_type_symbol
 _atom_site_label
 _atom_site_symmetry_multiplicity
 _atom_site_fract_x
 _atom_site_fract_y
 _atom_site_fract_z
 _atom_site_occupancy
  K  K0  1  0.500000  0.500000  0.000000  1
  K  K1  1  0.000000  0.500000  0.500000  1
  K  K2  1  0.055542  0.736833  0.747987  1
  K  K3  1  0.944458  0.263167  0.252013  1
  K  K4  1  0.552548  0.271778  0.743278  1
  K  K5  1  0.447452  0.728222  0.256722  1
  As  As6  1  0.000000  0.000000  0.000000  1
  Rh  Rh7  1  0.500000  0.000000  0.500000  1
  F  F8  1  0.762936  0.773777  0.560988  1
  F  F9  1  0.237064  0.226223  0.439012  1
  F  F10  1  0.270103  0.231062  0.934620  1
  F  F11  1  0.729897  0.768938  0.065380  1
  F  F12  1  0.454618  0.883929  0.717452  1
  F  F13  1  0.545382  0.116071  0.282548  1
  F  F14  1  0.951474  0.116656  0.777662  1
  F  F15  1  0.048526  0.883344  0.222338  1
  F  F16  1  0.325178  0.688255  0.543306  1
  F  F17  1  0.674822  0.311745  0.456694  1
  F  F18  1  0.825588  0.322864  0.953048  1
  F  F19  1  0.174412  0.677136  0.046952  1
