# generated using pymatgen
data_SrTb3(AsPt)4
_symmetry_space_group_name_H-M   'P 1'
_cell_length_a   4.30013600
_cell_length_b   4.30013599
_cell_length_c   16.24202200
_cell_angle_alpha   90.00000000
_cell_angle_beta   90.00000000
_cell_angle_gamma   120.00000010
_symmetry_Int_Tables_number   1
_chemical_formula_structural   SrTb3(AsPt)4
_chemical_formula_sum   'Sr1 Tb3 As4 Pt4'
_cell_volume   260.09685845
_cell_formula_units_Z   1
loop_
 _symmetry_equiv_pos_site_id
 _symmetry_equiv_pos_as_xyz
  1  'x, y, z'
loop_
 _atom_site_type_symbol
 _atom_site_label
 _atom_site_symmetry_multiplicity
 _atom_site_fract_x
 _atom_site_fract_y
 _atom_site_fract_z
 _atom_site_occupancy
  Sr  Sr0  1  0.000000  0.000000  0.500000  1
  Tb  Tb1  1  0.000000  0.000000  0.000000  1
  Tb  Tb2  1  0.000000  0.000000  0.240690  1
  Tb  Tb3  1  0.000000  0.000000  0.759310  1
  As  As4  1  0.333333  0.666667  0.889397  1
  As  As5  1  0.666667  0.333333  0.110603  1
  As  As6  1  0.666667  0.333333  0.366818  1
  As  As7  1  0.333333  0.666667  0.633182  1
  Pt  Pt8  1  0.333333  0.666667  0.349241  1
  Pt  Pt9  1  0.666667  0.333333  0.650759  1
  Pt  Pt10  1  0.666667  0.333333  0.873007  1
  Pt  Pt11  1  0.333333  0.666667  0.126993  1
