# generated using pymatgen
data_NdTmSe2
_symmetry_space_group_name_H-M   'P 1'
_cell_length_a   7.28522857
_cell_length_b   7.28522819
_cell_length_c   7.28522981
_cell_angle_alpha   32.45233281
_cell_angle_beta   32.45234015
_cell_angle_gamma   32.45233931
_symmetry_Int_Tables_number   1
_chemical_formula_structural   NdTmSe2
_chemical_formula_sum   'Nd1 Tm1 Se2'
_cell_volume   98.99040732
_cell_formula_units_Z   1
loop_
 _symmetry_equiv_pos_site_id
 _symmetry_equiv_pos_as_xyz
  1  'x, y, z'
loop_
 _atom_site_type_symbol
 _atom_site_label
 _atom_site_symmetry_multiplicity
 _atom_site_fract_x
 _atom_site_fract_y
 _atom_site_fract_z
 _atom_site_occupancy
  Nd  Nd0  1  0.000000  0.000000  0.000000  1
  Tm  Tm1  1  0.500000  0.500000  0.500000  1
  Se  Se2  1  0.243582  0.243582  0.243582  1
  Se  Se3  1  0.756418  0.756418  0.756418  1
