# generated using pymatgen
data_Y2Co9Si2Mo3As5
_symmetry_space_group_name_H-M   'P 1'
_cell_length_a   3.80248400
_cell_length_b   9.36143391
_cell_length_c   9.35937052
_cell_angle_alpha   119.95441363
_cell_angle_beta   90.00000000
_cell_angle_gamma   90.00000000
_symmetry_Int_Tables_number   1
_chemical_formula_structural   Y2Co9Si2Mo3As5
_chemical_formula_sum   'Y2 Co9 Si2 Mo3 As5'
_cell_volume   288.65983346
_cell_formula_units_Z   1
loop_
 _symmetry_equiv_pos_site_id
 _symmetry_equiv_pos_as_xyz
  1  'x, y, z'
loop_
 _atom_site_type_symbol
 _atom_site_label
 _atom_site_symmetry_multiplicity
 _atom_site_fract_x
 _atom_site_fract_y
 _atom_site_fract_z
 _atom_site_occupancy
  Y  Y0  1  0.000000  0.666123  0.334424  1
  Y  Y1  1  0.500000  0.338301  0.667166  1
  Co  Co2  1  0.000000  0.570994  0.937576  1
  Co  Co3  1  0.000000  0.373747  0.432394  1
  Co  Co4  1  0.000000  0.058866  0.629626  1
  Co  Co5  1  0.000000  0.879214  0.157056  1
  Co  Co6  1  0.000000  0.276955  0.120490  1
  Co  Co7  1  0.000000  0.841661  0.721669  1
  Co  Co8  1  0.500000  0.949241  0.382957  1
  Co  Co9  1  0.500000  0.432690  0.050479  1
  Co  Co10  1  0.500000  0.615327  0.569730  1
  Si  Si11  1  0.000000  0.998491  0.998838  1
  Si  Si12  1  0.000000  0.589052  0.699456  1
  Mo  Mo13  1  0.500000  0.781475  0.898487  1
  Mo  Mo14  1  0.500000  0.116033  0.213439  1
  Mo  Mo15  1  0.500000  0.097389  0.883335  1
  As  As16  1  0.500000  0.707505  0.118725  1
  As  As17  1  0.500000  0.411185  0.293662  1
  As  As18  1  0.500000  0.879482  0.589780  1
  As  As19  1  0.000000  0.115064  0.414870  1
  As  As20  1  0.000000  0.301205  0.885840  1
