# generated using pymatgen
data_Sr6TaMn2O12
_symmetry_space_group_name_H-M   'P 1'
_cell_length_a   8.87850307
_cell_length_b   8.87850367
_cell_length_c   6.88428314
_cell_angle_alpha   67.27964829
_cell_angle_beta   67.27964698
_cell_angle_gamma   36.86048648
_symmetry_Int_Tables_number   1
_chemical_formula_structural   Sr6TaMn2O12
_chemical_formula_sum   'Sr6 Ta1 Mn2 O12'
_cell_volume   297.33388931
_cell_formula_units_Z   1
loop_
 _symmetry_equiv_pos_site_id
 _symmetry_equiv_pos_as_xyz
  1  'x, y, z'
loop_
 _atom_site_type_symbol
 _atom_site_label
 _atom_site_symmetry_multiplicity
 _atom_site_fract_x
 _atom_site_fract_y
 _atom_site_fract_z
 _atom_site_occupancy
  Sr  Sr0  1  0.875410  0.875410  0.716350  1
  Sr  Sr1  1  0.220155  0.220155  0.710720  1
  Sr  Sr2  1  0.548864  0.548864  0.704872  1
  Sr  Sr3  1  0.451136  0.451136  0.295128  1
  Sr  Sr4  1  0.779845  0.779845  0.289280  1
  Sr  Sr5  1  0.124590  0.124590  0.283650  1
  Ta  Ta6  1  0.000000  0.000000  0.000000  1
  Mn  Mn7  1  0.668108  0.668108  0.999430  1
  Mn  Mn8  1  0.331892  0.331892  0.000570  1
  O  O9  1  0.945883  0.945883  0.322231  1
  O  O10  1  0.281312  0.281312  0.315451  1
  O  O11  1  0.614057  0.614057  0.315211  1
  O  O12  1  0.385943  0.385943  0.684789  1
  O  O13  1  0.718688  0.718688  0.684549  1
  O  O14  1  0.054117  0.054117  0.677769  1
  O  O15  1  0.500000  0.000000  0.000000  1
  O  O16  1  0.833464  0.332128  0.000199  1
  O  O17  1  0.166536  0.667872  0.999801  1
  O  O18  1  0.000000  0.500000  0.000000  1
  O  O19  1  0.332128  0.833464  0.000199  1
  O  O20  1  0.667872  0.166536  0.999801  1
