# generated using pymatgen
data_Th8Sc11Si16Tc
_symmetry_space_group_name_H-M   'P 1'
_cell_length_a   7.18794770
_cell_length_b   7.45816086
_cell_length_c   14.15467400
_cell_angle_alpha   90.00000000
_cell_angle_beta   90.00000000
_cell_angle_gamma   90.06295138
_symmetry_Int_Tables_number   1
_chemical_formula_structural   Th8Sc11Si16Tc
_chemical_formula_sum   'Th8 Sc11 Si16 Tc1'
_cell_volume   758.81562384
_cell_formula_units_Z   1
loop_
 _symmetry_equiv_pos_site_id
 _symmetry_equiv_pos_as_xyz
  1  'x, y, z'
loop_
 _atom_site_type_symbol
 _atom_site_label
 _atom_site_symmetry_multiplicity
 _atom_site_fract_x
 _atom_site_fract_y
 _atom_site_fract_z
 _atom_site_occupancy
  Th  Th0  1  0.007701  0.174353  0.404180  1
  Th  Th1  1  0.508747  0.326566  0.405921  1
  Th  Th2  1  0.496668  0.677118  0.898258  1
  Th  Th3  1  0.496668  0.677118  0.601742  1
  Th  Th4  1  0.989545  0.830522  0.600740  1
  Th  Th5  1  0.989545  0.830522  0.899260  1
  Th  Th6  1  0.508747  0.326566  0.094079  1
  Th  Th7  1  0.007701  0.174353  0.095820  1
  Sc  Sc8  1  0.331509  0.171380  0.626459  1
  Sc  Sc9  1  0.668671  0.826697  0.377532  1
  Sc  Sc10  1  0.168706  0.674086  0.375246  1
  Sc  Sc11  1  0.828217  0.322657  0.875551  1
  Sc  Sc12  1  0.828217  0.322657  0.624449  1
  Sc  Sc13  1  0.839747  0.497140  0.250000  1
  Sc  Sc14  1  0.339030  0.003714  0.250000  1
  Sc  Sc15  1  0.331509  0.171380  0.873541  1
  Sc  Sc16  1  0.168706  0.674086  0.124754  1
  Sc  Sc17  1  0.668671  0.826697  0.122468  1
  Sc  Sc18  1  0.161238  0.501699  0.750000  1
  Si  Si19  1  0.295980  0.880725  0.750000  1
  Si  Si20  1  0.466852  0.624480  0.250000  1
  Si  Si21  1  0.022364  0.121400  0.750000  1
  Si  Si22  1  0.537356  0.365086  0.750000  1
  Si  Si23  1  0.161840  0.465948  0.540896  1
  Si  Si24  1  0.965298  0.877247  0.250000  1
  Si  Si25  1  0.709601  0.122495  0.250000  1
  Si  Si26  1  0.842757  0.538373  0.038397  1
  Si  Si27  1  0.339518  0.961830  0.036896  1
  Si  Si28  1  0.161840  0.465948  0.959104  1
  Si  Si29  1  0.655479  0.037135  0.546916  1
  Si  Si30  1  0.339518  0.961830  0.463104  1
  Si  Si31  1  0.842757  0.538373  0.461603  1
  Si  Si32  1  0.795732  0.617951  0.750000  1
  Si  Si33  1  0.212952  0.372824  0.250000  1
  Si  Si34  1  0.655479  0.037135  0.953084  1
  Tc  Tc35  1  0.655133  0.001914  0.750000  1
