# generated using pymatgen
data_Ca5Pb3F
_symmetry_space_group_name_H-M   'P 1'
_cell_length_a   9.58373429
_cell_length_b   9.58373426
_cell_length_c   9.58373384
_cell_angle_alpha   128.41174215
_cell_angle_beta   128.41174084
_cell_angle_gamma   75.95896567
_symmetry_Int_Tables_number   1
_chemical_formula_structural   Ca5Pb3F
_chemical_formula_sum   'Ca10 Pb6 F2'
_cell_volume   525.50103917
_cell_formula_units_Z   2
loop_
 _symmetry_equiv_pos_site_id
 _symmetry_equiv_pos_as_xyz
  1  'x, y, z'
loop_
 _atom_site_type_symbol
 _atom_site_label
 _atom_site_symmetry_multiplicity
 _atom_site_fract_x
 _atom_site_fract_y
 _atom_site_fract_z
 _atom_site_occupancy
  Ca  Ca0  1  0.500000  0.500000  0.000000  1
  Ca  Ca1  1  0.000000  0.000000  0.000000  1
  Ca  Ca2  1  0.505352  0.005352  0.815313  1
  Ca  Ca3  1  0.190039  0.690039  0.184687  1
  Ca  Ca4  1  0.005352  0.190039  0.500000  1
  Ca  Ca5  1  0.690039  0.505352  0.500000  1
  Ca  Ca6  1  0.494648  0.994648  0.184687  1
  Ca  Ca7  1  0.809961  0.309961  0.815313  1
  Ca  Ca8  1  0.994648  0.809961  0.500000  1
  Ca  Ca9  1  0.309961  0.494648  0.500000  1
  Pb  Pb10  1  0.250000  0.250000  0.000000  1
  Pb  Pb11  1  0.750000  0.750000  0.000000  1
  Pb  Pb12  1  0.866457  0.366457  0.232915  1
  Pb  Pb13  1  0.133543  0.633543  0.767086  1
  Pb  Pb14  1  0.366457  0.133543  0.500000  1
  Pb  Pb15  1  0.633543  0.866457  0.500000  1
  F  F16  1  0.250000  0.750000  0.500000  1
  F  F17  1  0.750000  0.250000  0.500000  1
