# generated using pymatgen
data_Ca(LaPb)4
_symmetry_space_group_name_H-M   'P 1'
_cell_length_a   8.54228200
_cell_length_b   8.64186200
_cell_length_c   16.63005100
_cell_angle_alpha   90.00000000
_cell_angle_beta   90.00000000
_cell_angle_gamma   90.00000000
_symmetry_Int_Tables_number   1
_chemical_formula_structural   Ca(LaPb)4
_chemical_formula_sum   'Ca4 La16 Pb16'
_cell_volume   1227.65069022
_cell_formula_units_Z   4
loop_
 _symmetry_equiv_pos_site_id
 _symmetry_equiv_pos_as_xyz
  1  'x, y, z'
loop_
 _atom_site_type_symbol
 _atom_site_label
 _atom_site_symmetry_multiplicity
 _atom_site_fract_x
 _atom_site_fract_y
 _atom_site_fract_z
 _atom_site_occupancy
  Ca  Ca0  1  0.710286  0.996635  0.250000  1
  Ca  Ca1  1  0.210286  0.503365  0.250000  1
  Ca  Ca2  1  0.789714  0.496635  0.750000  1
  Ca  Ca3  1  0.289714  0.003365  0.750000  1
  La  La4  1  0.880450  0.659841  0.117115  1
  La  La5  1  0.380450  0.840159  0.382885  1
  La  La6  1  0.619550  0.159841  0.882885  1
  La  La7  1  0.119550  0.340159  0.617115  1
  La  La8  1  0.119550  0.340159  0.882885  1
  La  La9  1  0.619550  0.159841  0.617115  1
  La  La10  1  0.380450  0.840159  0.117115  1
  La  La11  1  0.880450  0.659841  0.382885  1
  La  La12  1  0.028135  0.180096  0.100113  1
  La  La13  1  0.528135  0.319904  0.399887  1
  La  La14  1  0.471865  0.680096  0.899887  1
  La  La15  1  0.971865  0.819904  0.600113  1
  La  La16  1  0.971865  0.819904  0.899887  1
  La  La17  1  0.471865  0.680096  0.600113  1
  La  La18  1  0.528135  0.319904  0.100113  1
  La  La19  1  0.028135  0.180096  0.399887  1
  Pb  Pb20  1  0.076668  0.883024  0.250000  1
  Pb  Pb21  1  0.576668  0.616976  0.250000  1
  Pb  Pb22  1  0.423332  0.383024  0.750000  1
  Pb  Pb23  1  0.923332  0.116976  0.750000  1
  Pb  Pb24  1  0.833883  0.356966  0.250000  1
  Pb  Pb25  1  0.333883  0.143034  0.250000  1
  Pb  Pb26  1  0.666117  0.856966  0.750000  1
  Pb  Pb27  1  0.166117  0.643034  0.750000  1
  Pb  Pb28  1  0.780429  0.468011  0.956435  1
  Pb  Pb29  1  0.280429  0.031989  0.543565  1
  Pb  Pb30  1  0.719571  0.968011  0.043565  1
  Pb  Pb31  1  0.219571  0.531989  0.456435  1
  Pb  Pb32  1  0.219571  0.531989  0.043565  1
  Pb  Pb33  1  0.719571  0.968011  0.456435  1
  Pb  Pb34  1  0.280429  0.031989  0.956435  1
  Pb  Pb35  1  0.780429  0.468011  0.543565  1
