# generated using pymatgen
data_KTc2Te7MoW3
_symmetry_space_group_name_H-M   'P 1'
_cell_length_a   10.42199019
_cell_length_b   10.39093930
_cell_length_c   10.38322483
_cell_angle_alpha   60.17578478
_cell_angle_beta   60.12347580
_cell_angle_gamma   60.06651163
_symmetry_Int_Tables_number   1
_chemical_formula_structural   KTc2Te7MoW3
_chemical_formula_sum   'K2 Tc4 Te14 Mo2 W6'
_cell_volume   797.29656231
_cell_formula_units_Z   2
loop_
 _symmetry_equiv_pos_site_id
 _symmetry_equiv_pos_as_xyz
  1  'x, y, z'
loop_
 _atom_site_type_symbol
 _atom_site_label
 _atom_site_symmetry_multiplicity
 _atom_site_fract_x
 _atom_site_fract_y
 _atom_site_fract_z
 _atom_site_occupancy
  K  K0  1  0.621666  0.621908  0.623020  1
  K  K1  1  0.380341  0.377870  0.377451  1
  Tc  Tc2  1  0.712828  0.876751  0.008602  1
  Tc  Tc3  1  0.009581  0.710480  0.878326  1
  Tc  Tc4  1  0.877557  0.008589  0.712244  1
  Tc  Tc5  1  0.286999  0.123743  0.992515  1
  Te  Te6  1  0.429105  0.811186  0.160254  1
  Te  Te7  1  0.168475  0.426918  0.801440  1
  Te  Te8  1  0.801108  0.166866  0.431160  1
  Te  Te9  1  0.574882  0.187563  0.838678  1
  Te  Te10  1  0.836423  0.576053  0.188794  1
  Te  Te11  1  0.187716  0.836611  0.576750  1
  Te  Te12  1  0.629976  0.967620  0.259104  1
  Te  Te13  1  0.257356  0.629643  0.970587  1
  Te  Te14  1  0.968106  0.258485  0.630816  1
  Te  Te15  1  0.368914  0.028341  0.741707  1
  Te  Te16  1  0.740521  0.369436  0.025599  1
  Te  Te17  1  0.029772  0.739703  0.366503  1
  Te  Te18  1  0.783282  0.779539  0.779613  1
  Te  Te19  1  0.224238  0.223753  0.221307  1
  Mo  Mo20  1  0.890315  0.053364  0.193243  1
  Mo  Mo21  1  0.192967  0.891880  0.052341  1
  W  W22  1  0.993257  0.285715  0.122610  1
  W  W23  1  0.120250  0.996057  0.285510  1
  W  W24  1  0.946077  0.808779  0.109128  1
  W  W25  1  0.106570  0.946454  0.810603  1
  W  W26  1  0.807912  0.107252  0.948392  1
  W  W27  1  0.053803  0.189442  0.893701  1
