# generated using pymatgen
data_Dy2Ho4GaTcNi
_symmetry_space_group_name_H-M   'P 1'
_cell_length_a   8.34855542
_cell_length_b   8.34855691
_cell_length_c   8.34855587
_cell_angle_alpha   113.16734811
_cell_angle_beta   111.07954953
_cell_angle_gamma   104.29521888
_symmetry_Int_Tables_number   1
_chemical_formula_structural   Dy2Ho4GaTcNi
_chemical_formula_sum   'Dy4 Ho8 Ga2 Tc2 Ni2'
_cell_volume   445.06041319
_cell_formula_units_Z   2
loop_
 _symmetry_equiv_pos_site_id
 _symmetry_equiv_pos_as_xyz
  1  'x, y, z'
loop_
 _atom_site_type_symbol
 _atom_site_label
 _atom_site_symmetry_multiplicity
 _atom_site_fract_x
 _atom_site_fract_y
 _atom_site_fract_z
 _atom_site_occupancy
  Dy  Dy0  1  0.434996  0.244010  0.190985  1
  Dy  Dy1  1  0.565004  0.755990  0.809015  1
  Dy  Dy2  1  0.053025  0.244010  0.809015  1
  Dy  Dy3  1  0.946975  0.755990  0.190985  1
  Ho  Ho4  1  0.179475  0.280312  0.459786  1
  Ho  Ho5  1  0.820525  0.719688  0.540214  1
  Ho  Ho6  1  0.179475  0.719688  0.899164  1
  Ho  Ho7  1  0.820525  0.280312  0.100836  1
  Ho  Ho8  1  0.332635  0.648026  0.315390  1
  Ho  Ho9  1  0.667365  0.351974  0.684610  1
  Ho  Ho10  1  0.332635  0.017244  0.684610  1
  Ho  Ho11  1  0.667365  0.982756  0.315390  1
  Ga  Ga12  1  0.500000  0.500000  0.000000  1
  Ga  Ga13  1  0.000000  0.000000  0.000000  1
  Tc  Tc14  1  0.320923  0.000000  0.320923  1
  Tc  Tc15  1  0.679077  0.000000  0.679077  1
  Ni  Ni16  1  0.116420  0.616420  0.500000  1
  Ni  Ni17  1  0.883580  0.383580  0.500000  1
