# generated using pymatgen
data_Zr2FeSiAsPd
_symmetry_space_group_name_H-M   'P 1'
_cell_length_a   3.92802600
_cell_length_b   6.59913412
_cell_length_c   7.50152941
_cell_angle_alpha   92.61296998
_cell_angle_beta   90.00000000
_cell_angle_gamma   90.00000000
_symmetry_Int_Tables_number   1
_chemical_formula_structural   Zr2FeSiAsPd
_chemical_formula_sum   'Zr4 Fe2 Si2 As2 Pd2'
_cell_volume   194.24924670
_cell_formula_units_Z   2
loop_
 _symmetry_equiv_pos_site_id
 _symmetry_equiv_pos_as_xyz
  1  'x, y, z'
loop_
 _atom_site_type_symbol
 _atom_site_label
 _atom_site_symmetry_multiplicity
 _atom_site_fract_x
 _atom_site_fract_y
 _atom_site_fract_z
 _atom_site_occupancy
  Zr  Zr0  1  0.250000  0.473327  0.200079  1
  Zr  Zr1  1  0.750000  0.526673  0.799921  1
  Zr  Zr2  1  0.750000  0.017392  0.675336  1
  Zr  Zr3  1  0.250000  0.982608  0.324664  1
  Fe  Fe4  1  0.750000  0.639990  0.447159  1
  Fe  Fe5  1  0.250000  0.360010  0.552841  1
  Si  Si6  1  0.250000  0.718152  0.597186  1
  Si  Si7  1  0.750000  0.281848  0.402814  1
  As  As8  1  0.750000  0.750037  0.139498  1
  As  As9  1  0.250000  0.249963  0.860502  1
  Pd  Pd10  1  0.250000  0.848974  0.927060  1
  Pd  Pd11  1  0.750000  0.151026  0.072940  1
