# generated using pymatgen
data_NiIrRhS8
_symmetry_space_group_name_H-M   'P 1'
_cell_length_a   5.71006755
_cell_length_b   5.67304536
_cell_length_c   5.66203399
_cell_angle_alpha   90.16915513
_cell_angle_beta   90.71593088
_cell_angle_gamma   91.09199154
_symmetry_Int_Tables_number   1
_chemical_formula_structural   NiIrRhS8
_chemical_formula_sum   'Ni1 Ir1 Rh1 S8'
_cell_volume   183.36438077
_cell_formula_units_Z   1
loop_
 _symmetry_equiv_pos_site_id
 _symmetry_equiv_pos_as_xyz
  1  'x, y, z'
loop_
 _atom_site_type_symbol
 _atom_site_label
 _atom_site_symmetry_multiplicity
 _atom_site_fract_x
 _atom_site_fract_y
 _atom_site_fract_z
 _atom_site_occupancy
  Ni  Ni0  1  0.000000  0.500000  0.500000  1
  Ir  Ir1  1  0.500000  0.500000  0.000000  1
  Rh  Rh2  1  0.500000  0.000000  0.500000  1
  S  S3  1  0.392368  0.890458  0.103344  1
  S  S4  1  0.102827  0.399438  0.887616  1
  S  S5  1  0.895224  0.107533  0.398569  1
  S  S6  1  0.607632  0.109542  0.896656  1
  S  S7  1  0.897173  0.600562  0.112384  1
  S  S8  1  0.104776  0.892467  0.601431  1
  S  S9  1  0.610201  0.611414  0.611496  1
  S  S10  1  0.389799  0.388586  0.388504  1
