# generated using pymatgen
data_Tb4GaNi13
_symmetry_space_group_name_H-M   'P 1'
_cell_length_a   12.53717734
_cell_length_b   12.53717712
_cell_length_c   12.54097310
_cell_angle_alpha   22.66957852
_cell_angle_beta   22.66957919
_cell_angle_gamma   22.83564526
_symmetry_Int_Tables_number   1
_chemical_formula_structural   Tb4GaNi13
_chemical_formula_sum   'Tb4 Ga1 Ni13'
_cell_volume   258.08668142
_cell_formula_units_Z   1
loop_
 _symmetry_equiv_pos_site_id
 _symmetry_equiv_pos_as_xyz
  1  'x, y, z'
loop_
 _atom_site_type_symbol
 _atom_site_label
 _atom_site_symmetry_multiplicity
 _atom_site_fract_x
 _atom_site_fract_y
 _atom_site_fract_z
 _atom_site_occupancy
  Tb  Tb0  1  0.948307  0.948307  0.948182  1
  Tb  Tb1  1  0.051693  0.051693  0.051818  1
  Tb  Tb2  1  0.852558  0.852558  0.852834  1
  Tb  Tb3  1  0.147442  0.147442  0.147166  1
  Ga  Ga4  1  0.500000  0.500000  0.000000  1
  Ni  Ni5  1  0.390426  0.890238  0.390358  1
  Ni  Ni6  1  0.389830  0.389830  0.890989  1
  Ni  Ni7  1  0.890238  0.390426  0.390358  1
  Ni  Ni8  1  0.609574  0.109762  0.609642  1
  Ni  Ni9  1  0.610170  0.610170  0.109011  1
  Ni  Ni10  1  0.109762  0.609574  0.609642  1
  Ni  Ni11  1  0.000000  0.500000  0.500000  1
  Ni  Ni12  1  0.500000  0.000000  0.500000  1
  Ni  Ni13  1  0.723593  0.723593  0.719523  1
  Ni  Ni14  1  0.276407  0.276407  0.280477  1
  Ni  Ni15  1  0.612343  0.612343  0.608961  1
  Ni  Ni16  1  0.387657  0.387657  0.391039  1
  Ni  Ni17  1  0.500000  0.500000  0.500000  1
