# generated using pymatgen
data_K4ErUTe6
_symmetry_space_group_name_H-M   'P 1'
_cell_length_a   8.02994810
_cell_length_b   8.02994830
_cell_length_c   8.63692061
_cell_angle_alpha   80.94046117
_cell_angle_beta   80.94045798
_cell_angle_gamma   120.07234041
_symmetry_Int_Tables_number   1
_chemical_formula_structural   K4ErUTe6
_chemical_formula_sum   'K4 Er1 U1 Te6'
_cell_volume   457.36792341
_cell_formula_units_Z   1
loop_
 _symmetry_equiv_pos_site_id
 _symmetry_equiv_pos_as_xyz
  1  'x, y, z'
loop_
 _atom_site_type_symbol
 _atom_site_label
 _atom_site_symmetry_multiplicity
 _atom_site_fract_x
 _atom_site_fract_y
 _atom_site_fract_z
 _atom_site_occupancy
  K  K0  1  0.345483  0.654517  0.500000  1
  K  K1  1  0.654604  0.345396  0.500000  1
  K  K2  1  0.000022  0.999978  0.500000  1
  K  K3  1  0.500016  0.499984  0.000000  1
  Er  Er4  1  0.167543  0.832457  0.000000  1
  U  U5  1  0.831987  0.168013  0.000000  1
  Te  Te6  1  0.796294  0.803107  0.207788  1
  Te  Te7  1  0.435353  0.060187  0.211691  1
  Te  Te8  1  0.052796  0.420803  0.210970  1
  Te  Te9  1  0.579197  0.947204  0.789030  1
  Te  Te10  1  0.939813  0.564647  0.788309  1
  Te  Te11  1  0.196893  0.203706  0.792212  1
