# generated using pymatgen
data_Tb3Dy9Rh4
_symmetry_space_group_name_H-M   'P 1'
_cell_length_a   6.29521809
_cell_length_b   7.17917311
_cell_length_c   9.49849500
_cell_angle_alpha   90.00000000
_cell_angle_beta   90.00000000
_cell_angle_gamma   89.98026969
_symmetry_Int_Tables_number   1
_chemical_formula_structural   Tb3Dy9Rh4
_chemical_formula_sum   'Tb3 Dy9 Rh4'
_cell_volume   429.27933101
_cell_formula_units_Z   1
loop_
 _symmetry_equiv_pos_site_id
 _symmetry_equiv_pos_as_xyz
  1  'x, y, z'
loop_
 _atom_site_type_symbol
 _atom_site_label
 _atom_site_symmetry_multiplicity
 _atom_site_fract_x
 _atom_site_fract_y
 _atom_site_fract_z
 _atom_site_occupancy
  Tb  Tb0  1  0.865953  0.533034  0.250000  1
  Tb  Tb1  1  0.634137  0.032883  0.250000  1
  Tb  Tb2  1  0.134259  0.466991  0.750000  1
  Dy  Dy3  1  0.329769  0.677914  0.063196  1
  Dy  Dy4  1  0.170521  0.177558  0.436860  1
  Dy  Dy5  1  0.670257  0.322244  0.563377  1
  Dy  Dy6  1  0.829367  0.822502  0.936495  1
  Dy  Dy7  1  0.670257  0.322244  0.936623  1
  Dy  Dy8  1  0.829367  0.822502  0.563505  1
  Dy  Dy9  1  0.329769  0.677914  0.436804  1
  Dy  Dy10  1  0.170521  0.177558  0.063140  1
  Dy  Dy11  1  0.365614  0.966624  0.750000  1
  Rh  Rh12  1  0.061339  0.881527  0.250000  1
  Rh  Rh13  1  0.438668  0.381383  0.250000  1
  Rh  Rh14  1  0.939503  0.118241  0.750000  1
  Rh  Rh15  1  0.560701  0.618880  0.750000  1
