# generated using pymatgen
data_PrMgIn3Ir
_symmetry_space_group_name_H-M   'P 1'
_cell_length_a   4.41316700
_cell_length_b   7.58437700
_cell_length_c   8.28487900
_cell_angle_alpha   90.00000000
_cell_angle_beta   90.00000000
_cell_angle_gamma   90.00000000
_symmetry_Int_Tables_number   1
_chemical_formula_structural   PrMgIn3Ir
_chemical_formula_sum   'Pr2 Mg2 In6 Ir2'
_cell_volume   277.30419818
_cell_formula_units_Z   2
loop_
 _symmetry_equiv_pos_site_id
 _symmetry_equiv_pos_as_xyz
  1  'x, y, z'
loop_
 _atom_site_type_symbol
 _atom_site_label
 _atom_site_symmetry_multiplicity
 _atom_site_fract_x
 _atom_site_fract_y
 _atom_site_fract_z
 _atom_site_occupancy
  Pr  Pr0  1  0.000000  0.396568  0.250000  1
  Pr  Pr1  1  0.000000  0.603432  0.750000  1
  Mg  Mg2  1  0.000000  0.000000  0.000000  1
  Mg  Mg3  1  0.000000  0.000000  0.500000  1
  In  In4  1  0.500000  0.306910  0.556801  1
  In  In5  1  0.500000  0.052671  0.250000  1
  In  In6  1  0.500000  0.947329  0.750000  1
  In  In7  1  0.500000  0.306910  0.943199  1
  In  In8  1  0.500000  0.693090  0.056801  1
  In  In9  1  0.500000  0.693090  0.443199  1
  Ir  Ir10  1  0.000000  0.790386  0.250000  1
  Ir  Ir11  1  0.000000  0.209614  0.750000  1
