# generated using pymatgen
data_Li2AcDy2Al7
_symmetry_space_group_name_H-M   'P 1'
_cell_length_a   9.41860511
_cell_length_b   9.41860418
_cell_length_c   9.41860500
_cell_angle_alpha   34.45275134
_cell_angle_beta   34.45275964
_cell_angle_gamma   34.45274534
_symmetry_Int_Tables_number   1
_chemical_formula_structural   Li2AcDy2Al7
_chemical_formula_sum   'Li2 Ac1 Dy2 Al7'
_cell_volume   238.54092567
_cell_formula_units_Z   1
loop_
 _symmetry_equiv_pos_site_id
 _symmetry_equiv_pos_as_xyz
  1  'x, y, z'
loop_
 _atom_site_type_symbol
 _atom_site_label
 _atom_site_symmetry_multiplicity
 _atom_site_fract_x
 _atom_site_fract_y
 _atom_site_fract_z
 _atom_site_occupancy
  Li  Li0  1  0.664493  0.664493  0.664493  1
  Li  Li1  1  0.335507  0.335507  0.335507  1
  Ac  Ac2  1  0.000000  0.000000  0.000000  1
  Dy  Dy3  1  0.141668  0.141668  0.141668  1
  Dy  Dy4  1  0.858332  0.858332  0.858332  1
  Al  Al5  1  0.412014  0.412014  0.922820  1
  Al  Al6  1  0.922820  0.412014  0.412014  1
  Al  Al7  1  0.500000  0.500000  0.500000  1
  Al  Al8  1  0.587986  0.587986  0.077180  1
  Al  Al9  1  0.412014  0.922820  0.412014  1
  Al  Al10  1  0.077180  0.587986  0.587986  1
  Al  Al11  1  0.587986  0.077180  0.587986  1
