# generated using pymatgen
data_Ba2SrReN4
_symmetry_space_group_name_H-M   'P 1'
_cell_length_a   11.17604390
_cell_length_b   10.78586767
_cell_length_c   8.22171437
_cell_angle_alpha   70.56005791
_cell_angle_beta   65.51494677
_cell_angle_gamma   43.92499776
_symmetry_Int_Tables_number   1
_chemical_formula_structural   Ba2SrReN4
_chemical_formula_sum   'Ba8 Sr4 Re4 N16'
_cell_volume   624.76933511
_cell_formula_units_Z   4
loop_
 _symmetry_equiv_pos_site_id
 _symmetry_equiv_pos_as_xyz
  1  'x, y, z'
loop_
 _atom_site_type_symbol
 _atom_site_label
 _atom_site_symmetry_multiplicity
 _atom_site_fract_x
 _atom_site_fract_y
 _atom_site_fract_z
 _atom_site_occupancy
  Ba  Ba0  1  0.565849  0.934151  0.934151  1
  Ba  Ba1  1  0.934151  0.565849  0.565849  1
  Ba  Ba2  1  0.315849  0.684151  0.684151  1
  Ba  Ba3  1  0.113444  0.113444  0.886556  1
  Ba  Ba4  1  0.136556  0.136556  0.363444  1
  Ba  Ba5  1  0.363444  0.363444  0.136556  1
  Ba  Ba6  1  0.684151  0.315849  0.315849  1
  Ba  Ba7  1  0.886556  0.886556  0.113444  1
  Sr  Sr8  1  0.342063  0.342063  0.657937  1
  Sr  Sr9  1  0.907937  0.907937  0.592063  1
  Sr  Sr10  1  0.657937  0.657937  0.342063  1
  Sr  Sr11  1  0.592063  0.592063  0.907937  1
  Re  Re12  1  0.488802  0.011198  0.488802  1
  Re  Re13  1  0.011198  0.488802  0.011198  1
  Re  Re14  1  0.761198  0.238802  0.761198  1
  Re  Re15  1  0.238802  0.761198  0.238802  1
  N  N16  1  0.014249  0.646849  0.833194  1
  N  N17  1  0.707280  0.274016  0.998474  1
  N  N18  1  0.646849  0.014249  0.505708  1
  N  N19  1  0.505708  0.833194  0.646849  1
  N  N20  1  0.235751  0.603151  0.416806  1
  N  N21  1  0.744292  0.416806  0.603151  1
  N  N22  1  0.998474  0.020231  0.707280  1
  N  N23  1  0.542720  0.975984  0.251526  1
  N  N24  1  0.416806  0.744292  0.235751  1
  N  N25  1  0.975984  0.542720  0.229769  1
  N  N26  1  0.274016  0.707280  0.020231  1
  N  N27  1  0.833194  0.505708  0.014249  1
  N  N28  1  0.229769  0.251526  0.975984  1
  N  N29  1  0.603151  0.235751  0.744292  1
  N  N30  1  0.251526  0.229769  0.542720  1
  N  N31  1  0.020231  0.998474  0.274016  1
