# generated using pymatgen
data_Nd10ZnBi6As
_symmetry_space_group_name_H-M   'P 1'
_cell_length_a   6.60595301
_cell_length_b   9.69484004
_cell_length_c   9.69403606
_cell_angle_alpha   120.00275715
_cell_angle_beta   90.00213649
_cell_angle_gamma   89.99574018
_symmetry_Int_Tables_number   1
_chemical_formula_structural   Nd10ZnBi6As
_chemical_formula_sum   'Nd10 Zn1 Bi6 As1'
_cell_volume   537.64959441
_cell_formula_units_Z   1
loop_
 _symmetry_equiv_pos_site_id
 _symmetry_equiv_pos_as_xyz
  1  'x, y, z'
loop_
 _atom_site_type_symbol
 _atom_site_label
 _atom_site_symmetry_multiplicity
 _atom_site_fract_x
 _atom_site_fract_y
 _atom_site_fract_z
 _atom_site_occupancy
  Nd  Nd0  1  0.500005  0.333339  0.666677  1
  Nd  Nd1  1  0.500005  0.666662  0.333323  1
  Nd  Nd2  1  0.000003  0.666671  0.333330  1
  Nd  Nd3  1  0.000003  0.333341  0.666670  1
  Nd  Nd4  1  0.746257  0.258350  0.000000  1
  Nd  Nd5  1  0.746253  0.741611  0.741652  1
  Nd  Nd6  1  0.746253  0.999959  0.258348  1
  Nd  Nd7  1  0.253739  0.741650  0.000000  1
  Nd  Nd8  1  0.253742  0.258383  0.258346  1
  Nd  Nd9  1  0.253742  0.000037  0.741654  1
  Zn  Zn10  1  0.999983  0.000004  0.000000  1
  Bi  Bi11  1  0.751504  0.613240  0.000000  1
  Bi  Bi12  1  0.751523  0.386689  0.386725  1
  Bi  Bi13  1  0.751523  0.999966  0.613275  1
  Bi  Bi14  1  0.248493  0.386755  0.000000  1
  Bi  Bi15  1  0.248488  0.613309  0.613273  1
  Bi  Bi16  1  0.248488  0.000035  0.386727  1
  As  As17  1  0.499998  0.000000  0.000000  1
