# generated using pymatgen
data_Rb4UTlBr12
_symmetry_space_group_name_H-M   'P 1'
_cell_length_a   7.89641400
_cell_length_b   7.89641400
_cell_length_c   11.61344500
_cell_angle_alpha   90.00000000
_cell_angle_beta   90.00000000
_cell_angle_gamma   90.00000000
_symmetry_Int_Tables_number   1
_chemical_formula_structural   Rb4UTlBr12
_chemical_formula_sum   'Rb4 U1 Tl1 Br12'
_cell_volume   724.13724793
_cell_formula_units_Z   1
loop_
 _symmetry_equiv_pos_site_id
 _symmetry_equiv_pos_as_xyz
  1  'x, y, z'
loop_
 _atom_site_type_symbol
 _atom_site_label
 _atom_site_symmetry_multiplicity
 _atom_site_fract_x
 _atom_site_fract_y
 _atom_site_fract_z
 _atom_site_occupancy
  Rb  Rb0  1  0.500000  0.000000  0.802687  1
  Rb  Rb1  1  0.500000  0.000000  0.197313  1
  Rb  Rb2  1  0.000000  0.500000  0.197313  1
  Rb  Rb3  1  0.000000  0.500000  0.802687  1
  U  U4  1  0.500000  0.500000  0.500000  1
  Tl  Tl5  1  0.000000  0.000000  0.000000  1
  Br  Br6  1  0.746580  0.249812  0.000000  1
  Br  Br7  1  0.253420  0.750188  0.000000  1
  Br  Br8  1  0.500000  0.500000  0.266080  1
  Br  Br9  1  0.328974  0.204413  0.500000  1
  Br  Br10  1  0.249812  0.253420  0.000000  1
  Br  Br11  1  0.795587  0.328974  0.500000  1
  Br  Br12  1  0.000000  0.000000  0.240635  1
  Br  Br13  1  0.671026  0.795587  0.500000  1
  Br  Br14  1  0.204413  0.671026  0.500000  1
  Br  Br15  1  0.500000  0.500000  0.733920  1
  Br  Br16  1  0.750188  0.746580  0.000000  1
  Br  Br17  1  0.000000  0.000000  0.759365  1
