# generated using pymatgen
data_Nd6(InPb)5
_symmetry_space_group_name_H-M   'P 1'
_cell_length_a   6.71288606
_cell_length_b   6.70067771
_cell_length_c   10.60926200
_cell_angle_alpha   89.99996392
_cell_angle_beta   89.99999686
_cell_angle_gamma   102.25000577
_symmetry_Int_Tables_number   1
_chemical_formula_structural   Nd6(InPb)5
_chemical_formula_sum   'Nd6 In5 Pb5'
_cell_volume   466.34835956
_cell_formula_units_Z   1
loop_
 _symmetry_equiv_pos_site_id
 _symmetry_equiv_pos_as_xyz
  1  'x, y, z'
loop_
 _atom_site_type_symbol
 _atom_site_label
 _atom_site_symmetry_multiplicity
 _atom_site_fract_x
 _atom_site_fract_y
 _atom_site_fract_z
 _atom_site_occupancy
  Nd  Nd0  1  0.631866  0.626065  0.250000  1
  Nd  Nd1  1  0.371169  0.369750  0.750000  1
  Nd  Nd2  1  0.202412  0.796013  0.497486  1
  Nd  Nd3  1  0.202412  0.796013  0.002514  1
  Nd  Nd4  1  0.797815  0.205626  0.498813  1
  Nd  Nd5  1  0.797814  0.205625  0.001187  1
  In  In6  1  0.308330  0.315521  0.046736  1
  In  In7  1  0.691270  0.689624  0.957716  1
  In  In8  1  0.308330  0.315521  0.453264  1
  In  In9  1  0.691270  0.689624  0.542284  1
  In  In10  1  0.074383  0.496682  0.250000  1
  Pb  Pb11  1  0.014757  0.014722  0.249999  1
  Pb  Pb12  1  0.984105  0.983817  0.750000  1
  Pb  Pb13  1  0.502114  0.075340  0.250002  1
  Pb  Pb14  1  0.925624  0.496641  0.750000  1
  Pb  Pb15  1  0.496329  0.923418  0.750000  1
