# generated using pymatgen
data_Dy16Cd3AgIr4
_symmetry_space_group_name_H-M   'P 1'
_cell_length_a   9.62247781
_cell_length_b   9.62247807
_cell_length_c   9.62247779
_cell_angle_alpha   59.94297941
_cell_angle_beta   59.94298060
_cell_angle_gamma   59.94298214
_symmetry_Int_Tables_number   1
_chemical_formula_structural   Dy16Cd3AgIr4
_chemical_formula_sum   'Dy16 Cd3 Ag1 Ir4'
_cell_volume   629.19282388
_cell_formula_units_Z   1
loop_
 _symmetry_equiv_pos_site_id
 _symmetry_equiv_pos_as_xyz
  1  'x, y, z'
loop_
 _atom_site_type_symbol
 _atom_site_label
 _atom_site_symmetry_multiplicity
 _atom_site_fract_x
 _atom_site_fract_y
 _atom_site_fract_z
 _atom_site_occupancy
  Dy  Dy0  1  0.598433  0.598433  0.598433  1
  Dy  Dy1  1  0.600016  0.600016  0.202062  1
  Dy  Dy2  1  0.600016  0.202062  0.600016  1
  Dy  Dy3  1  0.202062  0.600016  0.600016  1
  Dy  Dy4  1  0.059751  0.439424  0.439424  1
  Dy  Dy5  1  0.438210  0.060188  0.060188  1
  Dy  Dy6  1  0.439424  0.059751  0.439424  1
  Dy  Dy7  1  0.060188  0.438210  0.060188  1
  Dy  Dy8  1  0.439424  0.439424  0.059751  1
  Dy  Dy9  1  0.060188  0.060188  0.438210  1
  Dy  Dy10  1  0.186208  0.812046  0.812046  1
  Dy  Dy11  1  0.812147  0.187169  0.187169  1
  Dy  Dy12  1  0.812046  0.186208  0.812046  1
  Dy  Dy13  1  0.187169  0.812147  0.187169  1
  Dy  Dy14  1  0.812046  0.812046  0.186208  1
  Dy  Dy15  1  0.187169  0.187169  0.812147  1
  Cd  Cd16  1  0.831346  0.831346  0.507640  1
  Cd  Cd17  1  0.831346  0.507640  0.831346  1
  Cd  Cd18  1  0.507640  0.831346  0.831346  1
  Ag  Ag19  1  0.832709  0.832709  0.832709  1
  Ir  Ir20  1  0.391677  0.391677  0.391677  1
  Ir  Ir21  1  0.392636  0.392636  0.825512  1
  Ir  Ir22  1  0.392636  0.825512  0.392636  1
  Ir  Ir23  1  0.825512  0.392636  0.392636  1
