# generated using pymatgen
data_Tb2Zn3Ga
_symmetry_space_group_name_H-M   'P 1'
_cell_length_a   5.66494416
_cell_length_b   5.69589541
_cell_length_c   5.69589595
_cell_angle_alpha   133.64387349
_cell_angle_beta   101.92204841
_cell_angle_gamma   96.02361482
_symmetry_Int_Tables_number   1
_chemical_formula_structural   Tb2Zn3Ga
_chemical_formula_sum   'Tb2 Zn3 Ga1'
_cell_volume   121.91864956
_cell_formula_units_Z   1
loop_
 _symmetry_equiv_pos_site_id
 _symmetry_equiv_pos_as_xyz
  1  'x, y, z'
loop_
 _atom_site_type_symbol
 _atom_site_label
 _atom_site_symmetry_multiplicity
 _atom_site_fract_x
 _atom_site_fract_y
 _atom_site_fract_z
 _atom_site_occupancy
  Tb  Tb0  1  0.222961  0.471455  0.751506  1
  Tb  Tb1  1  0.777969  0.529127  0.248841  1
  Zn  Zn2  1  0.791120  0.834107  0.957014  1
  Zn  Zn3  1  0.621357  0.165959  0.455398  1
  Zn  Zn4  1  0.379026  0.835583  0.543443  1
  Ga  Ga5  1  0.207567  0.163769  0.043798  1
