# generated using pymatgen
data_Er5Re2BC6
_symmetry_space_group_name_H-M   'P 1'
_cell_length_a   8.26101294
_cell_length_b   8.26101241
_cell_length_c   3.38846800
_cell_angle_alpha   90.00000000
_cell_angle_beta   90.00000000
_cell_angle_gamma   122.11576428
_symmetry_Int_Tables_number   1
_chemical_formula_structural   Er5Re2BC6
_chemical_formula_sum   'Er5 Re2 B1 C6'
_cell_volume   195.85781569
_cell_formula_units_Z   1
loop_
 _symmetry_equiv_pos_site_id
 _symmetry_equiv_pos_as_xyz
  1  'x, y, z'
loop_
 _atom_site_type_symbol
 _atom_site_label
 _atom_site_symmetry_multiplicity
 _atom_site_fract_x
 _atom_site_fract_y
 _atom_site_fract_z
 _atom_site_occupancy
  Er  Er0  1  0.500000  0.500000  0.000000  1
  Er  Er1  1  0.078489  0.330316  0.500000  1
  Er  Er2  1  0.921511  0.669684  0.500000  1
  Er  Er3  1  0.669684  0.921511  0.500000  1
  Er  Er4  1  0.330316  0.078489  0.500000  1
  Re  Re5  1  0.714803  0.285197  0.000000  1
  Re  Re6  1  0.285197  0.714803  0.000000  1
  B  B7  1  0.000000  0.000000  0.000000  1
  C  C8  1  0.626633  0.373367  0.500000  1
  C  C9  1  0.373367  0.626633  0.500000  1
  C  C10  1  0.183527  0.183527  0.000000  1
  C  C11  1  0.816473  0.816473  0.000000  1
  C  C12  1  0.000000  0.500000  0.000000  1
  C  C13  1  0.500000  0.000000  0.000000  1
