# generated using pymatgen
data_Pr6GdLuO12
_symmetry_space_group_name_H-M   'P 1'
_cell_length_a   7.00801706
_cell_length_b   7.00801692
_cell_length_c   7.00801773
_cell_angle_alpha   92.32443014
_cell_angle_beta   92.32442962
_cell_angle_gamma   92.32441169
_symmetry_Int_Tables_number   1
_chemical_formula_structural   Pr6GdLuO12
_chemical_formula_sum   'Pr6 Gd1 Lu1 O12'
_cell_volume   343.30658717
_cell_formula_units_Z   1
loop_
 _symmetry_equiv_pos_site_id
 _symmetry_equiv_pos_as_xyz
  1  'x, y, z'
loop_
 _atom_site_type_symbol
 _atom_site_label
 _atom_site_symmetry_multiplicity
 _atom_site_fract_x
 _atom_site_fract_y
 _atom_site_fract_z
 _atom_site_occupancy
  Pr  Pr0  1  0.558933  0.067015  0.256405  1
  Pr  Pr1  1  0.067015  0.256405  0.558933  1
  Pr  Pr2  1  0.743595  0.441067  0.932985  1
  Pr  Pr3  1  0.256405  0.558933  0.067015  1
  Pr  Pr4  1  0.932985  0.743595  0.441067  1
  Pr  Pr5  1  0.441067  0.932985  0.743595  1
  Gd  Gd6  1  0.000000  0.000000  0.000000  1
  Lu  Lu7  1  0.500000  0.500000  0.500000  1
  O  O8  1  0.687288  0.090870  0.934745  1
  O  O9  1  0.909130  0.065255  0.312712  1
  O  O10  1  0.407124  0.196558  0.535331  1
  O  O11  1  0.065255  0.312712  0.909130  1
  O  O12  1  0.535331  0.407124  0.196558  1
  O  O13  1  0.803442  0.464669  0.592876  1
  O  O14  1  0.196558  0.535331  0.407124  1
  O  O15  1  0.464669  0.592876  0.803442  1
  O  O16  1  0.934745  0.687288  0.090870  1
  O  O17  1  0.592876  0.803442  0.464669  1
  O  O18  1  0.090870  0.934745  0.687288  1
  O  O19  1  0.312712  0.909130  0.065255  1
