# generated using pymatgen
data_K4InSn7Au8
_symmetry_space_group_name_H-M   'P 1'
_cell_length_a   4.78852400
_cell_length_b   8.85635533
_cell_length_c   12.56224848
_cell_angle_alpha   90.11222516
_cell_angle_beta   90.00000000
_cell_angle_gamma   90.00000000
_symmetry_Int_Tables_number   1
_chemical_formula_structural   K4InSn7Au8
_chemical_formula_sum   'K4 In1 Sn7 Au8'
_cell_volume   532.74974152
_cell_formula_units_Z   1
loop_
 _symmetry_equiv_pos_site_id
 _symmetry_equiv_pos_as_xyz
  1  'x, y, z'
loop_
 _atom_site_type_symbol
 _atom_site_label
 _atom_site_symmetry_multiplicity
 _atom_site_fract_x
 _atom_site_fract_y
 _atom_site_fract_z
 _atom_site_occupancy
  K  K0  1  0.750000  0.723081  0.332440  1
  K  K1  1  0.250000  0.779449  0.833363  1
  K  K2  1  0.250000  0.276945  0.668127  1
  K  K3  1  0.750000  0.222186  0.167047  1
  In  In4  1  0.250000  0.398198  0.947330  1
  Sn  Sn5  1  0.250000  0.359025  0.358670  1
  Sn  Sn6  1  0.250000  0.862499  0.140090  1
  Sn  Sn7  1  0.750000  0.603065  0.051750  1
  Sn  Sn8  1  0.750000  0.639785  0.641253  1
  Sn  Sn9  1  0.750000  0.140111  0.860605  1
  Sn  Sn10  1  0.250000  0.896741  0.552962  1
  Sn  Sn11  1  0.750000  0.101122  0.447573  1
  Au  Au12  1  0.250000  0.088407  0.975803  1
  Au  Au13  1  0.750000  0.471533  0.835131  1
  Au  Au14  1  0.750000  0.969911  0.667679  1
  Au  Au15  1  0.250000  0.529906  0.164499  1
  Au  Au16  1  0.250000  0.029066  0.333477  1
  Au  Au17  1  0.750000  0.909378  0.022627  1
  Au  Au18  1  0.250000  0.589734  0.520684  1
  Au  Au19  1  0.750000  0.409855  0.478891  1
