# generated using pymatgen
data_Tb9HoRu6
_symmetry_space_group_name_H-M   'P 1'
_cell_length_a   10.85528700
_cell_length_b   10.85528700
_cell_length_c   6.39939300
_cell_angle_alpha   90.00000000
_cell_angle_beta   90.00000000
_cell_angle_gamma   90.00000000
_symmetry_Int_Tables_number   1
_chemical_formula_structural   Tb9HoRu6
_chemical_formula_sum   'Tb18 Ho2 Ru12'
_cell_volume   754.08691024
_cell_formula_units_Z   2
loop_
 _symmetry_equiv_pos_site_id
 _symmetry_equiv_pos_as_xyz
  1  'x, y, z'
loop_
 _atom_site_type_symbol
 _atom_site_label
 _atom_site_symmetry_multiplicity
 _atom_site_fract_x
 _atom_site_fract_y
 _atom_site_fract_z
 _atom_site_occupancy
  Tb  Tb0  1  0.291567  0.086967  0.379087  1
  Tb  Tb1  1  0.291567  0.913033  0.879087  1
  Tb  Tb2  1  0.708433  0.086967  0.879087  1
  Tb  Tb3  1  0.708433  0.913033  0.379087  1
  Tb  Tb4  1  0.586955  0.792051  0.879298  1
  Tb  Tb5  1  0.586955  0.207949  0.379298  1
  Tb  Tb6  1  0.413045  0.792051  0.379298  1
  Tb  Tb7  1  0.413045  0.207949  0.879298  1
  Tb  Tb8  1  0.207949  0.413045  0.620702  1
  Tb  Tb9  1  0.207949  0.586955  0.120702  1
  Tb  Tb10  1  0.792051  0.413045  0.120702  1
  Tb  Tb11  1  0.792051  0.586955  0.620702  1
  Tb  Tb12  1  0.913033  0.708433  0.120913  1
  Tb  Tb13  1  0.913033  0.291567  0.620913  1
  Tb  Tb14  1  0.086967  0.708433  0.620913  1
  Tb  Tb15  1  0.086967  0.291567  0.120913  1
  Tb  Tb16  1  0.500000  0.500000  0.000000  1
  Tb  Tb17  1  0.500000  0.500000  0.500000  1
  Ho  Ho18  1  0.000000  0.000000  0.500000  1
  Ho  Ho19  1  0.000000  0.000000  0.000000  1
  Ru  Ru20  1  0.848022  0.151978  0.250000  1
  Ru  Ru21  1  0.848022  0.848022  0.750000  1
  Ru  Ru22  1  0.151978  0.151978  0.750000  1
  Ru  Ru23  1  0.151978  0.848022  0.250000  1
  Ru  Ru24  1  0.653076  0.346924  0.750000  1
  Ru  Ru25  1  0.653076  0.653076  0.250000  1
  Ru  Ru26  1  0.346924  0.346924  0.250000  1
  Ru  Ru27  1  0.346924  0.653076  0.750000  1
  Ru  Ru28  1  0.500000  0.000000  0.126151  1
  Ru  Ru29  1  0.500000  0.000000  0.626151  1
  Ru  Ru30  1  0.000000  0.500000  0.873849  1
  Ru  Ru31  1  0.000000  0.500000  0.373849  1
