# generated using pymatgen
data_Sr8Yb7Th5Pt16
_symmetry_space_group_name_H-M   'P 1'
_cell_length_a   7.82390471
_cell_length_b   7.92672711
_cell_length_c   15.02330368
_cell_angle_alpha   89.99339564
_cell_angle_beta   90.14842399
_cell_angle_gamma   90.10231708
_symmetry_Int_Tables_number   1
_chemical_formula_structural   Sr8Yb7Th5Pt16
_chemical_formula_sum   'Sr8 Yb7 Th5 Pt16'
_cell_volume   931.70999334
_cell_formula_units_Z   1
loop_
 _symmetry_equiv_pos_site_id
 _symmetry_equiv_pos_as_xyz
  1  'x, y, z'
loop_
 _atom_site_type_symbol
 _atom_site_label
 _atom_site_symmetry_multiplicity
 _atom_site_fract_x
 _atom_site_fract_y
 _atom_site_fract_z
 _atom_site_occupancy
  Sr  Sr0  1  0.500167  0.328532  0.899957  1
  Sr  Sr1  1  0.002146  0.173432  0.596063  1
  Sr  Sr2  1  0.496782  0.674155  0.405676  1
  Sr  Sr3  1  0.002803  0.821246  0.094909  1
  Sr  Sr4  1  0.503780  0.677068  0.097679  1
  Sr  Sr5  1  0.005806  0.820933  0.403426  1
  Sr  Sr6  1  0.494315  0.321542  0.599507  1
  Sr  Sr7  1  0.996021  0.179197  0.899486  1
  Yb  Yb8  1  0.158925  0.334654  0.378226  1
  Yb  Yb9  1  0.340128  0.834439  0.622680  1
  Yb  Yb10  1  0.841149  0.665578  0.877119  1
  Yb  Yb11  1  0.178848  0.489988  0.749762  1
  Yb  Yb12  1  0.679924  0.009551  0.748938  1
  Yb  Yb13  1  0.822676  0.514676  0.252970  1
  Yb  Yb14  1  0.315028  0.986597  0.251977  1
  Th  Th15  1  0.341321  0.837631  0.875267  1
  Th  Th16  1  0.842065  0.662212  0.624150  1
  Th  Th17  1  0.658400  0.162383  0.378755  1
  Th  Th18  1  0.158640  0.339329  0.123774  1
  Th  Th19  1  0.660575  0.163033  0.122061  1
  Pt  Pt20  1  0.326487  0.049577  0.043873  1
  Pt  Pt21  1  0.821482  0.453634  0.457886  1
  Pt  Pt22  1  0.679267  0.952583  0.542131  1
  Pt  Pt23  1  0.176977  0.547607  0.957580  1
  Pt  Pt24  1  0.663496  0.961697  0.956436  1
  Pt  Pt25  1  0.155036  0.543295  0.546366  1
  Pt  Pt26  1  0.343560  0.043819  0.453400  1
  Pt  Pt27  1  0.836225  0.448980  0.046198  1
  Pt  Pt28  1  0.543488  0.639817  0.752845  1
  Pt  Pt29  1  0.042812  0.862367  0.748027  1
  Pt  Pt30  1  0.461527  0.361441  0.248396  1
  Pt  Pt31  1  0.954487  0.139120  0.246336  1
  Pt  Pt32  1  0.307213  0.117462  0.754484  1
  Pt  Pt33  1  0.807133  0.382351  0.744319  1
  Pt  Pt34  1  0.686921  0.884519  0.252268  1
  Pt  Pt35  1  0.194390  0.615553  0.247074  1
