# generated using pymatgen
data_Ca5SnP2
_symmetry_space_group_name_H-M   'P 1'
_cell_length_a   9.03235081
_cell_length_b   9.03235124
_cell_length_c   9.03235019
_cell_angle_alpha   128.12309951
_cell_angle_beta   128.12310257
_cell_angle_gamma   76.42569586
_symmetry_Int_Tables_number   1
_chemical_formula_structural   Ca5SnP2
_chemical_formula_sum   'Ca10 Sn2 P4'
_cell_volume   443.09554239
_cell_formula_units_Z   2
loop_
 _symmetry_equiv_pos_site_id
 _symmetry_equiv_pos_as_xyz
  1  'x, y, z'
loop_
 _atom_site_type_symbol
 _atom_site_label
 _atom_site_symmetry_multiplicity
 _atom_site_fract_x
 _atom_site_fract_y
 _atom_site_fract_z
 _atom_site_occupancy
  Ca  Ca0  1  0.786903  0.286903  0.817435  1
  Ca  Ca1  1  0.213097  0.713097  0.182565  1
  Ca  Ca2  1  0.469468  0.969468  0.182565  1
  Ca  Ca3  1  0.286903  0.469468  0.500000  1
  Ca  Ca4  1  0.030532  0.213097  0.500000  1
  Ca  Ca5  1  0.530532  0.030532  0.817435  1
  Ca  Ca6  1  0.713097  0.530532  0.500000  1
  Ca  Ca7  1  0.969468  0.786903  0.500000  1
  Ca  Ca8  1  0.000000  0.000000  0.000000  1
  Ca  Ca9  1  0.500000  0.500000  0.000000  1
  Sn  Sn10  1  0.250000  0.250000  0.000000  1
  Sn  Sn11  1  0.750000  0.750000  0.000000  1
  P  P12  1  0.152650  0.652650  0.805301  1
  P  P13  1  0.847350  0.347350  0.194699  1
  P  P14  1  0.652650  0.847350  0.500000  1
  P  P15  1  0.347350  0.152650  0.500000  1
