# generated using pymatgen
data_Hf6Ti16Os7
_symmetry_space_group_name_H-M   'P 1'
_cell_length_a   8.92956513
_cell_length_b   8.92956572
_cell_length_c   8.92956500
_cell_angle_alpha   59.99999896
_cell_angle_beta   59.99999679
_cell_angle_gamma   60.00000217
_symmetry_Int_Tables_number   1
_chemical_formula_structural   Hf6Ti16Os7
_chemical_formula_sum   'Hf6 Ti16 Os7'
_cell_volume   503.47272200
_cell_formula_units_Z   1
loop_
 _symmetry_equiv_pos_site_id
 _symmetry_equiv_pos_as_xyz
  1  'x, y, z'
loop_
 _atom_site_type_symbol
 _atom_site_label
 _atom_site_symmetry_multiplicity
 _atom_site_fract_x
 _atom_site_fract_y
 _atom_site_fract_z
 _atom_site_occupancy
  Hf  Hf0  1  0.688258  0.311742  0.311742  1
  Hf  Hf1  1  0.311742  0.688258  0.688258  1
  Hf  Hf2  1  0.311742  0.688258  0.311742  1
  Hf  Hf3  1  0.688258  0.311742  0.688258  1
  Hf  Hf4  1  0.311742  0.311742  0.688258  1
  Hf  Hf5  1  0.688258  0.688258  0.311742  1
  Ti  Ti6  1  0.332185  0.332185  0.332185  1
  Ti  Ti7  1  0.667815  0.667815  0.667815  1
  Ti  Ti8  1  0.332185  0.332185  0.003447  1
  Ti  Ti9  1  0.332185  0.003447  0.332185  1
  Ti  Ti10  1  0.667815  0.667815  0.996553  1
  Ti  Ti11  1  0.667815  0.996553  0.667815  1
  Ti  Ti12  1  0.003447  0.332185  0.332185  1
  Ti  Ti13  1  0.996553  0.667815  0.667815  1
  Ti  Ti14  1  0.117292  0.117292  0.117292  1
  Ti  Ti15  1  0.882708  0.882708  0.882708  1
  Ti  Ti16  1  0.117292  0.117292  0.648124  1
  Ti  Ti17  1  0.117292  0.648124  0.117292  1
  Ti  Ti18  1  0.882708  0.882708  0.351876  1
  Ti  Ti19  1  0.882708  0.351876  0.882708  1
  Ti  Ti20  1  0.648124  0.117292  0.117292  1
  Ti  Ti21  1  0.351876  0.882708  0.882708  1
  Os  Os22  1  0.500000  0.000000  0.000000  1
  Os  Os23  1  0.000000  0.500000  0.500000  1
  Os  Os24  1  0.000000  0.500000  0.000000  1
  Os  Os25  1  0.500000  0.000000  0.500000  1
  Os  Os26  1  0.000000  0.000000  0.500000  1
  Os  Os27  1  0.500000  0.500000  0.000000  1
  Os  Os28  1  0.000000  0.000000  0.000000  1
