# generated using pymatgen
data_HoErMnC2
_symmetry_space_group_name_H-M   'P 1'
_cell_length_a   5.01717800
_cell_length_b   6.32679100
_cell_length_c   9.60997800
_cell_angle_alpha   90.00000000
_cell_angle_beta   90.00000000
_cell_angle_gamma   90.00000000
_symmetry_Int_Tables_number   1
_chemical_formula_structural   HoErMnC2
_chemical_formula_sum   'Ho4 Er4 Mn4 C8'
_cell_volume   305.04603954
_cell_formula_units_Z   4
loop_
 _symmetry_equiv_pos_site_id
 _symmetry_equiv_pos_as_xyz
  1  'x, y, z'
loop_
 _atom_site_type_symbol
 _atom_site_label
 _atom_site_symmetry_multiplicity
 _atom_site_fract_x
 _atom_site_fract_y
 _atom_site_fract_z
 _atom_site_occupancy
  Ho  Ho0  1  0.250000  0.475461  0.213997  1
  Ho  Ho1  1  0.250000  0.975461  0.286003  1
  Ho  Ho2  1  0.750000  0.524539  0.786003  1
  Ho  Ho3  1  0.750000  0.024539  0.713997  1
  Er  Er4  1  0.250000  0.818873  0.944766  1
  Er  Er5  1  0.250000  0.318873  0.555234  1
  Er  Er6  1  0.750000  0.181127  0.055234  1
  Er  Er7  1  0.750000  0.681127  0.444766  1
  Mn  Mn8  1  0.250000  0.271143  0.857249  1
  Mn  Mn9  1  0.250000  0.771143  0.642751  1
  Mn  Mn10  1  0.750000  0.728857  0.142751  1
  Mn  Mn11  1  0.750000  0.228857  0.357249  1
  C  C12  1  0.250000  0.037297  0.739324  1
  C  C13  1  0.250000  0.537297  0.760676  1
  C  C14  1  0.750000  0.962703  0.260676  1
  C  C15  1  0.750000  0.462703  0.239324  1
  C  C16  1  0.250000  0.688321  0.463733  1
  C  C17  1  0.250000  0.188321  0.036267  1
  C  C18  1  0.750000  0.311679  0.536267  1
  C  C19  1  0.750000  0.811679  0.963733  1
