# generated using pymatgen
data_Ti17V2Si16Os
_symmetry_space_group_name_H-M   'P 1'
_cell_length_a   6.64061319
_cell_length_b   6.64074559
_cell_length_c   12.12003034
_cell_angle_alpha   90.01541148
_cell_angle_beta   90.20616144
_cell_angle_gamma   89.94999409
_symmetry_Int_Tables_number   1
_chemical_formula_structural   Ti17V2Si16Os
_chemical_formula_sum   'Ti17 V2 Si16 Os1'
_cell_volume   534.47296410
_cell_formula_units_Z   1
loop_
 _symmetry_equiv_pos_site_id
 _symmetry_equiv_pos_as_xyz
  1  'x, y, z'
loop_
 _atom_site_type_symbol
 _atom_site_label
 _atom_site_symmetry_multiplicity
 _atom_site_fract_x
 _atom_site_fract_y
 _atom_site_fract_z
 _atom_site_occupancy
  Ti  Ti0  1  0.350962  0.498696  0.868360  1
  Ti  Ti1  1  0.651492  0.503383  0.372574  1
  Ti  Ti2  1  0.499582  0.351518  0.130627  1
  Ti  Ti3  1  0.502397  0.649441  0.627926  1
  Ti  Ti4  1  0.005011  0.847817  0.121776  1
  Ti  Ti5  1  0.148458  0.996394  0.376945  1
  Ti  Ti6  1  0.848137  0.004406  0.878962  1
  Ti  Ti7  1  0.002414  0.345181  0.222321  1
  Ti  Ti8  1  0.156201  0.502625  0.470123  1
  Ti  Ti9  1  0.838970  0.499617  0.969863  1
  Ti  Ti10  1  0.502196  0.157009  0.530484  1
  Ti  Ti11  1  0.501538  0.838751  0.029139  1
  Ti  Ti12  1  0.999198  0.658476  0.720981  1
  Ti  Ti13  1  0.345922  0.001730  0.776827  1
  Ti  Ti14  1  0.658362  0.998762  0.280065  1
  Ti  Ti15  1  0.328045  0.670838  0.248895  1
  Ti  Ti16  1  0.669879  0.326405  0.750273  1
  V  V17  1  0.992149  0.148207  0.623525  1
  V  V18  1  0.830306  0.829837  0.500700  1
  Si  Si19  1  0.045041  0.299243  0.813643  1
  Si  Si20  1  0.198993  0.539097  0.062649  1
  Si  Si21  1  0.803172  0.456355  0.565120  1
  Si  Si22  1  0.539123  0.198932  0.936707  1
  Si  Si23  1  0.458027  0.802697  0.436159  1
  Si  Si24  1  0.954800  0.700103  0.316526  1
  Si  Si25  1  0.301118  0.045834  0.184209  1
  Si  Si26  1  0.703095  0.954593  0.683281  1
  Si  Si27  1  0.289204  0.355938  0.671020  1
  Si  Si28  1  0.141243  0.794862  0.921439  1
  Si  Si29  1  0.858717  0.202830  0.426944  1
  Si  Si30  1  0.794628  0.140003  0.078911  1
  Si  Si31  1  0.201591  0.863477  0.576486  1
  Si  Si32  1  0.706203  0.643755  0.174569  1
  Si  Si33  1  0.357859  0.294937  0.327537  1
  Si  Si34  1  0.643415  0.706114  0.825060  1
  Os  Os35  1  0.172557  0.172139  0.999372  1
