# generated using pymatgen
data_Ce2P2O9
_symmetry_space_group_name_H-M   'P 1'
_cell_length_a   5.77413750
_cell_length_b   5.77413838
_cell_length_c   12.74184000
_cell_angle_alpha   90.00000000
_cell_angle_beta   90.00000000
_cell_angle_gamma   103.54757535
_symmetry_Int_Tables_number   1
_chemical_formula_structural   Ce2P2O9
_chemical_formula_sum   'Ce4 P4 O18'
_cell_volume   413.00112833
_cell_formula_units_Z   2
loop_
 _symmetry_equiv_pos_site_id
 _symmetry_equiv_pos_as_xyz
  1  'x, y, z'
loop_
 _atom_site_type_symbol
 _atom_site_label
 _atom_site_symmetry_multiplicity
 _atom_site_fract_x
 _atom_site_fract_y
 _atom_site_fract_z
 _atom_site_occupancy
  Ce  Ce0  1  0.292504  0.707496  0.570093  1
  Ce  Ce1  1  0.707496  0.292504  0.429907  1
  Ce  Ce2  1  0.207496  0.792504  0.070093  1
  Ce  Ce3  1  0.792504  0.207496  0.929907  1
  P  P4  1  0.391057  0.608943  0.857067  1
  P  P5  1  0.108943  0.891057  0.357067  1
  P  P6  1  0.608943  0.391057  0.142933  1
  P  P7  1  0.891057  0.108943  0.642933  1
  O  O8  1  0.058870  0.941130  0.624920  1
  O  O9  1  0.987006  0.352505  0.585647  1
  O  O10  1  0.141807  0.858193  0.239260  1
  O  O11  1  0.487006  0.852505  0.914353  1
  O  O12  1  0.647495  0.012993  0.585647  1
  O  O13  1  0.441130  0.558870  0.124920  1
  O  O14  1  0.852505  0.487007  0.085647  1
  O  O15  1  0.641807  0.358193  0.260740  1
  O  O16  1  0.941130  0.058870  0.375080  1
  O  O17  1  0.352505  0.987007  0.414353  1
  O  O18  1  0.358193  0.641807  0.739260  1
  O  O19  1  0.512994  0.147495  0.085647  1
  O  O20  1  0.558870  0.441130  0.875080  1
  O  O21  1  0.500000  0.500000  0.500000  1
  O  O22  1  0.858193  0.141807  0.760740  1
  O  O23  1  0.147495  0.512993  0.914353  1
  O  O24  1  0.012994  0.647495  0.414353  1
  O  O25  1  0.000000  0.000000  0.000000  1
