# generated using pymatgen
data_BaSrSc2(Si4N7)2
_symmetry_space_group_name_H-M   'P 1'
_cell_length_a   5.96363500
_cell_length_b   5.96363390
_cell_length_c   9.70512400
_cell_angle_alpha   90.00000000
_cell_angle_beta   90.00000000
_cell_angle_gamma   119.99998948
_symmetry_Int_Tables_number   1
_chemical_formula_structural   BaSrSc2(Si4N7)2
_chemical_formula_sum   'Ba1 Sr1 Sc2 Si8 N14'
_cell_volume   298.91918933
_cell_formula_units_Z   1
loop_
 _symmetry_equiv_pos_site_id
 _symmetry_equiv_pos_as_xyz
  1  'x, y, z'
loop_
 _atom_site_type_symbol
 _atom_site_label
 _atom_site_symmetry_multiplicity
 _atom_site_fract_x
 _atom_site_fract_y
 _atom_site_fract_z
 _atom_site_occupancy
  Ba  Ba0  1  0.333333  0.666667  0.076828  1
  Sr  Sr1  1  0.666667  0.333333  0.577801  1
  Sc  Sc2  1  0.666667  0.333333  0.949572  1
  Sc  Sc3  1  0.333333  0.666667  0.451998  1
  Si  Si4  1  0.173552  0.347103  0.759387  1
  Si  Si5  1  0.825936  0.174064  0.262056  1
  Si  Si6  1  0.348127  0.174064  0.262056  1
  Si  Si7  1  0.652897  0.826448  0.759387  1
  Si  Si8  1  0.173552  0.826448  0.759387  1
  Si  Si9  1  0.825936  0.651873  0.262056  1
  Si  Si10  1  0.000000  0.000000  0.026037  1
  Si  Si11  1  0.000000  0.000000  0.524608  1
  N  N12  1  0.000000  0.000000  0.833460  1
  N  N13  1  0.000000  0.000000  0.333569  1
  N  N14  1  0.842695  0.685390  0.084379  1
  N  N15  1  0.156845  0.843155  0.582750  1
  N  N16  1  0.686310  0.843155  0.582750  1
  N  N17  1  0.314610  0.157305  0.084379  1
  N  N18  1  0.842695  0.157305  0.084379  1
  N  N19  1  0.156845  0.313690  0.582750  1
  N  N20  1  0.492785  0.507215  0.814940  1
  N  N21  1  0.981923  0.490961  0.320409  1
  N  N22  1  0.509039  0.018077  0.320409  1
  N  N23  1  0.492785  0.985570  0.814940  1
  N  N24  1  0.509039  0.490961  0.320409  1
  N  N25  1  0.014430  0.507215  0.814940  1
