# generated using pymatgen
data_DyTm3Hf4F28
_symmetry_space_group_name_H-M   'P 1'
_cell_length_a   5.62086497
_cell_length_b   8.94875616
_cell_length_c   12.08556907
_cell_angle_alpha   62.49608737
_cell_angle_beta   90.01727337
_cell_angle_gamma   89.99374002
_symmetry_Int_Tables_number   1
_chemical_formula_structural   DyTm3Hf4F28
_chemical_formula_sum   'Dy1 Tm3 Hf4 F28'
_cell_volume   539.19564917
_cell_formula_units_Z   1
loop_
 _symmetry_equiv_pos_site_id
 _symmetry_equiv_pos_as_xyz
  1  'x, y, z'
loop_
 _atom_site_type_symbol
 _atom_site_label
 _atom_site_symmetry_multiplicity
 _atom_site_fract_x
 _atom_site_fract_y
 _atom_site_fract_z
 _atom_site_occupancy
  Dy  Dy0  1  0.743446  0.816158  0.264837  1
  Tm  Tm1  1  0.756373  0.816401  0.764796  1
  Tm  Tm2  1  0.256429  0.184081  0.735380  1
  Tm  Tm3  1  0.242815  0.185510  0.235232  1
  Hf  Hf4  1  0.757150  0.275473  0.955717  1
  Hf  Hf5  1  0.256742  0.725832  0.545154  1
  Hf  Hf6  1  0.243836  0.725733  0.041840  1
  Hf  Hf7  1  0.743145  0.272330  0.457281  1
  F  F8  1  0.456531  0.708416  0.915966  1
  F  F9  1  0.956634  0.290378  0.582764  1
  F  F10  1  0.543809  0.291456  0.082099  1
  F  F11  1  0.046280  0.708157  0.418513  1
  F  F12  1  0.444083  0.273391  0.550326  1
  F  F13  1  0.943029  0.725840  0.949786  1
  F  F14  1  0.556458  0.724685  0.453416  1
  F  F15  1  0.056238  0.274617  0.049267  1
  F  F16  1  0.776699  0.526871  0.859163  1
  F  F17  1  0.275331  0.473781  0.640951  1
  F  F18  1  0.222854  0.473893  0.139476  1
  F  F19  1  0.721347  0.523506  0.360728  1
  F  F20  1  0.758934  0.024392  0.056495  1
  F  F21  1  0.258326  0.976652  0.442154  1
  F  F22  1  0.241444  0.976908  0.941114  1
  F  F23  1  0.740935  0.021448  0.558723  1
  F  F24  1  0.976868  0.732881  0.645588  1
  F  F25  1  0.478378  0.267516  0.854657  1
  F  F26  1  0.023110  0.267735  0.355801  1
  F  F27  1  0.524910  0.731312  0.141818  1
  F  F28  1  0.042706  0.746953  0.172494  1
  F  F29  1  0.537307  0.251054  0.327440  1
  F  F30  1  0.963499  0.252766  0.826722  1
  F  F31  1  0.462031  0.747921  0.674426  1
  F  F32  1  0.419188  0.974447  0.232517  1
  F  F33  1  0.924394  0.031251  0.267232  1
  F  F34  1  0.574428  0.026573  0.766842  1
  F  F35  1  0.074314  0.973682  0.733284  1
