# generated using pymatgen
data_La5Pr3(HgIr)2
_symmetry_space_group_name_H-M   'P 1'
_cell_length_a   10.06738101
_cell_length_b   10.06738045
_cell_length_c   10.06738100
_cell_angle_alpha   60.00000148
_cell_angle_beta   60.00000333
_cell_angle_gamma   60.00000417
_symmetry_Int_Tables_number   1
_chemical_formula_structural   La5Pr3(HgIr)2
_chemical_formula_sum   'La10 Pr6 Hg4 Ir4'
_cell_volume   721.49698896
_cell_formula_units_Z   2
loop_
 _symmetry_equiv_pos_site_id
 _symmetry_equiv_pos_as_xyz
  1  'x, y, z'
loop_
 _atom_site_type_symbol
 _atom_site_label
 _atom_site_symmetry_multiplicity
 _atom_site_fract_x
 _atom_site_fract_y
 _atom_site_fract_z
 _atom_site_occupancy
  La  La0  1  0.348291  0.348291  0.348291  1
  La  La1  1  0.348291  0.348291  0.955126  1
  La  La2  1  0.348291  0.955126  0.348291  1
  La  La3  1  0.955126  0.348291  0.348291  1
  La  La4  1  0.808648  0.191352  0.191352  1
  La  La5  1  0.191352  0.808648  0.808648  1
  La  La6  1  0.191352  0.808648  0.191352  1
  La  La7  1  0.808648  0.191352  0.808648  1
  La  La8  1  0.191352  0.191352  0.808648  1
  La  La9  1  0.808648  0.808648  0.191352  1
  Pr  Pr10  1  0.937582  0.562418  0.562418  1
  Pr  Pr11  1  0.562418  0.937582  0.937582  1
  Pr  Pr12  1  0.562418  0.937582  0.562418  1
  Pr  Pr13  1  0.937582  0.562418  0.937582  1
  Pr  Pr14  1  0.562418  0.562418  0.937582  1
  Pr  Pr15  1  0.937582  0.937582  0.562418  1
  Hg  Hg16  1  0.583443  0.583443  0.583443  1
  Hg  Hg17  1  0.583443  0.583443  0.249668  1
  Hg  Hg18  1  0.583443  0.249668  0.583443  1
  Hg  Hg19  1  0.249668  0.583443  0.583443  1
  Ir  Ir20  1  0.140978  0.140978  0.140978  1
  Ir  Ir21  1  0.140978  0.140978  0.577068  1
  Ir  Ir22  1  0.140978  0.577068  0.140978  1
  Ir  Ir23  1  0.577068  0.140978  0.140978  1
