# generated using pymatgen
data_Sm6RuBr10
_symmetry_space_group_name_H-M   'P 1'
_cell_length_a   7.51003578
_cell_length_b   9.40896674
_cell_length_c   9.50795791
_cell_angle_alpha   108.51061267
_cell_angle_beta   96.99821722
_cell_angle_gamma   105.67009248
_symmetry_Int_Tables_number   1
_chemical_formula_structural   Sm6RuBr10
_chemical_formula_sum   'Sm6 Ru1 Br10'
_cell_volume   597.34574954
_cell_formula_units_Z   1
loop_
 _symmetry_equiv_pos_site_id
 _symmetry_equiv_pos_as_xyz
  1  'x, y, z'
loop_
 _atom_site_type_symbol
 _atom_site_label
 _atom_site_symmetry_multiplicity
 _atom_site_fract_x
 _atom_site_fract_y
 _atom_site_fract_z
 _atom_site_occupancy
  Sm  Sm0  1  0.127493  0.048220  0.752708  1
  Sm  Sm1  1  0.872507  0.951780  0.247292  1
  Sm  Sm2  1  0.972614  0.297071  0.092777  1
  Sm  Sm3  1  0.027386  0.702929  0.907223  1
  Sm  Sm4  1  0.360947  0.137006  0.181545  1
  Sm  Sm5  1  0.639053  0.862994  0.818455  1
  Ru  Ru6  1  0.000000  0.000000  0.000000  1
  Br  Br7  1  0.548931  0.175636  0.919185  1
  Br  Br8  1  0.451069  0.824364  0.080815  1
  Br  Br9  1  0.354496  0.455501  0.274283  1
  Br  Br10  1  0.645504  0.544499  0.725717  1
  Br  Br11  1  0.249132  0.083271  0.454851  1
  Br  Br12  1  0.750868  0.916729  0.545149  1
  Br  Br13  1  0.792545  0.256264  0.346079  1
  Br  Br14  1  0.207455  0.743736  0.653921  1
  Br  Br15  1  0.087880  0.368865  0.830243  1
  Br  Br16  1  0.912120  0.631135  0.169757  1
