# generated using pymatgen
data_TbHf2Sn3Rh10
_symmetry_space_group_name_H-M   'P 1'
_cell_length_a   4.21031200
_cell_length_b   5.66303076
_cell_length_c   11.15024857
_cell_angle_alpha   91.10053508
_cell_angle_beta   90.00000000
_cell_angle_gamma   90.00000000
_symmetry_Int_Tables_number   1
_chemical_formula_structural   TbHf2Sn3Rh10
_chemical_formula_sum   'Tb1 Hf2 Sn3 Rh10'
_cell_volume   265.80774352
_cell_formula_units_Z   1
loop_
 _symmetry_equiv_pos_site_id
 _symmetry_equiv_pos_as_xyz
  1  'x, y, z'
loop_
 _atom_site_type_symbol
 _atom_site_label
 _atom_site_symmetry_multiplicity
 _atom_site_fract_x
 _atom_site_fract_y
 _atom_site_fract_z
 _atom_site_occupancy
  Tb  Tb0  1  0.500000  0.828237  0.359169  1
  Hf  Hf1  1  0.500000  0.668763  0.860194  1
  Hf  Hf2  1  0.500000  0.322605  0.141730  1
  Sn  Sn3  1  0.500000  0.166411  0.646615  1
  Sn  Sn4  1  0.000000  0.517584  0.497638  1
  Sn  Sn5  1  0.000000  0.000913  0.999614  1
  Rh  Rh6  1  0.500000  0.196006  0.888695  1
  Rh  Rh7  1  0.500000  0.797616  0.106111  1
  Rh  Rh8  1  0.500000  0.688926  0.620083  1
  Rh  Rh9  1  0.500000  0.315387  0.383817  1
  Rh  Rh10  1  0.000000  0.422929  0.742465  1
  Rh  Rh11  1  0.000000  0.560272  0.244041  1
  Rh  Rh12  1  0.000000  0.030350  0.510165  1
  Rh  Rh13  1  0.000000  0.498569  0.995927  1
  Rh  Rh14  1  0.000000  0.071298  0.243091  1
  Rh  Rh15  1  0.000000  0.914135  0.760645  1
