# generated using pymatgen
data_Tb3In3PdPtAu
_symmetry_space_group_name_H-M   'P 1'
_cell_length_a   7.89748200
_cell_length_b   7.89748283
_cell_length_c   3.76804600
_cell_angle_alpha   90.00000000
_cell_angle_beta   90.00000000
_cell_angle_gamma   119.99999651
_symmetry_Int_Tables_number   1
_chemical_formula_structural   Tb3In3PdPtAu
_chemical_formula_sum   'Tb3 In3 Pd1 Pt1 Au1'
_cell_volume   203.52800622
_cell_formula_units_Z   1
loop_
 _symmetry_equiv_pos_site_id
 _symmetry_equiv_pos_as_xyz
  1  'x, y, z'
loop_
 _atom_site_type_symbol
 _atom_site_label
 _atom_site_symmetry_multiplicity
 _atom_site_fract_x
 _atom_site_fract_y
 _atom_site_fract_z
 _atom_site_occupancy
  Tb  Tb0  1  0.399484  0.985905  0.000000  1
  Tb  Tb1  1  0.014095  0.413579  0.000000  1
  Tb  Tb2  1  0.586421  0.600516  0.000000  1
  In  In3  1  0.260999  0.259656  0.500000  1
  In  In4  1  0.998657  0.739001  0.500000  1
  In  In5  1  0.740344  0.001343  0.500000  1
  Pd  Pd6  1  0.000000  0.000000  0.000000  1
  Pt  Pt7  1  0.333333  0.666667  0.500000  1
  Au  Au8  1  0.666667  0.333333  0.500000  1
