# generated using pymatgen
data_Th4Ga24NiPt
_symmetry_space_group_name_H-M   'P 1'
_cell_length_a   6.11737200
_cell_length_b   6.11737200
_cell_length_c   15.42546000
_cell_angle_alpha   90.00000000
_cell_angle_beta   90.00000000
_cell_angle_gamma   90.00000000
_symmetry_Int_Tables_number   1
_chemical_formula_structural   Th4Ga24NiPt
_chemical_formula_sum   'Th4 Ga24 Ni1 Pt1'
_cell_volume   577.25526911
_cell_formula_units_Z   1
loop_
 _symmetry_equiv_pos_site_id
 _symmetry_equiv_pos_as_xyz
  1  'x, y, z'
loop_
 _atom_site_type_symbol
 _atom_site_label
 _atom_site_symmetry_multiplicity
 _atom_site_fract_x
 _atom_site_fract_y
 _atom_site_fract_z
 _atom_site_occupancy
  Th  Th0  1  0.500000  0.000000  0.243163  1
  Th  Th1  1  0.000000  0.500000  0.246547  1
  Th  Th2  1  0.000000  0.500000  0.753453  1
  Th  Th3  1  0.500000  0.000000  0.756837  1
  Ga  Ga4  1  0.500000  0.500000  0.816565  1
  Ga  Ga5  1  0.000000  0.000000  0.816565  1
  Ga  Ga6  1  0.758382  0.741618  0.913476  1
  Ga  Ga7  1  0.242654  0.742654  0.913457  1
  Ga  Ga8  1  0.000000  0.000000  0.342214  1
  Ga  Ga9  1  0.241618  0.741618  0.086524  1
  Ga  Ga10  1  0.827799  0.327799  0.570863  1
  Ga  Ga11  1  0.500000  0.500000  0.342214  1
  Ga  Ga12  1  0.241618  0.258382  0.913476  1
  Ga  Ga13  1  0.757346  0.742654  0.086543  1
  Ga  Ga14  1  0.329836  0.170164  0.571684  1
  Ga  Ga15  1  0.670164  0.170164  0.428316  1
  Ga  Ga16  1  0.000000  0.000000  0.657786  1
  Ga  Ga17  1  0.172201  0.327799  0.429137  1
  Ga  Ga18  1  0.242654  0.257346  0.086543  1
  Ga  Ga19  1  0.827799  0.672201  0.429137  1
  Ga  Ga20  1  0.670164  0.829836  0.571684  1
  Ga  Ga21  1  0.000000  0.000000  0.183435  1
  Ga  Ga22  1  0.172201  0.672201  0.570863  1
  Ga  Ga23  1  0.500000  0.500000  0.657786  1
  Ga  Ga24  1  0.757346  0.257346  0.913457  1
  Ga  Ga25  1  0.500000  0.500000  0.183435  1
  Ga  Ga26  1  0.329836  0.829836  0.428316  1
  Ga  Ga27  1  0.758382  0.258382  0.086524  1
  Ni  Ni28  1  0.000000  0.500000  0.000000  1
  Pt  Pt29  1  0.500000  0.000000  0.000000  1
