# generated using pymatgen
data_NaNd5SmOsBr12
_symmetry_space_group_name_H-M   'P 1'
_cell_length_a   9.55603864
_cell_length_b   9.53350147
_cell_length_c   9.54642873
_cell_angle_alpha   107.05913449
_cell_angle_beta   107.14313719
_cell_angle_gamma   106.95925655
_symmetry_Int_Tables_number   1
_chemical_formula_structural   NaNd5SmOsBr12
_chemical_formula_sum   'Na1 Nd5 Sm1 Os1 Br12'
_cell_volume   723.22957872
_cell_formula_units_Z   1
loop_
 _symmetry_equiv_pos_site_id
 _symmetry_equiv_pos_as_xyz
  1  'x, y, z'
loop_
 _atom_site_type_symbol
 _atom_site_label
 _atom_site_symmetry_multiplicity
 _atom_site_fract_x
 _atom_site_fract_y
 _atom_site_fract_z
 _atom_site_occupancy
  Na  Na0  1  0.500027  0.499946  0.500047  1
  Nd  Nd1  1  0.112410  0.318778  0.030009  1
  Nd  Nd2  1  0.318346  0.029162  0.112212  1
  Nd  Nd3  1  0.030120  0.111607  0.318629  1
  Nd  Nd4  1  0.969458  0.887061  0.680942  1
  Nd  Nd5  1  0.681600  0.970613  0.887848  1
  Sm  Sm6  1  0.888185  0.683288  0.969766  1
  Os  Os7  1  0.999856  0.999799  0.999639  1
  Br  Br8  1  0.211972  0.682640  0.071025  1
  Br  Br9  1  0.453782  0.370127  0.153377  1
  Br  Br10  1  0.683896  0.071988  0.217249  1
  Br  Br11  1  0.928174  0.780751  0.312975  1
  Br  Br12  1  0.153715  0.453776  0.370484  1
  Br  Br13  1  0.370497  0.152992  0.453936  1
  Br  Br14  1  0.629498  0.846932  0.545984  1
  Br  Br15  1  0.846597  0.546655  0.633444  1
  Br  Br16  1  0.070838  0.217016  0.683131  1
  Br  Br17  1  0.316073  0.927874  0.782643  1
  Br  Br18  1  0.550566  0.629780  0.848573  1
  Br  Br19  1  0.784389  0.319216  0.928091  1
