# generated using pymatgen
data_Hf10CuPb7
_symmetry_space_group_name_H-M   'P 1'
_cell_length_a   8.83252500
_cell_length_b   8.83252472
_cell_length_c   5.94920200
_cell_angle_alpha   90.00000000
_cell_angle_beta   90.00000000
_cell_angle_gamma   119.99999729
_symmetry_Int_Tables_number   1
_chemical_formula_structural   Hf10CuPb7
_chemical_formula_sum   'Hf10 Cu1 Pb7'
_cell_volume   401.93802667
_cell_formula_units_Z   1
loop_
 _symmetry_equiv_pos_site_id
 _symmetry_equiv_pos_as_xyz
  1  'x, y, z'
loop_
 _atom_site_type_symbol
 _atom_site_label
 _atom_site_symmetry_multiplicity
 _atom_site_fract_x
 _atom_site_fract_y
 _atom_site_fract_z
 _atom_site_occupancy
  Hf  Hf0  1  0.666667  0.333333  0.500000  1
  Hf  Hf1  1  0.333333  0.666667  0.500000  1
  Hf  Hf2  1  0.333333  0.666667  0.000000  1
  Hf  Hf3  1  0.666667  0.333333  0.000000  1
  Hf  Hf4  1  0.726971  0.726971  0.266121  1
  Hf  Hf5  1  0.273029  0.000000  0.266121  1
  Hf  Hf6  1  0.000000  0.273029  0.266121  1
  Hf  Hf7  1  0.273029  0.273029  0.733879  1
  Hf  Hf8  1  0.726971  0.000000  0.733879  1
  Hf  Hf9  1  0.000000  0.726971  0.733879  1
  Cu  Cu10  1  0.000000  0.000000  0.500000  1
  Pb  Pb11  1  0.000000  0.000000  0.000000  1
  Pb  Pb12  1  0.384437  0.384437  0.244485  1
  Pb  Pb13  1  0.615563  0.000000  0.244485  1
  Pb  Pb14  1  0.000000  0.615563  0.244485  1
  Pb  Pb15  1  0.615563  0.615563  0.755515  1
  Pb  Pb16  1  0.384437  0.000000  0.755515  1
  Pb  Pb17  1  0.000000  0.384437  0.755515  1
