# generated using pymatgen
data_CeZnAu5
_symmetry_space_group_name_H-M   'P 1'
_cell_length_a   5.72510613
_cell_length_b   5.72510588
_cell_length_c   5.72510553
_cell_angle_alpha   102.78173861
_cell_angle_beta   102.78174044
_cell_angle_gamma   123.88477608
_symmetry_Int_Tables_number   1
_chemical_formula_structural   CeZnAu5
_chemical_formula_sum   'Ce1 Zn1 Au5'
_cell_volume   137.47225854
_cell_formula_units_Z   1
loop_
 _symmetry_equiv_pos_site_id
 _symmetry_equiv_pos_as_xyz
  1  'x, y, z'
loop_
 _atom_site_type_symbol
 _atom_site_label
 _atom_site_symmetry_multiplicity
 _atom_site_fract_x
 _atom_site_fract_y
 _atom_site_fract_z
 _atom_site_occupancy
  Ce  Ce0  1  0.000000  0.000000  0.000000  1
  Zn  Zn1  1  0.750000  0.250000  0.500000  1
  Au  Au2  1  0.250000  0.750000  0.500000  1
  Au  Au3  1  0.301976  0.301976  0.603951  1
  Au  Au4  1  0.698024  0.698024  0.396049  1
  Au  Au5  1  0.698024  0.301976  0.000000  1
  Au  Au6  1  0.301976  0.698024  0.000000  1
