# generated using pymatgen
data_Ba4ErTm(O3F)2
_symmetry_space_group_name_H-M   'P 1'
_cell_length_a   4.35833900
_cell_length_b   4.35833900
_cell_length_c   13.85308300
_cell_angle_alpha   90.00000000
_cell_angle_beta   90.00000000
_cell_angle_gamma   90.00000000
_symmetry_Int_Tables_number   1
_chemical_formula_structural   Ba4ErTm(O3F)2
_chemical_formula_sum   'Ba4 Er1 Tm1 O6 F2'
_cell_volume   263.14095787
_cell_formula_units_Z   1
loop_
 _symmetry_equiv_pos_site_id
 _symmetry_equiv_pos_as_xyz
  1  'x, y, z'
loop_
 _atom_site_type_symbol
 _atom_site_label
 _atom_site_symmetry_multiplicity
 _atom_site_fract_x
 _atom_site_fract_y
 _atom_site_fract_z
 _atom_site_occupancy
  Ba  Ba0  1  0.500000  0.000000  0.102882  1
  Ba  Ba1  1  0.500000  0.000000  0.379589  1
  Ba  Ba2  1  0.000000  0.500000  0.619991  1
  Ba  Ba3  1  0.000000  0.500000  0.899310  1
  Er  Er4  1  0.500000  0.000000  0.761231  1
  Tm  Tm5  1  0.000000  0.500000  0.239528  1
  O  O6  1  0.000000  0.500000  0.084651  1
  O  O7  1  0.000000  0.000000  0.261974  1
  O  O8  1  0.500000  0.500000  0.261974  1
  O  O9  1  0.000000  0.000000  0.737122  1
  O  O10  1  0.500000  0.500000  0.737122  1
  O  O11  1  0.500000  0.000000  0.916985  1
  F  F12  1  0.000000  0.500000  0.424003  1
  F  F13  1  0.500000  0.000000  0.573639  1
