# generated using pymatgen
data_Dy3YBI5
_symmetry_space_group_name_H-M   'P 1'
_cell_length_a   9.66867577
_cell_length_b   9.66867620
_cell_length_c   8.60080064
_cell_angle_alpha   102.39946088
_cell_angle_beta   102.39946113
_cell_angle_gamma   24.54062234
_symmetry_Int_Tables_number   1
_chemical_formula_structural   Dy3YBI5
_chemical_formula_sum   'Dy3 Y1 B1 I5'
_cell_volume   325.78236155
_cell_formula_units_Z   1
loop_
 _symmetry_equiv_pos_site_id
 _symmetry_equiv_pos_as_xyz
  1  'x, y, z'
loop_
 _atom_site_type_symbol
 _atom_site_label
 _atom_site_symmetry_multiplicity
 _atom_site_fract_x
 _atom_site_fract_y
 _atom_site_fract_z
 _atom_site_occupancy
  Dy  Dy0  1  0.999329  0.999329  0.193017  1
  Dy  Dy1  1  0.000630  0.000630  0.806966  1
  Dy  Dy2  1  0.364065  0.364065  0.930210  1
  Y  Y3  1  0.636045  0.636045  0.069826  1
  B  B4  1  0.499763  0.499763  0.999867  1
  I  I5  1  0.828150  0.828150  0.174269  1
  I  I6  1  0.165973  0.165973  0.343368  1
  I  I7  1  0.500020  0.500020  0.499998  1
  I  I8  1  0.834095  0.834095  0.656892  1
  I  I9  1  0.171930  0.171930  0.825588  1
