# generated using pymatgen
data_Pr2Sm2YSn4
_symmetry_space_group_name_H-M   'P 1'
_cell_length_a   8.21315000
_cell_length_b   8.36442500
_cell_length_c   15.88376200
_cell_angle_alpha   90.00000000
_cell_angle_beta   90.00000000
_cell_angle_gamma   90.00000000
_symmetry_Int_Tables_number   1
_chemical_formula_structural   Pr2Sm2YSn4
_chemical_formula_sum   'Pr8 Sm8 Y4 Sn16'
_cell_volume   1091.18708468
_cell_formula_units_Z   4
loop_
 _symmetry_equiv_pos_site_id
 _symmetry_equiv_pos_as_xyz
  1  'x, y, z'
loop_
 _atom_site_type_symbol
 _atom_site_label
 _atom_site_symmetry_multiplicity
 _atom_site_fract_x
 _atom_site_fract_y
 _atom_site_fract_z
 _atom_site_occupancy
  Pr  Pr0  1  0.515658  0.320582  0.902363  1
  Pr  Pr1  1  0.015658  0.179418  0.597637  1
  Pr  Pr2  1  0.484342  0.679418  0.402363  1
  Pr  Pr3  1  0.984342  0.820582  0.097637  1
  Pr  Pr4  1  0.484342  0.679418  0.097637  1
  Pr  Pr5  1  0.984342  0.820582  0.402363  1
  Pr  Pr6  1  0.515658  0.320582  0.597637  1
  Pr  Pr7  1  0.015658  0.179418  0.902363  1
  Sm  Sm8  1  0.362945  0.836436  0.878108  1
  Sm  Sm9  1  0.862945  0.663564  0.621892  1
  Sm  Sm10  1  0.637055  0.163564  0.378108  1
  Sm  Sm11  1  0.137055  0.336436  0.121892  1
  Sm  Sm12  1  0.637055  0.163564  0.121892  1
  Sm  Sm13  1  0.137055  0.336436  0.378108  1
  Sm  Sm14  1  0.362945  0.836436  0.621892  1
  Sm  Sm15  1  0.862945  0.663564  0.878108  1
  Y  Y16  1  0.196948  0.501692  0.750000  1
  Y  Y17  1  0.696948  0.998308  0.750000  1
  Y  Y18  1  0.803052  0.498308  0.250000  1
  Y  Y19  1  0.303052  0.001692  0.250000  1
  Sn  Sn20  1  0.300110  0.038370  0.042672  1
  Sn  Sn21  1  0.800110  0.461630  0.457328  1
  Sn  Sn22  1  0.699890  0.961630  0.542672  1
  Sn  Sn23  1  0.199890  0.538370  0.957328  1
  Sn  Sn24  1  0.699890  0.961630  0.957328  1
  Sn  Sn25  1  0.199890  0.538370  0.542672  1
  Sn  Sn26  1  0.300110  0.038370  0.457328  1
  Sn  Sn27  1  0.800110  0.461630  0.042672  1
  Sn  Sn28  1  0.561806  0.621919  0.750000  1
  Sn  Sn29  1  0.061806  0.878081  0.750000  1
  Sn  Sn30  1  0.438194  0.378081  0.250000  1
  Sn  Sn31  1  0.938194  0.121919  0.250000  1
  Sn  Sn32  1  0.324162  0.143180  0.750000  1
  Sn  Sn33  1  0.824162  0.356820  0.750000  1
  Sn  Sn34  1  0.675838  0.856820  0.250000  1
  Sn  Sn35  1  0.175838  0.643180  0.250000  1
