# generated using pymatgen
data_Ho3In4RuRh
_symmetry_space_group_name_H-M   'P 1'
_cell_length_a   7.89109600
_cell_length_b   7.89109685
_cell_length_c   3.77593700
_cell_angle_alpha   90.00000000
_cell_angle_beta   90.00000000
_cell_angle_gamma   120.00000483
_symmetry_Int_Tables_number   1
_chemical_formula_structural   Ho3In4RuRh
_chemical_formula_sum   'Ho3 In4 Ru1 Rh1'
_cell_volume   203.62450920
_cell_formula_units_Z   1
loop_
 _symmetry_equiv_pos_site_id
 _symmetry_equiv_pos_as_xyz
  1  'x, y, z'
loop_
 _atom_site_type_symbol
 _atom_site_label
 _atom_site_symmetry_multiplicity
 _atom_site_fract_x
 _atom_site_fract_y
 _atom_site_fract_z
 _atom_site_occupancy
  Ho  Ho0  1  0.380440  0.418030  0.000000  1
  Ho  Ho1  1  0.037590  0.619559  0.000000  1
  Ho  Ho2  1  0.581970  0.962411  0.000000  1
  In  In3  1  0.002842  0.258142  0.500000  1
  In  In4  1  0.666666  0.333334  0.500000  1
  In  In5  1  0.741859  0.744700  0.500000  1
  In  In6  1  0.255300  0.997159  0.500000  1
  Ru  Ru7  1  0.333333  0.666666  0.500000  1
  Rh  Rh8  1  0.000000  0.000000  0.000000  1
