# generated using pymatgen
data_Ce2Ta(TiSi2)2
_symmetry_space_group_name_H-M   'P 1'
_cell_length_a   7.04714000
_cell_length_b   7.07783607
_cell_length_c   6.98746067
_cell_angle_alpha   70.73560175
_cell_angle_beta   90.00000000
_cell_angle_gamma   90.00000000
_symmetry_Int_Tables_number   1
_chemical_formula_structural   Ce2Ta(TiSi2)2
_chemical_formula_sum   'Ce4 Ta2 Ti4 Si8'
_cell_volume   329.00886095
_cell_formula_units_Z   2
loop_
 _symmetry_equiv_pos_site_id
 _symmetry_equiv_pos_as_xyz
  1  'x, y, z'
loop_
 _atom_site_type_symbol
 _atom_site_label
 _atom_site_symmetry_multiplicity
 _atom_site_fract_x
 _atom_site_fract_y
 _atom_site_fract_z
 _atom_site_occupancy
  Ce  Ce0  1  0.659709  0.181529  0.437387  1
  Ce  Ce1  1  0.159709  0.818471  0.062613  1
  Ce  Ce2  1  0.340291  0.818471  0.562613  1
  Ce  Ce3  1  0.840291  0.181529  0.937387  1
  Ta  Ta4  1  0.500000  0.500000  0.000000  1
  Ta  Ta5  1  0.000000  0.500000  0.500000  1
  Ti  Ti6  1  0.672820  0.742042  0.250863  1
  Ti  Ti7  1  0.172820  0.257958  0.249137  1
  Ti  Ti8  1  0.327180  0.257958  0.749137  1
  Ti  Ti9  1  0.827180  0.742042  0.750863  1
  Si  Si10  1  0.870562  0.493556  0.131510  1
  Si  Si11  1  0.370562  0.506444  0.368490  1
  Si  Si12  1  0.129438  0.506444  0.868490  1
  Si  Si13  1  0.629438  0.493556  0.631510  1
  Si  Si14  1  0.541449  0.910113  0.876961  1
  Si  Si15  1  0.041449  0.089887  0.623039  1
  Si  Si16  1  0.958551  0.910113  0.376961  1
  Si  Si17  1  0.458551  0.089887  0.123039  1
