# generated using pymatgen
data_TaTi3Ga2(Co5B2)2
_symmetry_space_group_name_H-M   'P 1'
_cell_length_a   8.44878701
_cell_length_b   8.44878701
_cell_length_c   3.02810300
_cell_angle_alpha   90.00000000
_cell_angle_beta   90.00000000
_cell_angle_gamma   89.74444427
_symmetry_Int_Tables_number   1
_chemical_formula_structural   TaTi3Ga2(Co5B2)2
_chemical_formula_sum   'Ta1 Ti3 Ga2 Co10 B4'
_cell_volume   216.14990415
_cell_formula_units_Z   1
loop_
 _symmetry_equiv_pos_site_id
 _symmetry_equiv_pos_as_xyz
  1  'x, y, z'
loop_
 _atom_site_type_symbol
 _atom_site_label
 _atom_site_symmetry_multiplicity
 _atom_site_fract_x
 _atom_site_fract_y
 _atom_site_fract_z
 _atom_site_occupancy
  Ta  Ta0  1  0.824353  0.324353  0.000000  1
  Ti  Ti1  1  0.324467  0.174885  0.000000  1
  Ti  Ti2  1  0.674885  0.824467  0.000000  1
  Ti  Ti3  1  0.176511  0.676511  0.000000  1
  Ga  Ga4  1  0.000523  0.998743  0.000000  1
  Ga  Ga5  1  0.498743  0.500523  0.000000  1
  Co  Co6  1  0.499318  0.999318  0.500000  1
  Co  Co7  1  0.003784  0.503784  0.500000  1
  Co  Co8  1  0.071148  0.220848  0.500000  1
  Co  Co9  1  0.221225  0.929876  0.500000  1
  Co  Co10  1  0.778045  0.067171  0.500000  1
  Co  Co11  1  0.928342  0.780181  0.500000  1
  Co  Co12  1  0.429876  0.721225  0.500000  1
  Co  Co13  1  0.567171  0.278045  0.500000  1
  Co  Co14  1  0.720848  0.571148  0.500000  1
  Co  Co15  1  0.280181  0.428342  0.500000  1
  B  B16  1  0.619724  0.119724  0.000000  1
  B  B17  1  0.121943  0.379972  0.000000  1
  B  B18  1  0.879972  0.621943  0.000000  1
  B  B19  1  0.378943  0.878943  0.000000  1
