# generated using pymatgen
data_LiLa2BiAs
_symmetry_space_group_name_H-M   'P 1'
_cell_length_a   4.59048200
_cell_length_b   4.59048284
_cell_length_c   15.44095800
_cell_angle_alpha   90.00000000
_cell_angle_beta   90.00000000
_cell_angle_gamma   119.99999393
_symmetry_Int_Tables_number   1
_chemical_formula_structural   LiLa2BiAs
_chemical_formula_sum   'Li2 La4 Bi2 As2'
_cell_volume   281.78739174
_cell_formula_units_Z   2
loop_
 _symmetry_equiv_pos_site_id
 _symmetry_equiv_pos_as_xyz
  1  'x, y, z'
loop_
 _atom_site_type_symbol
 _atom_site_label
 _atom_site_symmetry_multiplicity
 _atom_site_fract_x
 _atom_site_fract_y
 _atom_site_fract_z
 _atom_site_occupancy
  Li  Li0  1  0.000000  0.000000  0.250000  1
  Li  Li1  1  0.000000  0.000000  0.750000  1
  La  La2  1  0.333333  0.666667  0.103662  1
  La  La3  1  0.333333  0.666667  0.396338  1
  La  La4  1  0.666667  0.333332  0.603662  1
  La  La5  1  0.666667  0.333332  0.896338  1
  Bi  Bi6  1  0.666667  0.333332  0.250000  1
  Bi  Bi7  1  0.333333  0.666667  0.750000  1
  As  As8  1  0.000000  0.000000  0.000000  1
  As  As9  1  0.000000  0.000000  0.500000  1
