# generated using pymatgen
data_Cs2TiTc11Se14
_symmetry_space_group_name_H-M   'P 1'
_cell_length_a   9.85346061
_cell_length_b   9.83142356
_cell_length_c   9.85947339
_cell_angle_alpha   60.76621347
_cell_angle_beta   60.58270224
_cell_angle_gamma   61.05361431
_symmetry_Int_Tables_number   1
_chemical_formula_structural   Cs2TiTc11Se14
_chemical_formula_sum   'Cs2 Ti1 Tc11 Se14'
_cell_volume   687.54958404
_cell_formula_units_Z   1
loop_
 _symmetry_equiv_pos_site_id
 _symmetry_equiv_pos_as_xyz
  1  'x, y, z'
loop_
 _atom_site_type_symbol
 _atom_site_label
 _atom_site_symmetry_multiplicity
 _atom_site_fract_x
 _atom_site_fract_y
 _atom_site_fract_z
 _atom_site_occupancy
  Cs  Cs0  1  0.377855  0.379158  0.377844  1
  Cs  Cs1  1  0.622355  0.621572  0.621458  1
  Ti  Ti2  1  0.300163  0.123360  0.002191  1
  Tc  Tc3  1  0.194311  0.883517  0.062728  1
  Tc  Tc4  1  0.888643  0.062980  0.193197  1
  Tc  Tc5  1  0.938972  0.806544  0.109825  1
  Tc  Tc6  1  0.809592  0.112980  0.935615  1
  Tc  Tc7  1  0.112587  0.938916  0.807913  1
  Tc  Tc8  1  0.997429  0.301799  0.121420  1
  Tc  Tc9  1  0.875904  0.005387  0.696347  1
  Tc  Tc10  1  0.124630  0.994761  0.300060  1
  Tc  Tc11  1  0.003971  0.696327  0.874152  1
  Tc  Tc12  1  0.695894  0.875711  0.007126  1
  Tc  Tc13  1  0.060551  0.197099  0.882630  1
  Se  Se14  1  0.986872  0.234545  0.644601  1
  Se  Se15  1  0.233524  0.645673  0.983936  1
  Se  Se16  1  0.648330  0.985851  0.232495  1
  Se  Se17  1  0.013564  0.765110  0.352559  1
  Se  Se18  1  0.766400  0.354580  0.012162  1
  Se  Se19  1  0.350780  0.013374  0.763701  1
  Se  Se20  1  0.166229  0.418101  0.818596  1
  Se  Se21  1  0.413632  0.809955  0.177612  1
  Se  Se22  1  0.824057  0.168458  0.413762  1
  Se  Se23  1  0.827999  0.587214  0.182675  1
  Se  Se24  1  0.590841  0.180514  0.828825  1
  Se  Se25  1  0.182463  0.831012  0.586557  1
  Se  Se26  1  0.776567  0.780390  0.781178  1
  Se  Se27  1  0.215886  0.225110  0.228833  1
