# generated using pymatgen
data_Lu12Os3Pt
_symmetry_space_group_name_H-M   'P 1'
_cell_length_a   7.21976100
_cell_length_b   8.85929900
_cell_length_c   6.25267989
_cell_angle_alpha   90.00000000
_cell_angle_beta   90.06072274
_cell_angle_gamma   90.00000000
_symmetry_Int_Tables_number   1
_chemical_formula_structural   Lu12Os3Pt
_chemical_formula_sum   'Lu12 Os3 Pt1'
_cell_volume   399.93382036
_cell_formula_units_Z   1
loop_
 _symmetry_equiv_pos_site_id
 _symmetry_equiv_pos_as_xyz
  1  'x, y, z'
loop_
 _atom_site_type_symbol
 _atom_site_label
 _atom_site_symmetry_multiplicity
 _atom_site_fract_x
 _atom_site_fract_y
 _atom_site_fract_z
 _atom_site_occupancy
  Lu  Lu0  1  0.671235  0.058149  0.334726  1
  Lu  Lu1  1  0.182184  0.442579  0.172371  1
  Lu  Lu2  1  0.323255  0.561191  0.671201  1
  Lu  Lu3  1  0.823232  0.934653  0.824416  1
  Lu  Lu4  1  0.323255  0.938809  0.671201  1
  Lu  Lu5  1  0.823232  0.565347  0.824416  1
  Lu  Lu6  1  0.671235  0.441851  0.334726  1
  Lu  Lu7  1  0.182184  0.057421  0.172371  1
  Lu  Lu8  1  0.532795  0.250000  0.877897  1
  Lu  Lu9  1  0.036508  0.250000  0.619571  1
  Lu  Lu10  1  0.464877  0.750000  0.119262  1
  Lu  Lu11  1  0.963001  0.750000  0.374598  1
  Os  Os12  1  0.384367  0.250000  0.464246  1
  Os  Os13  1  0.115198  0.750000  0.965942  1
  Os  Os14  1  0.614521  0.750000  0.531939  1
  Pt  Pt15  1  0.888921  0.250000  0.041117  1
