# generated using pymatgen
data_Dy3YGa7Ag5
_symmetry_space_group_name_H-M   'P 1'
_cell_length_a   4.36695500
_cell_length_b   7.02229582
_cell_length_c   10.32169810
_cell_angle_alpha   89.94803912
_cell_angle_beta   90.00000000
_cell_angle_gamma   90.00000000
_symmetry_Int_Tables_number   1
_chemical_formula_structural   Dy3YGa7Ag5
_chemical_formula_sum   'Dy3 Y1 Ga7 Ag5'
_cell_volume   316.52557812
_cell_formula_units_Z   1
loop_
 _symmetry_equiv_pos_site_id
 _symmetry_equiv_pos_as_xyz
  1  'x, y, z'
loop_
 _atom_site_type_symbol
 _atom_site_label
 _atom_site_symmetry_multiplicity
 _atom_site_fract_x
 _atom_site_fract_y
 _atom_site_fract_z
 _atom_site_occupancy
  Dy  Dy0  1  0.500000  0.782036  0.172349  1
  Dy  Dy1  1  0.500000  0.279010  0.328727  1
  Dy  Dy2  1  0.000000  0.721150  0.669872  1
  Y  Y3  1  0.000000  0.214936  0.829835  1
  Ga  Ga4  1  0.500000  0.922311  0.846371  1
  Ga  Ga5  1  0.500000  0.425114  0.654481  1
  Ga  Ga6  1  0.000000  0.078233  0.153306  1
  Ga  Ga7  1  0.000000  0.575951  0.344595  1
  Ga  Ga8  1  0.500000  0.202961  0.036225  1
  Ga  Ga9  1  0.000000  0.299147  0.535638  1
  Ga  Ga10  1  0.000000  0.795444  0.964030  1
  Ag  Ag11  1  0.500000  0.540507  0.903196  1
  Ag  Ag12  1  0.500000  0.046225  0.601089  1
  Ag  Ag13  1  0.000000  0.458285  0.097373  1
  Ag  Ag14  1  0.000000  0.961706  0.401323  1
  Ag  Ag15  1  0.500000  0.696986  0.461587  1
