# generated using pymatgen
data_Ba2GaP3Rh4
_symmetry_space_group_name_H-M   'P 1'
_cell_length_a   6.97150517
_cell_length_b   6.97150466
_cell_length_c   5.74978900
_cell_angle_alpha   90.00000000
_cell_angle_beta   90.00000000
_cell_angle_gamma   131.52757562
_symmetry_Int_Tables_number   1
_chemical_formula_structural   Ba2GaP3Rh4
_chemical_formula_sum   'Ba2 Ga1 P3 Rh4'
_cell_volume   209.20695171
_cell_formula_units_Z   1
loop_
 _symmetry_equiv_pos_site_id
 _symmetry_equiv_pos_as_xyz
  1  'x, y, z'
loop_
 _atom_site_type_symbol
 _atom_site_label
 _atom_site_symmetry_multiplicity
 _atom_site_fract_x
 _atom_site_fract_y
 _atom_site_fract_z
 _atom_site_occupancy
  Ba  Ba0  1  0.492931  0.507069  0.500000  1
  Ba  Ba1  1  0.991790  0.008210  0.000000  1
  Ga  Ga2  1  0.139975  0.860025  0.500000  1
  P  P3  1  0.656067  0.343933  0.000000  1
  P  P4  1  0.346975  0.653025  0.000000  1
  P  P5  1  0.846134  0.153866  0.500000  1
  Rh  Rh6  1  0.507109  0.001094  0.246064  1
  Rh  Rh7  1  0.998906  0.492891  0.753936  1
  Rh  Rh8  1  0.998906  0.492891  0.246064  1
  Rh  Rh9  1  0.507109  0.001094  0.753936  1
