# generated using pymatgen
data_Al6V12ZnNiN4
_symmetry_space_group_name_H-M   'P 1'
_cell_length_a   6.60229154
_cell_length_b   6.60124605
_cell_length_c   6.59603707
_cell_angle_alpha   89.98637642
_cell_angle_beta   89.90747803
_cell_angle_gamma   90.00066532
_symmetry_Int_Tables_number   1
_chemical_formula_structural   Al6V12ZnNiN4
_chemical_formula_sum   'Al6 V12 Zn1 Ni1 N4'
_cell_volume   287.47701560
_cell_formula_units_Z   1
loop_
 _symmetry_equiv_pos_site_id
 _symmetry_equiv_pos_as_xyz
  1  'x, y, z'
loop_
 _atom_site_type_symbol
 _atom_site_label
 _atom_site_symmetry_multiplicity
 _atom_site_fract_x
 _atom_site_fract_y
 _atom_site_fract_z
 _atom_site_occupancy
  Al  Al0  1  0.164768  0.810828  0.321782  1
  Al  Al1  1  0.315309  0.177361  0.825930  1
  Al  Al2  1  0.830502  0.329101  0.191551  1
  Al  Al3  1  0.693501  0.673678  0.665627  1
  Al  Al4  1  0.574842  0.428385  0.929376  1
  Al  Al5  1  0.427768  0.925380  0.569900  1
  V  V6  1  0.789466  0.959205  0.379627  1
  V  V7  1  0.707655  0.039456  0.871319  1
  V  V8  1  0.209431  0.459905  0.119216  1
  V  V9  1  0.289484  0.540545  0.627630  1
  V  V10  1  0.956569  0.377005  0.789690  1
  V  V11  1  0.043775  0.878113  0.706984  1
  V  V12  1  0.462701  0.126559  0.209163  1
  V  V13  1  0.539978  0.624625  0.290678  1
  V  V14  1  0.377063  0.790548  0.959222  1
  V  V15  1  0.872541  0.706955  0.039804  1
  V  V16  1  0.127728  0.210185  0.460606  1
  V  V17  1  0.621003  0.291156  0.541607  1
  Zn  Zn18  1  0.067704  0.069143  0.074583  1
  Ni  Ni19  1  0.931848  0.568388  0.429297  1
  N  N20  1  0.874919  0.129034  0.623895  1
  N  N21  1  0.627697  0.876152  0.126398  1
  N  N22  1  0.121997  0.629780  0.873492  1
  N  N23  1  0.371750  0.378514  0.372623  1
