# generated using pymatgen
data_ErTm2Mo(P3Rh4)2
_symmetry_space_group_name_H-M   'P 1'
_cell_length_a   3.89209400
_cell_length_b   11.05869400
_cell_length_c   12.81056500
_cell_angle_alpha   90.00000000
_cell_angle_beta   90.00000000
_cell_angle_gamma   90.00000000
_symmetry_Int_Tables_number   1
_chemical_formula_structural   ErTm2Mo(P3Rh4)2
_chemical_formula_sum   'Er2 Tm4 Mo2 P12 Rh16'
_cell_volume   551.38563323
_cell_formula_units_Z   2
loop_
 _symmetry_equiv_pos_site_id
 _symmetry_equiv_pos_as_xyz
  1  'x, y, z'
loop_
 _atom_site_type_symbol
 _atom_site_label
 _atom_site_symmetry_multiplicity
 _atom_site_fract_x
 _atom_site_fract_y
 _atom_site_fract_z
 _atom_site_occupancy
  Er  Er0  1  0.750000  0.250000  0.477777  1
  Er  Er1  1  0.250000  0.750000  0.522223  1
  Tm  Tm2  1  0.250000  0.933173  0.796893  1
  Tm  Tm3  1  0.250000  0.566827  0.796893  1
  Tm  Tm4  1  0.750000  0.066827  0.203107  1
  Tm  Tm5  1  0.750000  0.433173  0.203107  1
  Mo  Mo6  1  0.250000  0.250000  0.842729  1
  Mo  Mo7  1  0.750000  0.750000  0.157271  1
  P  P8  1  0.250000  0.250000  0.125511  1
  P  P9  1  0.750000  0.750000  0.874489  1
  P  P10  1  0.250000  0.250000  0.653466  1
  P  P11  1  0.750000  0.750000  0.346534  1
  P  P12  1  0.250000  0.434448  0.381856  1
  P  P13  1  0.250000  0.065552  0.381856  1
  P  P14  1  0.750000  0.565552  0.618144  1
  P  P15  1  0.750000  0.934448  0.618144  1
  P  P16  1  0.250000  0.902656  0.112805  1
  P  P17  1  0.250000  0.597344  0.112805  1
  P  P18  1  0.750000  0.097344  0.887195  1
  P  P19  1  0.750000  0.402656  0.887195  1
  Rh  Rh20  1  0.250000  0.250000  0.301099  1
  Rh  Rh21  1  0.750000  0.750000  0.698901  1
  Rh  Rh22  1  0.750000  0.250000  0.012366  1
  Rh  Rh23  1  0.250000  0.750000  0.987634  1
  Rh  Rh24  1  0.250000  0.418460  0.016894  1
  Rh  Rh25  1  0.250000  0.081540  0.016894  1
  Rh  Rh26  1  0.750000  0.581540  0.983106  1
  Rh  Rh27  1  0.750000  0.918460  0.983106  1
  Rh  Rh28  1  0.250000  0.454184  0.567721  1
  Rh  Rh29  1  0.250000  0.045816  0.567721  1
  Rh  Rh30  1  0.750000  0.545816  0.432279  1
  Rh  Rh31  1  0.750000  0.954184  0.432279  1
  Rh  Rh32  1  0.250000  0.875756  0.291526  1
  Rh  Rh33  1  0.250000  0.624244  0.291526  1
  Rh  Rh34  1  0.750000  0.124244  0.708474  1
  Rh  Rh35  1  0.750000  0.375756  0.708474  1
