# generated using pymatgen
data_NbAg(OF)2
_symmetry_space_group_name_H-M   'P 1'
_cell_length_a   5.63401000
_cell_length_b   7.87057754
_cell_length_c   8.42663875
_cell_angle_alpha   76.76211550
_cell_angle_beta   90.00000000
_cell_angle_gamma   90.00000000
_symmetry_Int_Tables_number   1
_chemical_formula_structural   NbAg(OF)2
_chemical_formula_sum   'Nb4 Ag4 O8 F8'
_cell_volume   363.73265533
_cell_formula_units_Z   4
loop_
 _symmetry_equiv_pos_site_id
 _symmetry_equiv_pos_as_xyz
  1  'x, y, z'
loop_
 _atom_site_type_symbol
 _atom_site_label
 _atom_site_symmetry_multiplicity
 _atom_site_fract_x
 _atom_site_fract_y
 _atom_site_fract_z
 _atom_site_occupancy
  Nb  Nb0  1  0.732449  0.679860  0.150025  1
  Nb  Nb1  1  0.232449  0.820140  0.849975  1
  Nb  Nb2  1  0.267551  0.320140  0.849975  1
  Nb  Nb3  1  0.767551  0.179860  0.150025  1
  Ag  Ag4  1  0.793570  0.108819  0.645430  1
  Ag  Ag5  1  0.206430  0.891181  0.354570  1
  Ag  Ag6  1  0.706430  0.608819  0.645430  1
  Ag  Ag7  1  0.293570  0.391181  0.354570  1
  O  O8  1  0.451016  0.784329  0.029851  1
  O  O9  1  0.951016  0.715671  0.970149  1
  O  O10  1  0.837089  0.947265  0.171995  1
  O  O11  1  0.662911  0.447265  0.171995  1
  O  O12  1  0.548984  0.215671  0.970149  1
  O  O13  1  0.048984  0.284329  0.029851  1
  O  O14  1  0.162911  0.052735  0.828005  1
  O  O15  1  0.337089  0.552735  0.828005  1
  F  F16  1  0.447263  0.309809  0.637650  1
  F  F17  1  0.509842  0.876577  0.687632  1
  F  F18  1  0.947263  0.190191  0.362350  1
  F  F19  1  0.490158  0.123423  0.312368  1
  F  F20  1  0.009842  0.623423  0.312368  1
  F  F21  1  0.990158  0.376577  0.687632  1
  F  F22  1  0.552737  0.690191  0.362350  1
  F  F23  1  0.052737  0.809809  0.637650  1
