# generated using pymatgen
data_V2Co20CuB6
_symmetry_space_group_name_H-M   'P 1'
_cell_length_a   7.36768666
_cell_length_b   7.36768736
_cell_length_c   7.36768800
_cell_angle_alpha   60.00000609
_cell_angle_beta   60.00000294
_cell_angle_gamma   60.00000511
_symmetry_Int_Tables_number   1
_chemical_formula_structural   V2Co20CuB6
_chemical_formula_sum   'V2 Co20 Cu1 B6'
_cell_volume   282.79948276
_cell_formula_units_Z   1
loop_
 _symmetry_equiv_pos_site_id
 _symmetry_equiv_pos_as_xyz
  1  'x, y, z'
loop_
 _atom_site_type_symbol
 _atom_site_label
 _atom_site_symmetry_multiplicity
 _atom_site_fract_x
 _atom_site_fract_y
 _atom_site_fract_z
 _atom_site_occupancy
  V  V0  1  0.250000  0.250000  0.250000  1
  V  V1  1  0.750000  0.750000  0.750000  1
  Co  Co2  1  0.858626  0.380459  0.380459  1
  Co  Co3  1  0.380459  0.858626  0.380459  1
  Co  Co4  1  0.380459  0.380459  0.858626  1
  Co  Co5  1  0.380459  0.380459  0.380459  1
  Co  Co6  1  0.141374  0.619541  0.619541  1
  Co  Co7  1  0.619541  0.141374  0.619541  1
  Co  Co8  1  0.619541  0.619541  0.141374  1
  Co  Co9  1  0.619541  0.619541  0.619541  1
  Co  Co10  1  0.659085  0.000000  0.000000  1
  Co  Co11  1  0.659085  0.000000  0.340915  1
  Co  Co12  1  0.659085  0.340915  0.000000  1
  Co  Co13  1  0.000000  0.659085  0.340915  1
  Co  Co14  1  0.000000  0.659085  0.000000  1
  Co  Co15  1  0.340915  0.659085  0.000000  1
  Co  Co16  1  0.000000  0.340915  0.659085  1
  Co  Co17  1  0.340915  0.000000  0.659085  1
  Co  Co18  1  0.000000  0.000000  0.659085  1
  Co  Co19  1  0.340915  0.000000  0.000000  1
  Co  Co20  1  0.000000  0.340915  0.000000  1
  Co  Co21  1  0.000000  0.000000  0.340915  1
  Cu  Cu22  1  0.000000  0.000000  0.000000  1
  B  B23  1  0.724810  0.275190  0.275190  1
  B  B24  1  0.724810  0.275190  0.724810  1
  B  B25  1  0.724810  0.724810  0.275190  1
  B  B26  1  0.275190  0.724810  0.724810  1
  B  B27  1  0.275190  0.724810  0.275190  1
  B  B28  1  0.275190  0.275190  0.724810  1
