# generated using pymatgen
data_Sm2TmLu(ReB6)2
_symmetry_space_group_name_H-M   'P 1'
_cell_length_a   3.68257100
_cell_length_b   9.16670402
_cell_length_c   11.59736203
_cell_angle_alpha   89.99177680
_cell_angle_beta   90.00000000
_cell_angle_gamma   90.00000000
_symmetry_Int_Tables_number   1
_chemical_formula_structural   Sm2TmLu(ReB6)2
_chemical_formula_sum   'Sm4 Tm2 Lu2 Re4 B24'
_cell_volume   391.49259138
_cell_formula_units_Z   2
loop_
 _symmetry_equiv_pos_site_id
 _symmetry_equiv_pos_as_xyz
  1  'x, y, z'
loop_
 _atom_site_type_symbol
 _atom_site_label
 _atom_site_symmetry_multiplicity
 _atom_site_fract_x
 _atom_site_fract_y
 _atom_site_fract_z
 _atom_site_occupancy
  Sm  Sm0  1  0.000000  0.322639  0.414248  1
  Sm  Sm1  1  0.000000  0.677361  0.585752  1
  Sm  Sm2  1  0.000000  0.822900  0.085868  1
  Sm  Sm3  1  0.000000  0.177100  0.914132  1
  Tm  Tm4  1  0.000000  0.443223  0.130360  1
  Tm  Tm5  1  0.000000  0.556777  0.869640  1
  Lu  Lu6  1  0.000000  0.943425  0.369861  1
  Lu  Lu7  1  0.000000  0.056575  0.630139  1
  Re  Re8  1  0.000000  0.640206  0.319606  1
  Re  Re9  1  0.000000  0.359794  0.680394  1
  Re  Re10  1  0.000000  0.139154  0.180985  1
  Re  Re11  1  0.000000  0.860846  0.819015  1
  B  B12  1  0.500000  0.554660  0.431346  1
  B  B13  1  0.500000  0.445340  0.568654  1
  B  B14  1  0.500000  0.054334  0.068856  1
  B  B15  1  0.500000  0.945666  0.931144  1
  B  B16  1  0.500000  0.751424  0.416931  1
  B  B17  1  0.500000  0.248576  0.583069  1
  B  B18  1  0.500000  0.250442  0.083292  1
  B  B19  1  0.500000  0.749558  0.916708  1
  B  B20  1  0.500000  0.792984  0.265876  1
  B  B21  1  0.500000  0.207016  0.734124  1
  B  B22  1  0.500000  0.292075  0.234481  1
  B  B23  1  0.500000  0.707925  0.765519  1
  B  B24  1  0.500000  0.629968  0.185642  1
  B  B25  1  0.500000  0.370032  0.814358  1
  B  B26  1  0.500000  0.129146  0.314957  1
  B  B27  1  0.500000  0.870854  0.685043  1
  B  B28  1  0.500000  0.982498  0.213560  1
  B  B29  1  0.500000  0.017502  0.786440  1
  B  B30  1  0.500000  0.483054  0.286989  1
  B  B31  1  0.500000  0.516946  0.713011  1
  B  B32  1  0.500000  0.596900  0.026739  1
  B  B33  1  0.500000  0.403100  0.973261  1
  B  B34  1  0.500000  0.095992  0.473458  1
  B  B35  1  0.500000  0.904008  0.526542  1
