# generated using pymatgen
data_Ca8YbSmIr4
_symmetry_space_group_name_H-M   'P 1'
_cell_length_a   6.52382783
_cell_length_b   7.53148957
_cell_length_c   8.59677900
_cell_angle_alpha   97.30247904
_cell_angle_beta   112.29865537
_cell_angle_gamma   90.00000148
_symmetry_Int_Tables_number   1
_chemical_formula_structural   Ca8YbSmIr4
_chemical_formula_sum   'Ca8 Yb1 Sm1 Ir4'
_cell_volume   387.10251006
_cell_formula_units_Z   1
loop_
 _symmetry_equiv_pos_site_id
 _symmetry_equiv_pos_as_xyz
  1  'x, y, z'
loop_
 _atom_site_type_symbol
 _atom_site_label
 _atom_site_symmetry_multiplicity
 _atom_site_fract_x
 _atom_site_fract_y
 _atom_site_fract_z
 _atom_site_occupancy
  Ca  Ca0  1  0.971033  0.918691  0.172763  1
  Ca  Ca1  1  0.798272  0.581309  0.827237  1
  Ca  Ca2  1  0.024229  0.079903  0.825226  1
  Ca  Ca3  1  0.199001  0.420097  0.174774  1
  Ca  Ca4  1  0.636984  0.821362  0.433923  1
  Ca  Ca5  1  0.203060  0.678638  0.566077  1
  Ca  Ca6  1  0.361215  0.178947  0.561877  1
  Ca  Ca7  1  0.799337  0.321053  0.438123  1
  Yb  Yb8  1  0.430373  0.750000  0.000000  1
  Sm  Sm9  1  0.566728  0.250000  0.000000  1
  Ir  Ir10  1  0.815861  0.573266  0.213581  1
  Ir  Ir11  1  0.602280  0.926734  0.786419  1
  Ir  Ir12  1  0.188907  0.418413  0.786186  1
  Ir  Ir13  1  0.402720  0.081587  0.213814  1
