# generated using pymatgen
data_Pa7(Pd3S4)8
_symmetry_space_group_name_H-M   'P 1'
_cell_length_a   11.58880043
_cell_length_b   11.58880037
_cell_length_c   11.58880000
_cell_angle_alpha   109.47121824
_cell_angle_beta   109.47121813
_cell_angle_gamma   109.47122325
_symmetry_Int_Tables_number   1
_chemical_formula_structural   Pa7(Pd3S4)8
_chemical_formula_sum   'Pa7 Pd24 S32'
_cell_volume   1198.10134371
_cell_formula_units_Z   1
loop_
 _symmetry_equiv_pos_site_id
 _symmetry_equiv_pos_as_xyz
  1  'x, y, z'
loop_
 _atom_site_type_symbol
 _atom_site_label
 _atom_site_symmetry_multiplicity
 _atom_site_fract_x
 _atom_site_fract_y
 _atom_site_fract_z
 _atom_site_occupancy
  Pa  Pa0  1  0.500000  0.500000  0.000000  1
  Pa  Pa1  1  0.000000  0.500000  0.500000  1
  Pa  Pa2  1  0.500000  0.000000  0.000000  1
  Pa  Pa3  1  0.000000  0.000000  0.500000  1
  Pa  Pa4  1  0.500000  0.000000  0.500000  1
  Pa  Pa5  1  0.500000  0.500000  0.500000  1
  Pa  Pa6  1  0.000000  0.500000  0.000000  1
  Pd  Pd7  1  0.249026  0.130273  0.379299  1
  Pd  Pd8  1  0.750974  0.130273  0.881247  1
  Pd  Pd9  1  0.622309  0.372807  0.750498  1
  Pd  Pd10  1  0.130273  0.379299  0.249026  1
  Pd  Pd11  1  0.249502  0.377691  0.627193  1
  Pd  Pd12  1  0.750498  0.377691  0.128187  1
  Pd  Pd13  1  0.620701  0.750974  0.869727  1
  Pd  Pd14  1  0.372807  0.750498  0.622309  1
  Pd  Pd15  1  0.881247  0.750974  0.130273  1
  Pd  Pd16  1  0.128187  0.750498  0.377691  1
  Pd  Pd17  1  0.249502  0.622309  0.871813  1
  Pd  Pd18  1  0.750498  0.622309  0.372807  1
  Pd  Pd19  1  0.130273  0.881247  0.750974  1
  Pd  Pd20  1  0.622309  0.871813  0.249502  1
  Pd  Pd21  1  0.869727  0.118753  0.249026  1
  Pd  Pd22  1  0.377691  0.128187  0.750498  1
  Pd  Pd23  1  0.249026  0.869727  0.118753  1
  Pd  Pd24  1  0.750974  0.869727  0.620701  1
  Pd  Pd25  1  0.627193  0.249502  0.377691  1
  Pd  Pd26  1  0.871813  0.249502  0.622309  1
  Pd  Pd27  1  0.118753  0.249026  0.869727  1
  Pd  Pd28  1  0.379299  0.249026  0.130273  1
  Pd  Pd29  1  0.869727  0.620701  0.750974  1
  Pd  Pd30  1  0.377691  0.627193  0.249502  1
  S  S31  1  0.498387  0.248476  0.499750  1
  S  S32  1  0.000000  0.263512  0.000000  1
  S  S33  1  0.248476  0.499750  0.498387  1
  S  S34  1  0.750089  0.501613  0.001363  1
  S  S35  1  0.736488  0.736488  0.736488  1
  S  S36  1  0.251274  0.751524  0.249911  1
  S  S37  1  0.000000  0.736488  0.000000  1
  S  S38  1  0.500250  0.501613  0.751524  1
  S  S39  1  0.001363  0.499750  0.251274  1
  S  S40  1  0.501613  0.751524  0.500250  1
  S  S41  1  0.500250  0.748726  0.998637  1
  S  S42  1  0.000000  0.000000  0.263512  1
  S  S43  1  0.248476  0.750089  0.748726  1
  S  S44  1  0.736488  0.000000  0.000000  1
  S  S45  1  0.750089  0.748726  0.248476  1
  S  S46  1  0.001363  0.750089  0.501613  1
  S  S47  1  0.251274  0.001363  0.499750  1
  S  S48  1  0.501613  0.001363  0.750089  1
  S  S49  1  0.263512  0.000000  0.000000  1
  S  S50  1  0.751524  0.249911  0.251274  1
  S  S51  1  0.748726  0.998637  0.500250  1
  S  S52  1  0.249911  0.251274  0.751524  1
  S  S53  1  0.498387  0.998637  0.249911  1
  S  S54  1  0.998637  0.249911  0.498387  1
  S  S55  1  0.000000  0.000000  0.736488  1
  S  S56  1  0.499750  0.251274  0.001363  1
  S  S57  1  0.998637  0.500250  0.748726  1
  S  S58  1  0.499750  0.498387  0.248476  1
  S  S59  1  0.263512  0.263512  0.263512  1
  S  S60  1  0.751524  0.500250  0.501613  1
  S  S61  1  0.748726  0.248476  0.750089  1
  S  S62  1  0.249911  0.498387  0.998637  1
