# generated using pymatgen
data_InPbBr2Cl
_symmetry_space_group_name_H-M   'P 1'
_cell_length_a   7.57534492
_cell_length_b   7.57534461
_cell_length_c   10.67359800
_cell_angle_alpha   90.00000000
_cell_angle_beta   90.00000000
_cell_angle_gamma   145.73631353
_symmetry_Int_Tables_number   1
_chemical_formula_structural   InPbBr2Cl
_chemical_formula_sum   'In2 Pb2 Br4 Cl2'
_cell_volume   344.84653354
_cell_formula_units_Z   2
loop_
 _symmetry_equiv_pos_site_id
 _symmetry_equiv_pos_as_xyz
  1  'x, y, z'
loop_
 _atom_site_type_symbol
 _atom_site_label
 _atom_site_symmetry_multiplicity
 _atom_site_fract_x
 _atom_site_fract_y
 _atom_site_fract_z
 _atom_site_occupancy
  In  In0  1  0.741488  0.258512  0.750000  1
  In  In1  1  0.258512  0.741488  0.250000  1
  Pb  Pb2  1  0.000000  0.000000  0.500000  1
  Pb  Pb3  1  0.000000  0.000000  0.000000  1
  Br  Br4  1  0.638018  0.361982  0.442020  1
  Br  Br5  1  0.361982  0.638018  0.942020  1
  Br  Br6  1  0.638018  0.361982  0.057980  1
  Br  Br7  1  0.361982  0.638018  0.557980  1
  Cl  Cl8  1  0.084066  0.915934  0.750000  1
  Cl  Cl9  1  0.915934  0.084066  0.250000  1
