# generated using pymatgen
data_TmLu3Hf4(PtRh)2
_symmetry_space_group_name_H-M   'P 1'
_cell_length_a   4.63360700
_cell_length_b   6.91000263
_cell_length_c   8.17131400
_cell_angle_alpha   90.05818843
_cell_angle_beta   90.00000000
_cell_angle_gamma   90.00000000
_symmetry_Int_Tables_number   1
_chemical_formula_structural   TmLu3Hf4(PtRh)2
_chemical_formula_sum   'Tm1 Lu3 Hf4 Pt2 Rh2'
_cell_volume   261.63092988
_cell_formula_units_Z   1
loop_
 _symmetry_equiv_pos_site_id
 _symmetry_equiv_pos_as_xyz
  1  'x, y, z'
loop_
 _atom_site_type_symbol
 _atom_site_label
 _atom_site_symmetry_multiplicity
 _atom_site_fract_x
 _atom_site_fract_y
 _atom_site_fract_z
 _atom_site_occupancy
  Tm  Tm0  1  0.250000  0.016331  0.322747  1
  Lu  Lu1  1  0.250000  0.516865  0.176928  1
  Lu  Lu2  1  0.750000  0.483502  0.821995  1
  Lu  Lu3  1  0.750000  0.983861  0.678205  1
  Hf  Hf4  1  0.250000  0.641704  0.577877  1
  Hf  Hf5  1  0.750000  0.353703  0.425918  1
  Hf  Hf6  1  0.750000  0.853276  0.073365  1
  Hf  Hf7  1  0.250000  0.141809  0.922327  1
  Pt  Pt8  1  0.750000  0.237285  0.095319  1
  Pt  Pt9  1  0.750000  0.736470  0.404620  1
  Rh  Rh10  1  0.250000  0.767327  0.907930  1
  Rh  Rh11  1  0.250000  0.267868  0.592766  1
