# generated using pymatgen
data_Nd8Zn(Si4Pd)3
_symmetry_space_group_name_H-M   'P 1'
_cell_length_a   8.26154200
_cell_length_b   8.26154352
_cell_length_c   8.53438000
_cell_angle_alpha   90.00000000
_cell_angle_beta   90.00000000
_cell_angle_gamma   119.99999392
_symmetry_Int_Tables_number   1
_chemical_formula_structural   Nd8Zn(Si4Pd)3
_chemical_formula_sum   'Nd8 Zn1 Si12 Pd3'
_cell_volume   504.45791962
_cell_formula_units_Z   1
loop_
 _symmetry_equiv_pos_site_id
 _symmetry_equiv_pos_as_xyz
  1  'x, y, z'
loop_
 _atom_site_type_symbol
 _atom_site_label
 _atom_site_symmetry_multiplicity
 _atom_site_fract_x
 _atom_site_fract_y
 _atom_site_fract_z
 _atom_site_occupancy
  Nd  Nd0  1  0.499651  0.500349  0.748915  1
  Nd  Nd1  1  0.500729  0.499271  0.250968  1
  Nd  Nd2  1  0.000698  0.500349  0.748915  1
  Nd  Nd3  1  0.998542  0.499271  0.250968  1
  Nd  Nd4  1  0.499651  0.999302  0.748915  1
  Nd  Nd5  1  0.500729  0.001458  0.250968  1
  Nd  Nd6  1  0.000000  0.000000  0.749093  1
  Nd  Nd7  1  0.000000  0.000000  0.251353  1
  Zn  Zn8  1  0.666667  0.333333  0.995840  1
  Si  Si9  1  0.835182  0.164818  0.000709  1
  Si  Si10  1  0.167411  0.832589  0.999674  1
  Si  Si11  1  0.329636  0.164818  0.000709  1
  Si  Si12  1  0.165920  0.834080  0.499412  1
  Si  Si13  1  0.665178  0.832589  0.999674  1
  Si  Si14  1  0.834128  0.165872  0.500667  1
  Si  Si15  1  0.835182  0.670364  0.000709  1
  Si  Si16  1  0.668160  0.834080  0.499412  1
  Si  Si17  1  0.167411  0.334822  0.999674  1
  Si  Si18  1  0.331745  0.165872  0.500667  1
  Si  Si19  1  0.165920  0.331840  0.499412  1
  Si  Si20  1  0.834128  0.668255  0.500667  1
  Pd  Pd21  1  0.333333  0.666667  0.002557  1
  Pd  Pd22  1  0.333333  0.666667  0.498417  1
  Pd  Pd23  1  0.666667  0.333333  0.501704  1
