# generated using pymatgen
data_Tb8Dy11LuPb16
_symmetry_space_group_name_H-M   'P 1'
_cell_length_a   8.22467900
_cell_length_b   8.31117621
_cell_length_c   15.68960500
_cell_angle_alpha   90.00000000
_cell_angle_beta   90.00000000
_cell_angle_gamma   90.01292592
_symmetry_Int_Tables_number   1
_chemical_formula_structural   Tb8Dy11LuPb16
_chemical_formula_sum   'Tb8 Dy11 Lu1 Pb16'
_cell_volume   1072.49048052
_cell_formula_units_Z   1
loop_
 _symmetry_equiv_pos_site_id
 _symmetry_equiv_pos_as_xyz
  1  'x, y, z'
loop_
 _atom_site_type_symbol
 _atom_site_label
 _atom_site_symmetry_multiplicity
 _atom_site_fract_x
 _atom_site_fract_y
 _atom_site_fract_z
 _atom_site_occupancy
  Tb  Tb0  1  0.534245  0.323250  0.900085  1
  Tb  Tb1  1  0.034154  0.176760  0.599800  1
  Tb  Tb2  1  0.465587  0.676976  0.399909  1
  Tb  Tb3  1  0.966002  0.823459  0.100130  1
  Tb  Tb4  1  0.465587  0.676976  0.100091  1
  Tb  Tb5  1  0.966002  0.823459  0.399870  1
  Tb  Tb6  1  0.534245  0.323250  0.599915  1
  Tb  Tb7  1  0.034154  0.176760  0.900200  1
  Dy  Dy8  1  0.376506  0.840979  0.879477  1
  Dy  Dy9  1  0.876479  0.658913  0.620640  1
  Dy  Dy10  1  0.623051  0.158712  0.379006  1
  Dy  Dy11  1  0.123758  0.340948  0.120952  1
  Dy  Dy12  1  0.623051  0.158712  0.120994  1
  Dy  Dy13  1  0.123758  0.340948  0.379048  1
  Dy  Dy14  1  0.376506  0.840979  0.620523  1
  Dy  Dy15  1  0.876479  0.658913  0.879360  1
  Dy  Dy16  1  0.208383  0.504220  0.750000  1
  Dy  Dy17  1  0.708384  0.995854  0.750000  1
  Dy  Dy18  1  0.791748  0.495904  0.250000  1
  Lu  Lu19  1  0.291402  0.004393  0.250000  1
  Pb  Pb20  1  0.282132  0.033999  0.043535  1
  Pb  Pb21  1  0.782114  0.465840  0.457039  1
  Pb  Pb22  1  0.717917  0.965807  0.542362  1
  Pb  Pb23  1  0.217832  0.534060  0.957668  1
  Pb  Pb24  1  0.717917  0.965807  0.957638  1
  Pb  Pb25  1  0.217832  0.534060  0.542332  1
  Pb  Pb26  1  0.282132  0.033999  0.456465  1
  Pb  Pb27  1  0.782114  0.465840  0.042961  1
  Pb  Pb28  1  0.572189  0.626466  0.750000  1
  Pb  Pb29  1  0.072257  0.873657  0.750000  1
  Pb  Pb30  1  0.427763  0.373007  0.250000  1
  Pb  Pb31  1  0.929035  0.125898  0.250000  1
  Pb  Pb32  1  0.345375  0.152311  0.750000  1
  Pb  Pb33  1  0.845452  0.347294  0.750000  1
  Pb  Pb34  1  0.653818  0.847614  0.250000  1
  Pb  Pb35  1  0.154641  0.653973  0.250000  1
