# generated using pymatgen
data_MnSi4Pt3
_symmetry_space_group_name_H-M   'P 1'
_cell_length_a   3.46767700
_cell_length_b   5.48075350
_cell_length_c   6.11776082
_cell_angle_alpha   89.43334484
_cell_angle_beta   90.00000000
_cell_angle_gamma   90.00000000
_symmetry_Int_Tables_number   1
_chemical_formula_structural   MnSi4Pt3
_chemical_formula_sum   'Mn1 Si4 Pt3'
_cell_volume   116.26531211
_cell_formula_units_Z   1
loop_
 _symmetry_equiv_pos_site_id
 _symmetry_equiv_pos_as_xyz
  1  'x, y, z'
loop_
 _atom_site_type_symbol
 _atom_site_label
 _atom_site_symmetry_multiplicity
 _atom_site_fract_x
 _atom_site_fract_y
 _atom_site_fract_z
 _atom_site_occupancy
  Mn  Mn0  1  0.250000  0.504587  0.698306  1
  Si  Si1  1  0.250000  0.661964  0.056201  1
  Si  Si2  1  0.750000  0.334050  0.913737  1
  Si  Si3  1  0.250000  0.192104  0.431943  1
  Si  Si4  1  0.750000  0.796705  0.592313  1
  Pt  Pt5  1  0.750000  0.502082  0.308667  1
  Pt  Pt6  1  0.250000  0.004977  0.797308  1
  Pt  Pt7  1  0.750000  0.003532  0.201525  1
