# generated using pymatgen
data_Pu5Np3(TcB6)4
_symmetry_space_group_name_H-M   'P 1'
_cell_length_a   3.62508400
_cell_length_b   9.30209603
_cell_length_c   11.36073904
_cell_angle_alpha   90.00930710
_cell_angle_beta   90.00000000
_cell_angle_gamma   90.00000000
_symmetry_Int_Tables_number   1
_chemical_formula_structural   Pu5Np3(TcB6)4
_chemical_formula_sum   'Pu5 Np3 Tc4 B24'
_cell_volume   383.09410692
_cell_formula_units_Z   1
loop_
 _symmetry_equiv_pos_site_id
 _symmetry_equiv_pos_as_xyz
  1  'x, y, z'
loop_
 _atom_site_type_symbol
 _atom_site_label
 _atom_site_symmetry_multiplicity
 _atom_site_fract_x
 _atom_site_fract_y
 _atom_site_fract_z
 _atom_site_occupancy
  Pu  Pu0  1  0.000000  0.338144  0.407240  1
  Pu  Pu1  1  0.000000  0.662357  0.593036  1
  Pu  Pu2  1  0.000000  0.837468  0.093281  1
  Pu  Pu3  1  0.000000  0.162716  0.907252  1
  Pu  Pu4  1  0.000000  0.958140  0.398793  1
  Np  Np5  1  0.000000  0.042017  0.601820  1
  Np  Np6  1  0.000000  0.458791  0.099446  1
  Np  Np7  1  0.000000  0.541118  0.900705  1
  Tc  Tc8  1  0.000000  0.645197  0.318382  1
  Tc  Tc9  1  0.000000  0.353341  0.681796  1
  Tc  Tc10  1  0.000000  0.148381  0.180119  1
  Tc  Tc11  1  0.000000  0.852795  0.818889  1
  B  B12  1  0.500000  0.552451  0.431288  1
  B  B13  1  0.500000  0.446799  0.568931  1
  B  B14  1  0.500000  0.052711  0.068714  1
  B  B15  1  0.500000  0.947282  0.931273  1
  B  B16  1  0.500000  0.743074  0.423119  1
  B  B17  1  0.500000  0.255291  0.577301  1
  B  B18  1  0.500000  0.244167  0.076611  1
  B  B19  1  0.500000  0.756342  0.923089  1
  B  B20  1  0.500000  0.804158  0.274116  1
  B  B21  1  0.500000  0.194513  0.725959  1
  B  B22  1  0.500000  0.305189  0.225429  1
  B  B23  1  0.500000  0.695019  0.774434  1
  B  B24  1  0.500000  0.645378  0.188239  1
  B  B25  1  0.500000  0.354494  0.811789  1
  B  B26  1  0.500000  0.146245  0.311296  1
  B  B27  1  0.500000  0.855188  0.688201  1
  B  B28  1  0.500000  0.989768  0.219486  1
  B  B29  1  0.500000  0.011126  0.779732  1
  B  B30  1  0.500000  0.488954  0.279299  1
  B  B31  1  0.500000  0.510639  0.720562  1
  B  B32  1  0.500000  0.641401  0.039046  1
  B  B33  1  0.500000  0.359019  0.960818  1
  B  B34  1  0.500000  0.142754  0.460746  1
  B  B35  1  0.500000  0.857575  0.539764  1
