# generated using pymatgen
data_Y3HoAl18(Ir2Pd)2
_symmetry_space_group_name_H-M   'P 1'
_cell_length_a   7.58071726
_cell_length_b   7.58329791
_cell_length_c   9.47836107
_cell_angle_alpha   89.95463760
_cell_angle_beta   89.93223246
_cell_angle_gamma   119.60268580
_symmetry_Int_Tables_number   1
_chemical_formula_structural   Y3HoAl18(Ir2Pd)2
_chemical_formula_sum   'Y3 Ho1 Al18 Ir4 Pd2'
_cell_volume   473.75772664
_cell_formula_units_Z   1
loop_
 _symmetry_equiv_pos_site_id
 _symmetry_equiv_pos_as_xyz
  1  'x, y, z'
loop_
 _atom_site_type_symbol
 _atom_site_label
 _atom_site_symmetry_multiplicity
 _atom_site_fract_x
 _atom_site_fract_y
 _atom_site_fract_z
 _atom_site_occupancy
  Y  Y0  1  0.995480  0.670735  0.251559  1
  Y  Y1  1  0.004577  0.329308  0.748428  1
  Y  Y2  1  0.670646  0.995452  0.251572  1
  Ho  Ho3  1  0.329289  0.004556  0.748380  1
  Al  Al4  1  0.127868  0.127887  0.250618  1
  Al  Al5  1  0.872398  0.872130  0.749379  1
  Al  Al6  1  0.001303  0.331536  0.077406  1
  Al  Al7  1  0.999024  0.668750  0.922312  1
  Al  Al8  1  0.000274  0.665194  0.574510  1
  Al  Al9  1  0.335062  0.999968  0.426066  1
  Al  Al10  1  0.000009  0.335091  0.425743  1
  Al  Al11  1  0.664618  0.000015  0.574517  1
  Al  Al12  1  0.668100  0.998751  0.922295  1
  Al  Al13  1  0.331610  0.001249  0.077100  1
  Al  Al14  1  0.332574  0.332342  0.549978  1
  Al  Al15  1  0.667426  0.667440  0.450344  1
  Al  Al16  1  0.668718  0.668675  0.058142  1
  Al  Al17  1  0.331329  0.331100  0.941469  1
  Al  Al18  1  0.340230  0.547249  0.253106  1
  Al  Al19  1  0.659325  0.452291  0.746932  1
  Al  Al20  1  0.547291  0.340256  0.253080  1
  Al  Al21  1  0.452627  0.659976  0.746952  1
  Ir  Ir22  1  0.328155  0.671924  0.500104  1
  Ir  Ir23  1  0.671755  0.328034  0.500069  1
  Ir  Ir24  1  0.000154  0.000052  0.999859  1
  Ir  Ir25  1  0.000181  0.000056  0.500163  1
  Pd  Pd26  1  0.672266  0.327679  0.999954  1
  Pd  Pd27  1  0.327714  0.672304  0.999965  1
