# generated using pymatgen
data_Er11In9IrRu3
_symmetry_space_group_name_H-M   'P 1'
_cell_length_a   12.98658900
_cell_length_b   13.01748547
_cell_length_c   3.67707900
_cell_angle_alpha   90.00000000
_cell_angle_beta   90.00000000
_cell_angle_gamma   111.98519506
_symmetry_Int_Tables_number   1
_chemical_formula_structural   Er11In9IrRu3
_chemical_formula_sum   'Er11 In9 Ir1 Ru3'
_cell_volume   576.41641712
_cell_formula_units_Z   1
loop_
 _symmetry_equiv_pos_site_id
 _symmetry_equiv_pos_as_xyz
  1  'x, y, z'
loop_
 _atom_site_type_symbol
 _atom_site_label
 _atom_site_symmetry_multiplicity
 _atom_site_fract_x
 _atom_site_fract_y
 _atom_site_fract_z
 _atom_site_occupancy
  Er  Er0  1  0.417378  0.080955  0.000000  1
  Er  Er1  1  0.581560  0.918269  0.000000  1
  Er  Er2  1  0.082544  0.418373  0.000000  1
  Er  Er3  1  0.922348  0.583222  0.000000  1
  Er  Er4  1  0.160793  0.838882  0.000000  1
  Er  Er5  1  0.837221  0.161257  0.000000  1
  Er  Er6  1  0.373809  0.625556  0.000000  1
  Er  Er7  1  0.626058  0.374495  0.000000  1
  Er  Er8  1  0.311873  0.311401  0.000000  1
  Er  Er9  1  0.687208  0.688023  0.000000  1
  Er  Er10  1  0.000097  0.000463  0.000000  1
  In  In11  1  0.368363  0.845625  0.500000  1
  In  In12  1  0.629091  0.155977  0.500000  1
  In  In13  1  0.846500  0.368683  0.500000  1
  In  In14  1  0.155854  0.631037  0.500000  1
  In  In15  1  0.218677  0.074391  0.500000  1
  In  In16  1  0.779876  0.924745  0.500000  1
  In  In17  1  0.073704  0.218780  0.500000  1
  In  In18  1  0.926050  0.782663  0.500000  1
  In  In19  1  0.500602  0.499025  0.500000  1
  Ir  Ir20  1  0.751922  0.549334  0.500000  1
  Ru  Ru21  1  0.447839  0.250679  0.500000  1
  Ru  Ru22  1  0.546719  0.746521  0.500000  1
  Ru  Ru23  1  0.253919  0.451644  0.500000  1
