# generated using pymatgen
data_Ho5Th3(MgRu)2
_symmetry_space_group_name_H-M   'P 1'
_cell_length_a   9.72041670
_cell_length_b   9.80470070
_cell_length_c   9.80470120
_cell_angle_alpha   59.43207700
_cell_angle_beta   60.28396589
_cell_angle_gamma   60.28395912
_symmetry_Int_Tables_number   1
_chemical_formula_structural   Ho5Th3(MgRu)2
_chemical_formula_sum   'Ho10 Th6 Mg4 Ru4'
_cell_volume   660.65533956
_cell_formula_units_Z   2
loop_
 _symmetry_equiv_pos_site_id
 _symmetry_equiv_pos_as_xyz
  1  'x, y, z'
loop_
 _atom_site_type_symbol
 _atom_site_label
 _atom_site_symmetry_multiplicity
 _atom_site_fract_x
 _atom_site_fract_y
 _atom_site_fract_z
 _atom_site_occupancy
  Ho  Ho0  1  0.189240  0.810760  0.189240  1
  Ho  Ho1  1  0.810760  0.189240  0.810760  1
  Ho  Ho2  1  0.189240  0.189240  0.810760  1
  Ho  Ho3  1  0.810760  0.810760  0.189240  1
  Ho  Ho4  1  0.933794  0.566206  0.566206  1
  Ho  Ho5  1  0.566206  0.933794  0.933794  1
  Ho  Ho6  1  0.564310  0.935690  0.564310  1
  Ho  Ho7  1  0.935690  0.564310  0.935690  1
  Ho  Ho8  1  0.564310  0.564310  0.935690  1
  Ho  Ho9  1  0.935690  0.935690  0.564310  1
  Th  Th10  1  0.342327  0.348855  0.348855  1
  Th  Th11  1  0.348855  0.342327  0.959963  1
  Th  Th12  1  0.348855  0.959963  0.342327  1
  Th  Th13  1  0.959963  0.348855  0.348855  1
  Th  Th14  1  0.816348  0.183652  0.183652  1
  Th  Th15  1  0.183652  0.816348  0.816348  1
  Mg  Mg16  1  0.582295  0.579189  0.579189  1
  Mg  Mg17  1  0.579189  0.582295  0.259327  1
  Mg  Mg18  1  0.579189  0.259327  0.582295  1
  Mg  Mg19  1  0.259327  0.579189  0.579189  1
  Ru  Ru20  1  0.129880  0.147926  0.147926  1
  Ru  Ru21  1  0.147926  0.129880  0.574266  1
  Ru  Ru22  1  0.147926  0.574266  0.129880  1
  Ru  Ru23  1  0.574266  0.147926  0.147926  1
