# generated using pymatgen
data_Y16Cd4Co2NiPd
_symmetry_space_group_name_H-M   'P 1'
_cell_length_a   9.62758976
_cell_length_b   9.59707427
_cell_length_c   9.62242400
_cell_angle_alpha   59.91258460
_cell_angle_beta   60.01774761
_cell_angle_gamma   59.96109590
_symmetry_Int_Tables_number   1
_chemical_formula_structural   Y16Cd4Co2NiPd
_chemical_formula_sum   'Y16 Cd4 Co2 Ni1 Pd1'
_cell_volume   628.15758781
_cell_formula_units_Z   1
loop_
 _symmetry_equiv_pos_site_id
 _symmetry_equiv_pos_as_xyz
  1  'x, y, z'
loop_
 _atom_site_type_symbol
 _atom_site_label
 _atom_site_symmetry_multiplicity
 _atom_site_fract_x
 _atom_site_fract_y
 _atom_site_fract_z
 _atom_site_occupancy
  Y  Y0  1  0.341247  0.352062  0.355249  1
  Y  Y1  1  0.341247  0.352062  0.951442  1
  Y  Y2  1  0.339825  0.955614  0.352280  1
  Y  Y3  1  0.960299  0.344649  0.347526  1
  Y  Y4  1  0.820058  0.188241  0.190394  1
  Y  Y5  1  0.188390  0.813895  0.808117  1
  Y  Y6  1  0.188390  0.813895  0.189597  1
  Y  Y7  1  0.820058  0.188241  0.801307  1
  Y  Y8  1  0.189439  0.188315  0.811123  1
  Y  Y9  1  0.817080  0.803896  0.189512  1
  Y  Y10  1  0.934744  0.562572  0.565991  1
  Y  Y11  1  0.561608  0.936552  0.937299  1
  Y  Y12  1  0.561608  0.936552  0.564543  1
  Y  Y13  1  0.934744  0.562572  0.936694  1
  Y  Y14  1  0.562202  0.562425  0.937687  1
  Y  Y15  1  0.935405  0.936437  0.564079  1
  Cd  Cd16  1  0.581032  0.580018  0.579657  1
  Cd  Cd17  1  0.581032  0.580018  0.259293  1
  Cd  Cd18  1  0.582579  0.256140  0.580640  1
  Cd  Cd19  1  0.255213  0.582108  0.581340  1
  Co  Co20  1  0.143082  0.142891  0.140183  1
  Co  Co21  1  0.143082  0.142891  0.573843  1
  Ni  Ni22  1  0.144728  0.573788  0.140742  1
  Pd  Pd23  1  0.572906  0.144168  0.141463  1
