# generated using pymatgen
data_Dy2Ni7B2Pt
_symmetry_space_group_name_H-M   'P 1'
_cell_length_a   5.01455800
_cell_length_b   5.01844276
_cell_length_c   7.09998900
_cell_angle_alpha   90.00000000
_cell_angle_beta   90.00000000
_cell_angle_gamma   119.97329437
_symmetry_Int_Tables_number   1
_chemical_formula_structural   Dy2Ni7B2Pt
_chemical_formula_sum   'Dy2 Ni7 B2 Pt1'
_cell_volume   154.77711564
_cell_formula_units_Z   1
loop_
 _symmetry_equiv_pos_site_id
 _symmetry_equiv_pos_as_xyz
  1  'x, y, z'
loop_
 _atom_site_type_symbol
 _atom_site_label
 _atom_site_symmetry_multiplicity
 _atom_site_fract_x
 _atom_site_fract_y
 _atom_site_fract_z
 _atom_site_occupancy
  Dy  Dy0  1  0.500083  0.000167  0.000000  1
  Dy  Dy1  1  0.499995  0.999989  0.500000  1
  Ni  Ni2  1  0.166630  0.333266  0.000000  1
  Ni  Ni3  1  0.001017  0.002035  0.700418  1
  Ni  Ni4  1  0.497935  0.498940  0.700673  1
  Ni  Ni5  1  0.001005  0.498938  0.700661  1
  Ni  Ni6  1  0.001017  0.002035  0.299582  1
  Ni  Ni7  1  0.497935  0.498940  0.299327  1
  Ni  Ni8  1  0.001005  0.498938  0.299339  1
  B  B9  1  0.833290  0.666584  0.500000  1
  B  B10  1  0.166691  0.333380  0.500000  1
  Pt  Pt11  1  0.833395  0.666789  0.000000  1
