# generated using pymatgen
data_HoTm2In3GaCu2
_symmetry_space_group_name_H-M   'P 1'
_cell_length_a   7.19076232
_cell_length_b   7.20348634
_cell_length_c   4.27338400
_cell_angle_alpha   90.00000000
_cell_angle_beta   90.00000000
_cell_angle_gamma   120.01092833
_symmetry_Int_Tables_number   1
_chemical_formula_structural   HoTm2In3GaCu2
_chemical_formula_sum   'Ho1 Tm2 In3 Ga1 Cu2'
_cell_volume   191.67805177
_cell_formula_units_Z   1
loop_
 _symmetry_equiv_pos_site_id
 _symmetry_equiv_pos_as_xyz
  1  'x, y, z'
loop_
 _atom_site_type_symbol
 _atom_site_label
 _atom_site_symmetry_multiplicity
 _atom_site_fract_x
 _atom_site_fract_y
 _atom_site_fract_z
 _atom_site_occupancy
  Ho  Ho0  1  0.586325  0.004343  0.500000  1
  Tm  Tm1  1  0.994007  0.581955  0.500000  1
  Tm  Tm2  1  0.418105  0.412796  0.500000  1
  In  In3  1  0.755789  0.744087  0.000000  1
  In  In4  1  0.988388  0.244552  0.000000  1
  In  In5  1  0.256053  0.012096  0.000000  1
  Ga  Ga6  1  0.332348  0.665357  0.000000  1
  Cu  Cu7  1  0.001137  0.000461  0.500000  1
  Cu  Cu8  1  0.667848  0.334353  0.000000  1
