# generated using pymatgen
data_CsCl26
_symmetry_space_group_name_H-M   'P 1'
_cell_length_a   10.66640603
_cell_length_b   14.02211869
_cell_length_c   9.10158000
_cell_angle_alpha   87.38399944
_cell_angle_beta   57.02700594
_cell_angle_gamma   76.57114591
_symmetry_Int_Tables_number   1
_chemical_formula_structural   CsCl26
_chemical_formula_sum   'Cs1 Cl26'
_cell_volume   1105.34113857
_cell_formula_units_Z   1
loop_
 _symmetry_equiv_pos_site_id
 _symmetry_equiv_pos_as_xyz
  1  'x, y, z'
loop_
 _atom_site_type_symbol
 _atom_site_label
 _atom_site_symmetry_multiplicity
 _atom_site_fract_x
 _atom_site_fract_y
 _atom_site_fract_z
 _atom_site_occupancy
  Cs  Cs0  1  0.000000  0.000000  0.000000  1
  Cl  Cl1  1  0.876058  0.727813  0.503988  1
  Cl  Cl2  1  0.326156  0.700852  0.418637  1
  Cl  Cl3  1  0.673844  0.299148  0.581363  1
  Cl  Cl4  1  0.123942  0.272187  0.496012  1
  Cl  Cl5  1  0.994718  0.342716  0.066204  1
  Cl  Cl6  1  0.275766  0.479560  0.050499  1
  Cl  Cl7  1  0.724234  0.520440  0.949501  1
  Cl  Cl8  1  0.005282  0.657284  0.933796  1
  Cl  Cl9  1  0.500000  0.000000  0.500000  1
  Cl  Cl10  1  0.000000  0.000000  0.500000  1
  Cl  Cl11  1  0.853417  0.105135  0.420607  1
  Cl  Cl12  1  0.289490  0.170094  0.298504  1
  Cl  Cl13  1  0.710510  0.829906  0.701496  1
  Cl  Cl14  1  0.146583  0.894865  0.579393  1
  Cl  Cl15  1  0.081563  0.523307  0.291022  1
  Cl  Cl16  1  0.451356  0.559680  0.326113  1
  Cl  Cl17  1  0.548644  0.440320  0.673887  1
  Cl  Cl18  1  0.918437  0.476693  0.708978  1
  Cl  Cl19  1  0.607698  0.950198  0.213322  1
  Cl  Cl20  1  0.219937  0.846576  0.145479  1
  Cl  Cl21  1  0.780063  0.153424  0.854521  1
  Cl  Cl22  1  0.392302  0.049802  0.786678  1
  Cl  Cl23  1  0.318297  0.761693  0.920613  1
  Cl  Cl24  1  0.830671  0.781370  0.065934  1
  Cl  Cl25  1  0.169329  0.218630  0.934066  1
  Cl  Cl26  1  0.681703  0.238307  0.079387  1
