# generated using pymatgen
data_La5NdAl20(SiOs2)4
_symmetry_space_group_name_H-M   'P 1'
_cell_length_a   8.85248982
_cell_length_b   8.85248961
_cell_length_c   9.76468300
_cell_angle_alpha   90.00000000
_cell_angle_beta   90.00000000
_cell_angle_gamma   120.04934053
_symmetry_Int_Tables_number   1
_chemical_formula_structural   La5NdAl20(SiOs2)4
_chemical_formula_sum   'La5 Nd1 Al20 Si4 Os8'
_cell_volume   662.37434311
_cell_formula_units_Z   1
loop_
 _symmetry_equiv_pos_site_id
 _symmetry_equiv_pos_as_xyz
  1  'x, y, z'
loop_
 _atom_site_type_symbol
 _atom_site_label
 _atom_site_symmetry_multiplicity
 _atom_site_fract_x
 _atom_site_fract_y
 _atom_site_fract_z
 _atom_site_occupancy
  La  La0  1  0.193352  0.386477  0.250000  1
  La  La1  1  0.805588  0.613060  0.750000  1
  La  La2  1  0.613523  0.806648  0.250000  1
  La  La3  1  0.386940  0.194412  0.750000  1
  La  La4  1  0.193467  0.806533  0.250000  1
  Nd  Nd5  1  0.807351  0.192649  0.750000  1
  Al  Al6  1  0.163073  0.328412  0.574572  1
  Al  Al7  1  0.835297  0.670852  0.425655  1
  Al  Al8  1  0.671588  0.836927  0.574572  1
  Al  Al9  1  0.835297  0.670852  0.074345  1
  Al  Al10  1  0.329148  0.164703  0.425655  1
  Al  Al11  1  0.163073  0.328412  0.925428  1
  Al  Al12  1  0.164318  0.835682  0.575014  1
  Al  Al13  1  0.329148  0.164703  0.074345  1
  Al  Al14  1  0.835516  0.164484  0.426572  1
  Al  Al15  1  0.671588  0.836927  0.925428  1
  Al  Al16  1  0.835516  0.164484  0.073428  1
  Al  Al17  1  0.164318  0.835682  0.924986  1
  Al  Al18  1  0.565661  0.131443  0.250000  1
  Al  Al19  1  0.435350  0.870379  0.750000  1
  Al  Al20  1  0.868557  0.434339  0.250000  1
  Al  Al21  1  0.129621  0.564650  0.750000  1
  Al  Al22  1  0.565424  0.434576  0.250000  1
  Al  Al23  1  0.434397  0.565603  0.750000  1
  Al  Al24  1  0.000425  0.999575  0.250000  1
  Al  Al25  1  0.999298  0.000702  0.750000  1
  Si  Si26  1  0.333477  0.666523  0.019842  1
  Si  Si27  1  0.668012  0.331988  0.977712  1
  Si  Si28  1  0.668012  0.331988  0.522288  1
  Si  Si29  1  0.333477  0.666523  0.480158  1
  Os  Os30  1  0.500508  0.000160  0.000069  1
  Os  Os31  1  0.999840  0.499492  0.000069  1
  Os  Os32  1  0.500508  0.000160  0.499931  1
  Os  Os33  1  0.500214  0.499786  0.998994  1
  Os  Os34  1  0.999840  0.499492  0.499931  1
  Os  Os35  1  0.500214  0.499786  0.501006  1
  Os  Os36  1  0.999532  0.000468  0.999988  1
  Os  Os37  1  0.999532  0.000468  0.500012  1
