# generated using pymatgen
data_Y5Ho11MgZn3Co4
_symmetry_space_group_name_H-M   'P 1'
_cell_length_a   9.39544617
_cell_length_b   9.35520438
_cell_length_c   9.35520410
_cell_angle_alpha   59.97420045
_cell_angle_beta   60.07183577
_cell_angle_gamma   60.07183145
_symmetry_Int_Tables_number   1
_chemical_formula_structural   Y5Ho11MgZn3Co4
_chemical_formula_sum   'Y5 Ho11 Mg1 Zn3 Co4'
_cell_volume   581.96211473
_cell_formula_units_Z   1
loop_
 _symmetry_equiv_pos_site_id
 _symmetry_equiv_pos_as_xyz
  1  'x, y, z'
loop_
 _atom_site_type_symbol
 _atom_site_label
 _atom_site_symmetry_multiplicity
 _atom_site_fract_x
 _atom_site_fract_y
 _atom_site_fract_z
 _atom_site_occupancy
  Y  Y0  1  0.559397  0.939079  0.939079  1
  Y  Y1  1  0.560589  0.938027  0.562561  1
  Y  Y2  1  0.934599  0.561193  0.941970  1
  Y  Y3  1  0.560589  0.562561  0.938027  1
  Y  Y4  1  0.934599  0.941970  0.561193  1
  Ho  Ho5  1  0.348322  0.346776  0.346776  1
  Ho  Ho6  1  0.348740  0.346792  0.958262  1
  Ho  Ho7  1  0.348740  0.958262  0.346792  1
  Ho  Ho8  1  0.947542  0.350952  0.350952  1
  Ho  Ho9  1  0.808645  0.190548  0.190548  1
  Ho  Ho10  1  0.187038  0.812877  0.812877  1
  Ho  Ho11  1  0.186612  0.812479  0.187893  1
  Ho  Ho12  1  0.808980  0.191035  0.809908  1
  Ho  Ho13  1  0.186612  0.187893  0.812479  1
  Ho  Ho14  1  0.808980  0.809908  0.191035  1
  Ho  Ho15  1  0.934620  0.560733  0.560733  1
  Mg  Mg16  1  0.287919  0.570671  0.570671  1
  Zn  Zn17  1  0.585742  0.577611  0.577611  1
  Zn  Zn18  1  0.585174  0.577334  0.260025  1
  Zn  Zn19  1  0.585174  0.260025  0.577334  1
  Co  Co20  1  0.139041  0.143021  0.143021  1
  Co  Co21  1  0.138546  0.144048  0.574671  1
  Co  Co22  1  0.138546  0.574671  0.144048  1
  Co  Co23  1  0.575253  0.141534  0.141534  1
