# generated using pymatgen
data_KTbSiSe4
_symmetry_space_group_name_H-M   'P 1'
_cell_length_a   6.99734500
_cell_length_b   6.72050632
_cell_length_c   9.13073765
_cell_angle_alpha   72.42501946
_cell_angle_beta   90.00000000
_cell_angle_gamma   90.00000000
_symmetry_Int_Tables_number   1
_chemical_formula_structural   KTbSiSe4
_chemical_formula_sum   'K2 Tb2 Si2 Se8'
_cell_volume   409.33703616
_cell_formula_units_Z   2
loop_
 _symmetry_equiv_pos_site_id
 _symmetry_equiv_pos_as_xyz
  1  'x, y, z'
loop_
 _atom_site_type_symbol
 _atom_site_label
 _atom_site_symmetry_multiplicity
 _atom_site_fract_x
 _atom_site_fract_y
 _atom_site_fract_z
 _atom_site_occupancy
  K  K0  1  0.979524  0.733717  0.064633  1
  K  K1  1  0.479524  0.266283  0.935367  1
  Tb  Tb2  1  0.499318  0.230109  0.450057  1
  Tb  Tb3  1  0.999318  0.769891  0.549943  1
  Si  Si4  1  0.463252  0.780411  0.327713  1
  Si  Si5  1  0.963252  0.219589  0.672287  1
  Se  Se6  1  0.462934  0.579572  0.168178  1
  Se  Se7  1  0.227847  0.030050  0.278177  1
  Se  Se8  1  0.733851  0.983184  0.296700  1
  Se  Se9  1  0.900275  0.424752  0.427636  1
  Se  Se10  1  0.400275  0.575248  0.572364  1
  Se  Se11  1  0.233851  0.016816  0.703300  1
  Se  Se12  1  0.727847  0.969950  0.721823  1
  Se  Se13  1  0.962934  0.420428  0.831822  1
