# generated using pymatgen
data_ErGa2Ni2Pd
_symmetry_space_group_name_H-M   'P 1'
_cell_length_a   8.90487900
_cell_length_b   8.90487924
_cell_length_c   4.15715400
_cell_angle_alpha   90.00000000
_cell_angle_beta   90.00000000
_cell_angle_gamma   119.99999539
_symmetry_Int_Tables_number   1
_chemical_formula_structural   ErGa2Ni2Pd
_chemical_formula_sum   'Er3 Ga6 Ni6 Pd3'
_cell_volume   285.48468946
_cell_formula_units_Z   3
loop_
 _symmetry_equiv_pos_site_id
 _symmetry_equiv_pos_as_xyz
  1  'x, y, z'
loop_
 _atom_site_type_symbol
 _atom_site_label
 _atom_site_symmetry_multiplicity
 _atom_site_fract_x
 _atom_site_fract_y
 _atom_site_fract_z
 _atom_site_occupancy
  Er  Er0  1  0.666667  0.333333  0.500000  1
  Er  Er1  1  0.333333  0.666667  0.500000  1
  Er  Er2  1  0.000000  0.000000  0.000000  1
  Ga  Ga3  1  0.465657  0.465657  0.000000  1
  Ga  Ga4  1  0.534343  0.000000  0.000000  1
  Ga  Ga5  1  0.000000  0.534343  0.000000  1
  Ga  Ga6  1  0.715085  0.715085  0.500000  1
  Ga  Ga7  1  0.284915  0.000000  0.500000  1
  Ga  Ga8  1  0.000000  0.284915  0.500000  1
  Ni  Ni9  1  0.834144  0.222120  0.000000  1
  Ni  Ni10  1  0.777880  0.612024  0.000000  1
  Ni  Ni11  1  0.387976  0.165856  0.000000  1
  Ni  Ni12  1  0.222120  0.834144  0.000000  1
  Ni  Ni13  1  0.612024  0.777880  0.000000  1
  Ni  Ni14  1  0.165856  0.387976  0.000000  1
  Pd  Pd15  1  0.285026  0.285026  0.500000  1
  Pd  Pd16  1  0.714974  0.000000  0.500000  1
  Pd  Pd17  1  0.000000  0.714974  0.500000  1
