# generated using pymatgen
data_Tm3MgIr8
_symmetry_space_group_name_H-M   'P 1'
_cell_length_a   5.30220600
_cell_length_b   5.30220995
_cell_length_c   8.62051400
_cell_angle_alpha   89.99995732
_cell_angle_beta   90.00018614
_cell_angle_gamma   120.00029193
_symmetry_Int_Tables_number   1
_chemical_formula_structural   Tm3MgIr8
_chemical_formula_sum   'Tm3 Mg1 Ir8'
_cell_volume   209.88240528
_cell_formula_units_Z   1
loop_
 _symmetry_equiv_pos_site_id
 _symmetry_equiv_pos_as_xyz
  1  'x, y, z'
loop_
 _atom_site_type_symbol
 _atom_site_label
 _atom_site_symmetry_multiplicity
 _atom_site_fract_x
 _atom_site_fract_y
 _atom_site_fract_z
 _atom_site_occupancy
  Tm  Tm0  1  0.333315  0.666667  0.077894  1
  Tm  Tm1  1  0.666662  0.333331  0.559088  1
  Tm  Tm2  1  0.666659  0.333333  0.930980  1
  Mg  Mg3  1  0.333325  0.666668  0.437817  1
  Ir  Ir4  1  0.999991  0.000000  0.997826  1
  Ir  Ir5  1  0.999995  0.000000  0.498156  1
  Ir  Ir6  1  0.830041  0.660108  0.250599  1
  Ir  Ir7  1  0.170980  0.341975  0.748813  1
  Ir  Ir8  1  0.339887  0.169955  0.250598  1
  Ir  Ir9  1  0.830042  0.169954  0.250600  1
  Ir  Ir10  1  0.170985  0.829009  0.748814  1
  Ir  Ir11  1  0.658015  0.829005  0.748813  1
