# generated using pymatgen
data_Re4NiHg7O20
_symmetry_space_group_name_H-M   'P 1'
_cell_length_a   7.96347375
_cell_length_b   9.77253826
_cell_length_c   9.52623762
_cell_angle_alpha   120.81131840
_cell_angle_beta   100.33877235
_cell_angle_gamma   88.30939303
_symmetry_Int_Tables_number   1
_chemical_formula_structural   Re4NiHg7O20
_chemical_formula_sum   'Re4 Ni1 Hg7 O20'
_cell_volume   624.67681597
_cell_formula_units_Z   1
loop_
 _symmetry_equiv_pos_site_id
 _symmetry_equiv_pos_as_xyz
  1  'x, y, z'
loop_
 _atom_site_type_symbol
 _atom_site_label
 _atom_site_symmetry_multiplicity
 _atom_site_fract_x
 _atom_site_fract_y
 _atom_site_fract_z
 _atom_site_occupancy
  Re  Re0  1  0.869407  0.756640  0.464326  1
  Re  Re1  1  0.708921  0.311329  0.955879  1
  Re  Re2  1  0.291079  0.688671  0.044121  1
  Re  Re3  1  0.130593  0.243360  0.535674  1
  Ni  Ni4  1  0.500000  0.000000  0.500000  1
  Hg  Hg5  1  0.367155  0.629319  0.422628  1
  Hg  Hg6  1  0.707810  0.665619  0.810893  1
  Hg  Hg7  1  0.632845  0.370681  0.577372  1
  Hg  Hg8  1  0.343662  0.971977  0.803133  1
  Hg  Hg9  1  0.292190  0.334381  0.189107  1
  Hg  Hg10  1  0.656338  0.028023  0.196867  1
  Hg  Hg11  1  0.000000  0.000000  0.000000  1
  O  O12  1  0.270941  0.108219  0.557923  1
  O  O13  1  0.462213  0.868404  0.604883  1
  O  O14  1  0.078005  0.724849  0.995500  1
  O  O15  1  0.249786  0.076911  0.020657  1
  O  O16  1  0.018030  0.156302  0.328798  1
  O  O17  1  0.981970  0.843698  0.671202  1
  O  O18  1  0.371197  0.808052  0.261485  1
  O  O19  1  0.750214  0.923089  0.979343  1
  O  O20  1  0.921995  0.275151  0.004500  1
  O  O21  1  0.698182  0.512747  0.019600  1
  O  O22  1  0.019572  0.708781  0.336630  1
  O  O23  1  0.301818  0.487253  0.980400  1
  O  O24  1  0.729059  0.891781  0.442077  1
  O  O25  1  0.753445  0.582564  0.411947  1
  O  O26  1  0.246555  0.417436  0.588053  1
  O  O27  1  0.628803  0.191948  0.738515  1
  O  O28  1  0.537787  0.131596  0.395117  1
  O  O29  1  0.585829  0.260639  0.060640  1
  O  O30  1  0.980428  0.291219  0.663370  1
  O  O31  1  0.414171  0.739361  0.939360  1
