# generated using pymatgen
data_Ta3Cr6Si2W
_symmetry_space_group_name_H-M   'P 1'
_cell_length_a   4.83181000
_cell_length_b   4.83180982
_cell_length_c   8.06620900
_cell_angle_alpha   90.00000000
_cell_angle_beta   90.00000000
_cell_angle_gamma   120.00000122
_symmetry_Int_Tables_number   1
_chemical_formula_structural   Ta3Cr6Si2W
_chemical_formula_sum   'Ta3 Cr6 Si2 W1'
_cell_volume   163.08716283
_cell_formula_units_Z   1
loop_
 _symmetry_equiv_pos_site_id
 _symmetry_equiv_pos_as_xyz
  1  'x, y, z'
loop_
 _atom_site_type_symbol
 _atom_site_label
 _atom_site_symmetry_multiplicity
 _atom_site_fract_x
 _atom_site_fract_y
 _atom_site_fract_z
 _atom_site_occupancy
  Ta  Ta0  1  0.666667  0.333333  0.563858  1
  Ta  Ta1  1  0.666667  0.333333  0.934252  1
  Ta  Ta2  1  0.333333  0.666667  0.066095  1
  Cr  Cr3  1  0.827636  0.172364  0.251278  1
  Cr  Cr4  1  0.827636  0.655273  0.251278  1
  Cr  Cr5  1  0.344727  0.172364  0.251278  1
  Cr  Cr6  1  0.172270  0.827730  0.748914  1
  Cr  Cr7  1  0.172270  0.344539  0.748914  1
  Cr  Cr8  1  0.655461  0.827730  0.748914  1
  Si  Si9  1  0.000000  0.000000  0.500324  1
  Si  Si10  1  0.000000  0.000000  0.000621  1
  W  W11  1  0.333333  0.666667  0.434274  1
