# generated using pymatgen
data_TcTe4OsBr8
_symmetry_space_group_name_H-M   'P 1'
_cell_length_a   11.09506005
_cell_length_b   11.51204370
_cell_length_c   11.03017396
_cell_angle_alpha   115.07565834
_cell_angle_beta   116.80463264
_cell_angle_gamma   97.18875784
_symmetry_Int_Tables_number   1
_chemical_formula_structural   TcTe4OsBr8
_chemical_formula_sum   'Tc2 Te8 Os2 Br16'
_cell_volume   1048.18090484
_cell_formula_units_Z   2
loop_
 _symmetry_equiv_pos_site_id
 _symmetry_equiv_pos_as_xyz
  1  'x, y, z'
loop_
 _atom_site_type_symbol
 _atom_site_label
 _atom_site_symmetry_multiplicity
 _atom_site_fract_x
 _atom_site_fract_y
 _atom_site_fract_z
 _atom_site_occupancy
  Tc  Tc0  1  0.429748  0.783955  0.576818  1
  Tc  Tc1  1  0.211824  0.791035  0.639544  1
  Te  Te2  1  0.642279  0.680551  0.573542  1
  Te  Te3  1  0.407915  0.017942  0.733679  1
  Te  Te4  1  0.310398  0.896087  0.960345  1
  Te  Te5  1  0.265853  0.675312  0.269300  1
  Te  Te6  1  0.108546  0.083036  0.432353  1
  Te  Te7  1  0.989853  0.693008  0.351093  1
  Te  Te8  1  0.934735  0.339274  0.036769  1
  Te  Te9  1  0.339301  0.612743  0.643923  1
  Os  Os10  1  0.211966  0.886028  0.428039  1
  Os  Os11  1  0.146070  0.539918  0.352393  1
  Br  Br12  1  0.697067  0.390600  0.945132  1
  Br  Br13  1  0.109157  0.974647  0.760139  1
  Br  Br14  1  0.947979  0.352539  0.312232  1
  Br  Br15  1  0.583581  0.543976  0.283967  1
  Br  Br16  1  0.535316  0.130624  0.147434  1
  Br  Br17  1  0.603701  0.468648  0.601634  1
  Br  Br18  1  0.012163  0.824852  0.133876  1
  Br  Br19  1  0.051326  0.646016  0.688465  1
  Br  Br20  1  0.455975  0.760448  0.062337  1
  Br  Br21  1  0.631959  0.928019  0.571359  1
  Br  Br22  1  0.218436  0.336196  0.224507  1
  Br  Br23  1  0.371473  0.063617  0.415974  1
  Br  Br24  1  0.669849  0.878544  0.871088  1
  Br  Br25  1  0.259770  0.303963  0.723142  1
  Br  Br26  1  0.866148  0.013340  0.408605  1
  Br  Br27  1  0.987607  0.385082  0.852311  1
