# generated using pymatgen
data_Ta9Nb4Co12W
_symmetry_space_group_name_H-M   'P 1'
_cell_length_a   4.95322628
_cell_length_b   4.95326322
_cell_length_c   17.79763605
_cell_angle_alpha   97.93325698
_cell_angle_beta   97.92656111
_cell_angle_gamma   60.04838610
_symmetry_Int_Tables_number   1
_chemical_formula_structural   Ta9Nb4Co12W
_chemical_formula_sum   'Ta9 Nb4 Co12 W1'
_cell_volume   373.50760142
_cell_formula_units_Z   1
loop_
 _symmetry_equiv_pos_site_id
 _symmetry_equiv_pos_as_xyz
  1  'x, y, z'
loop_
 _atom_site_type_symbol
 _atom_site_label
 _atom_site_symmetry_multiplicity
 _atom_site_fract_x
 _atom_site_fract_y
 _atom_site_fract_z
 _atom_site_occupancy
  Ta  Ta0  1  0.416913  0.416907  0.250266  1
  Ta  Ta1  1  0.916772  0.916773  0.750941  1
  Ta  Ta2  1  0.083228  0.083227  0.249059  1
  Ta  Ta3  1  0.583087  0.583093  0.749734  1
  Ta  Ta4  1  0.774314  0.774310  0.326073  1
  Ta  Ta5  1  0.274369  0.274366  0.825785  1
  Ta  Ta6  1  0.725631  0.725634  0.174215  1
  Ta  Ta7  1  0.225686  0.225690  0.673927  1
  Ta  Ta8  1  0.500000  0.500000  0.500000  1
  Nb  Nb9  1  0.828104  0.828091  0.481677  1
  Nb  Nb10  1  0.327777  0.327787  0.980411  1
  Nb  Nb11  1  0.672223  0.672213  0.019589  1
  Nb  Nb12  1  0.171896  0.171909  0.518323  1
  Co  Co13  1  0.700096  0.209084  0.116880  1
  Co  Co14  1  0.200044  0.710752  0.619213  1
  Co  Co15  1  0.208460  0.208476  0.117011  1
  Co  Co16  1  0.709921  0.709930  0.619281  1
  Co  Co17  1  0.209069  0.700107  0.116880  1
  Co  Co18  1  0.710755  0.200035  0.619214  1
  Co  Co19  1  0.799956  0.289248  0.380787  1
  Co  Co20  1  0.299904  0.790916  0.883120  1
  Co  Co21  1  0.290079  0.290070  0.380719  1
  Co  Co22  1  0.791540  0.791524  0.882989  1
  Co  Co23  1  0.289245  0.799965  0.380786  1
  Co  Co24  1  0.790931  0.299893  0.883120  1
  W  W25  1  0.000000  0.000000  0.000000  1
