# generated using pymatgen
data_TmLu3(GaTc3)2
_symmetry_space_group_name_H-M   'P 1'
_cell_length_a   5.30490000
_cell_length_b   5.30490122
_cell_length_c   8.91559100
_cell_angle_alpha   90.00000000
_cell_angle_beta   90.00000000
_cell_angle_gamma   120.00000484
_symmetry_Int_Tables_number   1
_chemical_formula_structural   TmLu3(GaTc3)2
_chemical_formula_sum   'Tm1 Lu3 Ga2 Tc6'
_cell_volume   217.28775413
_cell_formula_units_Z   1
loop_
 _symmetry_equiv_pos_site_id
 _symmetry_equiv_pos_as_xyz
  1  'x, y, z'
loop_
 _atom_site_type_symbol
 _atom_site_label
 _atom_site_symmetry_multiplicity
 _atom_site_fract_x
 _atom_site_fract_y
 _atom_site_fract_z
 _atom_site_occupancy
  Tm  Tm0  1  0.333333  0.666667  0.068021  1
  Lu  Lu1  1  0.333333  0.666667  0.432171  1
  Lu  Lu2  1  0.666667  0.333333  0.568380  1
  Lu  Lu3  1  0.666667  0.333333  0.931355  1
  Ga  Ga4  1  0.000000  0.000000  0.499991  1
  Ga  Ga5  1  0.000000  0.000000  0.999863  1
  Tc  Tc6  1  0.828608  0.171392  0.250471  1
  Tc  Tc7  1  0.828608  0.657215  0.250471  1
  Tc  Tc8  1  0.342785  0.171392  0.250471  1
  Tc  Tc9  1  0.171303  0.828697  0.749601  1
  Tc  Tc10  1  0.171303  0.342606  0.749601  1
  Tc  Tc11  1  0.657394  0.828697  0.749601  1
