# generated using pymatgen
data_Rb8Na4Dy3YSb8
_symmetry_space_group_name_H-M   'P 1'
_cell_length_a   11.36592524
_cell_length_b   11.36592498
_cell_length_c   7.50010206
_cell_angle_alpha   90.01072305
_cell_angle_beta   89.98927685
_cell_angle_gamma   98.36016257
_symmetry_Int_Tables_number   1
_chemical_formula_structural   Rb8Na4Dy3YSb8
_chemical_formula_sum   'Rb8 Na4 Dy3 Y1 Sb8'
_cell_volume   958.59925318
_cell_formula_units_Z   1
loop_
 _symmetry_equiv_pos_site_id
 _symmetry_equiv_pos_as_xyz
  1  'x, y, z'
loop_
 _atom_site_type_symbol
 _atom_site_label
 _atom_site_symmetry_multiplicity
 _atom_site_fract_x
 _atom_site_fract_y
 _atom_site_fract_z
 _atom_site_occupancy
  Rb  Rb0  1  0.070648  0.429371  0.250025  1
  Rb  Rb1  1  0.429371  0.070648  0.749975  1
  Rb  Rb2  1  0.929324  0.570680  0.750009  1
  Rb  Rb3  1  0.570680  0.929324  0.249991  1
  Rb  Rb4  1  0.676445  0.323572  0.215528  1
  Rb  Rb5  1  0.823547  0.176440  0.715522  1
  Rb  Rb6  1  0.323572  0.676445  0.784472  1
  Rb  Rb7  1  0.176440  0.823547  0.284478  1
  Na  Na8  1  0.382221  0.382221  0.000000  1
  Na  Na9  1  0.117793  0.117793  0.500000  1
  Na  Na10  1  0.617807  0.617807  0.000000  1
  Na  Na11  1  0.882196  0.882196  0.500000  1
  Dy  Dy12  1  0.368976  0.368976  0.500000  1
  Dy  Dy13  1  0.868974  0.868974  0.000000  1
  Dy  Dy14  1  0.631075  0.631075  0.500000  1
  Y  Y15  1  0.131115  0.131115  0.000000  1
  Sb  Sb16  1  0.846860  0.653114  0.250010  1
  Sb  Sb17  1  0.653114  0.846860  0.749990  1
  Sb  Sb18  1  0.153214  0.347113  0.749720  1
  Sb  Sb19  1  0.347113  0.153214  0.250280  1
  Sb  Sb20  1  0.899434  0.100116  0.211943  1
  Sb  Sb21  1  0.600272  0.399694  0.711808  1
  Sb  Sb22  1  0.100116  0.899434  0.788057  1
  Sb  Sb23  1  0.399694  0.600272  0.288192  1
