# generated using pymatgen
data_Sr2InHg4Bi
_symmetry_space_group_name_H-M   'P 1'
_cell_length_a   5.47526559
_cell_length_b   7.80198300
_cell_length_c   16.18884983
_cell_angle_alpha   90.00000000
_cell_angle_beta   90.28261900
_cell_angle_gamma   90.00000000
_symmetry_Int_Tables_number   1
_chemical_formula_structural   Sr2InHg4Bi
_chemical_formula_sum   'Sr6 In3 Hg12 Bi3'
_cell_volume   691.54572541
_cell_formula_units_Z   3
loop_
 _symmetry_equiv_pos_site_id
 _symmetry_equiv_pos_as_xyz
  1  'x, y, z'
loop_
 _atom_site_type_symbol
 _atom_site_label
 _atom_site_symmetry_multiplicity
 _atom_site_fract_x
 _atom_site_fract_y
 _atom_site_fract_z
 _atom_site_occupancy
  Sr  Sr0  1  0.999915  0.000000  0.999722  1
  Sr  Sr1  1  0.500151  0.500000  0.166816  1
  Sr  Sr2  1  0.999512  0.000000  0.333630  1
  Sr  Sr3  1  0.499776  0.500000  0.501456  1
  Sr  Sr4  1  0.000282  0.000000  0.666608  1
  Sr  Sr5  1  0.500551  0.500000  0.832014  1
  In  In6  1  0.500356  0.000000  0.503773  1
  In  In7  1  0.000337  0.500000  0.666748  1
  In  In8  1  0.499710  0.000000  0.829147  1
  Hg  Hg9  1  0.500003  0.237927  0.993624  1
  Hg  Hg10  1  0.500003  0.762073  0.993624  1
  Hg  Hg11  1  0.999922  0.257280  0.166664  1
  Hg  Hg12  1  0.999922  0.742721  0.166664  1
  Hg  Hg13  1  0.499634  0.237894  0.339786  1
  Hg  Hg14  1  0.499634  0.762106  0.339786  1
  Hg  Hg15  1  0.000033  0.246805  0.503914  1
  Hg  Hg16  1  0.000033  0.753195  0.503914  1
  Hg  Hg17  1  0.500115  0.247595  0.666678  1
  Hg  Hg18  1  0.500115  0.752405  0.666678  1
  Hg  Hg19  1  0.000066  0.246802  0.829381  1
  Hg  Hg20  1  0.000066  0.753199  0.829381  1
  Bi  Bi21  1  0.000121  0.500000  0.994677  1
  Bi  Bi22  1  0.499853  0.000000  0.166729  1
  Bi  Bi23  1  0.999887  0.500000  0.338585  1
