# generated using pymatgen
data_EuY2AuO7
_symmetry_space_group_name_H-M   'P 1'
_cell_length_a   6.52178800
_cell_length_b   6.52178866
_cell_length_c   7.50207500
_cell_angle_alpha   90.00000000
_cell_angle_beta   90.00000000
_cell_angle_gamma   71.21651604
_symmetry_Int_Tables_number   1
_chemical_formula_structural   EuY2AuO7
_chemical_formula_sum   'Eu2 Y4 Au2 O14'
_cell_volume   302.09705927
_cell_formula_units_Z   2
loop_
 _symmetry_equiv_pos_site_id
 _symmetry_equiv_pos_as_xyz
  1  'x, y, z'
loop_
 _atom_site_type_symbol
 _atom_site_label
 _atom_site_symmetry_multiplicity
 _atom_site_fract_x
 _atom_site_fract_y
 _atom_site_fract_z
 _atom_site_occupancy
  Eu  Eu0  1  0.499146  0.500853  0.250001  1
  Eu  Eu1  1  0.500853  0.499146  0.750000  1
  Y  Y2  1  0.529048  0.002157  0.000525  1
  Y  Y3  1  0.997843  0.470953  0.499476  1
  Y  Y4  1  0.470953  0.997843  0.500524  1
  Y  Y5  1  0.002157  0.529048  0.999475  1
  Au  Au6  1  0.000172  0.999827  0.250001  1
  Au  Au7  1  0.999827  0.000172  0.750000  1
  O  O8  1  0.365858  0.365858  0.000000  1
  O  O9  1  0.638761  0.638761  0.000000  1
  O  O10  1  0.921190  0.921190  0.000000  1
  O  O11  1  0.925026  0.327498  0.225513  1
  O  O12  1  0.328370  0.924028  0.226355  1
  O  O13  1  0.075972  0.671630  0.273644  1
  O  O14  1  0.672502  0.074974  0.274487  1
  O  O15  1  0.078810  0.078810  0.500000  1
  O  O16  1  0.361239  0.361239  0.500000  1
  O  O17  1  0.634143  0.634143  0.500000  1
  O  O18  1  0.074974  0.672502  0.725514  1
  O  O19  1  0.671630  0.075972  0.726356  1
  O  O20  1  0.924028  0.328370  0.773644  1
  O  O21  1  0.327498  0.925026  0.774486  1
