# generated using pymatgen
data_Nd4RhAu3
_symmetry_space_group_name_H-M   'P 1'
_cell_length_a   4.76948700
_cell_length_b   5.82473454
_cell_length_c   7.40361946
_cell_angle_alpha   88.29408579
_cell_angle_beta   90.00000000
_cell_angle_gamma   90.00000000
_symmetry_Int_Tables_number   1
_chemical_formula_structural   Nd4RhAu3
_chemical_formula_sum   'Nd4 Rh1 Au3'
_cell_volume   205.58876146
_cell_formula_units_Z   1
loop_
 _symmetry_equiv_pos_site_id
 _symmetry_equiv_pos_as_xyz
  1  'x, y, z'
loop_
 _atom_site_type_symbol
 _atom_site_label
 _atom_site_symmetry_multiplicity
 _atom_site_fract_x
 _atom_site_fract_y
 _atom_site_fract_z
 _atom_site_occupancy
  Nd  Nd0  1  0.250000  0.367229  0.677637  1
  Nd  Nd1  1  0.250000  0.139290  0.190590  1
  Nd  Nd2  1  0.750000  0.651896  0.325203  1
  Nd  Nd3  1  0.750000  0.854438  0.804581  1
  Rh  Rh4  1  0.250000  0.836953  0.539746  1
  Au  Au5  1  0.250000  0.651862  0.040779  1
  Au  Au6  1  0.750000  0.151519  0.458947  1
  Au  Au7  1  0.750000  0.346814  0.962516  1
