# generated using pymatgen
data_TmLu2Sc2Sn3
_symmetry_space_group_name_H-M   'P 1'
_cell_length_a   8.68040923
_cell_length_b   8.68388437
_cell_length_c   6.20831300
_cell_angle_alpha   90.00000000
_cell_angle_beta   90.00000000
_cell_angle_gamma   120.01324697
_symmetry_Int_Tables_number   1
_chemical_formula_structural   TmLu2Sc2Sn3
_chemical_formula_sum   'Tm2 Lu4 Sc4 Sn6'
_cell_volume   405.22896548
_cell_formula_units_Z   2
loop_
 _symmetry_equiv_pos_site_id
 _symmetry_equiv_pos_as_xyz
  1  'x, y, z'
loop_
 _atom_site_type_symbol
 _atom_site_label
 _atom_site_symmetry_multiplicity
 _atom_site_fract_x
 _atom_site_fract_y
 _atom_site_fract_z
 _atom_site_occupancy
  Tm  Tm0  1  0.762002  0.762055  0.750000  1
  Tm  Tm1  1  0.237998  0.000053  0.750000  1
  Lu  Lu2  1  0.000000  0.238069  0.750000  1
  Lu  Lu3  1  0.237772  0.237902  0.250000  1
  Lu  Lu4  1  0.762228  0.000130  0.250000  1
  Lu  Lu5  1  0.000000  0.761954  0.250000  1
  Sc  Sc6  1  0.666672  0.333309  0.000064  1
  Sc  Sc7  1  0.333328  0.666638  0.000064  1
  Sc  Sc8  1  0.333328  0.666638  0.499936  1
  Sc  Sc9  1  0.666672  0.333309  0.499936  1
  Sn  Sn10  1  0.398399  0.398646  0.750000  1
  Sn  Sn11  1  0.601601  0.000247  0.750000  1
  Sn  Sn12  1  0.000000  0.601046  0.750000  1
  Sn  Sn13  1  0.601528  0.601534  0.250000  1
  Sn  Sn14  1  0.398472  0.000006  0.250000  1
  Sn  Sn15  1  0.000000  0.398464  0.250000  1
