# generated using pymatgen
data_CsRb5(LiSn4)2
_symmetry_space_group_name_H-M   'P 1'
_cell_length_a   8.90245100
_cell_length_b   8.90245095
_cell_length_c   10.50358000
_cell_angle_alpha   89.99823011
_cell_angle_beta   90.00176989
_cell_angle_gamma   133.94040635
_symmetry_Int_Tables_number   1
_chemical_formula_structural   CsRb5(LiSn4)2
_chemical_formula_sum   'Cs1 Rb5 Li2 Sn8'
_cell_volume   599.41330462
_cell_formula_units_Z   1
loop_
 _symmetry_equiv_pos_site_id
 _symmetry_equiv_pos_as_xyz
  1  'x, y, z'
loop_
 _atom_site_type_symbol
 _atom_site_label
 _atom_site_symmetry_multiplicity
 _atom_site_fract_x
 _atom_site_fract_y
 _atom_site_fract_z
 _atom_site_occupancy
  Cs  Cs0  1  0.227408  0.772592  0.249998  1
  Rb  Rb1  1  0.770853  0.229147  0.749997  1
  Rb  Rb2  1  0.612882  0.387118  0.047683  1
  Rb  Rb3  1  0.387192  0.612808  0.952109  1
  Rb  Rb4  1  0.387192  0.612808  0.547894  1
  Rb  Rb5  1  0.612880  0.387120  0.452311  1
  Li  Li6  1  0.999882  0.000118  0.999719  1
  Li  Li7  1  0.999884  0.000116  0.500276  1
  Sn  Sn8  1  0.186126  0.262287  0.250000  1
  Sn  Sn9  1  0.814020  0.736906  0.750002  1
  Sn  Sn10  1  0.737713  0.813874  0.250000  1
  Sn  Sn11  1  0.263094  0.185980  0.750002  1
  Sn  Sn12  1  0.834187  0.165813  0.109978  1
  Sn  Sn13  1  0.166254  0.833746  0.889627  1
  Sn  Sn14  1  0.166249  0.833751  0.610386  1
  Sn  Sn15  1  0.834184  0.165816  0.390019  1
