# generated using pymatgen
data_Sc2Cr3O12
_symmetry_space_group_name_H-M   'P 1'
_cell_length_a   6.89992223
_cell_length_b   8.77008609
_cell_length_c   10.20856307
_cell_angle_alpha   108.24828769
_cell_angle_beta   105.55366809
_cell_angle_gamma   102.39854933
_symmetry_Int_Tables_number   1
_chemical_formula_structural   Sc2Cr3O12
_chemical_formula_sum   'Sc4 Cr6 O24'
_cell_volume   534.23398730
_cell_formula_units_Z   2
loop_
 _symmetry_equiv_pos_site_id
 _symmetry_equiv_pos_as_xyz
  1  'x, y, z'
loop_
 _atom_site_type_symbol
 _atom_site_label
 _atom_site_symmetry_multiplicity
 _atom_site_fract_x
 _atom_site_fract_y
 _atom_site_fract_z
 _atom_site_occupancy
  Sc  Sc0  1  0.370498  0.959472  0.613338  1
  Sc  Sc1  1  0.629502  0.040528  0.386662  1
  Sc  Sc2  1  0.053869  0.213102  0.019887  1
  Sc  Sc3  1  0.946131  0.786898  0.980113  1
  Cr  Cr4  1  0.872898  0.892575  0.662722  1
  Cr  Cr5  1  0.127102  0.107425  0.337278  1
  Cr  Cr6  1  0.220835  0.664024  0.257863  1
  Cr  Cr7  1  0.779165  0.335976  0.742137  1
  Cr  Cr8  1  0.601487  0.259850  0.134248  1
  Cr  Cr9  1  0.398513  0.740150  0.865752  1
  O  O10  1  0.081843  0.053129  0.151247  1
  O  O11  1  0.918157  0.946871  0.848753  1
  O  O12  1  0.583462  0.144792  0.239994  1
  O  O13  1  0.416538  0.855208  0.760006  1
  O  O14  1  0.187176  0.457676  0.185891  1
  O  O15  1  0.812824  0.542324  0.814109  1
  O  O16  1  0.972767  0.291970  0.847305  1
  O  O17  1  0.027233  0.708030  0.152695  1
  O  O18  1  0.238485  0.794296  0.958121  1
  O  O19  1  0.761515  0.205704  0.041879  1
  O  O20  1  0.909262  0.010041  0.357792  1
  O  O21  1  0.090738  0.989959  0.642208  1
  O  O22  1  0.547786  0.222762  0.735960  1
  O  O23  1  0.452214  0.777238  0.264040  1
  O  O24  1  0.353504  0.219733  0.018130  1
  O  O25  1  0.646496  0.780267  0.981870  1
  O  O26  1  0.335509  0.052252  0.425205  1
  O  O27  1  0.664491  0.947748  0.574795  1
  O  O28  1  0.221913  0.724141  0.429814  1
  O  O29  1  0.778087  0.275859  0.570186  1
  O  O30  1  0.700994  0.456582  0.239763  1
  O  O31  1  0.299006  0.543418  0.760237  1
  O  O32  1  0.177726  0.306468  0.411885  1
  O  O33  1  0.822274  0.693532  0.588115  1
