# generated using pymatgen
data_Mg3Ga3Pt10
_symmetry_space_group_name_H-M   'P 1'
_cell_length_a   4.06600800
_cell_length_b   5.56102620
_cell_length_c   10.92043439
_cell_angle_alpha   89.20965821
_cell_angle_beta   90.00000000
_cell_angle_gamma   90.00000000
_symmetry_Int_Tables_number   1
_chemical_formula_structural   Mg3Ga3Pt10
_chemical_formula_sum   'Mg3 Ga3 Pt10'
_cell_volume   246.90038347
_cell_formula_units_Z   1
loop_
 _symmetry_equiv_pos_site_id
 _symmetry_equiv_pos_as_xyz
  1  'x, y, z'
loop_
 _atom_site_type_symbol
 _atom_site_label
 _atom_site_symmetry_multiplicity
 _atom_site_fract_x
 _atom_site_fract_y
 _atom_site_fract_z
 _atom_site_occupancy
  Mg  Mg0  1  0.500000  0.193109  0.638679  1
  Mg  Mg1  1  0.500000  0.814013  0.363092  1
  Mg  Mg2  1  0.500000  0.686923  0.860645  1
  Ga  Ga3  1  0.500000  0.319984  0.142151  1
  Ga  Ga4  1  0.000000  0.499659  0.501057  1
  Ga  Ga5  1  0.000000  0.980896  0.994881  1
  Pt  Pt6  1  0.500000  0.300322  0.387805  1
  Pt  Pt7  1  0.500000  0.703091  0.609764  1
  Pt  Pt8  1  0.500000  0.794630  0.109618  1
  Pt  Pt9  1  0.500000  0.196899  0.895042  1
  Pt  Pt10  1  0.000000  0.444790  0.744003  1
  Pt  Pt11  1  0.000000  0.567257  0.260819  1
  Pt  Pt12  1  0.000000  0.945422  0.756171  1
  Pt  Pt13  1  0.000000  0.068045  0.233053  1
  Pt  Pt14  1  0.000000  0.483079  0.004817  1
  Pt  Pt15  1  0.000000  0.001881  0.498402  1
