# generated using pymatgen
data_Dy3Tm(Sc4Bi3)4
_symmetry_space_group_name_H-M   'P 1'
_cell_length_a   7.88798619
_cell_length_b   9.06972000
_cell_length_c   11.56130028
_cell_angle_alpha   90.00000000
_cell_angle_beta   90.02501391
_cell_angle_gamma   90.00000000
_symmetry_Int_Tables_number   1
_chemical_formula_structural   Dy3Tm(Sc4Bi3)4
_chemical_formula_sum   'Dy3 Tm1 Sc16 Bi12'
_cell_volume   827.11645484
_cell_formula_units_Z   1
loop_
 _symmetry_equiv_pos_site_id
 _symmetry_equiv_pos_as_xyz
  1  'x, y, z'
loop_
 _atom_site_type_symbol
 _atom_site_label
 _atom_site_symmetry_multiplicity
 _atom_site_fract_x
 _atom_site_fract_y
 _atom_site_fract_z
 _atom_site_occupancy
  Dy  Dy0  1  0.815869  0.250000  0.281305  1
  Dy  Dy1  1  0.684075  0.750000  0.781353  1
  Dy  Dy2  1  0.184022  0.750000  0.718706  1
  Tm  Tm3  1  0.315461  0.250000  0.218024  1
  Sc  Sc4  1  0.348524  0.750000  0.220612  1
  Sc  Sc5  1  0.848551  0.750000  0.279065  1
  Sc  Sc6  1  0.651401  0.250000  0.779455  1
  Sc  Sc7  1  0.151681  0.250000  0.720783  1
  Sc  Sc8  1  0.692981  0.567203  0.062142  1
  Sc  Sc9  1  0.192652  0.932902  0.437606  1
  Sc  Sc10  1  0.307202  0.067154  0.938048  1
  Sc  Sc11  1  0.807389  0.432815  0.562239  1
  Sc  Sc12  1  0.307202  0.432846  0.938048  1
  Sc  Sc13  1  0.807389  0.067185  0.562239  1
  Sc  Sc14  1  0.692981  0.932797  0.062142  1
  Sc  Sc15  1  0.192652  0.567098  0.437606  1
  Sc  Sc16  1  0.481870  0.250000  0.488475  1
  Sc  Sc17  1  0.982465  0.250000  0.011583  1
  Sc  Sc18  1  0.517695  0.750000  0.511185  1
  Sc  Sc19  1  0.017962  0.750000  0.988948  1
  Bi  Bi20  1  0.401947  0.750000  0.967052  1
  Bi  Bi21  1  0.901829  0.750000  0.532878  1
  Bi  Bi22  1  0.597033  0.250000  0.033925  1
  Bi  Bi23  1  0.098633  0.250000  0.466607  1
  Bi  Bi24  1  0.563078  0.990670  0.328024  1
  Bi  Bi25  1  0.065207  0.509164  0.171820  1
  Bi  Bi26  1  0.436022  0.489874  0.671621  1
  Bi  Bi27  1  0.935958  0.010166  0.828520  1
  Bi  Bi28  1  0.436022  0.010126  0.671621  1
  Bi  Bi29  1  0.935958  0.489834  0.828520  1
  Bi  Bi30  1  0.563078  0.509330  0.328024  1
  Bi  Bi31  1  0.065207  0.990836  0.171820  1
