# generated using pymatgen
data_Y2Co7Tc5P7
_symmetry_space_group_name_H-M   'P 1'
_cell_length_a   9.13444583
_cell_length_b   9.23746745
_cell_length_c   3.75890800
_cell_angle_alpha   90.00000000
_cell_angle_beta   90.00000000
_cell_angle_gamma   119.71172081
_symmetry_Int_Tables_number   1
_chemical_formula_structural   Y2Co7Tc5P7
_chemical_formula_sum   'Y2 Co7 Tc5 P7'
_cell_volume   275.47469908
_cell_formula_units_Z   1
loop_
 _symmetry_equiv_pos_site_id
 _symmetry_equiv_pos_as_xyz
  1  'x, y, z'
loop_
 _atom_site_type_symbol
 _atom_site_label
 _atom_site_symmetry_multiplicity
 _atom_site_fract_x
 _atom_site_fract_y
 _atom_site_fract_z
 _atom_site_occupancy
  Y  Y0  1  0.666373  0.328714  0.500000  1
  Y  Y1  1  0.336078  0.669846  0.000000  1
  Co  Co2  1  0.721645  0.884510  0.000000  1
  Co  Co3  1  0.120794  0.847276  0.000000  1
  Co  Co4  1  0.151243  0.267315  0.000000  1
  Co  Co5  1  0.932479  0.359885  0.000000  1
  Co  Co6  1  0.640446  0.577927  0.000000  1
  Co  Co7  1  0.431988  0.062778  0.000000  1
  Co  Co8  1  0.564326  0.953843  0.500000  1
  Tc  Tc9  1  0.390507  0.434836  0.500000  1
  Tc  Tc10  1  0.048347  0.611524  0.500000  1
  Tc  Tc11  1  0.212348  0.090320  0.500000  1
  Tc  Tc12  1  0.879853  0.793513  0.500000  1
  Tc  Tc13  1  0.901330  0.119579  0.500000  1
  P  P14  1  0.998453  0.998487  0.000000  1
  P  P15  1  0.414869  0.299087  0.000000  1
  P  P16  1  0.596583  0.718556  0.500000  1
  P  P17  1  0.291675  0.885274  0.500000  1
  P  P18  1  0.115598  0.398899  0.500000  1
  P  P19  1  0.698234  0.109938  0.000000  1
  P  P20  1  0.886829  0.587892  0.000000  1
