# generated using pymatgen
data_Pa4Al24Ir7Pt2
_symmetry_space_group_name_H-M   'P 1'
_cell_length_a   7.55163234
_cell_length_b   7.56420292
_cell_length_c   13.04985248
_cell_angle_alpha   84.26430130
_cell_angle_beta   78.99073699
_cell_angle_gamma   59.63999210
_symmetry_Int_Tables_number   1
_chemical_formula_structural   Pa4Al24Ir7Pt2
_chemical_formula_sum   'Pa4 Al24 Ir7 Pt2'
_cell_volume   631.36817769
_cell_formula_units_Z   1
loop_
 _symmetry_equiv_pos_site_id
 _symmetry_equiv_pos_as_xyz
  1  'x, y, z'
loop_
 _atom_site_type_symbol
 _atom_site_label
 _atom_site_symmetry_multiplicity
 _atom_site_fract_x
 _atom_site_fract_y
 _atom_site_fract_z
 _atom_site_occupancy
  Pa  Pa0  1  0.391560  0.168341  0.803458  1
  Pa  Pa1  1  0.608440  0.831659  0.196542  1
  Pa  Pa2  1  0.735070  0.503080  0.803532  1
  Pa  Pa3  1  0.264930  0.496920  0.196468  1
  Al  Al4  1  0.683056  0.834996  0.946963  1
  Al  Al5  1  0.316944  0.165004  0.053037  1
  Al  Al6  1  0.151369  0.828131  0.560110  1
  Al  Al7  1  0.848631  0.171869  0.439890  1
  Al  Al8  1  0.478992  0.165860  0.554356  1
  Al  Al9  1  0.521008  0.834140  0.445644  1
  Al  Al10  1  0.209712  0.166582  0.333649  1
  Al  Al11  1  0.790288  0.833418  0.666351  1
  Al  Al12  1  0.431518  0.513150  0.668303  1
  Al  Al13  1  0.568482  0.486850  0.331697  1
  Al  Al14  1  0.112397  0.153054  0.665157  1
  Al  Al15  1  0.887603  0.846946  0.334843  1
  Al  Al16  1  0.352664  0.499081  0.946259  1
  Al  Al17  1  0.647336  0.500919  0.053741  1
  Al  Al18  1  0.012827  0.168516  0.957030  1
  Al  Al19  1  0.987173  0.831484  0.042970  1
  Al  Al20  1  0.184597  0.496373  0.445702  1
  Al  Al21  1  0.815403  0.503627  0.554298  1
  Al  Al22  1  0.738800  0.162869  0.179859  1
  Al  Al23  1  0.261200  0.837131  0.820141  1
  Al  Al24  1  0.059159  0.634156  0.818807  1
  Al  Al25  1  0.940841  0.365844  0.181193  1
  Al  Al26  1  0.853709  0.042496  0.820987  1
  Al  Al27  1  0.146291  0.957504  0.179013  1
  Ir  Ir28  1  0.118778  0.486827  0.645124  1
  Ir  Ir29  1  0.881222  0.513173  0.354876  1
  Ir  Ir30  1  0.654416  0.172443  0.000815  1
  Ir  Ir31  1  0.345584  0.827557  0.999185  1
  Ir  Ir32  1  0.534798  0.167733  0.355109  1
  Ir  Ir33  1  0.465202  0.832267  0.644891  1
  Ir  Ir34  1  0.000000  0.500000  0.000000  1
  Pt  Pt35  1  0.775356  0.177383  0.640744  1
  Pt  Pt36  1  0.224644  0.822617  0.359256  1
