# generated using pymatgen
data_Dy8Y2(InSb)3
_symmetry_space_group_name_H-M   'P 1'
_cell_length_a   6.52865304
_cell_length_b   8.98591328
_cell_length_c   8.98605201
_cell_angle_alpha   119.99907722
_cell_angle_beta   89.99881520
_cell_angle_gamma   90.00093802
_symmetry_Int_Tables_number   1
_chemical_formula_structural   Dy8Y2(InSb)3
_chemical_formula_sum   'Dy8 Y2 In3 Sb3'
_cell_volume   456.55111659
_cell_formula_units_Z   1
loop_
 _symmetry_equiv_pos_site_id
 _symmetry_equiv_pos_as_xyz
  1  'x, y, z'
loop_
 _atom_site_type_symbol
 _atom_site_label
 _atom_site_symmetry_multiplicity
 _atom_site_fract_x
 _atom_site_fract_y
 _atom_site_fract_z
 _atom_site_occupancy
  Dy  Dy0  1  0.501218  0.333389  0.666745  1
  Dy  Dy1  1  0.501230  0.666629  0.333102  1
  Dy  Dy2  1  0.998662  0.666709  0.333411  1
  Dy  Dy3  1  0.998676  0.333197  0.666451  1
  Dy  Dy4  1  0.750070  0.999991  0.239584  1
  Dy  Dy5  1  0.250066  0.760925  0.000099  1
  Dy  Dy6  1  0.250023  0.239104  0.239173  1
  Dy  Dy7  1  0.250031  0.999991  0.760872  1
  Y  Y8  1  0.750074  0.239265  0.000001  1
  Y  Y9  1  0.750080  0.760625  0.760636  1
  In  In10  1  0.750072  0.606277  0.000058  1
  In  In11  1  0.749958  0.393748  0.393753  1
  In  In12  1  0.749927  0.000041  0.606175  1
  Sb  Sb13  1  0.249783  0.394005  0.999992  1
  Sb  Sb14  1  0.250053  0.606049  0.605985  1
  Sb  Sb15  1  0.250080  0.000054  0.393962  1
