# generated using pymatgen
data_LiAc3Ag2Sn3
_symmetry_space_group_name_H-M   'P 1'
_cell_length_a   4.88304100
_cell_length_b   4.88303890
_cell_length_c   12.92745900
_cell_angle_alpha   90.00000000
_cell_angle_beta   90.00000000
_cell_angle_gamma   119.99999387
_symmetry_Int_Tables_number   1
_chemical_formula_structural   LiAc3Ag2Sn3
_chemical_formula_sum   'Li1 Ac3 Ag2 Sn3'
_cell_volume   266.94659326
_cell_formula_units_Z   1
loop_
 _symmetry_equiv_pos_site_id
 _symmetry_equiv_pos_as_xyz
  1  'x, y, z'
loop_
 _atom_site_type_symbol
 _atom_site_label
 _atom_site_symmetry_multiplicity
 _atom_site_fract_x
 _atom_site_fract_y
 _atom_site_fract_z
 _atom_site_occupancy
  Li  Li0  1  0.000000  0.000000  0.823476  1
  Ac  Ac1  1  0.666667  0.333333  0.998433  1
  Ac  Ac2  1  0.666667  0.333333  0.665292  1
  Ac  Ac3  1  0.666667  0.333333  0.334672  1
  Ag  Ag4  1  0.000000  0.000000  0.166815  1
  Ag  Ag5  1  0.333333  0.666667  0.505819  1
  Sn  Sn6  1  0.333333  0.666667  0.830226  1
  Sn  Sn7  1  0.000000  0.000000  0.501809  1
  Sn  Sn8  1  0.333333  0.666667  0.173456  1
