# generated using pymatgen
data_Dy3ErBBr6
_symmetry_space_group_name_H-M   'P 1'
_cell_length_a   3.95013300
_cell_length_b   13.14120800
_cell_length_c   13.60941164
_cell_angle_alpha   89.81032629
_cell_angle_beta   90.00000000
_cell_angle_gamma   90.00000000
_symmetry_Int_Tables_number   1
_chemical_formula_structural   Dy3ErBBr6
_chemical_formula_sum   'Dy6 Er2 B2 Br12'
_cell_volume   706.45414652
_cell_formula_units_Z   2
loop_
 _symmetry_equiv_pos_site_id
 _symmetry_equiv_pos_as_xyz
  1  'x, y, z'
loop_
 _atom_site_type_symbol
 _atom_site_label
 _atom_site_symmetry_multiplicity
 _atom_site_fract_x
 _atom_site_fract_y
 _atom_site_fract_z
 _atom_site_occupancy
  Dy  Dy0  1  0.000000  0.102069  0.081013  1
  Dy  Dy1  1  0.000000  0.897931  0.918987  1
  Dy  Dy2  1  0.500000  0.122988  0.855438  1
  Dy  Dy3  1  0.500000  0.877012  0.144562  1
  Dy  Dy4  1  0.500000  0.622442  0.643983  1
  Dy  Dy5  1  0.500000  0.377558  0.356017  1
  Er  Er6  1  0.000000  0.600750  0.419975  1
  Er  Er7  1  0.000000  0.399250  0.580025  1
  B  B8  1  0.500000  0.000000  0.000000  1
  B  B9  1  0.500000  0.500000  0.500000  1
  Br  Br10  1  0.500000  0.270179  0.680479  1
  Br  Br11  1  0.500000  0.729821  0.319521  1
  Br  Br12  1  0.500000  0.767564  0.817544  1
  Br  Br13  1  0.500000  0.232436  0.182456  1
  Br  Br14  1  0.000000  0.261866  0.931152  1
  Br  Br15  1  0.000000  0.738134  0.068848  1
  Br  Br16  1  0.000000  0.482632  0.239705  1
  Br  Br17  1  0.000000  0.517368  0.760295  1
  Br  Br18  1  0.000000  0.980838  0.261394  1
  Br  Br19  1  0.000000  0.019162  0.738606  1
  Br  Br20  1  0.000000  0.239084  0.433151  1
  Br  Br21  1  0.000000  0.760916  0.566849  1
