# generated using pymatgen
data_PrGdAl16Pt9
_symmetry_space_group_name_H-M   'P 1'
_cell_length_a   11.17992314
_cell_length_b   11.17992355
_cell_length_c   11.17992400
_cell_angle_alpha   158.47254964
_cell_angle_beta   115.45092385
_cell_angle_gamma   68.90105314
_symmetry_Int_Tables_number   1
_chemical_formula_structural   PrGdAl16Pt9
_chemical_formula_sum   'Pr1 Gd1 Al16 Pt9'
_cell_volume   459.65543308
_cell_formula_units_Z   1
loop_
 _symmetry_equiv_pos_site_id
 _symmetry_equiv_pos_as_xyz
  1  'x, y, z'
loop_
 _atom_site_type_symbol
 _atom_site_label
 _atom_site_symmetry_multiplicity
 _atom_site_fract_x
 _atom_site_fract_y
 _atom_site_fract_z
 _atom_site_occupancy
  Pr  Pr0  1  0.228471  0.228471  0.000000  1
  Gd  Gd1  1  0.771338  0.771338  0.000000  1
  Al  Al2  1  0.272732  0.392123  0.880612  1
  Al  Al3  1  0.092320  0.920472  0.171847  1
  Al  Al4  1  0.512958  0.204165  0.308795  1
  Al  Al5  1  0.252545  0.079346  0.173199  1
  Al  Al6  1  0.913508  0.413508  0.500000  1
  Al  Al7  1  0.726657  0.608147  0.118509  1
  Al  Al8  1  0.895369  0.204165  0.691205  1
  Al  Al9  1  0.489295  0.795782  0.693512  1
  Al  Al10  1  0.386064  0.000066  0.385997  1
  Al  Al11  1  0.614068  0.000066  0.614003  1
  Al  Al12  1  0.489637  0.608147  0.881491  1
  Al  Al13  1  0.102269  0.795782  0.306488  1
  Al  Al14  1  0.906147  0.079346  0.826801  1
  Al  Al15  1  0.748625  0.920472  0.828153  1
  Al  Al16  1  0.511511  0.392123  0.119388  1
  Al  Al17  1  0.085638  0.585638  0.500000  1
  Pt  Pt18  1  0.747948  0.499997  0.247951  1
  Pt  Pt19  1  0.023799  0.339328  0.684471  1
  Pt  Pt20  1  0.625879  0.125879  0.500000  1
  Pt  Pt21  1  0.252046  0.499997  0.752049  1
  Pt  Pt22  1  0.375586  0.875586  0.500000  1
  Pt  Pt23  1  0.000385  0.000385  0.000000  1
  Pt  Pt24  1  0.654856  0.339328  0.315529  1
  Pt  Pt25  1  0.346650  0.660174  0.686477  1
  Pt  Pt26  1  0.973697  0.660174  0.313523  1
