# generated using pymatgen
data_Yb5PN5
_symmetry_space_group_name_H-M   'P 1'
_cell_length_a   7.03115344
_cell_length_b   7.03114194
_cell_length_c   8.20240694
_cell_angle_alpha   77.47081923
_cell_angle_beta   77.47113364
_cell_angle_gamma   97.41764996
_symmetry_Int_Tables_number   1
_chemical_formula_structural   Yb5PN5
_chemical_formula_sum   'Yb10 P2 N10'
_cell_volume   379.75949843
_cell_formula_units_Z   2
loop_
 _symmetry_equiv_pos_site_id
 _symmetry_equiv_pos_as_xyz
  1  'x, y, z'
loop_
 _atom_site_type_symbol
 _atom_site_label
 _atom_site_symmetry_multiplicity
 _atom_site_fract_x
 _atom_site_fract_y
 _atom_site_fract_z
 _atom_site_occupancy
  Yb  Yb0  1  0.407789  0.407789  0.371410  1
  Yb  Yb1  1  0.592211  0.592211  0.628590  1
  Yb  Yb2  1  0.664333  0.664334  0.008229  1
  Yb  Yb3  1  0.335667  0.335666  0.991771  1
  Yb  Yb4  1  0.927821  0.927822  0.181088  1
  Yb  Yb5  1  0.072179  0.072178  0.818912  1
  Yb  Yb6  1  0.541008  0.089710  0.769432  1
  Yb  Yb7  1  0.910291  0.458993  0.230568  1
  Yb  Yb8  1  0.458992  0.910290  0.230568  1
  Yb  Yb9  1  0.089709  0.541007  0.769432  1
  P  P10  1  0.758238  0.241762  0.000000  1
  P  P11  1  0.241762  0.758238  0.000000  1
  N  N12  1  0.666629  0.666627  0.323807  1
  N  N13  1  0.333371  0.333373  0.676193  1
  N  N14  1  0.721364  0.008825  0.981834  1
  N  N15  1  0.991175  0.278635  0.018167  1
  N  N16  1  0.278636  0.991175  0.018166  1
  N  N17  1  0.008825  0.721365  0.981833  1
  N  N18  1  0.399100  0.729919  0.826250  1
  N  N19  1  0.270082  0.600899  0.173749  1
  N  N20  1  0.600900  0.270081  0.173749  1
  N  N21  1  0.729918  0.399101  0.826250  1
