# generated using pymatgen
data_Ho3Tm7In8(PtAu)2
_symmetry_space_group_name_H-M   'P 1'
_cell_length_a   3.62171000
_cell_length_b   8.12469422
_cell_length_c   18.21968596
_cell_angle_alpha   90.00487071
_cell_angle_beta   90.00000000
_cell_angle_gamma   90.00000000
_symmetry_Int_Tables_number   1
_chemical_formula_structural   Ho3Tm7In8(PtAu)2
_chemical_formula_sum   'Ho3 Tm7 In8 Pt2 Au2'
_cell_volume   536.11947389
_cell_formula_units_Z   1
loop_
 _symmetry_equiv_pos_site_id
 _symmetry_equiv_pos_as_xyz
  1  'x, y, z'
loop_
 _atom_site_type_symbol
 _atom_site_label
 _atom_site_symmetry_multiplicity
 _atom_site_fract_x
 _atom_site_fract_y
 _atom_site_fract_z
 _atom_site_occupancy
  Ho  Ho0  1  0.000000  0.731967  0.278895  1
  Ho  Ho1  1  0.000000  0.000031  0.000030  1
  Ho  Ho2  1  0.000000  0.499994  0.499967  1
  Tm  Tm3  1  0.000000  0.119545  0.419119  1
  Tm  Tm4  1  0.000000  0.880541  0.580930  1
  Tm  Tm5  1  0.000000  0.384694  0.916097  1
  Tm  Tm6  1  0.000000  0.615248  0.083801  1
  Tm  Tm7  1  0.000000  0.253135  0.216882  1
  Tm  Tm8  1  0.000000  0.746799  0.783114  1
  Tm  Tm9  1  0.000000  0.268069  0.721298  1
  In  In10  1  0.500000  0.421438  0.352436  1
  In  In11  1  0.500000  0.578306  0.647628  1
  In  In12  1  0.500000  0.078288  0.852658  1
  In  In13  1  0.500000  0.921878  0.147216  1
  In  In14  1  0.500000  0.291967  0.065376  1
  In  In15  1  0.500000  0.707978  0.934614  1
  In  In16  1  0.500000  0.209531  0.567340  1
  In  In17  1  0.500000  0.790533  0.432835  1
  Pt  Pt18  1  0.500000  0.472205  0.804043  1
  Pt  Pt19  1  0.500000  0.526957  0.195635  1
  Au  Au20  1  0.500000  0.030289  0.302413  1
  Au  Au21  1  0.500000  0.970605  0.697672  1
