# generated using pymatgen
data_Tb10Y2OsPd3
_symmetry_space_group_name_H-M   'P 1'
_cell_length_a   6.45365580
_cell_length_b   7.16361977
_cell_length_c   9.56794200
_cell_angle_alpha   90.00000000
_cell_angle_beta   90.00000000
_cell_angle_gamma   90.10732479
_symmetry_Int_Tables_number   1
_chemical_formula_structural   Tb10Y2OsPd3
_chemical_formula_sum   'Tb10 Y2 Os1 Pd3'
_cell_volume   442.33988181
_cell_formula_units_Z   1
loop_
 _symmetry_equiv_pos_site_id
 _symmetry_equiv_pos_as_xyz
  1  'x, y, z'
loop_
 _atom_site_type_symbol
 _atom_site_label
 _atom_site_symmetry_multiplicity
 _atom_site_fract_x
 _atom_site_fract_y
 _atom_site_fract_z
 _atom_site_occupancy
  Tb  Tb0  1  0.330860  0.682701  0.053988  1
  Tb  Tb1  1  0.170855  0.180611  0.439468  1
  Tb  Tb2  1  0.671581  0.322860  0.563175  1
  Tb  Tb3  1  0.820179  0.815073  0.936875  1
  Tb  Tb4  1  0.671581  0.322860  0.936825  1
  Tb  Tb5  1  0.820179  0.815073  0.563125  1
  Tb  Tb6  1  0.330860  0.682701  0.446012  1
  Tb  Tb7  1  0.170855  0.180611  0.060532  1
  Tb  Tb8  1  0.133432  0.476074  0.750000  1
  Tb  Tb9  1  0.375852  0.963264  0.750000  1
  Y  Y10  1  0.871957  0.524812  0.250000  1
  Y  Y11  1  0.632531  0.027823  0.250000  1
  Os  Os12  1  0.550988  0.613009  0.750000  1
  Pd  Pd13  1  0.060114  0.887342  0.250000  1
  Pd  Pd14  1  0.438345  0.392458  0.250000  1
  Pd  Pd15  1  0.949831  0.112721  0.750000  1
