# generated using pymatgen
data_Nd3Si4(AsPd10)2
_symmetry_space_group_name_H-M   'P 1'
_cell_length_a   8.78121229
_cell_length_b   8.86790693
_cell_length_c   8.86790569
_cell_angle_alpha   59.35425950
_cell_angle_beta   60.32287335
_cell_angle_gamma   60.32287064
_symmetry_Int_Tables_number   1
_chemical_formula_structural   Nd3Si4(AsPd10)2
_chemical_formula_sum   'Nd3 Si4 As2 Pd20'
_cell_volume   488.20189607
_cell_formula_units_Z   1
loop_
 _symmetry_equiv_pos_site_id
 _symmetry_equiv_pos_as_xyz
  1  'x, y, z'
loop_
 _atom_site_type_symbol
 _atom_site_label
 _atom_site_symmetry_multiplicity
 _atom_site_fract_x
 _atom_site_fract_y
 _atom_site_fract_z
 _atom_site_occupancy
  Nd  Nd0  1  0.250000  0.250000  0.250000  1
  Nd  Nd1  1  0.750000  0.750000  0.750000  1
  Nd  Nd2  1  0.000000  0.000000  0.000000  1
  Si  Si3  1  0.267470  0.732530  0.267470  1
  Si  Si4  1  0.732530  0.267470  0.732530  1
  Si  Si5  1  0.267470  0.267470  0.732530  1
  Si  Si6  1  0.732530  0.732530  0.267470  1
  As  As7  1  0.736280  0.263720  0.263720  1
  As  As8  1  0.263720  0.736280  0.736280  1
  Pd  Pd9  1  0.346937  0.000000  0.000000  1
  Pd  Pd10  1  0.653063  0.000000  0.000000  1
  Pd  Pd11  1  0.000000  0.346937  0.653063  1
  Pd  Pd12  1  0.000000  0.653063  0.346937  1
  Pd  Pd13  1  0.009135  0.348152  0.990865  1
  Pd  Pd14  1  0.651848  0.990865  0.348152  1
  Pd  Pd15  1  0.990865  0.651848  0.009135  1
  Pd  Pd16  1  0.348152  0.009135  0.651848  1
  Pd  Pd17  1  0.009135  0.990865  0.348152  1
  Pd  Pd18  1  0.990865  0.009135  0.651848  1
  Pd  Pd19  1  0.651848  0.348152  0.990865  1
  Pd  Pd20  1  0.348152  0.651848  0.009135  1
  Pd  Pd21  1  0.380287  0.387761  0.387761  1
  Pd  Pd22  1  0.619713  0.612239  0.612239  1
  Pd  Pd23  1  0.387761  0.380287  0.844190  1
  Pd  Pd24  1  0.387761  0.844190  0.380287  1
  Pd  Pd25  1  0.612239  0.619713  0.155810  1
  Pd  Pd26  1  0.612239  0.155810  0.619713  1
  Pd  Pd27  1  0.844190  0.387761  0.387761  1
  Pd  Pd28  1  0.155810  0.612239  0.612239  1
