# generated using pymatgen
data_Ti20Ga5P7
_symmetry_space_group_name_H-M   'P 1'
_cell_length_a   6.60611679
_cell_length_b   7.70782316
_cell_length_c   9.72300657
_cell_angle_alpha   90.06350339
_cell_angle_beta   89.86287666
_cell_angle_gamma   90.13265563
_symmetry_Int_Tables_number   1
_chemical_formula_structural   Ti20Ga5P7
_chemical_formula_sum   'Ti20 Ga5 P7'
_cell_volume   495.08058662
_cell_formula_units_Z   1
loop_
 _symmetry_equiv_pos_site_id
 _symmetry_equiv_pos_as_xyz
  1  'x, y, z'
loop_
 _atom_site_type_symbol
 _atom_site_label
 _atom_site_symmetry_multiplicity
 _atom_site_fract_x
 _atom_site_fract_y
 _atom_site_fract_z
 _atom_site_occupancy
  Ti  Ti0  1  0.811078  0.554526  0.054939  1
  Ti  Ti1  1  0.686979  0.945002  0.553546  1
  Ti  Ti2  1  0.189381  0.053533  0.947278  1
  Ti  Ti3  1  0.314651  0.442327  0.439856  1
  Ti  Ti4  1  0.185892  0.448078  0.939246  1
  Ti  Ti5  1  0.320287  0.050140  0.431717  1
  Ti  Ti6  1  0.819762  0.950090  0.068150  1
  Ti  Ti7  1  0.676729  0.552785  0.566310  1
  Ti  Ti8  1  0.172052  0.770017  0.222340  1
  Ti  Ti9  1  0.333115  0.739681  0.724893  1
  Ti  Ti10  1  0.821717  0.260511  0.777834  1
  Ti  Ti11  1  0.672688  0.230260  0.275920  1
  Ti  Ti12  1  0.476633  0.750126  0.003139  1
  Ti  Ti13  1  0.021660  0.756409  0.500191  1
  Ti  Ti14  1  0.525632  0.251256  0.997784  1
  Ti  Ti15  1  0.976685  0.242876  0.495574  1
  Ti  Ti16  1  0.655741  0.763061  0.289750  1
  Ti  Ti17  1  0.838726  0.744100  0.791852  1
  Ti  Ti18  1  0.345765  0.259261  0.711064  1
  Ti  Ti19  1  0.156407  0.234558  0.208961  1
  Ga  Ga20  1  0.936344  0.506253  0.321337  1
  Ga  Ga21  1  0.563990  0.994214  0.820006  1
  Ga  Ga22  1  0.066091  0.007141  0.682285  1
  Ga  Ga23  1  0.435569  0.492695  0.180615  1
  Ga  Ga24  1  0.061729  0.493980  0.671249  1
  P  P25  1  0.400410  0.746854  0.473530  1
  P  P26  1  0.096191  0.750290  0.972590  1
  P  P27  1  0.598455  0.248326  0.526653  1
  P  P28  1  0.904770  0.252076  0.026031  1
  P  P29  1  0.437201  0.009309  0.169071  1
  P  P30  1  0.936151  0.990198  0.327662  1
  P  P31  1  0.561520  0.510068  0.828628  1
