# generated using pymatgen
data_Zr8Sc14Tc7Os
_symmetry_space_group_name_H-M   'P 1'
_cell_length_a   9.54464831
_cell_length_b   9.54464939
_cell_length_c   9.54464900
_cell_angle_alpha   60.00000482
_cell_angle_beta   60.00000109
_cell_angle_gamma   60.00000245
_symmetry_Int_Tables_number   1
_chemical_formula_structural   Zr8Sc14Tc7Os
_chemical_formula_sum   'Zr8 Sc14 Tc7 Os1'
_cell_volume   614.84394753
_cell_formula_units_Z   1
loop_
 _symmetry_equiv_pos_site_id
 _symmetry_equiv_pos_as_xyz
  1  'x, y, z'
loop_
 _atom_site_type_symbol
 _atom_site_label
 _atom_site_symmetry_multiplicity
 _atom_site_fract_x
 _atom_site_fract_y
 _atom_site_fract_z
 _atom_site_occupancy
  Zr  Zr0  1  0.843916  0.843916  0.843916  1
  Zr  Zr1  1  0.531747  0.156084  0.156084  1
  Zr  Zr2  1  0.156084  0.156084  0.531747  1
  Zr  Zr3  1  0.156084  0.531747  0.156084  1
  Zr  Zr4  1  0.843916  0.843916  0.468253  1
  Zr  Zr5  1  0.843916  0.468253  0.843916  1
  Zr  Zr6  1  0.468253  0.843916  0.843916  1
  Zr  Zr7  1  0.156084  0.156084  0.156084  1
  Sc  Sc8  1  0.199099  0.800901  0.199099  1
  Sc  Sc9  1  0.199099  0.800901  0.800901  1
  Sc  Sc10  1  0.800901  0.199099  0.199099  1
  Sc  Sc11  1  0.800901  0.800901  0.199099  1
  Sc  Sc12  1  0.199099  0.199099  0.800901  1
  Sc  Sc13  1  0.800901  0.199099  0.800901  1
  Sc  Sc14  1  0.383395  0.383395  0.383395  1
  Sc  Sc15  1  0.150184  0.616605  0.616605  1
  Sc  Sc16  1  0.616605  0.150184  0.616605  1
  Sc  Sc17  1  0.616605  0.616605  0.150184  1
  Sc  Sc18  1  0.383395  0.849816  0.383395  1
  Sc  Sc19  1  0.383395  0.383395  0.849816  1
  Sc  Sc20  1  0.849816  0.383395  0.383395  1
  Sc  Sc21  1  0.616605  0.616605  0.616605  1
  Tc  Tc22  1  0.500000  0.500000  0.000000  1
  Tc  Tc23  1  0.000000  0.000000  0.500000  1
  Tc  Tc24  1  0.500000  0.000000  0.500000  1
  Tc  Tc25  1  0.000000  0.500000  0.500000  1
  Tc  Tc26  1  0.500000  0.000000  0.000000  1
  Tc  Tc27  1  0.000000  0.500000  0.000000  1
  Tc  Tc28  1  0.000000  0.000000  0.000000  1
  Os  Os29  1  0.500000  0.500000  0.500000  1
