# generated using pymatgen
data_Tb4Al18ZnCo5
_symmetry_space_group_name_H-M   'P 1'
_cell_length_a   7.42783229
_cell_length_b   7.42783263
_cell_length_c   9.32030067
_cell_angle_alpha   89.85037131
_cell_angle_beta   89.85037740
_cell_angle_gamma   119.24264382
_symmetry_Int_Tables_number   1
_chemical_formula_structural   Tb4Al18ZnCo5
_chemical_formula_sum   'Tb4 Al18 Zn1 Co5'
_cell_volume   448.68649798
_cell_formula_units_Z   1
loop_
 _symmetry_equiv_pos_site_id
 _symmetry_equiv_pos_as_xyz
  1  'x, y, z'
loop_
 _atom_site_type_symbol
 _atom_site_label
 _atom_site_symmetry_multiplicity
 _atom_site_fract_x
 _atom_site_fract_y
 _atom_site_fract_z
 _atom_site_occupancy
  Tb  Tb0  1  0.995030  0.677775  0.249388  1
  Tb  Tb1  1  0.004970  0.322225  0.750612  1
  Tb  Tb2  1  0.677774  0.995030  0.249387  1
  Tb  Tb3  1  0.322226  0.004970  0.750613  1
  Al  Al4  1  0.136498  0.136498  0.262911  1
  Al  Al5  1  0.863502  0.863502  0.737089  1
  Al  Al6  1  0.001601  0.348475  0.076236  1
  Al  Al7  1  0.998399  0.651525  0.923764  1
  Al  Al8  1  0.003621  0.663629  0.568638  1
  Al  Al9  1  0.336371  0.996379  0.431362  1
  Al  Al10  1  0.996379  0.336371  0.431362  1
  Al  Al11  1  0.663629  0.003621  0.568638  1
  Al  Al12  1  0.651525  0.998399  0.923764  1
  Al  Al13  1  0.348475  0.001601  0.076236  1
  Al  Al14  1  0.332229  0.332229  0.542934  1
  Al  Al15  1  0.667771  0.667771  0.457066  1
  Al  Al16  1  0.655469  0.655469  0.052575  1
  Al  Al17  1  0.344531  0.344531  0.947425  1
  Al  Al18  1  0.339238  0.557465  0.252468  1
  Al  Al19  1  0.660762  0.442535  0.747532  1
  Al  Al20  1  0.557465  0.339238  0.252468  1
  Al  Al21  1  0.442535  0.660762  0.747532  1
  Zn  Zn22  1  0.000000  0.000000  0.000000  1
  Co  Co23  1  0.670944  0.329056  0.000000  1
  Co  Co24  1  0.329056  0.670944  0.000000  1
  Co  Co25  1  0.329151  0.670849  0.500000  1
  Co  Co26  1  0.670849  0.329151  0.500000  1
  Co  Co27  1  0.000000  0.000000  0.500000  1
