# generated using pymatgen
data_Lu12Th4Mg3HgRh4
_symmetry_space_group_name_H-M   'P 1'
_cell_length_a   9.62896530
_cell_length_b   9.62896572
_cell_length_c   9.62896695
_cell_angle_alpha   59.80479364
_cell_angle_beta   59.80479308
_cell_angle_gamma   59.80479531
_symmetry_Int_Tables_number   1
_chemical_formula_structural   Lu12Th4Mg3HgRh4
_chemical_formula_sum   'Lu12 Th4 Mg3 Hg1 Rh4'
_cell_volume   628.48545797
_cell_formula_units_Z   1
loop_
 _symmetry_equiv_pos_site_id
 _symmetry_equiv_pos_as_xyz
  1  'x, y, z'
loop_
 _atom_site_type_symbol
 _atom_site_label
 _atom_site_symmetry_multiplicity
 _atom_site_fract_x
 _atom_site_fract_y
 _atom_site_fract_z
 _atom_site_occupancy
  Lu  Lu0  1  0.812752  0.186493  0.186493  1
  Lu  Lu1  1  0.184779  0.814028  0.814028  1
  Lu  Lu2  1  0.186493  0.812752  0.186493  1
  Lu  Lu3  1  0.814028  0.184779  0.814028  1
  Lu  Lu4  1  0.186493  0.186493  0.812752  1
  Lu  Lu5  1  0.814028  0.814028  0.184779  1
  Lu  Lu6  1  0.931423  0.567079  0.567079  1
  Lu  Lu7  1  0.568433  0.932695  0.932695  1
  Lu  Lu8  1  0.567079  0.931423  0.567079  1
  Lu  Lu9  1  0.932695  0.568433  0.932695  1
  Lu  Lu10  1  0.567079  0.567079  0.931423  1
  Lu  Lu11  1  0.932695  0.932695  0.568433  1
  Th  Th12  1  0.349506  0.349506  0.349506  1
  Th  Th13  1  0.352308  0.352308  0.946769  1
  Th  Th14  1  0.352308  0.946769  0.352308  1
  Th  Th15  1  0.946769  0.352308  0.352308  1
  Mg  Mg16  1  0.580977  0.580977  0.257186  1
  Mg  Mg17  1  0.580977  0.257186  0.580977  1
  Mg  Mg18  1  0.257186  0.580977  0.580977  1
  Hg  Hg19  1  0.584376  0.584376  0.584376  1
  Rh  Rh20  1  0.142631  0.142631  0.142631  1
  Rh  Rh21  1  0.142062  0.142062  0.570863  1
  Rh  Rh22  1  0.142062  0.570863  0.142062  1
  Rh  Rh23  1  0.570863  0.142062  0.142062  1
