# generated using pymatgen
data_NaCr(TcO4)4
_symmetry_space_group_name_H-M   'P 1'
_cell_length_a   5.63756732
_cell_length_b   9.77182083
_cell_length_c   6.49087600
_cell_angle_alpha   90.01694513
_cell_angle_beta   89.96085131
_cell_angle_gamma   89.98362933
_symmetry_Int_Tables_number   1
_chemical_formula_structural   NaCr(TcO4)4
_chemical_formula_sum   'Na1 Cr1 Tc4 O16'
_cell_volume   357.57768664
_cell_formula_units_Z   1
loop_
 _symmetry_equiv_pos_site_id
 _symmetry_equiv_pos_as_xyz
  1  'x, y, z'
loop_
 _atom_site_type_symbol
 _atom_site_label
 _atom_site_symmetry_multiplicity
 _atom_site_fract_x
 _atom_site_fract_y
 _atom_site_fract_z
 _atom_site_occupancy
  Na  Na0  1  0.499955  0.499992  0.999932  1
  Cr  Cr1  1  0.000176  0.000158  0.999833  1
  Tc  Tc2  1  0.999806  0.320309  0.306595  1
  Tc  Tc3  1  0.499536  0.845247  0.288991  1
  Tc  Tc4  1  0.500504  0.154583  0.711116  1
  Tc  Tc5  1  0.000112  0.679792  0.693388  1
  O  O6  1  0.499150  0.144160  0.446663  1
  O  O7  1  0.000476  0.701674  0.429841  1
  O  O8  1  0.999427  0.298470  0.570184  1
  O  O9  1  0.500932  0.855658  0.553520  1
  O  O10  1  0.750482  0.072365  0.815161  1
  O  O11  1  0.240200  0.581547  0.762508  1
  O  O12  1  0.986291  0.160404  0.176851  1
  O  O13  1  0.489735  0.676303  0.222993  1
  O  O14  1  0.253480  0.405591  0.235452  1
  O  O15  1  0.757834  0.917272  0.182729  1
  O  O16  1  0.759626  0.418441  0.237417  1
  O  O17  1  0.249601  0.927647  0.184981  1
  O  O18  1  0.510269  0.323541  0.776637  1
  O  O19  1  0.013868  0.839610  0.823201  1
  O  O20  1  0.242277  0.082667  0.817433  1
  O  O21  1  0.746264  0.594571  0.764573  1
