# generated using pymatgen
data_Ta9NbSi5Pt
_symmetry_space_group_name_H-M   'P 1'
_cell_length_a   7.55926728
_cell_length_b   7.55741784
_cell_length_c   7.55995175
_cell_angle_alpha   127.93043306
_cell_angle_beta   127.95503252
_cell_angle_gamma   76.67202633
_symmetry_Int_Tables_number   1
_chemical_formula_structural   Ta9NbSi5Pt
_chemical_formula_sum   'Ta9 Nb1 Si5 Pt1'
_cell_volume   260.93678767
_cell_formula_units_Z   1
loop_
 _symmetry_equiv_pos_site_id
 _symmetry_equiv_pos_as_xyz
  1  'x, y, z'
loop_
 _atom_site_type_symbol
 _atom_site_label
 _atom_site_symmetry_multiplicity
 _atom_site_fract_x
 _atom_site_fract_y
 _atom_site_fract_z
 _atom_site_occupancy
  Ta  Ta0  1  0.682140  0.511024  0.490881  1
  Ta  Ta1  1  0.511277  0.019503  0.828477  1
  Ta  Ta2  1  0.191322  0.682665  0.171742  1
  Ta  Ta3  1  0.989063  0.817720  0.508447  1
  Ta  Ta4  1  0.308602  0.480312  0.491111  1
  Ta  Ta5  1  0.480058  0.988653  0.171497  1
  Ta  Ta6  1  0.816920  0.308482  0.828531  1
  Ta  Ta7  1  0.998754  0.998916  0.999660  1
  Ta  Ta8  1  0.501275  0.501156  0.000449  1
  Nb  Nb9  1  0.021281  0.192893  0.510442  1
  Si  Si10  1  0.250084  0.250059  0.000365  1
  Si  Si11  1  0.370179  0.129560  0.499915  1
  Si  Si12  1  0.629752  0.870221  0.499916  1
  Si  Si13  1  0.870247  0.370282  0.240561  1
  Si  Si14  1  0.129634  0.629844  0.759448  1
  Pt  Pt15  1  0.749412  0.748711  0.998559  1
