# generated using pymatgen
data_Ac(ReO4)3
_symmetry_space_group_name_H-M   'P 1'
_cell_length_a   10.76799900
_cell_length_b   10.76799856
_cell_length_c   6.64866400
_cell_angle_alpha   90.00000000
_cell_angle_beta   90.00000000
_cell_angle_gamma   120.00000321
_symmetry_Int_Tables_number   1
_chemical_formula_structural   Ac(ReO4)3
_chemical_formula_sum   'Ac2 Re6 O24'
_cell_volume   667.62870151
_cell_formula_units_Z   2
loop_
 _symmetry_equiv_pos_site_id
 _symmetry_equiv_pos_as_xyz
  1  'x, y, z'
loop_
 _atom_site_type_symbol
 _atom_site_label
 _atom_site_symmetry_multiplicity
 _atom_site_fract_x
 _atom_site_fract_y
 _atom_site_fract_z
 _atom_site_occupancy
  Ac  Ac0  1  0.666667  0.333333  0.750000  1
  Ac  Ac1  1  0.333333  0.666667  0.250000  1
  Re  Re2  1  0.089556  0.396072  0.750000  1
  Re  Re3  1  0.396072  0.306517  0.250000  1
  Re  Re4  1  0.603928  0.693483  0.750000  1
  Re  Re5  1  0.910444  0.603928  0.250000  1
  Re  Re6  1  0.306517  0.910444  0.750000  1
  Re  Re7  1  0.693483  0.089556  0.250000  1
  O  O8  1  0.495208  0.653222  0.534244  1
  O  O9  1  0.346778  0.841986  0.534244  1
  O  O10  1  0.856030  0.729864  0.250000  1
  O  O11  1  0.126167  0.856030  0.750000  1
  O  O12  1  0.270136  0.126167  0.250000  1
  O  O13  1  0.143970  0.270136  0.750000  1
  O  O14  1  0.504792  0.346778  0.034244  1
  O  O15  1  0.873833  0.143970  0.250000  1
  O  O16  1  0.098856  0.689192  0.250000  1
  O  O17  1  0.158014  0.504792  0.965756  1
  O  O18  1  0.158014  0.504792  0.534244  1
  O  O19  1  0.901144  0.310808  0.750000  1
  O  O20  1  0.310808  0.409664  0.250000  1
  O  O21  1  0.689192  0.590336  0.750000  1
  O  O22  1  0.841986  0.495208  0.465756  1
  O  O23  1  0.409664  0.098856  0.750000  1
  O  O24  1  0.653222  0.158014  0.034244  1
  O  O25  1  0.495208  0.653222  0.965756  1
  O  O26  1  0.346778  0.841986  0.965756  1
  O  O27  1  0.653222  0.158014  0.465756  1
  O  O28  1  0.504792  0.346778  0.465756  1
  O  O29  1  0.841986  0.495208  0.034244  1
  O  O30  1  0.729864  0.873833  0.750000  1
  O  O31  1  0.590336  0.901144  0.250000  1
