# generated using pymatgen
data_ThPa3(GaOs)4
_symmetry_space_group_name_H-M   'P 1'
_cell_length_a   4.23998800
_cell_length_b   6.80322794
_cell_length_c   8.03473800
_cell_angle_alpha   90.41088884
_cell_angle_beta   90.00000000
_cell_angle_gamma   90.00000000
_symmetry_Int_Tables_number   1
_chemical_formula_structural   ThPa3(GaOs)4
_chemical_formula_sum   'Th1 Pa3 Ga4 Os4'
_cell_volume   231.76091752
_cell_formula_units_Z   1
loop_
 _symmetry_equiv_pos_site_id
 _symmetry_equiv_pos_as_xyz
  1  'x, y, z'
loop_
 _atom_site_type_symbol
 _atom_site_label
 _atom_site_symmetry_multiplicity
 _atom_site_fract_x
 _atom_site_fract_y
 _atom_site_fract_z
 _atom_site_occupancy
  Th  Th0  1  0.750000  0.530415  0.811724  1
  Pa  Pa1  1  0.250000  0.969549  0.310660  1
  Pa  Pa2  1  0.250000  0.466160  0.189348  1
  Pa  Pa3  1  0.750000  0.035300  0.686355  1
  Ga  Ga4  1  0.250000  0.355901  0.561394  1
  Ga  Ga5  1  0.250000  0.852028  0.938530  1
  Ga  Ga6  1  0.750000  0.648524  0.438117  1
  Ga  Ga7  1  0.750000  0.140713  0.062485  1
  Os  Os8  1  0.250000  0.237615  0.880187  1
  Os  Os9  1  0.250000  0.763059  0.613553  1
  Os  Os10  1  0.750000  0.749176  0.128974  1
  Os  Os11  1  0.750000  0.251559  0.378675  1
