# generated using pymatgen
data_Hf5ZrTi4Al12Ir7
_symmetry_space_group_name_H-M   'P 1'
_cell_length_a   8.77596830
_cell_length_b   8.76032012
_cell_length_c   8.76032023
_cell_angle_alpha   60.14340293
_cell_angle_beta   59.94088333
_cell_angle_gamma   59.94089497
_symmetry_Int_Tables_number   1
_chemical_formula_structural   Hf5ZrTi4Al12Ir7
_chemical_formula_sum   'Hf5 Zr1 Ti4 Al12 Ir7'
_cell_volume   476.32022453
_cell_formula_units_Z   1
loop_
 _symmetry_equiv_pos_site_id
 _symmetry_equiv_pos_as_xyz
  1  'x, y, z'
loop_
 _atom_site_type_symbol
 _atom_site_label
 _atom_site_symmetry_multiplicity
 _atom_site_fract_x
 _atom_site_fract_y
 _atom_site_fract_z
 _atom_site_occupancy
  Hf  Hf0  1  0.689618  0.689144  0.310087  1
  Hf  Hf1  1  0.311150  0.689144  0.310087  1
  Hf  Hf2  1  0.685067  0.314933  0.314933  1
  Hf  Hf3  1  0.311150  0.310087  0.689144  1
  Hf  Hf4  1  0.689618  0.310087  0.689144  1
  Zr  Zr5  1  0.312950  0.687050  0.687050  1
  Ti  Ti6  1  0.879880  0.880186  0.360055  1
  Ti  Ti7  1  0.879880  0.360055  0.880186  1
  Ti  Ti8  1  0.360487  0.879809  0.879809  1
  Ti  Ti9  1  0.879896  0.879809  0.879809  1
  Al  Al10  1  0.119884  0.120452  0.639780  1
  Al  Al11  1  0.119884  0.639780  0.120452  1
  Al  Al12  1  0.640333  0.119945  0.119945  1
  Al  Al13  1  0.119778  0.119945  0.119945  1
  Al  Al14  1  0.661885  0.662262  0.013968  1
  Al  Al15  1  0.661885  0.013968  0.662262  1
  Al  Al16  1  0.013331  0.661918  0.661918  1
  Al  Al17  1  0.662832  0.661918  0.661918  1
  Al  Al18  1  0.336564  0.336382  0.990492  1
  Al  Al19  1  0.336564  0.990492  0.336382  1
  Al  Al20  1  0.989863  0.336712  0.336712  1
  Al  Al21  1  0.336714  0.336712  0.336712  1
  Ir  Ir22  1  0.000324  0.999676  0.999676  1
  Ir  Ir23  1  0.997611  0.998861  0.500927  1
  Ir  Ir24  1  0.502602  0.998861  0.500927  1
  Ir  Ir25  1  0.998441  0.501559  0.501559  1
  Ir  Ir26  1  0.502602  0.500927  0.998861  1
  Ir  Ir27  1  0.997611  0.500927  0.998861  1
  Ir  Ir28  1  0.501597  0.998403  0.998403  1
