# generated using pymatgen
data_Dy2Ho14MgZn3Co4
_symmetry_space_group_name_H-M   'P 1'
_cell_length_a   9.38078780
_cell_length_b   9.36050223
_cell_length_c   9.36390700
_cell_angle_alpha   59.98796337
_cell_angle_beta   60.05950589
_cell_angle_gamma   60.06919426
_symmetry_Int_Tables_number   1
_chemical_formula_structural   Dy2Ho14MgZn3Co4
_chemical_formula_sum   'Dy2 Ho14 Mg1 Zn3 Co4'
_cell_volume   581.91919793
_cell_formula_units_Z   1
loop_
 _symmetry_equiv_pos_site_id
 _symmetry_equiv_pos_as_xyz
  1  'x, y, z'
loop_
 _atom_site_type_symbol
 _atom_site_label
 _atom_site_symmetry_multiplicity
 _atom_site_fract_x
 _atom_site_fract_y
 _atom_site_fract_z
 _atom_site_occupancy
  Dy  Dy0  1  0.348668  0.347094  0.347001  1
  Dy  Dy1  1  0.348668  0.347094  0.957238  1
  Ho  Ho2  1  0.348856  0.957477  0.346834  1
  Ho  Ho3  1  0.945477  0.351477  0.351523  1
  Ho  Ho4  1  0.808531  0.191080  0.191109  1
  Ho  Ho5  1  0.188272  0.812236  0.812260  1
  Ho  Ho6  1  0.188272  0.812236  0.187232  1
  Ho  Ho7  1  0.808531  0.191080  0.809281  1
  Ho  Ho8  1  0.188111  0.186942  0.812474  1
  Ho  Ho9  1  0.808451  0.809143  0.191203  1
  Ho  Ho10  1  0.933679  0.562808  0.562256  1
  Ho  Ho11  1  0.561633  0.937169  0.937241  1
  Ho  Ho12  1  0.561633  0.937169  0.563959  1
  Ho  Ho13  1  0.933679  0.562808  0.941257  1
  Ho  Ho14  1  0.561538  0.564245  0.937109  1
  Ho  Ho15  1  0.934017  0.941452  0.562266  1
  Mg  Mg16  1  0.290346  0.570149  0.569752  1
  Zn  Zn17  1  0.584471  0.580495  0.580182  1
  Zn  Zn18  1  0.584471  0.580495  0.254852  1
  Zn  Zn19  1  0.584547  0.254928  0.580263  1
  Co  Co20  1  0.137701  0.142818  0.143911  1
  Co  Co21  1  0.137701  0.142818  0.575569  1
  Co  Co22  1  0.137452  0.575766  0.143390  1
  Co  Co23  1  0.575297  0.141025  0.141840  1
