# generated using pymatgen
data_Mn3Al(SiOs2)4
_symmetry_space_group_name_H-M   'P 1'
_cell_length_a   5.95195700
_cell_length_b   4.20679000
_cell_length_c   8.41626100
_cell_angle_alpha   90.00000000
_cell_angle_beta   90.00023125
_cell_angle_gamma   90.00000000
_symmetry_Int_Tables_number   1
_chemical_formula_structural   Mn3Al(SiOs2)4
_chemical_formula_sum   'Mn3 Al1 Si4 Os8'
_cell_volume   210.73167199
_cell_formula_units_Z   1
loop_
 _symmetry_equiv_pos_site_id
 _symmetry_equiv_pos_as_xyz
  1  'x, y, z'
loop_
 _atom_site_type_symbol
 _atom_site_label
 _atom_site_symmetry_multiplicity
 _atom_site_fract_x
 _atom_site_fract_y
 _atom_site_fract_z
 _atom_site_occupancy
  Mn  Mn0  1  0.749971  0.249999  0.124272  1
  Mn  Mn1  1  0.249974  0.750000  0.375000  1
  Mn  Mn2  1  0.750027  0.249999  0.625725  1
  Al  Al3  1  0.250019  0.750000  0.874990  1
  Si  Si4  1  0.249983  0.249999  0.124872  1
  Si  Si5  1  0.749986  0.750000  0.374995  1
  Si  Si6  1  0.250013  0.249999  0.625140  1
  Si  Si7  1  0.750027  0.750000  0.874988  1
  Os  Os8  1  0.999356  0.750000  0.126671  1
  Os  Os9  1  0.500594  0.750000  0.126673  1
  Os  Os10  1  0.001138  0.249999  0.375007  1
  Os  Os11  1  0.498832  0.249999  0.375007  1
  Os  Os12  1  0.500639  0.750000  0.623318  1
  Os  Os13  1  0.999402  0.750000  0.623325  1
  Os  Os14  1  0.501176  0.249999  0.875007  1
  Os  Os15  1  0.998868  0.249999  0.875012  1
