# generated using pymatgen
data_Y3Cd5Ir
_symmetry_space_group_name_H-M   'P 1'
_cell_length_a   8.14368400
_cell_length_b   8.14368381
_cell_length_c   3.75666900
_cell_angle_alpha   90.00000000
_cell_angle_beta   90.00000000
_cell_angle_gamma   120.00000079
_symmetry_Int_Tables_number   1
_chemical_formula_structural   Y3Cd5Ir
_chemical_formula_sum   'Y3 Cd5 Ir1'
_cell_volume   215.76220693
_cell_formula_units_Z   1
loop_
 _symmetry_equiv_pos_site_id
 _symmetry_equiv_pos_as_xyz
  1  'x, y, z'
loop_
 _atom_site_type_symbol
 _atom_site_label
 _atom_site_symmetry_multiplicity
 _atom_site_fract_x
 _atom_site_fract_y
 _atom_site_fract_z
 _atom_site_occupancy
  Y  Y0  1  0.573102  0.956906  0.000000  1
  Y  Y1  1  0.043094  0.616196  0.000000  1
  Y  Y2  1  0.383804  0.426898  0.000000  1
  Cd  Cd3  1  0.279462  0.006921  0.500000  1
  Cd  Cd4  1  0.993079  0.272541  0.500000  1
  Cd  Cd5  1  0.727459  0.720538  0.500000  1
  Cd  Cd6  1  0.666667  0.333333  0.500000  1
  Cd  Cd7  1  0.000000  0.000000  0.000000  1
  Ir  Ir8  1  0.333333  0.666667  0.500000  1
