# generated using pymatgen
data_Sm4PCl6
_symmetry_space_group_name_H-M   'P 1'
_cell_length_a   3.97647800
_cell_length_b   12.72502900
_cell_length_c   13.60223600
_cell_angle_alpha   90.00000000
_cell_angle_beta   90.00000000
_cell_angle_gamma   90.00000000
_symmetry_Int_Tables_number   1
_chemical_formula_structural   Sm4PCl6
_chemical_formula_sum   'Sm8 P2 Cl12'
_cell_volume   688.28399439
_cell_formula_units_Z   2
loop_
 _symmetry_equiv_pos_site_id
 _symmetry_equiv_pos_as_xyz
  1  'x, y, z'
loop_
 _atom_site_type_symbol
 _atom_site_label
 _atom_site_symmetry_multiplicity
 _atom_site_fract_x
 _atom_site_fract_y
 _atom_site_fract_z
 _atom_site_occupancy
  Sm  Sm0  1  0.500000  0.121638  0.337491  1
  Sm  Sm1  1  0.500000  0.878362  0.662509  1
  Sm  Sm2  1  0.500000  0.621638  0.162509  1
  Sm  Sm3  1  0.500000  0.378362  0.837491  1
  Sm  Sm4  1  0.000000  0.121123  0.579969  1
  Sm  Sm5  1  0.000000  0.878877  0.420031  1
  Sm  Sm6  1  0.000000  0.621123  0.920031  1
  Sm  Sm7  1  0.000000  0.378877  0.079969  1
  P  P8  1  0.500000  0.000000  0.500000  1
  P  P9  1  0.500000  0.500000  0.000000  1
  Cl  Cl10  1  0.500000  0.242288  0.163478  1
  Cl  Cl11  1  0.500000  0.757712  0.836522  1
  Cl  Cl12  1  0.500000  0.742288  0.336522  1
  Cl  Cl13  1  0.500000  0.257712  0.663478  1
  Cl  Cl14  1  0.000000  0.254869  0.411307  1
  Cl  Cl15  1  0.000000  0.745131  0.588693  1
  Cl  Cl16  1  0.000000  0.754869  0.088693  1
  Cl  Cl17  1  0.000000  0.245131  0.911307  1
  Cl  Cl18  1  0.000000  0.002198  0.244870  1
  Cl  Cl19  1  0.000000  0.997802  0.755130  1
  Cl  Cl20  1  0.000000  0.502198  0.255130  1
  Cl  Cl21  1  0.000000  0.497802  0.744870  1
