# generated using pymatgen
data_Hf2VW3
_symmetry_space_group_name_H-M   'P 1'
_cell_length_a   5.36500198
_cell_length_b   5.30919246
_cell_length_c   5.36500200
_cell_angle_alpha   59.65165662
_cell_angle_beta   59.99999988
_cell_angle_gamma   59.65166388
_symmetry_Int_Tables_number   1
_chemical_formula_structural   Hf2VW3
_chemical_formula_sum   'Hf2 V1 W3'
_cell_volume   107.48464804
_cell_formula_units_Z   1
loop_
 _symmetry_equiv_pos_site_id
 _symmetry_equiv_pos_as_xyz
  1  'x, y, z'
loop_
 _atom_site_type_symbol
 _atom_site_label
 _atom_site_symmetry_multiplicity
 _atom_site_fract_x
 _atom_site_fract_y
 _atom_site_fract_z
 _atom_site_occupancy
  Hf  Hf0  1  0.250113  0.249661  0.250113  1
  Hf  Hf1  1  0.999887  0.000339  0.999887  1
  V  V2  1  0.625000  0.125000  0.625000  1
  W  W3  1  0.625000  0.625000  0.125000  1
  W  W4  1  0.125000  0.625000  0.625000  1
  W  W5  1  0.625000  0.625000  0.625000  1
