# generated using pymatgen
data_Nd3Y(ErPt)4
_symmetry_space_group_name_H-M   'P 1'
_cell_length_a   4.81314300
_cell_length_b   7.28145752
_cell_length_c   8.74199200
_cell_angle_alpha   90.11829848
_cell_angle_beta   90.00000000
_cell_angle_gamma   90.00000000
_symmetry_Int_Tables_number   1
_chemical_formula_structural   Nd3Y(ErPt)4
_chemical_formula_sum   'Nd3 Y1 Er4 Pt4'
_cell_volume   306.37728559
_cell_formula_units_Z   1
loop_
 _symmetry_equiv_pos_site_id
 _symmetry_equiv_pos_as_xyz
  1  'x, y, z'
loop_
 _atom_site_type_symbol
 _atom_site_label
 _atom_site_symmetry_multiplicity
 _atom_site_fract_x
 _atom_site_fract_y
 _atom_site_fract_z
 _atom_site_occupancy
  Nd  Nd0  1  0.250000  0.514670  0.824017  1
  Nd  Nd1  1  0.750000  0.986168  0.327447  1
  Nd  Nd2  1  0.750000  0.485583  0.173085  1
  Y  Y3  1  0.250000  0.016720  0.673476  1
  Er  Er4  1  0.250000  0.143807  0.074353  1
  Er  Er5  1  0.250000  0.643593  0.425065  1
  Er  Er6  1  0.750000  0.856476  0.920497  1
  Er  Er7  1  0.750000  0.354564  0.577448  1
  Pt  Pt8  1  0.250000  0.253287  0.410920  1
  Pt  Pt9  1  0.250000  0.755064  0.093711  1
  Pt  Pt10  1  0.750000  0.747801  0.596003  1
  Pt  Pt11  1  0.750000  0.242267  0.903978  1
