# generated using pymatgen
data_TbYbSmGa9Pd2
_symmetry_space_group_name_H-M   'P 1'
_cell_length_a   8.19958074
_cell_length_b   8.19958009
_cell_length_c   8.19958055
_cell_angle_alpha   149.17380178
_cell_angle_beta   109.54349534
_cell_angle_gamma   78.85760054
_symmetry_Int_Tables_number   1
_chemical_formula_structural   TbYbSmGa9Pd2
_chemical_formula_sum   'Tb1 Yb1 Sm1 Ga9 Pd2'
_cell_volume   261.12810456
_cell_formula_units_Z   1
loop_
 _symmetry_equiv_pos_site_id
 _symmetry_equiv_pos_as_xyz
  1  'x, y, z'
loop_
 _atom_site_type_symbol
 _atom_site_label
 _atom_site_symmetry_multiplicity
 _atom_site_fract_x
 _atom_site_fract_y
 _atom_site_fract_z
 _atom_site_occupancy
  Tb  Tb0  1  0.200067  0.200067  0.000000  1
  Yb  Yb1  1  0.800757  0.800757  0.000000  1
  Sm  Sm2  1  0.500242  0.500242  0.000000  1
  Ga  Ga3  1  0.077301  0.360172  0.717128  1
  Ga  Ga4  1  0.919688  0.638109  0.281579  1
  Ga  Ga5  1  0.643044  0.360172  0.282872  1
  Ga  Ga6  1  0.356529  0.638109  0.718421  1
  Ga  Ga7  1  0.794781  0.159004  0.635777  1
  Ga  Ga8  1  0.208770  0.843150  0.365621  1
  Ga  Ga9  1  0.523226  0.159004  0.364223  1
  Ga  Ga10  1  0.477530  0.843150  0.634379  1
  Ga  Ga11  1  0.999849  0.499849  0.500000  1
  Pd  Pd12  1  0.816464  0.999108  0.817357  1
  Pd  Pd13  1  0.181751  0.999108  0.182643  1
