# generated using pymatgen
data_Tb8Tl4PdAu7
_symmetry_space_group_name_H-M   'P 1'
_cell_length_a   8.04399819
_cell_length_b   8.04399855
_cell_length_c   7.36837300
_cell_angle_alpha   90.03116224
_cell_angle_beta   89.96883775
_cell_angle_gamma   89.79930323
_symmetry_Int_Tables_number   1
_chemical_formula_structural   Tb8Tl4PdAu7
_chemical_formula_sum   'Tb8 Tl4 Pd1 Au7'
_cell_volume   476.77421185
_cell_formula_units_Z   1
loop_
 _symmetry_equiv_pos_site_id
 _symmetry_equiv_pos_as_xyz
  1  'x, y, z'
loop_
 _atom_site_type_symbol
 _atom_site_label
 _atom_site_symmetry_multiplicity
 _atom_site_fract_x
 _atom_site_fract_y
 _atom_site_fract_z
 _atom_site_occupancy
  Tb  Tb0  1  0.166239  0.160214  0.997704  1
  Tb  Tb1  1  0.839786  0.833761  0.997704  1
  Tb  Tb2  1  0.663724  0.336276  0.499884  1
  Tb  Tb3  1  0.332132  0.667868  0.503052  1
  Tb  Tb4  1  0.674885  0.325115  0.999989  1
  Tb  Tb5  1  0.321650  0.678350  0.997714  1
  Tb  Tb6  1  0.828516  0.823925  0.501954  1
  Tb  Tb7  1  0.176075  0.171484  0.501954  1
  Tl  Tl8  1  0.502086  0.999997  0.249706  1
  Tl  Tl9  1  0.494377  0.997860  0.749105  1
  Tl  Tl10  1  0.000003  0.497914  0.249706  1
  Tl  Tl11  1  0.002140  0.505623  0.749105  1
  Pd  Pd12  1  0.127972  0.872028  0.739882  1
  Au  Au13  1  0.370833  0.373588  0.239077  1
  Au  Au14  1  0.627112  0.627777  0.761399  1
  Au  Au15  1  0.626412  0.629167  0.239077  1
  Au  Au16  1  0.874205  0.125795  0.738946  1
  Au  Au17  1  0.872412  0.127588  0.260867  1
  Au  Au18  1  0.372223  0.372888  0.761399  1
  Au  Au19  1  0.127220  0.872780  0.261774  1
