# generated using pymatgen
data_La2YIn3Cu2Ir
_symmetry_space_group_name_H-M   'P 1'
_cell_length_a   7.68559229
_cell_length_b   7.71577344
_cell_length_c   4.05319300
_cell_angle_alpha   90.00000000
_cell_angle_beta   90.00000000
_cell_angle_gamma   120.36965259
_symmetry_Int_Tables_number   1
_chemical_formula_structural   La2YIn3Cu2Ir
_chemical_formula_sum   'La2 Y1 In3 Cu2 Ir1'
_cell_volume   207.37431043
_cell_formula_units_Z   1
loop_
 _symmetry_equiv_pos_site_id
 _symmetry_equiv_pos_as_xyz
  1  'x, y, z'
loop_
 _atom_site_type_symbol
 _atom_site_label
 _atom_site_symmetry_multiplicity
 _atom_site_fract_x
 _atom_site_fract_y
 _atom_site_fract_z
 _atom_site_occupancy
  La  La0  1  0.409763  0.985514  0.500000  1
  La  La1  1  0.014879  0.421467  0.500000  1
  Y  Y2  1  0.578489  0.596913  0.500000  1
  In  In3  1  0.756266  0.998674  0.000000  1
  In  In4  1  0.987794  0.748262  0.000000  1
  In  In5  1  0.255883  0.249223  0.000000  1
  Cu  Cu6  1  0.664119  0.338398  0.000000  1
  Cu  Cu7  1  0.997168  0.996957  0.500000  1
  Ir  Ir8  1  0.335640  0.664592  0.000000  1
