# generated using pymatgen
data_Ta2Fe12P7
_symmetry_space_group_name_H-M   'P 1'
_cell_length_a   8.82614200
_cell_length_b   8.82614184
_cell_length_c   3.54833300
_cell_angle_alpha   90.00000000
_cell_angle_beta   90.00000000
_cell_angle_gamma   120.00000061
_symmetry_Int_Tables_number   1
_chemical_formula_structural   Ta2Fe12P7
_chemical_formula_sum   'Ta2 Fe12 P7'
_cell_volume   239.38493281
_cell_formula_units_Z   1
loop_
 _symmetry_equiv_pos_site_id
 _symmetry_equiv_pos_as_xyz
  1  'x, y, z'
loop_
 _atom_site_type_symbol
 _atom_site_label
 _atom_site_symmetry_multiplicity
 _atom_site_fract_x
 _atom_site_fract_y
 _atom_site_fract_z
 _atom_site_occupancy
  Ta  Ta0  1  0.666667  0.333333  0.500000  1
  Ta  Ta1  1  0.333333  0.666667  0.000000  1
  Fe  Fe2  1  0.121087  0.842906  0.000000  1
  Fe  Fe3  1  0.386898  0.442890  0.500000  1
  Fe  Fe4  1  0.721819  0.878913  0.000000  1
  Fe  Fe5  1  0.557110  0.944008  0.500000  1
  Fe  Fe6  1  0.226536  0.100650  0.500000  1
  Fe  Fe7  1  0.874114  0.773464  0.500000  1
  Fe  Fe8  1  0.899350  0.125886  0.500000  1
  Fe  Fe9  1  0.932854  0.368665  0.000000  1
  Fe  Fe10  1  0.631335  0.564189  0.000000  1
  Fe  Fe11  1  0.435811  0.067146  0.000000  1
  Fe  Fe12  1  0.055992  0.613102  0.500000  1
  Fe  Fe13  1  0.157094  0.278181  0.000000  1
  P  P14  1  0.000000  0.000000  0.000000  1
  P  P15  1  0.593012  0.712347  0.500000  1
  P  P16  1  0.702109  0.115956  0.000000  1
  P  P17  1  0.884044  0.586153  0.000000  1
  P  P18  1  0.413847  0.297891  0.000000  1
  P  P19  1  0.287653  0.880665  0.500000  1
  P  P20  1  0.119335  0.406988  0.500000  1
