# generated using pymatgen
data_Dy6IrAu7
_symmetry_space_group_name_H-M   'P 1'
_cell_length_a   8.07011090
_cell_length_b   8.07011172
_cell_length_c   8.07011122
_cell_angle_alpha   114.31225988
_cell_angle_beta   114.31225875
_cell_angle_gamma   114.31226456
_symmetry_Int_Tables_number   1
_chemical_formula_structural   Dy6IrAu7
_chemical_formula_sum   'Dy6 Ir1 Au7'
_cell_volume   311.78566190
_cell_formula_units_Z   1
loop_
 _symmetry_equiv_pos_site_id
 _symmetry_equiv_pos_as_xyz
  1  'x, y, z'
loop_
 _atom_site_type_symbol
 _atom_site_label
 _atom_site_symmetry_multiplicity
 _atom_site_fract_x
 _atom_site_fract_y
 _atom_site_fract_z
 _atom_site_occupancy
  Dy  Dy0  1  0.383006  0.011783  0.261793  1
  Dy  Dy1  1  0.011783  0.261793  0.383006  1
  Dy  Dy2  1  0.261793  0.383006  0.011783  1
  Dy  Dy3  1  0.616994  0.988217  0.738207  1
  Dy  Dy4  1  0.988217  0.738207  0.616994  1
  Dy  Dy5  1  0.738207  0.616994  0.988217  1
  Ir  Ir6  1  0.000000  0.000000  0.000000  1
  Au  Au7  1  0.500000  0.500000  0.500000  1
  Au  Au8  1  0.234769  0.070908  0.563305  1
  Au  Au9  1  0.070908  0.563305  0.234769  1
  Au  Au10  1  0.563305  0.234769  0.070908  1
  Au  Au11  1  0.765231  0.929092  0.436695  1
  Au  Au12  1  0.929092  0.436695  0.765231  1
  Au  Au13  1  0.436695  0.765231  0.929092  1
