# generated using pymatgen
data_YPa4NO9
_symmetry_space_group_name_H-M   'P 1'
_cell_length_a   6.65458292
_cell_length_b   6.65438327
_cell_length_c   6.65402506
_cell_angle_alpha   99.59674627
_cell_angle_beta   99.59976225
_cell_angle_gamma   131.80060179
_symmetry_Int_Tables_number   1
_chemical_formula_structural   YPa4NO9
_chemical_formula_sum   'Y1 Pa4 N1 O9'
_cell_volume   200.50765993
_cell_formula_units_Z   1
loop_
 _symmetry_equiv_pos_site_id
 _symmetry_equiv_pos_as_xyz
  1  'x, y, z'
loop_
 _atom_site_type_symbol
 _atom_site_label
 _atom_site_symmetry_multiplicity
 _atom_site_fract_x
 _atom_site_fract_y
 _atom_site_fract_z
 _atom_site_occupancy
  Y  Y0  1  0.000000  0.000003  0.000005  1
  Pa  Pa1  1  0.407023  0.203828  0.598781  1
  Pa  Pa2  1  0.796167  0.394955  0.203187  1
  Pa  Pa3  1  0.191756  0.592988  0.796805  1
  Pa  Pa4  1  0.605055  0.808240  0.401236  1
  N  N5  1  0.750015  0.249995  0.499975  1
  O  O6  1  0.151912  0.456799  0.102739  1
  O  O7  1  0.543194  0.645930  0.695112  1
  O  O8  1  0.950810  0.848073  0.304890  1
  O  O9  1  0.354067  0.049184  0.897264  1
  O  O10  1  0.847305  0.544990  0.900810  1
  O  O11  1  0.249992  0.749992  0.499996  1
  O  O12  1  0.644186  0.946507  0.099199  1
  O  O13  1  0.053499  0.152692  0.697683  1
  O  O14  1  0.455019  0.355825  0.302319  1
