# generated using pymatgen
data_Pr4Hf3OsF28
_symmetry_space_group_name_H-M   'P 1'
_cell_length_a   5.81365508
_cell_length_b   9.33679506
_cell_length_c   12.52268607
_cell_angle_alpha   62.23836745
_cell_angle_beta   90.02923881
_cell_angle_gamma   89.94107555
_symmetry_Int_Tables_number   1
_chemical_formula_structural   Pr4Hf3OsF28
_chemical_formula_sum   'Pr4 Hf3 Os1 F28'
_cell_volume   601.49896239
_cell_formula_units_Z   1
loop_
 _symmetry_equiv_pos_site_id
 _symmetry_equiv_pos_as_xyz
  1  'x, y, z'
loop_
 _atom_site_type_symbol
 _atom_site_label
 _atom_site_symmetry_multiplicity
 _atom_site_fract_x
 _atom_site_fract_y
 _atom_site_fract_z
 _atom_site_occupancy
  Pr  Pr0  1  0.758313  0.810980  0.766312  1
  Pr  Pr1  1  0.256258  0.188825  0.731129  1
  Pr  Pr2  1  0.241324  0.189540  0.238211  1
  Pr  Pr3  1  0.742685  0.813497  0.265456  1
  Hf  Hf4  1  0.754238  0.273694  0.957214  1
  Hf  Hf5  1  0.255122  0.725384  0.543009  1
  Hf  Hf6  1  0.245621  0.726452  0.043329  1
  Os  Os7  1  0.743373  0.274040  0.456369  1
  F  F8  1  0.452798  0.710533  0.921301  1
  F  F9  1  0.936334  0.289288  0.582481  1
  F  F10  1  0.543916  0.287850  0.078753  1
  F  F11  1  0.048260  0.711518  0.420134  1
  F  F12  1  0.456987  0.280980  0.542253  1
  F  F13  1  0.959061  0.718556  0.954708  1
  F  F14  1  0.541293  0.715747  0.455046  1
  F  F15  1  0.037331  0.280672  0.048218  1
  F  F16  1  0.769291  0.516255  0.862592  1
  F  F17  1  0.267162  0.483497  0.637636  1
  F  F18  1  0.229304  0.484581  0.138099  1
  F  F19  1  0.735984  0.507625  0.363739  1
  F  F20  1  0.760457  0.031626  0.055606  1
  F  F21  1  0.263033  0.966943  0.446622  1
  F  F22  1  0.239060  0.967527  0.943285  1
  F  F23  1  0.741315  0.040756  0.546884  1
  F  F24  1  0.980465  0.732837  0.637709  1
  F  F25  1  0.484097  0.267734  0.859301  1
  F  F26  1  0.023930  0.270565  0.366550  1
  F  F27  1  0.519056  0.730732  0.139959  1
  F  F28  1  0.046269  0.745118  0.168201  1
  F  F29  1  0.554104  0.258881  0.328836  1
  F  F30  1  0.958155  0.255520  0.833621  1
  F  F31  1  0.455829  0.744749  0.667455  1
  F  F32  1  0.411743  0.968192  0.233219  1
  F  F33  1  0.912166  0.031740  0.270400  1
  F  F34  1  0.587146  0.031596  0.767202  1
  F  F35  1  0.088519  0.965969  0.729163  1
