# generated using pymatgen
data_Eu2Si2IrPd3
_symmetry_space_group_name_H-M   'P 1'
_cell_length_a   4.06090946
_cell_length_b   4.11114400
_cell_length_c   9.51305150
_cell_angle_alpha   90.00000000
_cell_angle_beta   102.32395167
_cell_angle_gamma   90.00000000
_symmetry_Int_Tables_number   1
_chemical_formula_structural   Eu2Si2IrPd3
_chemical_formula_sum   'Eu2 Si2 Ir1 Pd3'
_cell_volume   155.16045373
_cell_formula_units_Z   1
loop_
 _symmetry_equiv_pos_site_id
 _symmetry_equiv_pos_as_xyz
  1  'x, y, z'
loop_
 _atom_site_type_symbol
 _atom_site_label
 _atom_site_symmetry_multiplicity
 _atom_site_fract_x
 _atom_site_fract_y
 _atom_site_fract_z
 _atom_site_occupancy
  Eu  Eu0  1  0.600701  0.250000  0.201401  1
  Eu  Eu1  1  0.399112  0.750000  0.798226  1
  Si  Si2  1  0.822968  0.250000  0.645935  1
  Si  Si3  1  0.177059  0.750000  0.354118  1
  Ir  Ir4  1  0.750176  0.750000  0.500354  1
  Pd  Pd5  1  0.952081  0.250000  0.904163  1
  Pd  Pd6  1  0.047964  0.750000  0.095930  1
  Pd  Pd7  1  0.249937  0.250000  0.499873  1
