# generated using pymatgen
data_Yb2SmPa(B4Os)4
_symmetry_space_group_name_H-M   'P 1'
_cell_length_a   3.58475900
_cell_length_b   5.98610814
_cell_length_c   11.56510330
_cell_angle_alpha   90.03950810
_cell_angle_beta   90.00000000
_cell_angle_gamma   90.00000000
_symmetry_Int_Tables_number   1
_chemical_formula_structural   Yb2SmPa(B4Os)4
_chemical_formula_sum   'Yb2 Sm1 Pa1 B16 Os4'
_cell_volume   248.17265962
_cell_formula_units_Z   1
loop_
 _symmetry_equiv_pos_site_id
 _symmetry_equiv_pos_as_xyz
  1  'x, y, z'
loop_
 _atom_site_type_symbol
 _atom_site_label
 _atom_site_symmetry_multiplicity
 _atom_site_fract_x
 _atom_site_fract_y
 _atom_site_fract_z
 _atom_site_occupancy
  Yb  Yb0  1  0.000000  0.627581  0.853811  1
  Yb  Yb1  1  0.000000  0.371336  0.147877  1
  Sm  Sm2  1  0.000000  0.871634  0.346901  1
  Pa  Pa3  1  0.000000  0.128661  0.652797  1
  B  B4  1  0.500000  0.472335  0.691782  1
  B  B5  1  0.500000  0.523647  0.308088  1
  B  B6  1  0.500000  0.976057  0.809845  1
  B  B7  1  0.500000  0.026762  0.188750  1
  B  B8  1  0.500000  0.287781  0.814969  1
  B  B9  1  0.500000  0.711111  0.182616  1
  B  B10  1  0.500000  0.789574  0.686386  1
  B  B11  1  0.500000  0.217553  0.312219  1
  B  B12  1  0.500000  0.362461  0.969429  1
  B  B13  1  0.500000  0.635897  0.029064  1
  B  B14  1  0.500000  0.864503  0.532146  1
  B  B15  1  0.500000  0.137354  0.469829  1
  B  B16  1  0.500000  0.388544  0.546892  1
  B  B17  1  0.500000  0.609929  0.452683  1
  B  B18  1  0.500000  0.885066  0.953954  1
  B  B19  1  0.500000  0.113366  0.045431  1
  Os  Os20  1  0.000000  0.138401  0.906138  1
  Os  Os21  1  0.000000  0.860888  0.090434  1
  Os  Os22  1  0.000000  0.641949  0.597049  1
  Os  Os23  1  0.000000  0.357612  0.410907  1
