# generated using pymatgen
data_Co7Si16B
_symmetry_space_group_name_H-M   'P 1'
_cell_length_a   6.54129131
_cell_length_b   6.54129104
_cell_length_c   7.54491447
_cell_angle_alpha   89.96461238
_cell_angle_beta   89.96461688
_cell_angle_gamma   109.63272407
_symmetry_Int_Tables_number   1
_chemical_formula_structural   Co7Si16B
_chemical_formula_sum   'Co7 Si16 B1'
_cell_volume   304.06751150
_cell_formula_units_Z   1
loop_
 _symmetry_equiv_pos_site_id
 _symmetry_equiv_pos_as_xyz
  1  'x, y, z'
loop_
 _atom_site_type_symbol
 _atom_site_label
 _atom_site_symmetry_multiplicity
 _atom_site_fract_x
 _atom_site_fract_y
 _atom_site_fract_z
 _atom_site_occupancy
  Co  Co0  1  0.250574  0.250574  0.250499  1
  Co  Co1  1  0.749389  0.749389  0.748569  1
  Co  Co2  1  0.748880  0.748880  0.249368  1
  Co  Co3  1  0.250200  0.751355  0.506548  1
  Co  Co4  1  0.247794  0.749717  0.994298  1
  Co  Co5  1  0.751355  0.250200  0.506548  1
  Co  Co6  1  0.749717  0.247794  0.994298  1
  Si  Si7  1  0.375393  0.631285  0.249642  1
  Si  Si8  1  0.122428  0.876810  0.749896  1
  Si  Si9  1  0.122873  0.869938  0.250132  1
  Si  Si10  1  0.376874  0.623927  0.750470  1
  Si  Si11  1  0.623927  0.376874  0.750470  1
  Si  Si12  1  0.869938  0.122873  0.250132  1
  Si  Si13  1  0.876810  0.122428  0.749896  1
  Si  Si14  1  0.631285  0.375393  0.249642  1
  Si  Si15  1  0.123867  0.375950  0.000527  1
  Si  Si16  1  0.377520  0.125895  0.499659  1
  Si  Si17  1  0.873962  0.626749  0.497075  1
  Si  Si18  1  0.624581  0.872452  0.001800  1
  Si  Si19  1  0.872452  0.624581  0.001800  1
  Si  Si20  1  0.626749  0.873962  0.497075  1
  Si  Si21  1  0.125895  0.377520  0.499659  1
  Si  Si22  1  0.375950  0.123867  0.000527  1
  B  B23  1  0.251587  0.251587  0.751469  1
