# generated using pymatgen
data_YbTh3As4
_symmetry_space_group_name_H-M   'P 1'
_cell_length_a   8.47882003
_cell_length_b   4.23695300
_cell_length_c   6.00247300
_cell_angle_alpha   90.00000000
_cell_angle_beta   90.00468972
_cell_angle_gamma   90.00000000
_symmetry_Int_Tables_number   1
_chemical_formula_structural   YbTh3As4
_chemical_formula_sum   'Yb1 Th3 As4'
_cell_volume   215.63501196
_cell_formula_units_Z   1
loop_
 _symmetry_equiv_pos_site_id
 _symmetry_equiv_pos_as_xyz
  1  'x, y, z'
loop_
 _atom_site_type_symbol
 _atom_site_label
 _atom_site_symmetry_multiplicity
 _atom_site_fract_x
 _atom_site_fract_y
 _atom_site_fract_z
 _atom_site_occupancy
  Yb  Yb0  1  0.625018  0.750001  0.750054  1
  Th  Th1  1  0.376919  0.249999  0.249998  1
  Th  Th2  1  0.873076  0.249999  0.249945  1
  Th  Th3  1  0.124979  0.750001  0.749997  1
  As  As4  1  0.125000  0.750001  0.249996  1
  As  As5  1  0.625001  0.750001  0.250040  1
  As  As6  1  0.375853  0.249999  0.749991  1
  As  As7  1  0.874157  0.249999  0.749983  1
