# generated using pymatgen
data_Dy4Y4MgCdPt2
_symmetry_space_group_name_H-M   'P 1'
_cell_length_a   9.73713224
_cell_length_b   9.73713151
_cell_length_c   9.75197400
_cell_angle_alpha   59.94956991
_cell_angle_beta   59.94957242
_cell_angle_gamma   59.96141415
_symmetry_Int_Tables_number   1
_chemical_formula_structural   Dy4Y4MgCdPt2
_chemical_formula_sum   'Dy8 Y8 Mg2 Cd2 Pt4'
_cell_volume   653.10284332
_cell_formula_units_Z   2
loop_
 _symmetry_equiv_pos_site_id
 _symmetry_equiv_pos_as_xyz
  1  'x, y, z'
loop_
 _atom_site_type_symbol
 _atom_site_label
 _atom_site_symmetry_multiplicity
 _atom_site_fract_x
 _atom_site_fract_y
 _atom_site_fract_z
 _atom_site_occupancy
  Dy  Dy0  1  0.351014  0.351014  0.349791  1
  Dy  Dy1  1  0.351014  0.351014  0.948181  1
  Dy  Dy2  1  0.352425  0.946623  0.350477  1
  Dy  Dy3  1  0.946623  0.352425  0.350477  1
  Dy  Dy4  1  0.810721  0.189448  0.189579  1
  Dy  Dy5  1  0.189448  0.810721  0.810252  1
  Dy  Dy6  1  0.189448  0.810721  0.189579  1
  Dy  Dy7  1  0.810721  0.189448  0.810252  1
  Y  Y8  1  0.191768  0.191768  0.808232  1
  Y  Y9  1  0.812231  0.812231  0.187769  1
  Y  Y10  1  0.937363  0.564439  0.564505  1
  Y  Y11  1  0.564439  0.937363  0.933693  1
  Y  Y12  1  0.564439  0.937363  0.564505  1
  Y  Y13  1  0.937363  0.564439  0.933693  1
  Y  Y14  1  0.565722  0.565722  0.934278  1
  Y  Y15  1  0.937144  0.937144  0.562856  1
  Mg  Mg16  1  0.576638  0.576638  0.580453  1
  Mg  Mg17  1  0.576638  0.576638  0.266270  1
  Cd  Cd18  1  0.581758  0.253952  0.582145  1
  Cd  Cd19  1  0.253952  0.581758  0.582145  1
  Pt  Pt20  1  0.142384  0.142384  0.145369  1
  Pt  Pt21  1  0.142384  0.142384  0.569865  1
  Pt  Pt22  1  0.143951  0.570412  0.142819  1
  Pt  Pt23  1  0.570412  0.143951  0.142819  1
