# generated using pymatgen
data_Nd2YTm3Ta2O14
_symmetry_space_group_name_H-M   'P 1'
_cell_length_a   6.45608590
_cell_length_b   6.46203624
_cell_length_c   7.57765100
_cell_angle_alpha   90.00000000
_cell_angle_beta   90.00000000
_cell_angle_gamma   109.35039270
_symmetry_Int_Tables_number   1
_chemical_formula_structural   Nd2YTm3Ta2O14
_chemical_formula_sum   'Nd2 Y1 Tm3 Ta2 O14'
_cell_volume   298.27698667
_cell_formula_units_Z   1
loop_
 _symmetry_equiv_pos_site_id
 _symmetry_equiv_pos_as_xyz
  1  'x, y, z'
loop_
 _atom_site_type_symbol
 _atom_site_label
 _atom_site_symmetry_multiplicity
 _atom_site_fract_x
 _atom_site_fract_y
 _atom_site_fract_z
 _atom_site_occupancy
  Nd  Nd0  1  0.500482  0.500164  0.499408  1
  Nd  Nd1  1  0.500482  0.500164  0.000592  1
  Y  Y2  1  0.999669  0.466149  0.750000  1
  Tm  Tm3  1  0.532452  0.001358  0.750000  1
  Tm  Tm4  1  0.001410  0.532922  0.250000  1
  Tm  Tm5  1  0.467461  0.998465  0.250000  1
  Ta  Ta6  1  0.000006  0.000028  0.499338  1
  Ta  Ta7  1  0.000006  0.000028  0.000662  1
  O  O8  1  0.677656  0.931696  0.467369  1
  O  O9  1  0.929795  0.678324  0.529872  1
  O  O10  1  0.677656  0.931696  0.032631  1
  O  O11  1  0.929795  0.678324  0.970128  1
  O  O12  1  0.321958  0.068445  0.532604  1
  O  O13  1  0.069369  0.321888  0.465455  1
  O  O14  1  0.321958  0.068445  0.967396  1
  O  O15  1  0.069369  0.321888  0.034545  1
  O  O16  1  0.934737  0.063306  0.750000  1
  O  O17  1  0.065571  0.935204  0.250000  1
  O  O18  1  0.366541  0.640045  0.750000  1
  O  O19  1  0.638160  0.361917  0.250000  1
  O  O20  1  0.640906  0.354060  0.750000  1
  O  O21  1  0.354561  0.645482  0.250000  1
