# generated using pymatgen
data_HfTa6InSe12
_symmetry_space_group_name_H-M   'P 1'
_cell_length_a   6.07612000
_cell_length_b   6.07612026
_cell_length_c   14.75927800
_cell_angle_alpha   90.00000000
_cell_angle_beta   90.00000000
_cell_angle_gamma   120.00000947
_symmetry_Int_Tables_number   1
_chemical_formula_structural   HfTa6InSe12
_chemical_formula_sum   'Hf1 Ta6 In1 Se12'
_cell_volume   471.89829325
_cell_formula_units_Z   1
loop_
 _symmetry_equiv_pos_site_id
 _symmetry_equiv_pos_as_xyz
  1  'x, y, z'
loop_
 _atom_site_type_symbol
 _atom_site_label
 _atom_site_symmetry_multiplicity
 _atom_site_fract_x
 _atom_site_fract_y
 _atom_site_fract_z
 _atom_site_occupancy
  Hf  Hf0  1  0.666667  0.333333  0.750000  1
  Ta  Ta1  1  0.000000  0.000000  0.524213  1
  Ta  Ta2  1  0.000000  0.000000  0.975787  1
  Ta  Ta3  1  0.333333  0.666667  0.976704  1
  Ta  Ta4  1  0.666667  0.333333  0.974423  1
  Ta  Ta5  1  0.666667  0.333333  0.525577  1
  Ta  Ta6  1  0.333333  0.666667  0.523296  1
  In  In7  1  0.333333  0.666667  0.250000  1
  Se  Se8  1  0.334011  0.330852  0.411913  1
  Se  Se9  1  0.669148  0.003158  0.411913  1
  Se  Se10  1  0.996842  0.665989  0.411913  1
  Se  Se11  1  0.326024  0.334204  0.638085  1
  Se  Se12  1  0.008180  0.673976  0.638085  1
  Se  Se13  1  0.665796  0.991820  0.638085  1
  Se  Se14  1  0.665796  0.673976  0.861915  1
  Se  Se15  1  0.326024  0.991820  0.861915  1
  Se  Se16  1  0.008180  0.334204  0.861915  1
  Se  Se17  1  0.669148  0.665989  0.088087  1
  Se  Se18  1  0.996842  0.330852  0.088087  1
  Se  Se19  1  0.334011  0.003158  0.088087  1
