# generated using pymatgen
data_HoMg2(Co3B2)3
_symmetry_space_group_name_H-M   'P 1'
_cell_length_a   5.69810892
_cell_length_b   5.69811022
_cell_length_c   5.69810861
_cell_angle_alpha   95.88299724
_cell_angle_beta   95.88300673
_cell_angle_gamma   95.88302002
_symmetry_Int_Tables_number   1
_chemical_formula_structural   HoMg2(Co3B2)3
_chemical_formula_sum   'Ho1 Mg2 Co9 B6'
_cell_volume   181.86739796
_cell_formula_units_Z   1
loop_
 _symmetry_equiv_pos_site_id
 _symmetry_equiv_pos_as_xyz
  1  'x, y, z'
loop_
 _atom_site_type_symbol
 _atom_site_label
 _atom_site_symmetry_multiplicity
 _atom_site_fract_x
 _atom_site_fract_y
 _atom_site_fract_z
 _atom_site_occupancy
  Ho  Ho0  1  0.328030  0.328030  0.328030  1
  Mg  Mg1  1  0.991366  0.991366  0.991366  1
  Mg  Mg2  1  0.676995  0.676995  0.676995  1
  Co  Co3  1  0.993321  0.993321  0.501395  1
  Co  Co4  1  0.501395  0.993321  0.993321  1
  Co  Co5  1  0.993321  0.501395  0.993321  1
  Co  Co6  1  0.703817  0.204614  0.703817  1
  Co  Co7  1  0.703817  0.703817  0.204614  1
  Co  Co8  1  0.204614  0.703817  0.703817  1
  Co  Co9  1  0.294345  0.804742  0.294345  1
  Co  Co10  1  0.294345  0.294345  0.804742  1
  Co  Co11  1  0.804742  0.294345  0.294345  1
  B  B12  1  0.618439  0.389396  0.997111  1
  B  B13  1  0.997111  0.618439  0.389396  1
  B  B14  1  0.389396  0.997111  0.618439  1
  B  B15  1  0.997111  0.389396  0.618439  1
  B  B16  1  0.618439  0.997111  0.389396  1
  B  B17  1  0.389396  0.618439  0.997111  1
