# generated using pymatgen
data_Sc4FeB4SbRh10
_symmetry_space_group_name_H-M   'P 1'
_cell_length_a   9.30713200
_cell_length_b   9.30713200
_cell_length_c   3.19209500
_cell_angle_alpha   90.00000000
_cell_angle_beta   90.00000000
_cell_angle_gamma   90.00000000
_symmetry_Int_Tables_number   1
_chemical_formula_structural   Sc4FeB4SbRh10
_chemical_formula_sum   'Sc4 Fe1 B4 Sb1 Rh10'
_cell_volume   276.50790692
_cell_formula_units_Z   1
loop_
 _symmetry_equiv_pos_site_id
 _symmetry_equiv_pos_as_xyz
  1  'x, y, z'
loop_
 _atom_site_type_symbol
 _atom_site_label
 _atom_site_symmetry_multiplicity
 _atom_site_fract_x
 _atom_site_fract_y
 _atom_site_fract_z
 _atom_site_occupancy
  Sc  Sc0  1  0.821885  0.329148  0.000000  1
  Sc  Sc1  1  0.329148  0.178115  0.000000  1
  Sc  Sc2  1  0.670852  0.821885  0.000000  1
  Sc  Sc3  1  0.178115  0.670852  0.000000  1
  Fe  Fe4  1  0.500000  0.500000  0.000000  1
  B  B5  1  0.617905  0.127102  0.000000  1
  B  B6  1  0.127102  0.382095  0.000000  1
  B  B7  1  0.872898  0.617905  0.000000  1
  B  B8  1  0.382095  0.872898  0.000000  1
  Sb  Sb9  1  0.000000  0.000000  0.000000  1
  Rh  Rh10  1  0.075986  0.221891  0.500000  1
  Rh  Rh11  1  0.221891  0.924014  0.500000  1
  Rh  Rh12  1  0.778109  0.075986  0.500000  1
  Rh  Rh13  1  0.924014  0.778109  0.500000  1
  Rh  Rh14  1  0.431279  0.715191  0.500000  1
  Rh  Rh15  1  0.568721  0.284809  0.500000  1
  Rh  Rh16  1  0.715191  0.568721  0.500000  1
  Rh  Rh17  1  0.284809  0.431279  0.500000  1
  Rh  Rh18  1  0.500000  0.000000  0.500000  1
  Rh  Rh19  1  0.000000  0.500000  0.500000  1
