# generated using pymatgen
data_ThCoH3
_symmetry_space_group_name_H-M   'P 1'
_cell_length_a   6.06078408
_cell_length_b   6.06078443
_cell_length_c   4.70558900
_cell_angle_alpha   90.00001920
_cell_angle_beta   89.99997837
_cell_angle_gamma   142.86588287
_symmetry_Int_Tables_number   1
_chemical_formula_structural   ThCoH3
_chemical_formula_sum   'Th2 Co2 H6'
_cell_volume   104.34711556
_cell_formula_units_Z   2
loop_
 _symmetry_equiv_pos_site_id
 _symmetry_equiv_pos_as_xyz
  1  'x, y, z'
loop_
 _atom_site_type_symbol
 _atom_site_label
 _atom_site_symmetry_multiplicity
 _atom_site_fract_x
 _atom_site_fract_y
 _atom_site_fract_z
 _atom_site_occupancy
  Th  Th0  1  0.870215  0.129787  0.249999  1
  Th  Th1  1  0.129787  0.870215  0.750000  1
  Co  Co2  1  0.578477  0.421526  0.249999  1
  Co  Co3  1  0.421526  0.578477  0.750000  1
  H  H4  1  0.684381  0.315622  0.008589  1
  H  H5  1  0.078833  0.921169  0.249999  1
  H  H6  1  0.684381  0.315622  0.491412  1
  H  H7  1  0.315622  0.684381  0.508589  1
  H  H8  1  0.921169  0.078833  0.750000  1
  H  H9  1  0.315622  0.684381  0.991410  1
