# generated using pymatgen
data_NdY2BiO7
_symmetry_space_group_name_H-M   'P 1'
_cell_length_a   6.61846343
_cell_length_b   6.61288287
_cell_length_c   7.78110400
_cell_angle_alpha   106.95381850
_cell_angle_beta   89.80475052
_cell_angle_gamma   98.81500108
_symmetry_Int_Tables_number   1
_chemical_formula_structural   NdY2BiO7
_chemical_formula_sum   'Nd2 Y4 Bi2 O14'
_cell_volume   321.60115870
_cell_formula_units_Z   2
loop_
 _symmetry_equiv_pos_site_id
 _symmetry_equiv_pos_as_xyz
  1  'x, y, z'
loop_
 _atom_site_type_symbol
 _atom_site_label
 _atom_site_symmetry_multiplicity
 _atom_site_fract_x
 _atom_site_fract_y
 _atom_site_fract_z
 _atom_site_occupancy
  Nd  Nd0  1  0.739733  0.480494  0.617629  1
  Nd  Nd1  1  0.260267  0.519506  0.382371  1
  Y  Y2  1  0.463713  0.005098  0.250679  1
  Y  Y3  1  0.536287  0.994902  0.749321  1
  Y  Y4  1  0.272929  0.537513  0.884641  1
  Y  Y5  1  0.727071  0.462487  0.115359  1
  Bi  Bi6  1  0.000000  0.000000  0.500000  1
  Bi  Bi7  1  0.000000  0.000000  0.000000  1
  O  O8  1  0.450066  0.651861  0.161919  1
  O  O9  1  0.549934  0.348139  0.838081  1
  O  O10  1  0.300090  0.923795  0.952861  1
  O  O11  1  0.699910  0.076205  0.047139  1
  O  O12  1  0.298620  0.929732  0.513156  1
  O  O13  1  0.701380  0.070268  0.486844  1
  O  O14  1  0.549043  0.359259  0.338553  1
  O  O15  1  0.450957  0.640741  0.661447  1
  O  O16  1  0.926552  0.667051  0.960032  1
  O  O17  1  0.073448  0.332949  0.039968  1
  O  O18  1  0.075012  0.343747  0.623466  1
  O  O19  1  0.924988  0.656253  0.376534  1
  O  O20  1  0.876397  0.904785  0.725562  1
  O  O21  1  0.123603  0.095215  0.274438  1
