# generated using pymatgen
data_Tb4Ho6FeCoBi4
_symmetry_space_group_name_H-M   'P 1'
_cell_length_a   7.98607209
_cell_length_b   8.90068100
_cell_length_c   12.34306569
_cell_angle_alpha   90.00000000
_cell_angle_beta   89.95450396
_cell_angle_gamma   90.00000000
_symmetry_Int_Tables_number   1
_chemical_formula_structural   Tb4Ho6FeCoBi4
_chemical_formula_sum   'Tb8 Ho12 Fe2 Co2 Bi8'
_cell_volume   877.36310255
_cell_formula_units_Z   2
loop_
 _symmetry_equiv_pos_site_id
 _symmetry_equiv_pos_as_xyz
  1  'x, y, z'
loop_
 _atom_site_type_symbol
 _atom_site_label
 _atom_site_symmetry_multiplicity
 _atom_site_fract_x
 _atom_site_fract_y
 _atom_site_fract_z
 _atom_site_occupancy
  Tb  Tb0  1  0.347272  0.750000  0.700299  1
  Tb  Tb1  1  0.652728  0.250000  0.299701  1
  Tb  Tb2  1  0.849106  0.250000  0.800373  1
  Tb  Tb3  1  0.150894  0.750000  0.199627  1
  Tb  Tb4  1  0.885557  0.750000  0.810857  1
  Tb  Tb5  1  0.114443  0.250000  0.189143  1
  Tb  Tb6  1  0.384820  0.250000  0.687747  1
  Tb  Tb7  1  0.615180  0.750000  0.312253  1
  Ho  Ho8  1  0.675882  0.537756  0.563508  1
  Ho  Ho9  1  0.324118  0.462244  0.436492  1
  Ho  Ho10  1  0.174735  0.463670  0.937737  1
  Ho  Ho11  1  0.324118  0.037756  0.436492  1
  Ho  Ho12  1  0.825265  0.536330  0.062263  1
  Ho  Ho13  1  0.675882  0.962244  0.563508  1
  Ho  Ho14  1  0.825265  0.963670  0.062263  1
  Ho  Ho15  1  0.174735  0.036330  0.937737  1
  Ho  Ho16  1  0.051929  0.750000  0.496465  1
  Ho  Ho17  1  0.948071  0.250000  0.503535  1
  Ho  Ho18  1  0.555584  0.250000  0.004136  1
  Ho  Ho19  1  0.444416  0.750000  0.995864  1
  Fe  Fe20  1  0.070676  0.750000  0.990316  1
  Fe  Fe21  1  0.929324  0.250000  0.009684  1
  Co  Co22  1  0.565615  0.250000  0.507647  1
  Co  Co23  1  0.434385  0.750000  0.492353  1
  Bi  Bi24  1  0.571630  0.508211  0.827709  1
  Bi  Bi25  1  0.428370  0.491789  0.172291  1
  Bi  Bi26  1  0.072095  0.491698  0.672115  1
  Bi  Bi27  1  0.428370  0.008211  0.172291  1
  Bi  Bi28  1  0.927905  0.508302  0.327885  1
  Bi  Bi29  1  0.571630  0.991789  0.827709  1
  Bi  Bi30  1  0.927905  0.991698  0.327885  1
  Bi  Bi31  1  0.072095  0.008302  0.672115  1
