# generated using pymatgen
data_Er4VFe(CoB8)2
_symmetry_space_group_name_H-M   'P 1'
_cell_length_a   3.37061600
_cell_length_b   5.89293372
_cell_length_c   11.40861978
_cell_angle_alpha   89.84095261
_cell_angle_beta   90.00000000
_cell_angle_gamma   90.00000000
_symmetry_Int_Tables_number   1
_chemical_formula_structural   Er4VFe(CoB8)2
_chemical_formula_sum   'Er4 V1 Fe1 Co2 B16'
_cell_volume   226.60645023
_cell_formula_units_Z   1
loop_
 _symmetry_equiv_pos_site_id
 _symmetry_equiv_pos_as_xyz
  1  'x, y, z'
loop_
 _atom_site_type_symbol
 _atom_site_label
 _atom_site_symmetry_multiplicity
 _atom_site_fract_x
 _atom_site_fract_y
 _atom_site_fract_z
 _atom_site_occupancy
  Er  Er0  1  0.500000  0.124354  0.846973  1
  Er  Er1  1  0.500000  0.873089  0.153283  1
  Er  Er2  1  0.500000  0.627860  0.648339  1
  Er  Er3  1  0.500000  0.373480  0.352752  1
  V  V4  1  0.500000  0.372259  0.083648  1
  Fe  Fe5  1  0.500000  0.625851  0.915716  1
  Co  Co6  1  0.500000  0.135146  0.590392  1
  Co  Co7  1  0.500000  0.866683  0.412109  1
  B  B8  1  0.000000  0.283486  0.684063  1
  B  B9  1  0.000000  0.717635  0.316652  1
  B  B10  1  0.000000  0.781658  0.815212  1
  B  B11  1  0.000000  0.212850  0.187499  1
  B  B12  1  0.000000  0.361594  0.532782  1
  B  B13  1  0.000000  0.638839  0.467851  1
  B  B14  1  0.000000  0.862475  0.965630  1
  B  B15  1  0.000000  0.133065  0.030338  1
  B  B16  1  0.000000  0.022438  0.310155  1
  B  B17  1  0.000000  0.975813  0.690970  1
  B  B18  1  0.000000  0.527631  0.193140  1
  B  B19  1  0.000000  0.476606  0.807248  1
  B  B20  1  0.000000  0.112517  0.454297  1
  B  B21  1  0.000000  0.888000  0.546641  1
  B  B22  1  0.000000  0.616917  0.044109  1
  B  B23  1  0.000000  0.389754  0.950200  1
