# generated using pymatgen
data_Tb7Y5Tc3Pd
_symmetry_space_group_name_H-M   'P 1'
_cell_length_a   6.33013101
_cell_length_b   7.45294097
_cell_length_c   9.27301520
_cell_angle_alpha   89.97620261
_cell_angle_beta   90.00108119
_cell_angle_gamma   90.13810052
_symmetry_Int_Tables_number   1
_chemical_formula_structural   Tb7Y5Tc3Pd
_chemical_formula_sum   'Tb7 Y5 Tc3 Pd1'
_cell_volume   437.48186255
_cell_formula_units_Z   1
loop_
 _symmetry_equiv_pos_site_id
 _symmetry_equiv_pos_as_xyz
  1  'x, y, z'
loop_
 _atom_site_type_symbol
 _atom_site_label
 _atom_site_symmetry_multiplicity
 _atom_site_fract_x
 _atom_site_fract_y
 _atom_site_fract_z
 _atom_site_occupancy
  Tb  Tb0  1  0.627290  0.046637  0.250057  1
  Tb  Tb1  1  0.370468  0.956670  0.749965  1
  Tb  Tb2  1  0.124252  0.460820  0.749946  1
  Tb  Tb3  1  0.165654  0.183847  0.058475  1
  Tb  Tb4  1  0.829744  0.824166  0.931435  1
  Tb  Tb5  1  0.664748  0.321862  0.935221  1
  Tb  Tb6  1  0.829401  0.824625  0.568088  1
  Y  Y7  1  0.868710  0.534314  0.250218  1
  Y  Y8  1  0.340880  0.670868  0.059457  1
  Y  Y9  1  0.165901  0.183666  0.441855  1
  Y  Y10  1  0.340944  0.670521  0.440826  1
  Y  Y11  1  0.664718  0.321984  0.564397  1
  Tc  Tc12  1  0.455307  0.383462  0.249422  1
  Tc  Tc13  1  0.538047  0.615430  0.750648  1
  Tc  Tc14  1  0.964493  0.113490  0.750271  1
  Pd  Pd15  1  0.049442  0.887635  0.249717  1
