# generated using pymatgen
data_Tb11Dy9CoBi8Ru3
_symmetry_space_group_name_H-M   'P 1'
_cell_length_a   8.01354958
_cell_length_b   8.99829500
_cell_length_c   12.48692135
_cell_angle_alpha   90.00000000
_cell_angle_beta   90.22345822
_cell_angle_gamma   90.00000000
_symmetry_Int_Tables_number   1
_chemical_formula_structural   Tb11Dy9CoBi8Ru3
_chemical_formula_sum   'Tb11 Dy9 Co1 Bi8 Ru3'
_cell_volume   900.40361205
_cell_formula_units_Z   1
loop_
 _symmetry_equiv_pos_site_id
 _symmetry_equiv_pos_as_xyz
  1  'x, y, z'
loop_
 _atom_site_type_symbol
 _atom_site_label
 _atom_site_symmetry_multiplicity
 _atom_site_fract_x
 _atom_site_fract_y
 _atom_site_fract_z
 _atom_site_occupancy
  Tb  Tb0  1  0.845985  0.750000  0.799712  1
  Tb  Tb1  1  0.344498  0.250000  0.706362  1
  Tb  Tb2  1  0.654365  0.750000  0.294938  1
  Tb  Tb3  1  0.377296  0.750000  0.693998  1
  Tb  Tb4  1  0.621324  0.250000  0.306701  1
  Tb  Tb5  1  0.877523  0.250000  0.807739  1
  Tb  Tb6  1  0.119839  0.750000  0.188728  1
  Tb  Tb7  1  0.945978  0.750000  0.504709  1
  Tb  Tb8  1  0.053757  0.250000  0.495785  1
  Tb  Tb9  1  0.448882  0.250000  0.996544  1
  Tb  Tb10  1  0.550823  0.750000  0.003629  1
  Dy  Dy11  1  0.155197  0.250000  0.204995  1
  Dy  Dy12  1  0.675641  0.041214  0.564097  1
  Dy  Dy13  1  0.323821  0.958116  0.435854  1
  Dy  Dy14  1  0.176179  0.958029  0.935950  1
  Dy  Dy15  1  0.323821  0.541884  0.435854  1
  Dy  Dy16  1  0.825204  0.036431  0.062858  1
  Dy  Dy17  1  0.675641  0.458786  0.564097  1
  Dy  Dy18  1  0.825204  0.463569  0.062858  1
  Dy  Dy19  1  0.176179  0.541971  0.935950  1
  Co  Co20  1  0.932771  0.750000  0.009400  1
  Bi  Bi21  1  0.571961  0.492529  0.827581  1
  Bi  Bi22  1  0.428692  0.507471  0.172340  1
  Bi  Bi23  1  0.070193  0.507646  0.673326  1
  Bi  Bi24  1  0.428692  0.992529  0.172340  1
  Bi  Bi25  1  0.929399  0.492656  0.326347  1
  Bi  Bi26  1  0.571961  0.007471  0.827581  1
  Bi  Bi27  1  0.929399  0.007344  0.326347  1
  Bi  Bi28  1  0.070193  0.992354  0.673326  1
  Ru  Ru29  1  0.572388  0.750000  0.511498  1
  Ru  Ru30  1  0.426168  0.250000  0.488787  1
  Ru  Ru31  1  0.071027  0.250000  0.989764  1
