# generated using pymatgen
data_Tc2As7W
_symmetry_space_group_name_H-M   'P 1'
_cell_length_a   7.66421330
_cell_length_b   7.66421363
_cell_length_c   7.65885099
_cell_angle_alpha   109.63527595
_cell_angle_beta   109.63527595
_cell_angle_gamma   109.17212585
_symmetry_Int_Tables_number   1
_chemical_formula_structural   Tc2As7W
_chemical_formula_sum   'Tc4 As14 W2'
_cell_volume   346.18975660
_cell_formula_units_Z   2
loop_
 _symmetry_equiv_pos_site_id
 _symmetry_equiv_pos_as_xyz
  1  'x, y, z'
loop_
 _atom_site_type_symbol
 _atom_site_label
 _atom_site_symmetry_multiplicity
 _atom_site_fract_x
 _atom_site_fract_y
 _atom_site_fract_z
 _atom_site_occupancy
  Tc  Tc0  1  0.000257  0.662121  0.662378  1
  Tc  Tc1  1  0.341637  0.341637  0.000680  1
  Tc  Tc2  1  0.659043  0.659043  0.000680  1
  Tc  Tc3  1  0.662121  0.000257  0.662378  1
  As  As4  1  0.750177  0.499503  0.249680  1
  As  As5  1  0.499503  0.750177  0.249680  1
  As  As6  1  0.499726  0.251805  0.751532  1
  As  As7  1  0.749394  0.249394  0.498788  1
  As  As8  1  0.249394  0.749394  0.498788  1
  As  As9  1  0.251805  0.499726  0.751532  1
  As  As10  1  0.998551  0.998551  0.329886  1
  As  As11  1  0.667704  0.998395  0.998400  1
  As  As12  1  0.998395  0.667704  0.998400  1
  As  As13  1  0.331335  0.331335  0.329886  1
  As  As14  1  0.000006  0.330696  0.998400  1
  As  As15  1  0.669209  0.669209  0.668980  1
  As  As16  1  0.330696  0.000006  0.998400  1
  As  As17  1  0.999771  0.999771  0.668980  1
  W  W18  1  0.340965  0.000311  0.341276  1
  W  W19  1  0.000311  0.340965  0.341276  1
