# generated using pymatgen
data_Nd10(ErSe3)9
_symmetry_space_group_name_H-M   'P 1'
_cell_length_a   4.04199636
_cell_length_b   15.38048112
_cell_length_c   19.34897300
_cell_angle_alpha   79.25266338
_cell_angle_beta   83.98890617
_cell_angle_gamma   82.45325926
_symmetry_Int_Tables_number   1
_chemical_formula_structural   Nd10(ErSe3)9
_chemical_formula_sum   'Nd10 Er9 Se27'
_cell_volume   1167.56606177
_cell_formula_units_Z   1
loop_
 _symmetry_equiv_pos_site_id
 _symmetry_equiv_pos_as_xyz
  1  'x, y, z'
loop_
 _atom_site_type_symbol
 _atom_site_label
 _atom_site_symmetry_multiplicity
 _atom_site_fract_x
 _atom_site_fract_y
 _atom_site_fract_z
 _atom_site_occupancy
  Nd  Nd0  1  0.126894  0.953764  0.791485  1
  Nd  Nd1  1  0.041941  0.606914  0.305150  1
  Nd  Nd2  1  0.114064  0.159646  0.608404  1
  Nd  Nd3  1  0.955548  0.392822  0.694611  1
  Nd  Nd4  1  0.870636  0.045617  0.209246  1
  Nd  Nd5  1  0.819270  0.465333  0.895350  1
  Nd  Nd6  1  0.799939  0.674490  0.720245  1
  Nd  Nd7  1  0.880319  0.839242  0.392240  1
  Nd  Nd8  1  0.196110  0.324582  0.280196  1
  Nd  Nd9  1  0.180125  0.533686  0.104891  1
  Er  Er10  1  0.178760  0.716701  0.924415  1
  Er  Er11  1  0.819826  0.282763  0.076266  1
  Er  Er12  1  0.571270  0.380019  0.472453  1
  Er  Er13  1  0.999538  0.000394  0.000277  1
  Er  Er14  1  0.747342  0.907612  0.589697  1
  Er  Er15  1  0.245141  0.091121  0.410828  1
  Er  Er16  1  0.423597  0.618667  0.527708  1
  Er  Er17  1  0.528096  0.807665  0.140783  1
  Er  Er18  1  0.473169  0.191967  0.859375  1
  Se  Se19  1  0.678981  0.803483  0.837359  1
  Se  Se20  1  0.319032  0.195947  0.163173  1
  Se  Se21  1  0.297894  0.911058  0.484311  1
  Se  Se22  1  0.604705  0.456029  0.331572  1
  Se  Se23  1  0.449365  0.997127  0.103245  1
  Se  Se24  1  0.456493  0.696704  0.383707  1
  Se  Se25  1  0.242622  0.825006  0.684058  1
  Se  Se26  1  0.539582  0.302226  0.616673  1
  Se  Se27  1  0.854657  0.729529  0.554303  1
  Se  Se28  1  0.751877  0.173864  0.316538  1
  Se  Se29  1  0.594426  0.624280  0.185543  1
  Se  Se30  1  0.140083  0.269326  0.445675  1
  Se  Se31  1  0.078052  0.812760  0.035869  1
  Se  Se32  1  0.549715  0.002624  0.897436  1
  Se  Se33  1  0.714152  0.399651  0.170213  1
  Se  Se34  1  0.391731  0.543627  0.668768  1
  Se  Se35  1  0.283410  0.599659  0.830411  1
  Se  Se36  1  0.694205  0.087761  0.516333  1
  Se  Se37  1  0.297793  0.396488  0.006604  1
  Se  Se38  1  0.922757  0.187855  0.964176  1
  Se  Se39  1  0.701206  0.602723  0.993678  1
  Se  Se40  1  0.026524  0.181794  0.763140  1
  Se  Se41  1  0.641803  0.027857  0.687006  1
  Se  Se42  1  0.404898  0.375269  0.814299  1
  Se  Se43  1  0.997560  0.499109  0.500560  1
  Se  Se44  1  0.974171  0.817073  0.237296  1
  Se  Se45  1  0.355295  0.970780  0.313622  1
