# generated using pymatgen
data_Pr3Ho2(InSb)2
_symmetry_space_group_name_H-M   'P 1'
_cell_length_a   9.21181650
_cell_length_b   8.66219138
_cell_length_c   8.28758000
_cell_angle_alpha   90.34715581
_cell_angle_beta   90.19158305
_cell_angle_gamma   125.15771330
_symmetry_Int_Tables_number   1
_chemical_formula_structural   Pr3Ho2(InSb)2
_chemical_formula_sum   'Pr6 Ho4 In4 Sb4'
_cell_volume   540.63312376
_cell_formula_units_Z   2
loop_
 _symmetry_equiv_pos_site_id
 _symmetry_equiv_pos_as_xyz
  1  'x, y, z'
loop_
 _atom_site_type_symbol
 _atom_site_label
 _atom_site_symmetry_multiplicity
 _atom_site_fract_x
 _atom_site_fract_y
 _atom_site_fract_z
 _atom_site_occupancy
  Pr  Pr0  1  0.051742  0.341851  0.325031  1
  Pr  Pr1  1  0.948258  0.658149  0.674969  1
  Pr  Pr2  1  0.450955  0.152940  0.816656  1
  Pr  Pr3  1  0.788346  0.514178  0.161947  1
  Pr  Pr4  1  0.549045  0.847060  0.183344  1
  Pr  Pr5  1  0.211654  0.485822  0.838053  1
  Ho  Ho6  1  0.718433  0.979048  0.660599  1
  Ho  Ho7  1  0.281567  0.020952  0.339401  1
  Ho  Ho8  1  0.000000  0.000000  0.000000  1
  Ho  Ho9  1  0.500000  0.500000  0.500000  1
  In  In10  1  0.373179  0.375316  0.129159  1
  In  In11  1  0.626821  0.624684  0.870841  1
  In  In12  1  0.127569  0.124595  0.627552  1
  In  In13  1  0.872431  0.875405  0.372448  1
  Sb  Sb14  1  0.812915  0.211829  0.971714  1
  Sb  Sb15  1  0.187085  0.788171  0.028286  1
  Sb  Sb16  1  0.678846  0.266643  0.475383  1
  Sb  Sb17  1  0.321154  0.733357  0.524617  1
