# generated using pymatgen
data_La4Eu2CuSb15
_symmetry_space_group_name_H-M   'P 1'
_cell_length_a   12.69153099
_cell_length_b   12.69153096
_cell_length_c   4.35408400
_cell_angle_alpha   80.28848200
_cell_angle_beta   80.28848202
_cell_angle_gamma   101.22872694
_symmetry_Int_Tables_number   1
_chemical_formula_structural   La4Eu2CuSb15
_chemical_formula_sum   'La4 Eu2 Cu1 Sb15'
_cell_volume   663.15513313
_cell_formula_units_Z   1
loop_
 _symmetry_equiv_pos_site_id
 _symmetry_equiv_pos_as_xyz
  1  'x, y, z'
loop_
 _atom_site_type_symbol
 _atom_site_label
 _atom_site_symmetry_multiplicity
 _atom_site_fract_x
 _atom_site_fract_y
 _atom_site_fract_z
 _atom_site_occupancy
  La  La0  1  0.268217  0.004602  0.795216  1
  La  La1  1  0.727911  0.994881  0.073821  1
  La  La2  1  0.994881  0.727911  0.073821  1
  La  La3  1  0.004602  0.268217  0.795216  1
  Eu  Eu4  1  0.324473  0.676713  0.929945  1
  Eu  Eu5  1  0.676713  0.324473  0.929945  1
  Cu  Cu6  1  0.259812  0.259812  0.681130  1
  Sb  Sb7  1  0.404549  0.404549  0.021483  1
  Sb  Sb8  1  0.596971  0.596971  0.833723  1
  Sb  Sb9  1  0.466119  0.245899  0.574572  1
  Sb  Sb10  1  0.541641  0.752447  0.279822  1
  Sb  Sb11  1  0.752447  0.541641  0.279822  1
  Sb  Sb12  1  0.245899  0.466119  0.574572  1
  Sb  Sb13  1  0.513286  0.915791  0.716656  1
  Sb  Sb14  1  0.485430  0.081196  0.144008  1
  Sb  Sb15  1  0.081196  0.485430  0.144008  1
  Sb  Sb16  1  0.915791  0.513286  0.716656  1
  Sb  Sb17  1  0.156876  0.156876  0.274931  1
  Sb  Sb18  1  0.852176  0.852176  0.586012  1
  Sb  Sb19  1  0.198745  0.799650  0.432390  1
  Sb  Sb20  1  0.799650  0.198745  0.432390  1
  Sb  Sb21  1  0.993215  0.993215  0.977162  1
