# generated using pymatgen
data_Pr16Tm4Si15Rh
_symmetry_space_group_name_H-M   'P 1'
_cell_length_a   7.85185181
_cell_length_b   7.82490296
_cell_length_c   15.31728900
_cell_angle_alpha   90.08824761
_cell_angle_beta   89.75156202
_cell_angle_gamma   90.17819442
_symmetry_Int_Tables_number   1
_chemical_formula_structural   Pr16Tm4Si15Rh
_chemical_formula_sum   'Pr16 Tm4 Si15 Rh1'
_cell_volume   941.07941200
_cell_formula_units_Z   1
loop_
 _symmetry_equiv_pos_site_id
 _symmetry_equiv_pos_as_xyz
  1  'x, y, z'
loop_
 _atom_site_type_symbol
 _atom_site_label
 _atom_site_symmetry_multiplicity
 _atom_site_fract_x
 _atom_site_fract_y
 _atom_site_fract_z
 _atom_site_occupancy
  Pr  Pr0  1  0.376757  0.013338  0.446555  1
  Pr  Pr1  1  0.487010  0.878443  0.695824  1
  Pr  Pr2  1  0.512898  0.121099  0.195115  1
  Pr  Pr3  1  0.878253  0.486088  0.303453  1
  Pr  Pr4  1  0.122381  0.507711  0.801699  1
  Pr  Pr5  1  0.623475  0.987376  0.945563  1
  Pr  Pr6  1  0.006838  0.378798  0.554457  1
  Pr  Pr7  1  0.986241  0.622385  0.054764  1
  Pr  Pr8  1  0.132682  0.982086  0.874848  1
  Pr  Pr9  1  0.522503  0.628346  0.127656  1
  Pr  Pr10  1  0.469960  0.364699  0.631201  1
  Pr  Pr11  1  0.625331  0.520745  0.872033  1
  Pr  Pr12  1  0.374541  0.477420  0.371899  1
  Pr  Pr13  1  0.875574  0.025084  0.378731  1
  Pr  Pr14  1  0.976996  0.124618  0.122418  1
  Pr  Pr15  1  0.028632  0.882720  0.623093  1
  Tm  Tm16  1  0.307552  0.307741  0.999894  1
  Tm  Tm17  1  0.190089  0.808641  0.250360  1
  Tm  Tm18  1  0.818948  0.189159  0.749634  1
  Tm  Tm19  1  0.691746  0.688854  0.500719  1
  Si  Si20  1  0.327611  0.686998  0.956774  1
  Si  Si21  1  0.669125  0.313328  0.458992  1
  Si  Si22  1  0.688671  0.329310  0.043301  1
  Si  Si23  1  0.313012  0.671954  0.542009  1
  Si  Si24  1  0.813924  0.827598  0.209487  1
  Si  Si25  1  0.173241  0.187554  0.291627  1
  Si  Si26  1  0.829318  0.811423  0.792481  1
  Si  Si27  1  0.285431  0.921364  0.062839  1
  Si  Si28  1  0.580253  0.784181  0.314322  1
  Si  Si29  1  0.427120  0.209711  0.815937  1
  Si  Si30  1  0.779568  0.583624  0.685550  1
  Si  Si31  1  0.213873  0.421756  0.186175  1
  Si  Si32  1  0.709063  0.074918  0.562136  1
  Si  Si33  1  0.919805  0.285507  0.937400  1
  Si  Si34  1  0.081640  0.717639  0.436718  1
  Rh  Rh35  1  0.179939  0.177782  0.704333  1
