# generated using pymatgen
data_Zr8Cu3Ag
_symmetry_space_group_name_H-M   'P 1'
_cell_length_a   3.23123800
_cell_length_b   3.23123800
_cell_length_c   23.07471500
_cell_angle_alpha   90.00000000
_cell_angle_beta   90.00000000
_cell_angle_gamma   90.00000000
_symmetry_Int_Tables_number   1
_chemical_formula_structural   Zr8Cu3Ag
_chemical_formula_sum   'Zr8 Cu3 Ag1'
_cell_volume   240.92076906
_cell_formula_units_Z   1
loop_
 _symmetry_equiv_pos_site_id
 _symmetry_equiv_pos_as_xyz
  1  'x, y, z'
loop_
 _atom_site_type_symbol
 _atom_site_label
 _atom_site_symmetry_multiplicity
 _atom_site_fract_x
 _atom_site_fract_y
 _atom_site_fract_z
 _atom_site_occupancy
  Zr  Zr0  1  0.500000  0.500000  0.087760  1
  Zr  Zr1  1  0.000000  0.000000  0.331401  1
  Zr  Zr2  1  0.500000  0.500000  0.574989  1
  Zr  Zr3  1  0.000000  0.000000  0.819252  1
  Zr  Zr4  1  0.000000  0.000000  0.180748  1
  Zr  Zr5  1  0.500000  0.500000  0.425011  1
  Zr  Zr6  1  0.000000  0.000000  0.668599  1
  Zr  Zr7  1  0.500000  0.500000  0.912240  1
  Cu  Cu8  1  0.500000  0.500000  0.255594  1
  Cu  Cu9  1  0.000000  0.000000  0.500000  1
  Cu  Cu10  1  0.500000  0.500000  0.744406  1
  Ag  Ag11  1  0.000000  0.000000  0.000000  1
