# generated using pymatgen
data_Dy9Y(SnBi)4
_symmetry_space_group_name_H-M   'P 1'
_cell_length_a   8.18644800
_cell_length_b   8.22505017
_cell_length_c   15.64990000
_cell_angle_alpha   90.01154268
_cell_angle_beta   90.00000000
_cell_angle_gamma   90.00000000
_symmetry_Int_Tables_number   1
_chemical_formula_structural   Dy9Y(SnBi)4
_chemical_formula_sum   'Dy18 Y2 Sn8 Bi8'
_cell_volume   1053.76949212
_cell_formula_units_Z   2
loop_
 _symmetry_equiv_pos_site_id
 _symmetry_equiv_pos_as_xyz
  1  'x, y, z'
loop_
 _atom_site_type_symbol
 _atom_site_label
 _atom_site_symmetry_multiplicity
 _atom_site_fract_x
 _atom_site_fract_y
 _atom_site_fract_z
 _atom_site_occupancy
  Dy  Dy0  1  0.386315  0.838201  0.876440  1
  Dy  Dy1  1  0.886315  0.661799  0.623560  1
  Dy  Dy2  1  0.613771  0.161750  0.376376  1
  Dy  Dy3  1  0.113771  0.338250  0.123624  1
  Dy  Dy4  1  0.613742  0.161739  0.123590  1
  Dy  Dy5  1  0.113742  0.338261  0.376410  1
  Dy  Dy6  1  0.386305  0.838192  0.623576  1
  Dy  Dy7  1  0.886305  0.661808  0.876424  1
  Dy  Dy8  1  0.553244  0.328136  0.889628  1
  Dy  Dy9  1  0.053244  0.171864  0.610372  1
  Dy  Dy10  1  0.446773  0.671882  0.389660  1
  Dy  Dy11  1  0.946773  0.828118  0.110340  1
  Dy  Dy12  1  0.446788  0.671888  0.110354  1
  Dy  Dy13  1  0.946788  0.828112  0.389646  1
  Dy  Dy14  1  0.217627  0.498252  0.749987  1
  Dy  Dy15  1  0.717627  0.001748  0.750013  1
  Dy  Dy16  1  0.782350  0.501862  0.249993  1
  Dy  Dy17  1  0.282350  0.998138  0.250007  1
  Y  Y18  1  0.553085  0.328049  0.610035  1
  Y  Y19  1  0.053085  0.171951  0.889965  1
  Sn  Sn20  1  0.582863  0.626446  0.750072  1
  Sn  Sn21  1  0.082863  0.873554  0.749928  1
  Sn  Sn22  1  0.417211  0.373686  0.249999  1
  Sn  Sn23  1  0.917211  0.126314  0.250001  1
  Sn  Sn24  1  0.356822  0.143779  0.750044  1
  Sn  Sn25  1  0.856822  0.356221  0.749956  1
  Sn  Sn26  1  0.643138  0.856035  0.249998  1
  Sn  Sn27  1  0.143138  0.643965  0.250002  1
  Bi  Bi28  1  0.270550  0.020619  0.044323  1
  Bi  Bi29  1  0.770550  0.479381  0.455677  1
  Bi  Bi30  1  0.729668  0.979062  0.544135  1
  Bi  Bi31  1  0.229668  0.520938  0.955865  1
  Bi  Bi32  1  0.729312  0.979063  0.955871  1
  Bi  Bi33  1  0.229312  0.520937  0.544129  1
  Bi  Bi34  1  0.270439  0.020759  0.455792  1
  Bi  Bi35  1  0.770439  0.479241  0.044208  1
