# generated using pymatgen
data_Pr4Fe3CoO12
_symmetry_space_group_name_H-M   'P 1'
_cell_length_a   5.49776152
_cell_length_b   5.64138414
_cell_length_c   7.82947966
_cell_angle_alpha   90.30331066
_cell_angle_beta   90.15803801
_cell_angle_gamma   90.07635999
_symmetry_Int_Tables_number   1
_chemical_formula_structural   Pr4Fe3CoO12
_chemical_formula_sum   'Pr4 Fe3 Co1 O12'
_cell_volume   242.82664460
_cell_formula_units_Z   1
loop_
 _symmetry_equiv_pos_site_id
 _symmetry_equiv_pos_as_xyz
  1  'x, y, z'
loop_
 _atom_site_type_symbol
 _atom_site_label
 _atom_site_symmetry_multiplicity
 _atom_site_fract_x
 _atom_site_fract_y
 _atom_site_fract_z
 _atom_site_occupancy
  Pr  Pr0  1  0.010959  0.946696  0.746369  1
  Pr  Pr1  1  0.513717  0.549081  0.253140  1
  Pr  Pr2  1  0.486283  0.450919  0.746860  1
  Pr  Pr3  1  0.989041  0.053304  0.253631  1
  Fe  Fe4  1  0.500000  0.000000  0.500000  1
  Fe  Fe5  1  0.500000  0.000000  0.000000  1
  Fe  Fe6  1  0.000000  0.500000  0.000000  1
  Co  Co7  1  0.000000  0.500000  0.500000  1
  O  O8  1  0.714714  0.294080  0.455420  1
  O  O9  1  0.204890  0.214177  0.544436  1
  O  O10  1  0.793869  0.792991  0.045299  1
  O  O11  1  0.293017  0.706346  0.953871  1
  O  O12  1  0.285286  0.705920  0.544580  1
  O  O13  1  0.795110  0.785823  0.455564  1
  O  O14  1  0.206131  0.207009  0.954701  1
  O  O15  1  0.706983  0.293654  0.046129  1
  O  O16  1  0.085495  0.478298  0.255767  1
  O  O17  1  0.583168  0.021557  0.747872  1
  O  O18  1  0.416832  0.978443  0.252128  1
  O  O19  1  0.914505  0.521702  0.744233  1
