# generated using pymatgen
data_Zr6Al12V4Ru7
_symmetry_space_group_name_H-M   'P 1'
_cell_length_a   8.63053650
_cell_length_b   8.63053638
_cell_length_c   8.63053700
_cell_angle_alpha   60.00000144
_cell_angle_beta   60.00000191
_cell_angle_gamma   60.00000966
_symmetry_Int_Tables_number   1
_chemical_formula_structural   Zr6Al12V4Ru7
_chemical_formula_sum   'Zr6 Al12 V4 Ru7'
_cell_volume   454.56756551
_cell_formula_units_Z   1
loop_
 _symmetry_equiv_pos_site_id
 _symmetry_equiv_pos_as_xyz
  1  'x, y, z'
loop_
 _atom_site_type_symbol
 _atom_site_label
 _atom_site_symmetry_multiplicity
 _atom_site_fract_x
 _atom_site_fract_y
 _atom_site_fract_z
 _atom_site_occupancy
  Zr  Zr0  1  0.702997  0.702997  0.297003  1
  Zr  Zr1  1  0.297003  0.702997  0.297003  1
  Zr  Zr2  1  0.702997  0.297003  0.297003  1
  Zr  Zr3  1  0.297003  0.297003  0.702997  1
  Zr  Zr4  1  0.702997  0.297003  0.702997  1
  Zr  Zr5  1  0.297003  0.702997  0.702997  1
  Al  Al6  1  0.119115  0.119115  0.642653  1
  Al  Al7  1  0.119115  0.642653  0.119115  1
  Al  Al8  1  0.642653  0.119115  0.119115  1
  Al  Al9  1  0.119115  0.119115  0.119115  1
  Al  Al10  1  0.664779  0.664779  0.005663  1
  Al  Al11  1  0.664779  0.005663  0.664779  1
  Al  Al12  1  0.005663  0.664779  0.664779  1
  Al  Al13  1  0.664779  0.664779  0.664779  1
  Al  Al14  1  0.334199  0.334199  0.997404  1
  Al  Al15  1  0.334199  0.997404  0.334199  1
  Al  Al16  1  0.997404  0.334199  0.334199  1
  Al  Al17  1  0.334199  0.334199  0.334199  1
  V  V18  1  0.879833  0.879833  0.360504  1
  V  V19  1  0.879833  0.360504  0.879833  1
  V  V20  1  0.360504  0.879833  0.879833  1
  V  V21  1  0.879833  0.879833  0.879833  1
  Ru  Ru22  1  0.000000  0.000000  0.000000  1
  Ru  Ru23  1  0.997258  0.997258  0.502742  1
  Ru  Ru24  1  0.502742  0.997258  0.502742  1
  Ru  Ru25  1  0.997258  0.502742  0.502742  1
  Ru  Ru26  1  0.502742  0.502742  0.997258  1
  Ru  Ru27  1  0.997258  0.502742  0.997258  1
  Ru  Ru28  1  0.502742  0.997258  0.997258  1
