# generated using pymatgen
data_Dy7Er12LuPb16
_symmetry_space_group_name_H-M   'P 1'
_cell_length_a   8.17001698
_cell_length_b   15.55158143
_cell_length_c   8.23514700
_cell_angle_alpha   90.01286906
_cell_angle_beta   89.91503829
_cell_angle_gamma   90.10881099
_symmetry_Int_Tables_number   1
_chemical_formula_structural   Dy7Er12LuPb16
_chemical_formula_sum   'Dy7 Er12 Lu1 Pb16'
_cell_volume   1046.32741008
_cell_formula_units_Z   1
loop_
 _symmetry_equiv_pos_site_id
 _symmetry_equiv_pos_as_xyz
  1  'x, y, z'
loop_
 _atom_site_type_symbol
 _atom_site_label
 _atom_site_symmetry_multiplicity
 _atom_site_fract_x
 _atom_site_fract_y
 _atom_site_fract_z
 _atom_site_occupancy
  Dy  Dy0  1  0.963129  0.900607  0.823483  1
  Dy  Dy1  1  0.537125  0.099201  0.323285  1
  Dy  Dy2  1  0.038088  0.400676  0.175954  1
  Dy  Dy3  1  0.537815  0.400643  0.324262  1
  Dy  Dy4  1  0.036589  0.098899  0.176199  1
  Dy  Dy5  1  0.463316  0.900773  0.676399  1
  Dy  Dy6  1  0.962511  0.599198  0.823812  1
  Er  Er7  1  0.623920  0.621813  0.157890  1
  Er  Er8  1  0.124745  0.878190  0.342717  1
  Er  Er9  1  0.375892  0.122277  0.842772  1
  Er  Er10  1  0.875649  0.378257  0.657802  1
  Er  Er11  1  0.377238  0.378207  0.842197  1
  Er  Er12  1  0.875312  0.121889  0.657212  1
  Er  Er13  1  0.624585  0.877865  0.157155  1
  Er  Er14  1  0.123952  0.621620  0.342510  1
  Er  Er15  1  0.460132  0.600143  0.674757  1
  Er  Er16  1  0.792297  0.749843  0.495276  1
  Er  Er17  1  0.292511  0.749855  0.004828  1
  Er  Er18  1  0.207680  0.250228  0.505024  1
  Lu  Lu19  1  0.707693  0.250054  0.994827  1
  Pb  Pb20  1  0.717956  0.456001  0.966909  1
  Pb  Pb21  1  0.217285  0.043323  0.535203  1
  Pb  Pb22  1  0.283281  0.957274  0.034724  1
  Pb  Pb23  1  0.780782  0.542847  0.467037  1
  Pb  Pb24  1  0.283464  0.542813  0.033681  1
  Pb  Pb25  1  0.783123  0.957405  0.464466  1
  Pb  Pb26  1  0.716603  0.043526  0.964820  1
  Pb  Pb27  1  0.217408  0.457136  0.535280  1
  Pb  Pb28  1  0.429258  0.750142  0.374617  1
  Pb  Pb29  1  0.929871  0.749799  0.125674  1
  Pb  Pb30  1  0.570927  0.250009  0.626160  1
  Pb  Pb31  1  0.069436  0.250072  0.874364  1
  Pb  Pb32  1  0.651047  0.749445  0.844130  1
  Pb  Pb33  1  0.151760  0.749944  0.655561  1
  Pb  Pb34  1  0.348687  0.250079  0.155445  1
  Pb  Pb35  1  0.848932  0.249947  0.343567  1
