# generated using pymatgen
data_EuFeI18
_symmetry_space_group_name_H-M   'P 1'
_cell_length_a   10.46774625
_cell_length_b   10.46774789
_cell_length_c   10.46774700
_cell_angle_alpha   92.91067543
_cell_angle_beta   92.91067040
_cell_angle_gamma   92.91068298
_symmetry_Int_Tables_number   1
_chemical_formula_structural   EuFeI18
_chemical_formula_sum   'Eu1 Fe1 I18'
_cell_volume   1142.39439398
_cell_formula_units_Z   1
loop_
 _symmetry_equiv_pos_site_id
 _symmetry_equiv_pos_as_xyz
  1  'x, y, z'
loop_
 _atom_site_type_symbol
 _atom_site_label
 _atom_site_symmetry_multiplicity
 _atom_site_fract_x
 _atom_site_fract_y
 _atom_site_fract_z
 _atom_site_occupancy
  Eu  Eu0  1  0.000000  0.000000  0.000000  1
  Fe  Fe1  1  0.500000  0.500000  0.500000  1
  I  I2  1  0.696351  0.961649  0.028467  1
  I  I3  1  0.729261  0.140777  0.598455  1
  I  I4  1  0.028467  0.696351  0.961649  1
  I  I5  1  0.270739  0.859223  0.401545  1
  I  I6  1  0.140777  0.598455  0.729261  1
  I  I7  1  0.038351  0.971533  0.303649  1
  I  I8  1  0.598455  0.729261  0.140777  1
  I  I9  1  0.971533  0.303649  0.038351  1
  I  I10  1  0.859223  0.401545  0.270739  1
  I  I11  1  0.401545  0.270739  0.859223  1
  I  I12  1  0.961649  0.028467  0.696351  1
  I  I13  1  0.303649  0.038351  0.971533  1
  I  I14  1  0.754378  0.525049  0.501628  1
  I  I15  1  0.498372  0.245622  0.474951  1
  I  I16  1  0.474951  0.498372  0.245622  1
  I  I17  1  0.501628  0.754378  0.525049  1
  I  I18  1  0.525049  0.501628  0.754378  1
  I  I19  1  0.245622  0.474951  0.498372  1
