# generated using pymatgen
data_Ba6PaO8
_symmetry_space_group_name_H-M   'P 1'
_cell_length_a   7.84602810
_cell_length_b   7.84620878
_cell_length_c   7.84616400
_cell_angle_alpha   60.00019723
_cell_angle_beta   59.99943546
_cell_angle_gamma   59.99984226
_symmetry_Int_Tables_number   1
_chemical_formula_structural   Ba6PaO8
_chemical_formula_sum   'Ba6 Pa1 O8'
_cell_volume   341.54692506
_cell_formula_units_Z   1
loop_
 _symmetry_equiv_pos_site_id
 _symmetry_equiv_pos_as_xyz
  1  'x, y, z'
loop_
 _atom_site_type_symbol
 _atom_site_label
 _atom_site_symmetry_multiplicity
 _atom_site_fract_x
 _atom_site_fract_y
 _atom_site_fract_z
 _atom_site_occupancy
  Ba  Ba0  1  0.500000  0.000000  0.000000  1
  Ba  Ba1  1  0.500000  0.000000  0.500000  1
  Ba  Ba2  1  0.000000  0.000000  0.500000  1
  Ba  Ba3  1  0.500000  0.500000  0.000000  1
  Ba  Ba4  1  0.000000  0.500000  0.000000  1
  Ba  Ba5  1  0.000000  0.500000  0.500000  1
  Pa  Pa6  1  0.000000  0.000000  0.000000  1
  O  O7  1  0.800015  0.199979  0.199982  1
  O  O8  1  0.250013  0.249995  0.249996  1
  O  O9  1  0.199985  0.800021  0.199975  1
  O  O10  1  0.199985  0.199977  0.800019  1
  O  O11  1  0.800015  0.800023  0.199981  1
  O  O12  1  0.800015  0.199979  0.800025  1
  O  O13  1  0.749987  0.750005  0.750004  1
  O  O14  1  0.199985  0.800021  0.800018  1
