# generated using pymatgen
data_K2Rb4YInSb4
_symmetry_space_group_name_H-M   'P 1'
_cell_length_a   10.14308200
_cell_length_b   10.14308276
_cell_length_c   10.14308297
_cell_angle_alpha   131.34941214
_cell_angle_beta   66.71525793
_cell_angle_gamma   137.27779073
_symmetry_Int_Tables_number   1
_chemical_formula_structural   K2Rb4YInSb4
_chemical_formula_sum   'K2 Rb4 Y1 In1 Sb4'
_cell_volume   523.10800312
_cell_formula_units_Z   1
loop_
 _symmetry_equiv_pos_site_id
 _symmetry_equiv_pos_as_xyz
  1  'x, y, z'
loop_
 _atom_site_type_symbol
 _atom_site_label
 _atom_site_symmetry_multiplicity
 _atom_site_fract_x
 _atom_site_fract_y
 _atom_site_fract_z
 _atom_site_occupancy
  K  K0  1  0.250001  0.250001  0.000000  1
  K  K1  1  0.750000  0.750000  0.000000  1
  Rb  Rb2  1  0.827972  0.287100  0.101600  1
  Rb  Rb3  1  0.672028  0.773627  0.459128  1
  Rb  Rb4  1  0.314499  0.212899  0.540872  1
  Rb  Rb5  1  0.185501  0.726372  0.898400  1
  Y  Y6  1  0.750001  0.250001  0.500000  1
  In  In7  1  0.250001  0.750001  0.500000  1
  Sb  Sb8  1  0.393177  0.793025  0.199342  1
  Sb  Sb9  1  0.106823  0.306165  0.399848  1
  Sb  Sb10  1  0.906317  0.706975  0.600152  1
  Sb  Sb11  1  0.593683  0.193835  0.800658  1
