# generated using pymatgen
data_Ho8Tm12Si15Pb
_symmetry_space_group_name_H-M   'P 1'
_cell_length_a   7.39355714
_cell_length_b   7.64793707
_cell_length_c   14.51046485
_cell_angle_alpha   90.05917233
_cell_angle_beta   87.62771728
_cell_angle_gamma   89.97727342
_symmetry_Int_Tables_number   1
_chemical_formula_structural   Ho8Tm12Si15Pb
_chemical_formula_sum   'Ho8 Tm12 Si15 Pb1'
_cell_volume   819.79719615
_cell_formula_units_Z   1
loop_
 _symmetry_equiv_pos_site_id
 _symmetry_equiv_pos_as_xyz
  1  'x, y, z'
loop_
 _atom_site_type_symbol
 _atom_site_label
 _atom_site_symmetry_multiplicity
 _atom_site_fract_x
 _atom_site_fract_y
 _atom_site_fract_z
 _atom_site_occupancy
  Ho  Ho0  1  0.021331  0.180931  0.098403  1
  Ho  Ho1  1  0.977591  0.820180  0.902053  1
  Ho  Ho2  1  0.477772  0.682928  0.901657  1
  Ho  Ho3  1  0.994581  0.828853  0.600065  1
  Ho  Ho4  1  0.522661  0.316799  0.099920  1
  Ho  Ho5  1  0.000185  0.171935  0.398920  1
  Ho  Ho6  1  0.515100  0.312298  0.398100  1
  Ho  Ho7  1  0.504587  0.690618  0.601564  1
  Tm  Tm8  1  0.162426  0.507335  0.753038  1
  Tm  Tm9  1  0.835171  0.491479  0.251958  1
  Tm  Tm10  1  0.335466  0.008015  0.252122  1
  Tm  Tm11  1  0.667587  0.992305  0.749190  1
  Tm  Tm12  1  0.350480  0.156699  0.626838  1
  Tm  Tm13  1  0.655375  0.828208  0.377270  1
  Tm  Tm14  1  0.153359  0.682733  0.368859  1
  Tm  Tm15  1  0.673862  0.820728  0.121430  1
  Tm  Tm16  1  0.829103  0.328512  0.625324  1
  Tm  Tm17  1  0.324385  0.177689  0.878535  1
  Tm  Tm18  1  0.823126  0.323079  0.877611  1
  Tm  Tm19  1  0.175485  0.677282  0.122755  1
  Si  Si20  1  0.037642  0.112645  0.752855  1
  Si  Si21  1  0.960380  0.893373  0.244984  1
  Si  Si22  1  0.464652  0.607079  0.246705  1
  Si  Si23  1  0.531579  0.393487  0.753894  1
  Si  Si24  1  0.283971  0.867830  0.753938  1
  Si  Si25  1  0.717080  0.127991  0.246644  1
  Si  Si26  1  0.217261  0.369659  0.247849  1
  Si  Si27  1  0.784570  0.632248  0.752795  1
  Si  Si28  1  0.816334  0.535784  0.458007  1
  Si  Si29  1  0.312454  0.965380  0.457846  1
  Si  Si30  1  0.851909  0.528621  0.041184  1
  Si  Si31  1  0.689090  0.035139  0.540944  1
  Si  Si32  1  0.146694  0.471186  0.959744  1
  Si  Si33  1  0.648929  0.030628  0.959937  1
  Si  Si34  1  0.349841  0.970706  0.041180  1
  Pb  Pb35  1  0.187979  0.459638  0.535883  1
