# generated using pymatgen
data_La2PrNd3(PtBr3)2
_symmetry_space_group_name_H-M   'P 1'
_cell_length_a   10.62601951
_cell_length_b   10.63796228
_cell_length_c   10.62999954
_cell_angle_alpha   109.27336583
_cell_angle_beta   109.45439171
_cell_angle_gamma   109.70118823
_symmetry_Int_Tables_number   1
_chemical_formula_structural   La2PrNd3(PtBr3)2
_chemical_formula_sum   'La4 Pr2 Nd6 Pt4 Br12'
_cell_volume   924.81291892
_cell_formula_units_Z   2
loop_
 _symmetry_equiv_pos_site_id
 _symmetry_equiv_pos_as_xyz
  1  'x, y, z'
loop_
 _atom_site_type_symbol
 _atom_site_label
 _atom_site_symmetry_multiplicity
 _atom_site_fract_x
 _atom_site_fract_y
 _atom_site_fract_z
 _atom_site_occupancy
  La  La0  1  0.470427  0.485927  0.234170  1
  La  La1  1  0.749236  0.235939  0.262511  1
  La  La2  1  0.752812  0.015511  0.488791  1
  La  La3  1  0.234946  0.470852  0.486821  1
  Pr  Pr4  1  0.262996  0.014058  0.029119  1
  Pr  Pr5  1  0.234761  0.264305  0.749569  1
  Nd  Nd6  1  0.265057  0.751438  0.233950  1
  Nd  Nd7  1  0.028637  0.264372  0.014348  1
  Nd  Nd8  1  0.015970  0.028486  0.262705  1
  Nd  Nd9  1  0.484182  0.750733  0.016021  1
  Nd  Nd10  1  0.483245  0.232556  0.467613  1
  Nd  Nd11  1  0.018142  0.486736  0.755242  1
  Pt  Pt12  1  0.249443  0.250511  0.249450  1
  Pt  Pt13  1  0.501616  0.000710  0.250576  1
  Pt  Pt14  1  0.998888  0.249128  0.498865  1
  Pt  Pt15  1  0.250102  0.499750  0.001015  1
  Br  Br16  1  0.249749  0.754657  0.749091  1
  Br  Br17  1  0.507885  0.502185  0.754457  1
  Br  Br18  1  0.992531  0.745427  0.997233  1
  Br  Br19  1  0.747533  0.253861  0.755228  1
  Br  Br20  1  0.997022  0.992312  0.748646  1
  Br  Br21  1  0.249648  0.995426  0.501268  1
  Br  Br22  1  0.754841  0.506686  0.508792  1
  Br  Br23  1  0.500608  0.247576  0.991934  1
  Br  Br24  1  0.755198  0.748008  0.246218  1
  Br  Br25  1  0.746944  0.993223  0.992086  1
  Br  Br26  1  0.996541  0.504350  0.246574  1
  Br  Br27  1  0.501042  0.755276  0.507705  1
