# generated using pymatgen
data_Sr6Y3Lu(GeO4)6
_symmetry_space_group_name_H-M   'P 1'
_cell_length_a   11.44187392
_cell_length_b   11.44181426
_cell_length_c   11.44218841
_cell_angle_alpha   109.41105665
_cell_angle_beta   109.41117737
_cell_angle_gamma   109.41062403
_symmetry_Int_Tables_number   1
_chemical_formula_structural   Sr6Y3Lu(GeO4)6
_chemical_formula_sum   'Sr12 Y6 Lu2 Ge12 O48'
_cell_volume   1155.69850846
_cell_formula_units_Z   2
loop_
 _symmetry_equiv_pos_site_id
 _symmetry_equiv_pos_as_xyz
  1  'x, y, z'
loop_
 _atom_site_type_symbol
 _atom_site_label
 _atom_site_symmetry_multiplicity
 _atom_site_fract_x
 _atom_site_fract_y
 _atom_site_fract_z
 _atom_site_occupancy
  Sr  Sr0  1  0.749993  0.124994  0.375000  1
  Sr  Sr1  1  0.249999  0.374011  0.125979  1
  Sr  Sr2  1  0.125985  0.249998  0.374022  1
  Sr  Sr3  1  0.375003  0.750006  0.124999  1
  Sr  Sr4  1  0.750001  0.625989  0.874021  1
  Sr  Sr5  1  0.125000  0.374996  0.750001  1
  Sr  Sr6  1  0.625981  0.874016  0.749997  1
  Sr  Sr7  1  0.250007  0.875006  0.625000  1
  Sr  Sr8  1  0.875000  0.625004  0.249999  1
  Sr  Sr9  1  0.624997  0.249994  0.875001  1
  Sr  Sr10  1  0.874015  0.750002  0.625978  1
  Sr  Sr11  1  0.374019  0.125984  0.250003  1
  Y  Y12  1  0.500000  0.000000  0.000000  1
  Y  Y13  1  0.000000  0.500000  0.000000  1
  Y  Y14  1  0.500000  0.500000  0.000000  1
  Y  Y15  1  0.000000  0.500000  0.500000  1
  Y  Y16  1  0.500000  0.000000  0.500000  1
  Y  Y17  1  0.000000  0.000000  0.500000  1
  Lu  Lu18  1  0.000000  0.000000  0.000000  1
  Lu  Lu19  1  0.500000  0.500000  0.500000  1
  Ge  Ge20  1  0.123828  0.875142  0.247968  1
  Ge  Ge21  1  0.876172  0.124858  0.752032  1
  Ge  Ge22  1  0.252035  0.624857  0.376179  1
  Ge  Ge23  1  0.376196  0.252056  0.624854  1
  Ge  Ge24  1  0.752063  0.876196  0.124858  1
  Ge  Ge25  1  0.124860  0.752061  0.876195  1
  Ge  Ge26  1  0.375141  0.623808  0.747938  1
  Ge  Ge27  1  0.623804  0.747944  0.375146  1
  Ge  Ge28  1  0.875140  0.247939  0.123805  1
  Ge  Ge29  1  0.247937  0.123804  0.875142  1
  Ge  Ge30  1  0.747965  0.375143  0.623821  1
  Ge  Ge31  1  0.624859  0.376192  0.252062  1
  O  O32  1  0.410260  0.801683  0.789272  1
  O  O33  1  0.880606  0.391735  0.090463  1
  O  O34  1  0.106522  0.986851  0.697498  1
  O  O35  1  0.511586  0.617227  0.705324  1
  O  O36  1  0.698313  0.089740  0.710727  1
  O  O37  1  0.617224  0.705316  0.511585  1
  O  O38  1  0.619395  0.409539  0.108268  1
  O  O39  1  0.705326  0.511588  0.617231  1
  O  O40  1  0.802481  0.513129  0.393459  1
  O  O41  1  0.988412  0.794674  0.882769  1
  O  O42  1  0.794681  0.882776  0.988422  1
  O  O43  1  0.710733  0.698337  0.089744  1
  O  O44  1  0.409539  0.108277  0.619398  1
  O  O45  1  0.393444  0.802465  0.513116  1
  O  O46  1  0.089737  0.710726  0.698311  1
  O  O47  1  0.108260  0.619394  0.409536  1
  O  O48  1  0.513145  0.393475  0.802498  1
  O  O49  1  0.090461  0.880604  0.391733  1
  O  O50  1  0.986874  0.697521  0.106544  1
  O  O51  1  0.197519  0.486871  0.606541  1
  O  O52  1  0.697529  0.106549  0.986878  1
  O  O53  1  0.789275  0.410264  0.801690  1
  O  O54  1  0.391723  0.090458  0.880600  1
  O  O55  1  0.882773  0.988421  0.794678  1
  O  O56  1  0.589740  0.198317  0.210728  1
  O  O57  1  0.119394  0.608265  0.909537  1
  O  O58  1  0.893478  0.013149  0.302502  1
  O  O59  1  0.488414  0.382773  0.294676  1
  O  O60  1  0.301687  0.910260  0.289273  1
  O  O61  1  0.382776  0.294684  0.488415  1
  O  O62  1  0.380605  0.590461  0.891732  1
  O  O63  1  0.294674  0.488412  0.382769  1
  O  O64  1  0.117227  0.011579  0.205322  1
  O  O65  1  0.608277  0.909542  0.119400  1
  O  O66  1  0.210725  0.589736  0.198310  1
  O  O67  1  0.198337  0.210733  0.589743  1
  O  O68  1  0.302471  0.893451  0.013122  1
  O  O69  1  0.013126  0.302479  0.893456  1
  O  O70  1  0.909539  0.119396  0.608267  1
  O  O71  1  0.486855  0.606525  0.197502  1
  O  O72  1  0.891740  0.380606  0.590464  1
  O  O73  1  0.910263  0.289274  0.301689  1
  O  O74  1  0.606556  0.197535  0.486884  1
  O  O75  1  0.590461  0.891723  0.380602  1
  O  O76  1  0.289267  0.301663  0.910256  1
  O  O77  1  0.205319  0.117224  0.011578  1
  O  O78  1  0.011588  0.205326  0.117231  1
  O  O79  1  0.801663  0.789267  0.410257  1
