# generated using pymatgen
data_Sm8Lu11ScSn16
_symmetry_space_group_name_H-M   'P 1'
_cell_length_a   7.97575902
_cell_length_b   8.13810902
_cell_length_c   15.33881100
_cell_angle_alpha   90.00000000
_cell_angle_beta   90.00000000
_cell_angle_gamma   90.00750993
_symmetry_Int_Tables_number   1
_chemical_formula_structural   Sm8Lu11ScSn16
_chemical_formula_sum   'Sm8 Lu11 Sc1 Sn16'
_cell_volume   995.60534476
_cell_formula_units_Z   1
loop_
 _symmetry_equiv_pos_site_id
 _symmetry_equiv_pos_as_xyz
  1  'x, y, z'
loop_
 _atom_site_type_symbol
 _atom_site_label
 _atom_site_symmetry_multiplicity
 _atom_site_fract_x
 _atom_site_fract_y
 _atom_site_fract_z
 _atom_site_occupancy
  Sm  Sm0  1  0.517091  0.322608  0.903414  1
  Sm  Sm1  1  0.017514  0.178431  0.596502  1
  Sm  Sm2  1  0.483333  0.677887  0.404361  1
  Sm  Sm3  1  0.983418  0.821953  0.095851  1
  Sm  Sm4  1  0.483333  0.677887  0.095639  1
  Sm  Sm5  1  0.983418  0.821953  0.404149  1
  Sm  Sm6  1  0.517091  0.322608  0.596586  1
  Sm  Sm7  1  0.017514  0.178431  0.903498  1
  Lu  Lu8  1  0.359754  0.837204  0.875583  1
  Lu  Lu9  1  0.860435  0.662006  0.624578  1
  Lu  Lu10  1  0.639914  0.162820  0.376312  1
  Lu  Lu11  1  0.139636  0.337301  0.123426  1
  Lu  Lu12  1  0.639914  0.162820  0.123688  1
  Lu  Lu13  1  0.139636  0.337301  0.376574  1
  Lu  Lu14  1  0.359754  0.837204  0.624417  1
  Lu  Lu15  1  0.860435  0.662006  0.875422  1
  Lu  Lu16  1  0.691981  0.995508  0.750000  1
  Lu  Lu17  1  0.807518  0.495480  0.250000  1
  Lu  Lu18  1  0.307564  0.004797  0.250000  1
  Sc  Sc19  1  0.191788  0.505350  0.750000  1
  Sn  Sn20  1  0.303043  0.040528  0.041900  1
  Sn  Sn21  1  0.803098  0.459611  0.458417  1
  Sn  Sn22  1  0.696837  0.959409  0.542528  1
  Sn  Sn23  1  0.197379  0.539542  0.956130  1
  Sn  Sn24  1  0.696837  0.959409  0.957472  1
  Sn  Sn25  1  0.197379  0.539542  0.543870  1
  Sn  Sn26  1  0.303043  0.040528  0.458100  1
  Sn  Sn27  1  0.803098  0.459611  0.041583  1
  Sn  Sn28  1  0.553192  0.621255  0.750000  1
  Sn  Sn29  1  0.058114  0.874029  0.750000  1
  Sn  Sn30  1  0.442100  0.376721  0.250000  1
  Sn  Sn31  1  0.942070  0.123554  0.250000  1
  Sn  Sn32  1  0.324293  0.150300  0.750000  1
  Sn  Sn33  1  0.829443  0.354900  0.750000  1
  Sn  Sn34  1  0.674497  0.853818  0.250000  1
  Sn  Sn35  1  0.174538  0.645689  0.250000  1
