# generated using pymatgen
data_Pa6Bi5(SbRh2)3
_symmetry_space_group_name_H-M   'P 1'
_cell_length_a   8.44019235
_cell_length_b   8.45894378
_cell_length_c   8.46087754
_cell_angle_alpha   109.52660876
_cell_angle_beta   109.41609676
_cell_angle_gamma   109.42233747
_symmetry_Int_Tables_number   1
_chemical_formula_structural   Pa6Bi5(SbRh2)3
_chemical_formula_sum   'Pa6 Bi5 Sb3 Rh6'
_cell_volume   465.28808578
_cell_formula_units_Z   1
loop_
 _symmetry_equiv_pos_site_id
 _symmetry_equiv_pos_as_xyz
  1  'x, y, z'
loop_
 _atom_site_type_symbol
 _atom_site_label
 _atom_site_symmetry_multiplicity
 _atom_site_fract_x
 _atom_site_fract_y
 _atom_site_fract_z
 _atom_site_occupancy
  Pa  Pa0  1  0.366746  0.247987  0.613832  1
  Pa  Pa1  1  0.132517  0.754196  0.880634  1
  Pa  Pa2  1  0.618807  0.365886  0.252054  1
  Pa  Pa3  1  0.878304  0.126481  0.745809  1
  Pa  Pa4  1  0.251842  0.619299  0.373534  1
  Pa  Pa5  1  0.752924  0.886171  0.134129  1
  Bi  Bi6  1  0.503231  0.003519  0.821962  1
  Bi  Bi7  1  0.821768  0.500048  0.000033  1
  Bi  Bi8  1  0.999796  0.818416  0.496460  1
  Bi  Bi9  1  0.681392  0.677995  0.681560  1
  Bi  Bi10  1  0.329595  0.500119  0.000089  1
  Sb  Sb11  1  0.497932  0.998019  0.328600  1
  Sb  Sb12  1  0.999943  0.330617  0.501891  1
  Sb  Sb13  1  0.169348  0.171308  0.169390  1
  Rh  Rh14  1  0.881064  0.251090  0.134514  1
  Rh  Rh15  1  0.626636  0.760772  0.380837  1
  Rh  Rh16  1  0.129984  0.883430  0.248957  1
  Rh  Rh17  1  0.365808  0.619984  0.739171  1
  Rh  Rh18  1  0.245790  0.119198  0.879971  1
  Rh  Rh19  1  0.746571  0.365467  0.616576  1
