# generated using pymatgen
data_Zr3Ta3(B2Os5)2
_symmetry_space_group_name_H-M   'P 1'
_cell_length_a   9.56566392
_cell_length_b   9.56566440
_cell_length_c   3.10097400
_cell_angle_alpha   90.00000000
_cell_angle_beta   90.00000000
_cell_angle_gamma   90.14342425
_symmetry_Int_Tables_number   1
_chemical_formula_structural   Zr3Ta3(B2Os5)2
_chemical_formula_sum   'Zr3 Ta3 B4 Os10'
_cell_volume   283.74421943
_cell_formula_units_Z   1
loop_
 _symmetry_equiv_pos_site_id
 _symmetry_equiv_pos_as_xyz
  1  'x, y, z'
loop_
 _atom_site_type_symbol
 _atom_site_label
 _atom_site_symmetry_multiplicity
 _atom_site_fract_x
 _atom_site_fract_y
 _atom_site_fract_z
 _atom_site_occupancy
  Zr  Zr0  1  0.823265  0.677227  0.000000  1
  Zr  Zr1  1  0.177227  0.323265  0.000000  1
  Zr  Zr2  1  0.323895  0.823895  0.000000  1
  Ta  Ta3  1  0.677370  0.177370  0.000000  1
  Ta  Ta4  1  0.499397  0.500584  0.000000  1
  Ta  Ta5  1  0.000584  0.999397  0.000000  1
  B  B6  1  0.620699  0.879043  0.000000  1
  B  B7  1  0.379043  0.120699  0.000000  1
  B  B8  1  0.120303  0.620303  0.000000  1
  B  B9  1  0.879024  0.379024  0.000000  1
  Os  Os10  1  0.570415  0.719513  0.500000  1
  Os  Os11  1  0.435016  0.280578  0.500000  1
  Os  Os12  1  0.069829  0.780915  0.500000  1
  Os  Os13  1  0.923076  0.216250  0.500000  1
  Os  Os14  1  0.280915  0.569829  0.500000  1
  Os  Os15  1  0.716250  0.423076  0.500000  1
  Os  Os16  1  0.219513  0.070415  0.500000  1
  Os  Os17  1  0.780578  0.935016  0.500000  1
  Os  Os18  1  0.505196  0.005196  0.500000  1
  Os  Os19  1  0.998408  0.498408  0.500000  1
