# generated using pymatgen
data_ErSc15(In3Pt)2
_symmetry_space_group_name_H-M   'P 1'
_cell_length_a   9.90323100
_cell_length_b   9.90319067
_cell_length_c   6.49883100
_cell_angle_alpha   89.99927791
_cell_angle_beta   90.00018376
_cell_angle_gamma   119.99993861
_symmetry_Int_Tables_number   1
_chemical_formula_structural   ErSc15(In3Pt)2
_chemical_formula_sum   'Er1 Sc15 In6 Pt2'
_cell_volume   551.97345650
_cell_formula_units_Z   1
loop_
 _symmetry_equiv_pos_site_id
 _symmetry_equiv_pos_as_xyz
  1  'x, y, z'
loop_
 _atom_site_type_symbol
 _atom_site_label
 _atom_site_symmetry_multiplicity
 _atom_site_fract_x
 _atom_site_fract_y
 _atom_site_fract_z
 _atom_site_occupancy
  Er  Er0  1  0.999998  0.000002  0.278449  1
  Sc  Sc1  1  0.525222  0.050453  0.791453  1
  Sc  Sc2  1  0.949563  0.474780  0.791443  1
  Sc  Sc3  1  0.525219  0.474775  0.791451  1
  Sc  Sc4  1  0.474602  0.949190  0.291932  1
  Sc  Sc5  1  0.050805  0.525396  0.291928  1
  Sc  Sc6  1  0.474606  0.525401  0.291929  1
  Sc  Sc7  1  0.823846  0.647726  0.513334  1
  Sc  Sc8  1  0.352270  0.176145  0.513340  1
  Sc  Sc9  1  0.823862  0.176130  0.513342  1
  Sc  Sc10  1  0.176138  0.352247  0.009457  1
  Sc  Sc11  1  0.647750  0.823862  0.009449  1
  Sc  Sc12  1  0.176128  0.823876  0.009445  1
  Sc  Sc13  1  0.666653  0.333343  0.159126  1
  Sc  Sc14  1  0.333349  0.666664  0.661686  1
  Sc  Sc15  1  0.000001  0.000000  0.778736  1
  In  In16  1  0.835516  0.671092  0.031017  1
  In  In17  1  0.328908  0.164462  0.030995  1
  In  In18  1  0.835547  0.164446  0.031047  1
  In  In19  1  0.164410  0.328792  0.537100  1
  In  In20  1  0.671221  0.835601  0.537077  1
  In  In21  1  0.164387  0.835618  0.537083  1
  Pt  Pt22  1  0.666663  0.333339  0.565695  1
  Pt  Pt23  1  0.333336  0.666662  0.069387  1
