# generated using pymatgen
data_DySc(Mn2P)4
_symmetry_space_group_name_H-M   'P 1'
_cell_length_a   6.99722906
_cell_length_b   6.99722917
_cell_length_c   3.69085500
_cell_angle_alpha   90.00000000
_cell_angle_beta   90.00000000
_cell_angle_gamma   89.13336776
_symmetry_Int_Tables_number   1
_chemical_formula_structural   DySc(Mn2P)4
_chemical_formula_sum   'Dy1 Sc1 Mn8 P4'
_cell_volume   180.68807517
_cell_formula_units_Z   1
loop_
 _symmetry_equiv_pos_site_id
 _symmetry_equiv_pos_as_xyz
  1  'x, y, z'
loop_
 _atom_site_type_symbol
 _atom_site_label
 _atom_site_symmetry_multiplicity
 _atom_site_fract_x
 _atom_site_fract_y
 _atom_site_fract_z
 _atom_site_occupancy
  Dy  Dy0  1  0.500000  0.500000  0.000000  1
  Sc  Sc1  1  0.000000  0.000000  0.500000  1
  Mn  Mn2  1  0.588221  0.151488  0.500000  1
  Mn  Mn3  1  0.411779  0.848512  0.500000  1
  Mn  Mn4  1  0.083249  0.341600  0.000000  1
  Mn  Mn5  1  0.916751  0.658400  0.000000  1
  Mn  Mn6  1  0.151488  0.588221  0.500000  1
  Mn  Mn7  1  0.848512  0.411779  0.500000  1
  Mn  Mn8  1  0.341600  0.083249  0.000000  1
  Mn  Mn9  1  0.658400  0.916751  0.000000  1
  P  P10  1  0.720367  0.720367  0.500000  1
  P  P11  1  0.279633  0.279633  0.500000  1
  P  P12  1  0.209220  0.790780  0.000000  1
  P  P13  1  0.790780  0.209220  0.000000  1
