# generated using pymatgen
data_Sr4OsW3O16
_symmetry_space_group_name_H-M   'P 1'
_cell_length_a   5.12721831
_cell_length_b   5.63439247
_cell_length_c   13.09023800
_cell_angle_alpha   90.00000000
_cell_angle_beta   90.00000000
_cell_angle_gamma   90.00198767
_symmetry_Int_Tables_number   1
_chemical_formula_structural   Sr4OsW3O16
_chemical_formula_sum   'Sr4 Os1 W3 O16'
_cell_volume   378.16074678
_cell_formula_units_Z   1
loop_
 _symmetry_equiv_pos_site_id
 _symmetry_equiv_pos_as_xyz
  1  'x, y, z'
loop_
 _atom_site_type_symbol
 _atom_site_label
 _atom_site_symmetry_multiplicity
 _atom_site_fract_x
 _atom_site_fract_y
 _atom_site_fract_z
 _atom_site_occupancy
  Sr  Sr0  1  0.750000  0.000000  0.656755  1
  Sr  Sr1  1  0.250000  0.500000  0.843832  1
  Sr  Sr2  1  0.250000  0.000000  0.343503  1
  Sr  Sr3  1  0.750000  0.500000  0.155958  1
  Os  Os4  1  0.750000  0.000000  0.924514  1
  W  W5  1  0.750000  0.500000  0.423553  1
  W  W6  1  0.250000  0.000000  0.077389  1
  W  W7  1  0.250000  0.500000  0.576608  1
  O  O8  1  0.121357  0.292757  0.672471  1
  O  O9  1  0.617877  0.200164  0.825668  1
  O  O10  1  0.882123  0.799836  0.825668  1
  O  O11  1  0.378643  0.707243  0.672471  1
  O  O12  1  0.877397  0.708690  0.328065  1
  O  O13  1  0.379185  0.792112  0.172811  1
  O  O14  1  0.120815  0.207888  0.172811  1
  O  O15  1  0.622603  0.291310  0.328065  1
  O  O16  1  0.555857  0.309566  0.542785  1
  O  O17  1  0.044379  0.191785  0.960027  1
  O  O18  1  0.455621  0.808215  0.960027  1
  O  O19  1  0.944143  0.690434  0.542785  1
  O  O20  1  0.443790  0.690556  0.457288  1
  O  O21  1  0.952392  0.804328  0.039832  1
  O  O22  1  0.547608  0.195672  0.039832  1
  O  O23  1  0.056210  0.309444  0.457288  1
