# generated using pymatgen
data_LiErB14
_symmetry_space_group_name_H-M   'P 1'
_cell_length_a   7.24011217
_cell_length_b   7.24011182
_cell_length_c   7.24011249
_cell_angle_alpha   132.16542096
_cell_angle_beta   110.89367080
_cell_angle_gamma   88.40076983
_symmetry_Int_Tables_number   1
_chemical_formula_structural   LiErB14
_chemical_formula_sum   'Li2 Er2 B28'
_cell_volume   250.25010510
_cell_formula_units_Z   2
loop_
 _symmetry_equiv_pos_site_id
 _symmetry_equiv_pos_as_xyz
  1  'x, y, z'
loop_
 _atom_site_type_symbol
 _atom_site_label
 _atom_site_symmetry_multiplicity
 _atom_site_fract_x
 _atom_site_fract_y
 _atom_site_fract_z
 _atom_site_occupancy
  Li  Li0  1  0.500000  0.500000  0.500000  1
  Li  Li1  1  0.500000  0.000000  0.000000  1
  Er  Er2  1  0.121339  0.750000  0.371339  1
  Er  Er3  1  0.878661  0.250000  0.628661  1
  B  B4  1  0.138851  0.166012  0.972840  1
  B  B5  1  0.861149  0.833988  0.027160  1
  B  B6  1  0.693173  0.666012  0.027160  1
  B  B7  1  0.306827  0.333988  0.972840  1
  B  B8  1  0.277781  0.649788  0.627994  1
  B  B9  1  0.722219  0.350212  0.372006  1
  B  B10  1  0.521794  0.149788  0.372006  1
  B  B11  1  0.478206  0.850212  0.627994  1
  B  B12  1  0.415500  0.588982  0.826517  1
  B  B13  1  0.584500  0.411018  0.173483  1
  B  B14  1  0.262466  0.088982  0.173483  1
  B  B15  1  0.737534  0.911018  0.826517  1
  B  B16  1  0.899306  0.901105  0.681306  1
  B  B17  1  0.100694  0.782000  0.001798  1
  B  B18  1  0.719798  0.401105  0.001798  1
  B  B19  1  0.280202  0.282000  0.681306  1
  B  B20  1  0.100694  0.098895  0.318694  1
  B  B21  1  0.899306  0.218000  0.998202  1
  B  B22  1  0.280202  0.598895  0.998202  1
  B  B23  1  0.719798  0.718000  0.318694  1
  B  B24  1  0.533681  0.329972  0.703200  1
  B  B25  1  0.466319  0.169520  0.796292  1
  B  B26  1  0.126772  0.829972  0.796292  1
  B  B27  1  0.873228  0.669520  0.703200  1
  B  B28  1  0.466319  0.670028  0.296800  1
  B  B29  1  0.533681  0.830480  0.203708  1
  B  B30  1  0.873228  0.170028  0.203708  1
  B  B31  1  0.126772  0.330480  0.296800  1
