# generated using pymatgen
data_CaTb3(ZnRh)4
_symmetry_space_group_name_H-M   'P 1'
_cell_length_a   4.10887500
_cell_length_b   6.98383624
_cell_length_c   8.10387006
_cell_angle_alpha   89.85974177
_cell_angle_beta   90.00000000
_cell_angle_gamma   90.00000000
_symmetry_Int_Tables_number   1
_chemical_formula_structural   CaTb3(ZnRh)4
_chemical_formula_sum   'Ca1 Tb3 Zn4 Rh4'
_cell_volume   232.54560942
_cell_formula_units_Z   1
loop_
 _symmetry_equiv_pos_site_id
 _symmetry_equiv_pos_as_xyz
  1  'x, y, z'
loop_
 _atom_site_type_symbol
 _atom_site_label
 _atom_site_symmetry_multiplicity
 _atom_site_fract_x
 _atom_site_fract_y
 _atom_site_fract_z
 _atom_site_occupancy
  Ca  Ca0  1  0.250000  0.535457  0.183715  1
  Tb  Tb1  1  0.750000  0.463381  0.817748  1
  Tb  Tb2  1  0.250000  0.035684  0.315698  1
  Tb  Tb3  1  0.750000  0.963407  0.683458  1
  Zn  Zn4  1  0.250000  0.137553  0.937138  1
  Zn  Zn5  1  0.750000  0.860313  0.064097  1
  Zn  Zn6  1  0.250000  0.637860  0.563134  1
  Zn  Zn7  1  0.750000  0.363903  0.434212  1
  Rh  Rh8  1  0.750000  0.747724  0.383046  1
  Rh  Rh9  1  0.250000  0.260724  0.623677  1
  Rh  Rh10  1  0.750000  0.231871  0.122847  1
  Rh  Rh11  1  0.250000  0.762123  0.871231  1
