# generated using pymatgen
data_Tb2YPa(InNi2)2
_symmetry_space_group_name_H-M   'P 1'
_cell_length_a   7.44418324
_cell_length_b   7.46520974
_cell_length_c   3.60110500
_cell_angle_alpha   90.00000000
_cell_angle_beta   90.00000000
_cell_angle_gamma   92.60633483
_symmetry_Int_Tables_number   1
_chemical_formula_structural   Tb2YPa(InNi2)2
_chemical_formula_sum   'Tb2 Y1 Pa1 In2 Ni4'
_cell_volume   199.91499215
_cell_formula_units_Z   1
loop_
 _symmetry_equiv_pos_site_id
 _symmetry_equiv_pos_as_xyz
  1  'x, y, z'
loop_
 _atom_site_type_symbol
 _atom_site_label
 _atom_site_symmetry_multiplicity
 _atom_site_fract_x
 _atom_site_fract_y
 _atom_site_fract_z
 _atom_site_occupancy
  Tb  Tb0  1  0.323937  0.824157  0.500000  1
  Tb  Tb1  1  0.828846  0.675231  0.500000  1
  Y  Y2  1  0.175419  0.327684  0.500000  1
  Pa  Pa3  1  0.670744  0.171134  0.500000  1
  In  In4  1  0.499733  0.504885  0.000000  1
  In  In5  1  0.005616  0.000343  0.000000  1
  Ni  Ni6  1  0.109996  0.611597  0.000000  1
  Ni  Ni7  1  0.857903  0.358671  0.000000  1
  Ni  Ni8  1  0.630542  0.896596  0.000000  1
  Ni  Ni9  1  0.397265  0.129700  0.000000  1
