# generated using pymatgen
data_Er3Lu5In3Ni
_symmetry_space_group_name_H-M   'P 1'
_cell_length_a   10.23723500
_cell_length_b   10.23684888
_cell_length_c   6.98448800
_cell_angle_alpha   90.00176866
_cell_angle_beta   90.00000000
_cell_angle_gamma   120.00124450
_symmetry_Int_Tables_number   1
_chemical_formula_structural   Er3Lu5In3Ni
_chemical_formula_sum   'Er6 Lu10 In6 Ni2'
_cell_volume   633.88244650
_cell_formula_units_Z   2
loop_
 _symmetry_equiv_pos_site_id
 _symmetry_equiv_pos_as_xyz
  1  'x, y, z'
loop_
 _atom_site_type_symbol
 _atom_site_label
 _atom_site_symmetry_multiplicity
 _atom_site_fract_x
 _atom_site_fract_y
 _atom_site_fract_z
 _atom_site_occupancy
  Er  Er0  1  0.465833  0.931644  0.210246  1
  Er  Er1  1  0.533954  0.466165  0.709735  1
  Er  Er2  1  0.932188  0.466157  0.709751  1
  Er  Er3  1  0.534216  0.068448  0.710876  1
  Er  Er4  1  0.999866  0.999736  0.228771  1
  Er  Er5  1  0.000090  0.000184  0.729282  1
  Lu  Lu6  1  0.177926  0.821034  0.507093  1
  Lu  Lu7  1  0.643107  0.821041  0.507098  1
  Lu  Lu8  1  0.178227  0.356463  0.505603  1
  Lu  Lu9  1  0.822754  0.179112  0.009361  1
  Lu  Lu10  1  0.356337  0.179115  0.009339  1
  Lu  Lu11  1  0.821454  0.642890  0.009516  1
  Lu  Lu12  1  0.333018  0.666024  0.821541  1
  Lu  Lu13  1  0.667131  0.334288  0.321405  1
  Lu  Lu14  1  0.465208  0.534846  0.209104  1
  Lu  Lu15  1  0.069641  0.534848  0.209108  1
  In  In16  1  0.163039  0.837274  0.963189  1
  In  In17  1  0.674217  0.837196  0.963108  1
  In  In18  1  0.163098  0.326319  0.963284  1
  In  In19  1  0.837016  0.162215  0.463729  1
  In  In20  1  0.325222  0.162177  0.463637  1
  In  In21  1  0.837682  0.675288  0.463819  1
  Ni  Ni22  1  0.332148  0.664283  0.441937  1
  Ni  Ni23  1  0.666626  0.333256  0.944303  1
