# generated using pymatgen
data_Rb2Pr10P2Cl17
_symmetry_space_group_name_H-M   'P 1'
_cell_length_a   9.02964370
_cell_length_b   10.68030713
_cell_length_c   10.68031600
_cell_angle_alpha   106.26694973
_cell_angle_beta   94.89003720
_cell_angle_gamma   94.89095400
_symmetry_Int_Tables_number   1
_chemical_formula_structural   Rb2Pr10P2Cl17
_chemical_formula_sum   'Rb2 Pr10 P2 Cl17'
_cell_volume   978.73552033
_cell_formula_units_Z   1
loop_
 _symmetry_equiv_pos_site_id
 _symmetry_equiv_pos_as_xyz
  1  'x, y, z'
loop_
 _atom_site_type_symbol
 _atom_site_label
 _atom_site_symmetry_multiplicity
 _atom_site_fract_x
 _atom_site_fract_y
 _atom_site_fract_z
 _atom_site_occupancy
  Rb  Rb0  1  0.000043  0.782703  0.216330  1
  Rb  Rb1  1  0.000026  0.216250  0.782623  1
  Pr  Pr2  1  0.428280  0.154052  0.154052  1
  Pr  Pr3  1  0.573741  0.508380  0.189653  1
  Pr  Pr4  1  0.843184  0.286278  0.286254  1
  Pr  Pr5  1  0.297900  0.433084  0.433080  1
  Pr  Pr6  1  0.426195  0.810401  0.491681  1
  Pr  Pr7  1  0.573763  0.189681  0.508390  1
  Pr  Pr8  1  0.702042  0.566955  0.566944  1
  Pr  Pr9  1  0.156804  0.713780  0.713803  1
  Pr  Pr10  1  0.426189  0.491643  0.810386  1
  Pr  Pr11  1  0.571714  0.845981  0.845988  1
  P  P12  1  0.570872  0.356589  0.356564  1
  P  P13  1  0.429091  0.643465  0.643456  1
  Cl  Cl14  1  0.598638  0.690863  0.024427  1
  Cl  Cl15  1  0.710065  0.070020  0.070031  1
  Cl  Cl16  1  0.865281  0.458797  0.125918  1
  Cl  Cl17  1  0.134961  0.208757  0.208750  1
  Cl  Cl18  1  0.291415  0.605785  0.259939  1
  Cl  Cl19  1  0.401425  0.975590  0.309147  1
  Cl  Cl20  1  0.708529  0.740131  0.394247  1
  Cl  Cl21  1  0.865296  0.125921  0.458735  1
  Cl  Cl22  1  0.999979  0.500025  0.500063  1
  Cl  Cl23  1  0.134773  0.874381  0.541472  1
  Cl  Cl24  1  0.291392  0.259909  0.605754  1
  Cl  Cl25  1  0.598624  0.024455  0.690889  1
  Cl  Cl26  1  0.708575  0.394261  0.740126  1
  Cl  Cl27  1  0.865038  0.791278  0.791303  1
  Cl  Cl28  1  0.134815  0.541449  0.874423  1
  Cl  Cl29  1  0.289972  0.930026  0.930014  1
  Cl  Cl30  1  0.401382  0.309110  0.975559  1
