# generated using pymatgen
data_Th3(GaPd2)2
_symmetry_space_group_name_H-M   'P 1'
_cell_length_a   7.36690498
_cell_length_b   7.73535907
_cell_length_c   3.97944300
_cell_angle_alpha   90.00000000
_cell_angle_beta   90.00000000
_cell_angle_gamma   121.66874305
_symmetry_Int_Tables_number   1
_chemical_formula_structural   Th3(GaPd2)2
_chemical_formula_sum   'Th3 Ga2 Pd4'
_cell_volume   193.00440666
_cell_formula_units_Z   1
loop_
 _symmetry_equiv_pos_site_id
 _symmetry_equiv_pos_as_xyz
  1  'x, y, z'
loop_
 _atom_site_type_symbol
 _atom_site_label
 _atom_site_symmetry_multiplicity
 _atom_site_fract_x
 _atom_site_fract_y
 _atom_site_fract_z
 _atom_site_occupancy
  Th  Th0  1  0.000000  0.411529  0.500000  1
  Th  Th1  1  0.616108  0.602178  0.500000  1
  Th  Th2  1  0.383892  0.986068  0.500000  1
  Ga  Ga3  1  0.249989  0.253122  0.000000  1
  Ga  Ga4  1  0.750011  0.003134  0.000000  1
  Pd  Pd5  1  0.000000  0.741662  0.000000  1
  Pd  Pd6  1  0.350679  0.662099  0.000000  1
  Pd  Pd7  1  0.649321  0.311419  0.000000  1
  Pd  Pd8  1  0.000000  0.028789  0.500000  1
