# generated using pymatgen
data_Th6Pd7Ru
_symmetry_space_group_name_H-M   'P 1'
_cell_length_a   8.18075271
_cell_length_b   8.18075234
_cell_length_c   8.18075162
_cell_angle_alpha   114.51366615
_cell_angle_beta   114.51365532
_cell_angle_gamma   114.51366522
_symmetry_Int_Tables_number   1
_chemical_formula_structural   Th6Pd7Ru
_chemical_formula_sum   'Th6 Pd7 Ru1'
_cell_volume   319.56728799
_cell_formula_units_Z   1
loop_
 _symmetry_equiv_pos_site_id
 _symmetry_equiv_pos_as_xyz
  1  'x, y, z'
loop_
 _atom_site_type_symbol
 _atom_site_label
 _atom_site_symmetry_multiplicity
 _atom_site_fract_x
 _atom_site_fract_y
 _atom_site_fract_z
 _atom_site_occupancy
  Th  Th0  1  0.393175  0.024242  0.270711  1
  Th  Th1  1  0.024242  0.270711  0.393175  1
  Th  Th2  1  0.270711  0.393175  0.024242  1
  Th  Th3  1  0.606825  0.975758  0.729289  1
  Th  Th4  1  0.975758  0.729289  0.606825  1
  Th  Th5  1  0.729289  0.606825  0.975758  1
  Pd  Pd6  1  0.500000  0.500000  0.500000  1
  Pd  Pd7  1  0.232355  0.068349  0.570979  1
  Pd  Pd8  1  0.068349  0.570979  0.232355  1
  Pd  Pd9  1  0.570979  0.232355  0.068349  1
  Pd  Pd10  1  0.767645  0.931651  0.429021  1
  Pd  Pd11  1  0.931651  0.429021  0.767645  1
  Pd  Pd12  1  0.429021  0.767645  0.931651  1
  Ru  Ru13  1  0.000000  0.000000  0.000000  1
