# generated using pymatgen
data_Pr2Er3P12PdRu18
_symmetry_space_group_name_H-M   'P 1'
_cell_length_a   12.52608000
_cell_length_b   12.62234120
_cell_length_c   3.99713900
_cell_angle_alpha   90.00000000
_cell_angle_beta   90.00000000
_cell_angle_gamma   119.74803929
_symmetry_Int_Tables_number   1
_chemical_formula_structural   Pr2Er3P12PdRu18
_chemical_formula_sum   'Pr2 Er3 P12 Pd1 Ru18'
_cell_volume   548.69629819
_cell_formula_units_Z   1
loop_
 _symmetry_equiv_pos_site_id
 _symmetry_equiv_pos_as_xyz
  1  'x, y, z'
loop_
 _atom_site_type_symbol
 _atom_site_label
 _atom_site_symmetry_multiplicity
 _atom_site_fract_x
 _atom_site_fract_y
 _atom_site_fract_z
 _atom_site_occupancy
  Pr  Pr0  1  0.000379  0.815829  0.500000  1
  Pr  Pr1  1  0.184550  0.184171  0.500000  1
  Er  Er2  1  0.817280  0.000000  0.500000  1
  Er  Er3  1  0.331835  0.661494  0.000000  1
  Er  Er4  1  0.670342  0.338506  0.000000  1
  P  P5  1  0.191072  0.000000  0.000000  1
  P  P6  1  0.996086  0.184010  0.000000  1
  P  P7  1  0.812075  0.815990  0.000000  1
  P  P8  1  0.519284  0.694065  0.500000  1
  P  P9  1  0.299744  0.817570  0.500000  1
  P  P10  1  0.170139  0.474626  0.500000  1
  P  P11  1  0.482174  0.182430  0.500000  1
  P  P12  1  0.695514  0.525374  0.500000  1
  P  P13  1  0.825219  0.305935  0.500000  1
  P  P14  1  0.635197  0.000000  0.000000  1
  P  P15  1  0.999298  0.624353  0.000000  1
  P  P16  1  0.374945  0.375647  0.000000  1
  Pd  Pd17  1  0.448726  0.000000  0.000000  1
  Ru  Ru18  1  0.997628  0.443675  0.000000  1
  Ru  Ru19  1  0.553954  0.556325  0.000000  1
  Ru  Ru20  1  0.291201  0.000000  0.500000  1
  Ru  Ru21  1  0.996285  0.282291  0.500000  1
  Ru  Ru22  1  0.713994  0.717709  0.500000  1
  Ru  Ru23  1  0.619758  0.807262  0.000000  1
  Ru  Ru24  1  0.196300  0.813053  0.000000  1
  Ru  Ru25  1  0.183262  0.377982  0.000000  1
  Ru  Ru26  1  0.383246  0.186947  0.000000  1
  Ru  Ru27  1  0.805280  0.622018  0.000000  1
  Ru  Ru28  1  0.812496  0.192738  0.000000  1
  Ru  Ru29  1  0.505745  0.873237  0.500000  1
  Ru  Ru30  1  0.123055  0.628697  0.500000  1
  Ru  Ru31  1  0.365930  0.493650  0.500000  1
  Ru  Ru32  1  0.494359  0.371303  0.500000  1
  Ru  Ru33  1  0.872280  0.506350  0.500000  1
  Ru  Ru34  1  0.632510  0.126763  0.500000  1
  Ru  Ru35  1  0.998857  0.000000  0.000000  1
