# generated using pymatgen
data_Ba2Yb3Si6Hg
_symmetry_space_group_name_H-M   'P 1'
_cell_length_a   9.15017259
_cell_length_b   9.43053002
_cell_length_c   4.18010800
_cell_angle_alpha   90.00000000
_cell_angle_beta   90.00000000
_cell_angle_gamma   121.01883551
_symmetry_Int_Tables_number   1
_chemical_formula_structural   Ba2Yb3Si6Hg
_chemical_formula_sum   'Ba2 Yb3 Si6 Hg1'
_cell_volume   309.12396001
_cell_formula_units_Z   1
loop_
 _symmetry_equiv_pos_site_id
 _symmetry_equiv_pos_as_xyz
  1  'x, y, z'
loop_
 _atom_site_type_symbol
 _atom_site_label
 _atom_site_symmetry_multiplicity
 _atom_site_fract_x
 _atom_site_fract_y
 _atom_site_fract_z
 _atom_site_occupancy
  Ba  Ba0  1  0.337241  0.677279  0.000000  1
  Ba  Ba1  1  0.662759  0.340038  0.000000  1
  Yb  Yb2  1  0.000000  0.756081  0.500000  1
  Yb  Yb3  1  0.250402  0.241530  0.500000  1
  Yb  Yb4  1  0.749598  0.991128  0.500000  1
  Si  Si5  1  0.000000  0.992369  0.000000  1
  Si  Si6  1  0.000000  0.242272  0.000000  1
  Si  Si7  1  0.734446  0.737845  0.000000  1
  Si  Si8  1  0.265554  0.003400  0.000000  1
  Si  Si9  1  0.590780  0.595524  0.500000  1
  Si  Si10  1  0.409220  0.004743  0.500000  1
  Hg  Hg11  1  0.000000  0.417791  0.500000  1
