# generated using pymatgen
data_Sm3Cd3Ag2Pt
_symmetry_space_group_name_H-M   'P 1'
_cell_length_a   8.02575600
_cell_length_b   8.02575550
_cell_length_c   3.86603700
_cell_angle_alpha   90.00000000
_cell_angle_beta   90.00000000
_cell_angle_gamma   120.00000207
_symmetry_Int_Tables_number   1
_chemical_formula_structural   Sm3Cd3Ag2Pt
_chemical_formula_sum   'Sm3 Cd3 Ag2 Pt1'
_cell_volume   215.65945622
_cell_formula_units_Z   1
loop_
 _symmetry_equiv_pos_site_id
 _symmetry_equiv_pos_as_xyz
  1  'x, y, z'
loop_
 _atom_site_type_symbol
 _atom_site_label
 _atom_site_symmetry_multiplicity
 _atom_site_fract_x
 _atom_site_fract_y
 _atom_site_fract_z
 _atom_site_occupancy
  Sm  Sm0  1  0.581474  0.977117  0.000000  1
  Sm  Sm1  1  0.022883  0.604357  0.000000  1
  Sm  Sm2  1  0.395643  0.418526  0.000000  1
  Cd  Cd3  1  0.266444  0.004979  0.500000  1
  Cd  Cd4  1  0.995021  0.261465  0.500000  1
  Cd  Cd5  1  0.738535  0.733556  0.500000  1
  Ag  Ag6  1  0.666667  0.333333  0.500000  1
  Ag  Ag7  1  0.000000  0.000000  0.000000  1
  Pt  Pt8  1  0.333333  0.666667  0.500000  1
