# generated using pymatgen
data_Tb11Cd9Pd4
_symmetry_space_group_name_H-M   'P 1'
_cell_length_a   13.14047677
_cell_length_b   13.14047766
_cell_length_c   3.74922700
_cell_angle_alpha   90.00000000
_cell_angle_beta   90.00000000
_cell_angle_gamma   112.66189750
_symmetry_Int_Tables_number   1
_chemical_formula_structural   Tb11Cd9Pd4
_chemical_formula_sum   'Tb11 Cd9 Pd4'
_cell_volume   597.40522532
_cell_formula_units_Z   1
loop_
 _symmetry_equiv_pos_site_id
 _symmetry_equiv_pos_as_xyz
  1  'x, y, z'
loop_
 _atom_site_type_symbol
 _atom_site_label
 _atom_site_symmetry_multiplicity
 _atom_site_fract_x
 _atom_site_fract_y
 _atom_site_fract_z
 _atom_site_occupancy
  Tb  Tb0  1  0.415469  0.074133  0.000000  1
  Tb  Tb1  1  0.584531  0.925867  0.000000  1
  Tb  Tb2  1  0.074133  0.415469  0.000000  1
  Tb  Tb3  1  0.925867  0.584531  0.000000  1
  Tb  Tb4  1  0.162633  0.837367  0.000000  1
  Tb  Tb5  1  0.837367  0.162633  0.000000  1
  Tb  Tb6  1  0.371553  0.628447  0.000000  1
  Tb  Tb7  1  0.628447  0.371553  0.000000  1
  Tb  Tb8  1  0.307119  0.307119  0.000000  1
  Tb  Tb9  1  0.692881  0.692881  0.000000  1
  Tb  Tb10  1  0.000000  0.000000  0.000000  1
  Cd  Cd11  1  0.365713  0.842881  0.500000  1
  Cd  Cd12  1  0.634287  0.157119  0.500000  1
  Cd  Cd13  1  0.842881  0.365713  0.500000  1
  Cd  Cd14  1  0.157119  0.634287  0.500000  1
  Cd  Cd15  1  0.214263  0.069534  0.500000  1
  Cd  Cd16  1  0.785737  0.930466  0.500000  1
  Cd  Cd17  1  0.069534  0.214263  0.500000  1
  Cd  Cd18  1  0.930466  0.785737  0.500000  1
  Cd  Cd19  1  0.500000  0.500000  0.500000  1
  Pd  Pd20  1  0.451161  0.250034  0.500000  1
  Pd  Pd21  1  0.548839  0.749966  0.500000  1
  Pd  Pd22  1  0.250034  0.451161  0.500000  1
  Pd  Pd23  1  0.749966  0.548839  0.500000  1
