# generated using pymatgen
data_TiNb11Sn10
_symmetry_space_group_name_H-M   'P 1'
_cell_length_a   10.10082400
_cell_length_b   10.07231965
_cell_length_c   10.07002097
_cell_angle_alpha   147.27618056
_cell_angle_beta   125.02050083
_cell_angle_gamma   65.62246355
_symmetry_Int_Tables_number   1
_chemical_formula_structural   TiNb11Sn10
_chemical_formula_sum   'Ti1 Nb11 Sn10'
_cell_volume   447.85363895
_cell_formula_units_Z   1
loop_
 _symmetry_equiv_pos_site_id
 _symmetry_equiv_pos_as_xyz
  1  'x, y, z'
loop_
 _atom_site_type_symbol
 _atom_site_label
 _atom_site_symmetry_multiplicity
 _atom_site_fract_x
 _atom_site_fract_y
 _atom_site_fract_z
 _atom_site_occupancy
  Ti  Ti0  1  0.000000  0.500000  0.000000  1
  Nb  Nb1  1  0.153272  0.149363  0.994261  1
  Nb  Nb2  1  0.687940  0.413783  0.269758  1
  Nb  Nb3  1  0.856136  0.589901  0.277362  1
  Nb  Nb4  1  0.846728  0.850637  0.005739  1
  Nb  Nb5  1  0.500210  0.262340  0.762434  1
  Nb  Nb6  1  0.499790  0.737660  0.237566  1
  Nb  Nb7  1  0.312060  0.586217  0.730242  1
  Nb  Nb8  1  0.143864  0.410099  0.722638  1
  Nb  Nb9  1  0.500000  0.500000  0.500000  1
  Nb  Nb10  1  0.500000  0.000000  0.000000  1
  Nb  Nb11  1  0.000000  0.000000  0.500000  1
  Sn  Sn12  1  0.409148  0.104786  0.306984  1
  Sn  Sn13  1  0.795524  0.298806  0.506802  1
  Sn  Sn14  1  0.331280  0.329917  0.997014  1
  Sn  Sn15  1  0.797344  0.109623  0.696174  1
  Sn  Sn16  1  0.204476  0.701194  0.493198  1
  Sn  Sn17  1  0.999394  0.245333  0.243300  1
  Sn  Sn18  1  0.668720  0.670083  0.002986  1
  Sn  Sn19  1  0.590852  0.895214  0.693016  1
  Sn  Sn20  1  0.202656  0.890377  0.303826  1
  Sn  Sn21  1  0.000606  0.754667  0.756700  1
