# generated using pymatgen
data_Ho11Cd9Ni4
_symmetry_space_group_name_H-M   'P 1'
_cell_length_a   3.54875900
_cell_length_b   12.93873218
_cell_length_c   12.93873234
_cell_angle_alpha   112.56420597
_cell_angle_beta   90.00000000
_cell_angle_gamma   90.00000000
_symmetry_Int_Tables_number   1
_chemical_formula_structural   Ho11Cd9Ni4
_chemical_formula_sum   'Ho11 Cd9 Ni4'
_cell_volume   548.62222733
_cell_formula_units_Z   1
loop_
 _symmetry_equiv_pos_site_id
 _symmetry_equiv_pos_as_xyz
  1  'x, y, z'
loop_
 _atom_site_type_symbol
 _atom_site_label
 _atom_site_symmetry_multiplicity
 _atom_site_fract_x
 _atom_site_fract_y
 _atom_site_fract_z
 _atom_site_occupancy
  Ho  Ho0  1  0.000000  0.918600  0.582748  1
  Ho  Ho1  1  0.000000  0.081400  0.417252  1
  Ho  Ho2  1  0.000000  0.582748  0.918600  1
  Ho  Ho3  1  0.000000  0.417252  0.081400  1
  Ho  Ho4  1  0.000000  0.161570  0.838430  1
  Ho  Ho5  1  0.000000  0.838430  0.161570  1
  Ho  Ho6  1  0.000000  0.373567  0.626433  1
  Ho  Ho7  1  0.000000  0.626433  0.373567  1
  Ho  Ho8  1  0.000000  0.690117  0.690117  1
  Ho  Ho9  1  0.000000  0.309883  0.309883  1
  Ho  Ho10  1  0.000000  0.000000  0.000000  1
  Cd  Cd11  1  0.500000  0.157168  0.633006  1
  Cd  Cd12  1  0.500000  0.842832  0.366994  1
  Cd  Cd13  1  0.500000  0.633006  0.157168  1
  Cd  Cd14  1  0.500000  0.366994  0.842832  1
  Cd  Cd15  1  0.500000  0.925249  0.782213  1
  Cd  Cd16  1  0.500000  0.074751  0.217787  1
  Cd  Cd17  1  0.500000  0.782213  0.925249  1
  Cd  Cd18  1  0.500000  0.217787  0.074751  1
  Cd  Cd19  1  0.500000  0.500000  0.500000  1
  Ni  Ni20  1  0.500000  0.747943  0.548714  1
  Ni  Ni21  1  0.500000  0.252057  0.451286  1
  Ni  Ni22  1  0.500000  0.548714  0.747943  1
  Ni  Ni23  1  0.500000  0.451286  0.252057  1
