# generated using pymatgen
data_NaTb(NbSe2)8
_symmetry_space_group_name_H-M   'P 1'
_cell_length_a   7.04044000
_cell_length_b   7.04044009
_cell_length_c   14.86034600
_cell_angle_alpha   90.00000000
_cell_angle_beta   90.00000000
_cell_angle_gamma   119.99999957
_symmetry_Int_Tables_number   1
_chemical_formula_structural   NaTb(NbSe2)8
_chemical_formula_sum   'Na1 Tb1 Nb8 Se16'
_cell_volume   637.90963834
_cell_formula_units_Z   1
loop_
 _symmetry_equiv_pos_site_id
 _symmetry_equiv_pos_as_xyz
  1  'x, y, z'
loop_
 _atom_site_type_symbol
 _atom_site_label
 _atom_site_symmetry_multiplicity
 _atom_site_fract_x
 _atom_site_fract_y
 _atom_site_fract_z
 _atom_site_occupancy
  Na  Na0  1  0.000000  0.000000  0.000000  1
  Tb  Tb1  1  0.000000  0.000000  0.500000  1
  Nb  Nb2  1  0.000000  0.000000  0.260131  1
  Nb  Nb3  1  0.000000  0.000000  0.739869  1
  Nb  Nb4  1  0.507896  0.015794  0.258433  1
  Nb  Nb5  1  0.984206  0.492104  0.258433  1
  Nb  Nb6  1  0.507896  0.492104  0.258433  1
  Nb  Nb7  1  0.492104  0.984206  0.741567  1
  Nb  Nb8  1  0.015794  0.507896  0.741567  1
  Nb  Nb9  1  0.492104  0.507896  0.741567  1
  Se  Se10  1  0.333333  0.666667  0.857878  1
  Se  Se11  1  0.666667  0.333333  0.142122  1
  Se  Se12  1  0.666667  0.333333  0.375553  1
  Se  Se13  1  0.333333  0.666667  0.624447  1
  Se  Se14  1  0.170546  0.829454  0.370123  1
  Se  Se15  1  0.170546  0.341092  0.370123  1
  Se  Se16  1  0.658908  0.829454  0.370123  1
  Se  Se17  1  0.829454  0.170546  0.629877  1
  Se  Se18  1  0.829454  0.658908  0.629877  1
  Se  Se19  1  0.341092  0.170546  0.629877  1
  Se  Se20  1  0.832414  0.167586  0.851312  1
  Se  Se21  1  0.832414  0.664830  0.851312  1
  Se  Se22  1  0.335170  0.167586  0.851312  1
  Se  Se23  1  0.167586  0.832414  0.148688  1
  Se  Se24  1  0.167586  0.335170  0.148688  1
  Se  Se25  1  0.664830  0.832414  0.148688  1
