# generated using pymatgen
data_Sc2Be4RuRh4
_symmetry_space_group_name_H-M   'P 1'
_cell_length_a   3.14059600
_cell_length_b   8.66987255
_cell_length_c   10.40697365
_cell_angle_alpha   90.32700687
_cell_angle_beta   90.00000000
_cell_angle_gamma   90.00000000
_symmetry_Int_Tables_number   1
_chemical_formula_structural   Sc2Be4RuRh4
_chemical_formula_sum   'Sc4 Be8 Ru2 Rh8'
_cell_volume   283.36236457
_cell_formula_units_Z   2
loop_
 _symmetry_equiv_pos_site_id
 _symmetry_equiv_pos_as_xyz
  1  'x, y, z'
loop_
 _atom_site_type_symbol
 _atom_site_label
 _atom_site_symmetry_multiplicity
 _atom_site_fract_x
 _atom_site_fract_y
 _atom_site_fract_z
 _atom_site_occupancy
  Sc  Sc0  1  0.500000  0.847878  0.182023  1
  Sc  Sc1  1  0.500000  0.152122  0.817977  1
  Sc  Sc2  1  0.500000  0.661267  0.681879  1
  Sc  Sc3  1  0.500000  0.338733  0.318121  1
  Be  Be4  1  0.500000  0.964426  0.596066  1
  Be  Be5  1  0.500000  0.035574  0.403934  1
  Be  Be6  1  0.500000  0.845178  0.900130  1
  Be  Be7  1  0.500000  0.154822  0.099870  1
  Be  Be8  1  0.500000  0.656048  0.403838  1
  Be  Be9  1  0.500000  0.343952  0.596162  1
  Be  Be10  1  0.500000  0.464352  0.903927  1
  Be  Be11  1  0.500000  0.535648  0.096073  1
  Ru  Ru12  1  0.000000  0.902286  0.742544  1
  Ru  Ru13  1  0.000000  0.097714  0.257456  1
  Rh  Rh14  1  0.000000  0.660097  0.957038  1
  Rh  Rh15  1  0.000000  0.339903  0.042962  1
  Rh  Rh16  1  0.000000  0.841516  0.454790  1
  Rh  Rh17  1  0.000000  0.158484  0.545210  1
  Rh  Rh18  1  0.000000  0.000000  0.000000  1
  Rh  Rh19  1  0.000000  0.402204  0.756011  1
  Rh  Rh20  1  0.000000  0.597796  0.243989  1
  Rh  Rh21  1  0.000000  0.500000  0.500000  1
