# generated using pymatgen
data_Dy16MgHg3RuPt3
_symmetry_space_group_name_H-M   'P 1'
_cell_length_a   9.66648617
_cell_length_b   9.65646988
_cell_length_c   9.65646900
_cell_angle_alpha   59.99999958
_cell_angle_beta   60.03427048
_cell_angle_gamma   60.03427040
_symmetry_Int_Tables_number   1
_chemical_formula_structural   Dy16MgHg3RuPt3
_chemical_formula_sum   'Dy16 Mg1 Hg3 Ru1 Pt3'
_cell_volume   637.69813214
_cell_formula_units_Z   1
loop_
 _symmetry_equiv_pos_site_id
 _symmetry_equiv_pos_as_xyz
  1  'x, y, z'
loop_
 _atom_site_type_symbol
 _atom_site_label
 _atom_site_symmetry_multiplicity
 _atom_site_fract_x
 _atom_site_fract_y
 _atom_site_fract_z
 _atom_site_occupancy
  Dy  Dy0  1  0.353405  0.346734  0.346734  1
  Dy  Dy1  1  0.353405  0.346734  0.953126  1
  Dy  Dy2  1  0.353405  0.953126  0.346734  1
  Dy  Dy3  1  0.933819  0.355394  0.355394  1
  Dy  Dy4  1  0.803922  0.190463  0.190463  1
  Dy  Dy5  1  0.188302  0.811192  0.811192  1
  Dy  Dy6  1  0.188302  0.811192  0.189314  1
  Dy  Dy7  1  0.803922  0.190463  0.815152  1
  Dy  Dy8  1  0.188302  0.189314  0.811192  1
  Dy  Dy9  1  0.803922  0.815152  0.190463  1
  Dy  Dy10  1  0.934461  0.565401  0.565401  1
  Dy  Dy11  1  0.567263  0.935780  0.935780  1
  Dy  Dy12  1  0.567263  0.935780  0.561177  1
  Dy  Dy13  1  0.934461  0.565401  0.934736  1
  Dy  Dy14  1  0.567263  0.561177  0.935780  1
  Dy  Dy15  1  0.934461  0.934736  0.565401  1
  Mg  Mg16  1  0.286306  0.571231  0.571231  1
  Hg  Hg17  1  0.582908  0.587916  0.587916  1
  Hg  Hg18  1  0.582908  0.587916  0.241258  1
  Hg  Hg19  1  0.582908  0.241258  0.587916  1
  Ru  Ru20  1  0.575433  0.141523  0.141523  1
  Pt  Pt21  1  0.137885  0.145200  0.145200  1
  Pt  Pt22  1  0.137885  0.145200  0.571716  1
  Pt  Pt23  1  0.137885  0.571716  0.145200  1
