# generated using pymatgen
data_Hf4Ta3Ge4W
_symmetry_space_group_name_H-M   'P 1'
_cell_length_a   3.63303300
_cell_length_b   7.03962059
_cell_length_c   8.52093682
_cell_angle_alpha   90.08327419
_cell_angle_beta   90.00000000
_cell_angle_gamma   90.00000000
_symmetry_Int_Tables_number   1
_chemical_formula_structural   Hf4Ta3Ge4W
_chemical_formula_sum   'Hf4 Ta3 Ge4 W1'
_cell_volume   217.92421074
_cell_formula_units_Z   1
loop_
 _symmetry_equiv_pos_site_id
 _symmetry_equiv_pos_as_xyz
  1  'x, y, z'
loop_
 _atom_site_type_symbol
 _atom_site_label
 _atom_site_symmetry_multiplicity
 _atom_site_fract_x
 _atom_site_fract_y
 _atom_site_fract_z
 _atom_site_occupancy
  Hf  Hf0  1  0.250000  0.548732  0.163504  1
  Hf  Hf1  1  0.250000  0.044612  0.333136  1
  Hf  Hf2  1  0.750000  0.455175  0.834124  1
  Hf  Hf3  1  0.750000  0.955960  0.666692  1
  Ta  Ta4  1  0.250000  0.633755  0.558834  1
  Ta  Ta5  1  0.250000  0.127156  0.942173  1
  Ta  Ta6  1  0.750000  0.367656  0.440675  1
  Ge  Ge7  1  0.250000  0.751686  0.859859  1
  Ge  Ge8  1  0.250000  0.252462  0.643638  1
  Ge  Ge9  1  0.750000  0.247268  0.142793  1
  Ge  Ge10  1  0.750000  0.748167  0.355541  1
  W  W11  1  0.750000  0.867368  0.059031  1
