# generated using pymatgen
data_ErTm3(Tc3Ru)2
_symmetry_space_group_name_H-M   'P 1'
_cell_length_a   5.24147003
_cell_length_b   5.24146990
_cell_length_c   9.12881000
_cell_angle_alpha   90.00006478
_cell_angle_beta   89.99993582
_cell_angle_gamma   119.95614112
_symmetry_Int_Tables_number   1
_chemical_formula_structural   ErTm3(Tc3Ru)2
_chemical_formula_sum   'Er1 Tm3 Tc6 Ru2'
_cell_volume   217.29151619
_cell_formula_units_Z   1
loop_
 _symmetry_equiv_pos_site_id
 _symmetry_equiv_pos_as_xyz
  1  'x, y, z'
loop_
 _atom_site_type_symbol
 _atom_site_label
 _atom_site_symmetry_multiplicity
 _atom_site_fract_x
 _atom_site_fract_y
 _atom_site_fract_z
 _atom_site_occupancy
  Er  Er0  1  0.666693  0.333307  0.562660  1
  Tm  Tm1  1  0.333313  0.666687  0.437238  1
  Tm  Tm2  1  0.333310  0.666690  0.062728  1
  Tm  Tm3  1  0.666692  0.333308  0.937319  1
  Tc  Tc4  1  0.171270  0.342528  0.750082  1
  Tc  Tc5  1  0.171297  0.828703  0.750086  1
  Tc  Tc6  1  0.657472  0.828730  0.750082  1
  Tc  Tc7  1  0.828761  0.657538  0.249945  1
  Tc  Tc8  1  0.828733  0.171267  0.249938  1
  Tc  Tc9  1  0.342462  0.171239  0.249945  1
  Ru  Ru10  1  0.999999  0.000001  0.499969  1
  Ru  Ru11  1  0.999999  0.000001  0.000008  1
