# generated using pymatgen
data_Th2AlNi8Pt
_symmetry_space_group_name_H-M   'P 1'
_cell_length_a   4.90154636
_cell_length_b   5.01258641
_cell_length_c   8.16880300
_cell_angle_alpha   90.00000000
_cell_angle_beta   90.00000000
_cell_angle_gamma   117.51960750
_symmetry_Int_Tables_number   1
_chemical_formula_structural   Th2AlNi8Pt
_chemical_formula_sum   'Th2 Al1 Ni8 Pt1'
_cell_volume   177.99382398
_cell_formula_units_Z   1
loop_
 _symmetry_equiv_pos_site_id
 _symmetry_equiv_pos_as_xyz
  1  'x, y, z'
loop_
 _atom_site_type_symbol
 _atom_site_label
 _atom_site_symmetry_multiplicity
 _atom_site_fract_x
 _atom_site_fract_y
 _atom_site_fract_z
 _atom_site_occupancy
  Th  Th0  1  0.000000  0.000000  0.764439  1
  Th  Th1  1  0.000000  0.000000  0.235561  1
  Al  Al2  1  0.500000  0.500000  0.500000  1
  Ni  Ni3  1  0.676809  0.350503  0.755550  1
  Ni  Ni4  1  0.676809  0.350503  0.244450  1
  Ni  Ni5  1  0.500000  0.500000  0.000000  1
  Ni  Ni6  1  0.323191  0.649497  0.755550  1
  Ni  Ni7  1  0.000000  0.500000  0.000000  1
  Ni  Ni8  1  0.500000  0.000000  0.000000  1
  Ni  Ni9  1  0.323191  0.649497  0.244450  1
  Ni  Ni10  1  0.000000  0.500000  0.500000  1
  Pt  Pt11  1  0.500000  0.000000  0.500000  1
