# generated using pymatgen
data_LiNd6Ni17P12
_symmetry_space_group_name_H-M   'P 1'
_cell_length_a   3.86854800
_cell_length_b   10.62975400
_cell_length_c   12.48294800
_cell_angle_alpha   90.00000000
_cell_angle_beta   90.00000000
_cell_angle_gamma   90.00000000
_symmetry_Int_Tables_number   1
_chemical_formula_structural   LiNd6Ni17P12
_chemical_formula_sum   'Li1 Nd6 Ni17 P12'
_cell_volume   513.32021225
_cell_formula_units_Z   1
loop_
 _symmetry_equiv_pos_site_id
 _symmetry_equiv_pos_as_xyz
  1  'x, y, z'
loop_
 _atom_site_type_symbol
 _atom_site_label
 _atom_site_symmetry_multiplicity
 _atom_site_fract_x
 _atom_site_fract_y
 _atom_site_fract_z
 _atom_site_occupancy
  Li  Li0  1  0.500000  0.500000  0.145875  1
  Nd  Nd1  1  0.000000  0.500000  0.520909  1
  Nd  Nd2  1  0.500000  0.000000  0.480837  1
  Nd  Nd3  1  0.500000  0.814123  0.205890  1
  Nd  Nd4  1  0.500000  0.185877  0.205890  1
  Nd  Nd5  1  0.000000  0.685707  0.796355  1
  Nd  Nd6  1  0.000000  0.314293  0.796355  1
  Ni  Ni7  1  0.000000  0.500000  0.984943  1
  Ni  Ni8  1  0.500000  0.000000  0.017664  1
  Ni  Ni9  1  0.500000  0.300796  0.428009  1
  Ni  Ni10  1  0.500000  0.699204  0.428009  1
  Ni  Ni11  1  0.000000  0.199139  0.573149  1
  Ni  Ni12  1  0.000000  0.800861  0.573149  1
  Ni  Ni13  1  0.500000  0.882416  0.712396  1
  Ni  Ni14  1  0.500000  0.117584  0.712396  1
  Ni  Ni15  1  0.000000  0.617956  0.290390  1
  Ni  Ni16  1  0.000000  0.382044  0.290390  1
  Ni  Ni17  1  0.500000  0.327472  0.994321  1
  Ni  Ni18  1  0.500000  0.672528  0.994321  1
  Ni  Ni19  1  0.000000  0.161416  0.001620  1
  Ni  Ni20  1  0.000000  0.838584  0.001620  1
  Ni  Ni21  1  0.000000  0.000000  0.842390  1
  Ni  Ni22  1  0.500000  0.500000  0.702053  1
  Ni  Ni23  1  0.000000  0.000000  0.300812  1
  P  P24  1  0.500000  0.308714  0.614268  1
  P  P25  1  0.500000  0.691286  0.614268  1
  P  P26  1  0.000000  0.191063  0.388142  1
  P  P27  1  0.000000  0.808937  0.388142  1
  P  P28  1  0.500000  0.500000  0.882320  1
  P  P29  1  0.000000  0.000000  0.122331  1
  P  P30  1  0.500000  0.852457  0.894338  1
  P  P31  1  0.500000  0.147543  0.894338  1
  P  P32  1  0.000000  0.657483  0.099079  1
  P  P33  1  0.000000  0.342517  0.099079  1
  P  P34  1  0.500000  0.500000  0.342695  1
  P  P35  1  0.000000  0.000000  0.661254  1
