# generated using pymatgen
data_HoEr(SiAu2)4
_symmetry_space_group_name_H-M   'P 1'
_cell_length_a   4.41261000
_cell_length_b   4.41261000
_cell_length_c   26.99655000
_cell_angle_alpha   90.00000000
_cell_angle_beta   90.00000000
_cell_angle_gamma   90.00000000
_symmetry_Int_Tables_number   1
_chemical_formula_structural   HoEr(SiAu2)4
_chemical_formula_sum   'Ho2 Er2 Si8 Au16'
_cell_volume   525.65325394
_cell_formula_units_Z   2
loop_
 _symmetry_equiv_pos_site_id
 _symmetry_equiv_pos_as_xyz
  1  'x, y, z'
loop_
 _atom_site_type_symbol
 _atom_site_label
 _atom_site_symmetry_multiplicity
 _atom_site_fract_x
 _atom_site_fract_y
 _atom_site_fract_z
 _atom_site_occupancy
  Ho  Ho0  1  0.500000  0.500000  0.000000  1
  Ho  Ho1  1  0.500000  0.500000  0.500000  1
  Er  Er2  1  0.000000  0.500000  0.749330  1
  Er  Er3  1  0.500000  0.000000  0.250670  1
  Si  Si4  1  0.000000  0.000000  0.956837  1
  Si  Si5  1  0.000000  0.000000  0.456962  1
  Si  Si6  1  0.500000  0.000000  0.792606  1
  Si  Si7  1  0.500000  0.000000  0.706188  1
  Si  Si8  1  0.000000  0.500000  0.207394  1
  Si  Si9  1  0.000000  0.500000  0.293812  1
  Si  Si10  1  0.000000  0.000000  0.043163  1
  Si  Si11  1  0.000000  0.000000  0.543038  1
  Au  Au12  1  0.500000  0.000000  0.085774  1
  Au  Au13  1  0.500000  0.500000  0.663572  1
  Au  Au14  1  0.500000  0.500000  0.835357  1
  Au  Au15  1  0.000000  0.500000  0.085263  1
  Au  Au16  1  0.500000  0.000000  0.914737  1
  Au  Au17  1  0.000000  0.000000  0.664640  1
  Au  Au18  1  0.000000  0.500000  0.415276  1
  Au  Au19  1  0.500000  0.500000  0.336428  1
  Au  Au20  1  0.500000  0.000000  0.414743  1
  Au  Au21  1  0.000000  0.000000  0.335360  1
  Au  Au22  1  0.000000  0.000000  0.165653  1
  Au  Au23  1  0.500000  0.000000  0.584724  1
  Au  Au24  1  0.000000  0.000000  0.834347  1
  Au  Au25  1  0.500000  0.500000  0.164643  1
  Au  Au26  1  0.000000  0.500000  0.585257  1
  Au  Au27  1  0.000000  0.500000  0.914226  1
