# generated using pymatgen
data_Th2Pa(AlIr)3
_symmetry_space_group_name_H-M   'P 1'
_cell_length_a   7.20196900
_cell_length_b   7.17631150
_cell_length_c   4.11355500
_cell_angle_alpha   90.00000000
_cell_angle_beta   90.00000000
_cell_angle_gamma   120.11833614
_symmetry_Int_Tables_number   1
_chemical_formula_structural   Th2Pa(AlIr)3
_chemical_formula_sum   'Th2 Pa1 Al3 Ir3'
_cell_volume   183.89984633
_cell_formula_units_Z   1
loop_
 _symmetry_equiv_pos_site_id
 _symmetry_equiv_pos_as_xyz
  1  'x, y, z'
loop_
 _atom_site_type_symbol
 _atom_site_label
 _atom_site_symmetry_multiplicity
 _atom_site_fract_x
 _atom_site_fract_y
 _atom_site_fract_z
 _atom_site_occupancy
  Th  Th0  1  0.999549  0.417729  0.500000  1
  Th  Th1  1  0.581820  0.582271  0.500000  1
  Pa  Pa2  1  0.417684  0.000000  0.500000  1
  Al  Al3  1  0.767996  0.000000  0.000000  1
  Al  Al4  1  0.003324  0.769591  0.000000  1
  Al  Al5  1  0.233732  0.230409  0.000000  1
  Ir  Ir6  1  0.336361  0.687017  0.000000  1
  Ir  Ir7  1  0.649346  0.312983  0.000000  1
  Ir  Ir8  1  0.010186  0.000000  0.500000  1
