# generated using pymatgen
data_Yb3BePd5
_symmetry_space_group_name_H-M   'P 1'
_cell_length_a   7.95355087
_cell_length_b   7.95355239
_cell_length_c   7.95355164
_cell_angle_alpha   124.97979602
_cell_angle_beta   124.49427813
_cell_angle_gamma   81.97463413
_symmetry_Int_Tables_number   1
_chemical_formula_structural   Yb3BePd5
_chemical_formula_sum   'Yb6 Be2 Pd10'
_cell_volume   326.75866321
_cell_formula_units_Z   2
loop_
 _symmetry_equiv_pos_site_id
 _symmetry_equiv_pos_as_xyz
  1  'x, y, z'
loop_
 _atom_site_type_symbol
 _atom_site_label
 _atom_site_symmetry_multiplicity
 _atom_site_fract_x
 _atom_site_fract_y
 _atom_site_fract_z
 _atom_site_occupancy
  Yb  Yb0  1  0.224315  0.447348  0.776967  1
  Yb  Yb1  1  0.775685  0.552652  0.223033  1
  Yb  Yb2  1  0.829619  0.052652  0.776967  1
  Yb  Yb3  1  0.170381  0.947348  0.223033  1
  Yb  Yb4  1  0.401330  0.250000  0.151330  1
  Yb  Yb5  1  0.598670  0.750000  0.848670  1
  Be  Be6  1  0.792581  0.250000  0.542581  1
  Be  Be7  1  0.207419  0.750000  0.457419  1
  Pd  Pd8  1  0.171770  0.411326  0.353877  1
  Pd  Pd9  1  0.828230  0.182106  0.239556  1
  Pd  Pd10  1  0.442550  0.088674  0.760444  1
  Pd  Pd11  1  0.557450  0.317894  0.646123  1
  Pd  Pd12  1  0.000000  0.500000  0.000000  1
  Pd  Pd13  1  0.000000  0.000000  0.500000  1
  Pd  Pd14  1  0.442550  0.682106  0.353877  1
  Pd  Pd15  1  0.557450  0.911326  0.239556  1
  Pd  Pd16  1  0.171770  0.817894  0.760444  1
  Pd  Pd17  1  0.828230  0.588674  0.646123  1
