# generated using pymatgen
data_AsIr3S7
_symmetry_space_group_name_H-M   'P 1'
_cell_length_a   5.76213562
_cell_length_b   5.76213494
_cell_length_c   5.76213602
_cell_angle_alpha   90.87011715
_cell_angle_beta   90.87011873
_cell_angle_gamma   90.87011567
_symmetry_Int_Tables_number   1
_chemical_formula_structural   AsIr3S7
_chemical_formula_sum   'As1 Ir3 S7'
_cell_volume   191.24874917
_cell_formula_units_Z   1
loop_
 _symmetry_equiv_pos_site_id
 _symmetry_equiv_pos_as_xyz
  1  'x, y, z'
loop_
 _atom_site_type_symbol
 _atom_site_label
 _atom_site_symmetry_multiplicity
 _atom_site_fract_x
 _atom_site_fract_y
 _atom_site_fract_z
 _atom_site_occupancy
  As  As0  1  0.617633  0.617633  0.617633  1
  Ir  Ir1  1  0.003276  0.498641  0.497748  1
  Ir  Ir2  1  0.497748  0.003276  0.498641  1
  Ir  Ir3  1  0.498641  0.497748  0.003276  1
  S  S4  1  0.398069  0.887271  0.108242  1
  S  S5  1  0.108242  0.398069  0.887271  1
  S  S6  1  0.887271  0.108242  0.398069  1
  S  S7  1  0.600485  0.112765  0.891567  1
  S  S8  1  0.891567  0.600485  0.112765  1
  S  S9  1  0.112765  0.891567  0.600485  1
  S  S10  1  0.384303  0.384303  0.384303  1
