# generated using pymatgen
data_Ho3Cd2Pt2Pb
_symmetry_space_group_name_H-M   'P 1'
_cell_length_a   7.74772641
_cell_length_b   7.74772807
_cell_length_c   3.59218100
_cell_angle_alpha   90.00000000
_cell_angle_beta   90.00000000
_cell_angle_gamma   118.76986658
_symmetry_Int_Tables_number   1
_chemical_formula_structural   Ho3Cd2Pt2Pb
_chemical_formula_sum   'Ho3 Cd2 Pt2 Pb1'
_cell_volume   189.01160470
_cell_formula_units_Z   1
loop_
 _symmetry_equiv_pos_site_id
 _symmetry_equiv_pos_as_xyz
  1  'x, y, z'
loop_
 _atom_site_type_symbol
 _atom_site_label
 _atom_site_symmetry_multiplicity
 _atom_site_fract_x
 _atom_site_fract_y
 _atom_site_fract_z
 _atom_site_occupancy
  Ho  Ho0  1  0.574088  0.994625  0.500000  1
  Ho  Ho1  1  0.426454  0.426454  0.500000  1
  Ho  Ho2  1  0.994625  0.574088  0.500000  1
  Cd  Cd3  1  0.234703  0.006371  0.000000  1
  Cd  Cd4  1  0.006371  0.234702  0.000000  1
  Pt  Pt5  1  0.664399  0.321530  0.000000  1
  Pt  Pt6  1  0.321530  0.664399  0.000000  1
  Pb  Pb7  1  0.777832  0.777832  0.000000  1
