# generated using pymatgen
data_U3Ga(Co3B)2
_symmetry_space_group_name_H-M   'P 1'
_cell_length_a   5.12946600
_cell_length_b   5.12946612
_cell_length_c   13.11303700
_cell_angle_alpha   90.00000000
_cell_angle_beta   90.00000000
_cell_angle_gamma   119.99999924
_symmetry_Int_Tables_number   1
_chemical_formula_structural   U3Ga(Co3B)2
_chemical_formula_sum   'U6 Ga2 Co12 B4'
_cell_volume   298.79838282
_cell_formula_units_Z   2
loop_
 _symmetry_equiv_pos_site_id
 _symmetry_equiv_pos_as_xyz
  1  'x, y, z'
loop_
 _atom_site_type_symbol
 _atom_site_label
 _atom_site_symmetry_multiplicity
 _atom_site_fract_x
 _atom_site_fract_y
 _atom_site_fract_z
 _atom_site_occupancy
  U  U0  1  0.333333  0.666667  0.250000  1
  U  U1  1  0.666667  0.333333  0.750000  1
  U  U2  1  0.333333  0.666667  0.038604  1
  U  U3  1  0.666667  0.333333  0.538604  1
  U  U4  1  0.666667  0.333333  0.961396  1
  U  U5  1  0.333333  0.666667  0.461396  1
  Ga  Ga6  1  0.000000  0.000000  0.000000  1
  Ga  Ga7  1  0.000000  0.000000  0.500000  1
  Co  Co8  1  0.831536  0.663072  0.146101  1
  Co  Co9  1  0.168464  0.831536  0.646101  1
  Co  Co10  1  0.663072  0.831536  0.646101  1
  Co  Co11  1  0.336928  0.168464  0.146101  1
  Co  Co12  1  0.831536  0.168464  0.146101  1
  Co  Co13  1  0.168464  0.336928  0.853899  1
  Co  Co14  1  0.168464  0.831536  0.853899  1
  Co  Co15  1  0.168464  0.336928  0.646101  1
  Co  Co16  1  0.663072  0.831536  0.853899  1
  Co  Co17  1  0.336928  0.168464  0.353899  1
  Co  Co18  1  0.831536  0.663072  0.353899  1
  Co  Co19  1  0.831536  0.168464  0.353899  1
  B  B20  1  0.000000  0.000000  0.250000  1
  B  B21  1  0.000000  0.000000  0.750000  1
  B  B22  1  0.333333  0.666667  0.750000  1
  B  B23  1  0.666667  0.333333  0.250000  1
