# generated using pymatgen
data_DyEr6Co5TcSn23
_symmetry_space_group_name_H-M   'P 1'
_cell_length_a   9.71018364
_cell_length_b   9.71348684
_cell_length_c   9.98341289
_cell_angle_alpha   90.00369161
_cell_angle_beta   89.96877840
_cell_angle_gamma   119.84881593
_symmetry_Int_Tables_number   1
_chemical_formula_structural   DyEr6Co5TcSn23
_chemical_formula_sum   'Dy1 Er6 Co5 Tc1 Sn23'
_cell_volume   816.71736768
_cell_formula_units_Z   1
loop_
 _symmetry_equiv_pos_site_id
 _symmetry_equiv_pos_as_xyz
  1  'x, y, z'
loop_
 _atom_site_type_symbol
 _atom_site_label
 _atom_site_symmetry_multiplicity
 _atom_site_fract_x
 _atom_site_fract_y
 _atom_site_fract_z
 _atom_site_occupancy
  Dy  Dy0  1  0.959839  0.481287  0.693875  1
  Er  Er1  1  0.994384  0.006601  0.008338  1
  Er  Er2  1  0.480782  0.518975  0.307319  1
  Er  Er3  1  0.520300  0.480204  0.693496  1
  Er  Er4  1  0.482720  0.960906  0.305219  1
  Er  Er5  1  0.518410  0.038910  0.694158  1
  Er  Er6  1  0.038850  0.517101  0.305305  1
  Co  Co7  1  0.168454  0.832682  0.800637  1
  Co  Co8  1  0.832021  0.661505  0.196589  1
  Co  Co9  1  0.170594  0.338122  0.801357  1
  Co  Co10  1  0.338094  0.167795  0.196711  1
  Co  Co11  1  0.661373  0.829664  0.801332  1
  Tc  Tc12  1  0.834063  0.165615  0.199195  1
  Sn  Sn13  1  0.343449  0.999219  0.999196  1
  Sn  Sn14  1  0.648271  0.996224  0.995096  1
  Sn  Sn15  1  0.003671  0.351678  0.994923  1
  Sn  Sn16  1  0.000779  0.656915  0.999362  1
  Sn  Sn17  1  0.653440  0.653160  0.000147  1
  Sn  Sn18  1  0.347227  0.346901  0.999514  1
  Sn  Sn19  1  0.333106  0.666484  0.817163  1
  Sn  Sn20  1  0.665870  0.334401  0.182802  1
  Sn  Sn21  1  0.999805  0.000878  0.500515  1
  Sn  Sn22  1  0.779288  0.219628  0.459257  1
  Sn  Sn23  1  0.218520  0.783122  0.546084  1
  Sn  Sn24  1  0.781590  0.563186  0.452015  1
  Sn  Sn25  1  0.220114  0.437979  0.547270  1
  Sn  Sn26  1  0.436896  0.217719  0.452214  1
  Sn  Sn27  1  0.562589  0.780946  0.547320  1
  Sn  Sn28  1  0.333379  0.666916  0.119963  1
  Sn  Sn29  1  0.665191  0.331918  0.878615  1
  Sn  Sn30  1  0.118116  0.880855  0.271860  1
  Sn  Sn31  1  0.882865  0.117297  0.727227  1
  Sn  Sn32  1  0.128226  0.240212  0.274614  1
  Sn  Sn33  1  0.881072  0.764444  0.728423  1
  Sn  Sn34  1  0.760120  0.871100  0.274736  1
  Sn  Sn35  1  0.236533  0.119448  0.728153  1
