# generated using pymatgen
data_TbDy5Al18
_symmetry_space_group_name_H-M   'P 1'
_cell_length_a   14.41681945
_cell_length_b   14.41681891
_cell_length_c   14.41682024
_cell_angle_alpha   24.91982896
_cell_angle_beta   24.91983256
_cell_angle_gamma   24.91983169
_symmetry_Int_Tables_number   1
_chemical_formula_structural   TbDy5Al18
_chemical_formula_sum   'Tb1 Dy5 Al18'
_cell_volume   467.96422559
_cell_formula_units_Z   1
loop_
 _symmetry_equiv_pos_site_id
 _symmetry_equiv_pos_as_xyz
  1  'x, y, z'
loop_
 _atom_site_type_symbol
 _atom_site_label
 _atom_site_symmetry_multiplicity
 _atom_site_fract_x
 _atom_site_fract_y
 _atom_site_fract_z
 _atom_site_occupancy
  Tb  Tb0  1  0.608494  0.608494  0.608494  1
  Dy  Dy1  1  0.999931  0.999931  0.999931  1
  Dy  Dy2  1  0.500043  0.500043  0.500043  1
  Dy  Dy3  1  0.108548  0.108548  0.108548  1
  Dy  Dy4  1  0.891495  0.891495  0.891495  1
  Dy  Dy5  1  0.391323  0.391323  0.391323  1
  Al  Al6  1  0.927027  0.368984  0.368984  1
  Al  Al7  1  0.427052  0.868766  0.868766  1
  Al  Al8  1  0.368984  0.368984  0.927027  1
  Al  Al9  1  0.868766  0.868766  0.427052  1
  Al  Al10  1  0.368984  0.927027  0.368984  1
  Al  Al11  1  0.868766  0.427052  0.868766  1
  Al  Al12  1  0.572849  0.131230  0.131230  1
  Al  Al13  1  0.072925  0.631172  0.631172  1
  Al  Al14  1  0.131230  0.131230  0.572849  1
  Al  Al15  1  0.631172  0.631172  0.072925  1
  Al  Al16  1  0.131230  0.572849  0.131230  1
  Al  Al17  1  0.631172  0.072925  0.631172  1
  Al  Al18  1  0.500597  0.500597  0.998521  1
  Al  Al19  1  0.000210  0.000210  0.499880  1
  Al  Al20  1  0.500597  0.998521  0.500597  1
  Al  Al21  1  0.000210  0.499880  0.000210  1
  Al  Al22  1  0.998521  0.500597  0.500597  1
  Al  Al23  1  0.499880  0.000210  0.000210  1
