# generated using pymatgen
data_EuDy2SbO7
_symmetry_space_group_name_H-M   'P 1'
_cell_length_a   6.50213491
_cell_length_b   6.50213452
_cell_length_c   7.60029200
_cell_angle_alpha   90.00000000
_cell_angle_beta   90.00000000
_cell_angle_gamma   108.68127599
_symmetry_Int_Tables_number   1
_chemical_formula_structural   EuDy2SbO7
_chemical_formula_sum   'Eu2 Dy4 Sb2 O14'
_cell_volume   304.39437269
_cell_formula_units_Z   2
loop_
 _symmetry_equiv_pos_site_id
 _symmetry_equiv_pos_as_xyz
  1  'x, y, z'
loop_
 _atom_site_type_symbol
 _atom_site_label
 _atom_site_symmetry_multiplicity
 _atom_site_fract_x
 _atom_site_fract_y
 _atom_site_fract_z
 _atom_site_occupancy
  Eu  Eu0  1  0.500000  0.500000  0.500000  1
  Eu  Eu1  1  0.500000  0.500000  0.000000  1
  Dy  Dy2  1  0.531485  0.999876  0.750000  1
  Dy  Dy3  1  0.999876  0.531485  0.250000  1
  Dy  Dy4  1  0.468515  0.000124  0.250000  1
  Dy  Dy5  1  0.000124  0.468515  0.750000  1
  Sb  Sb6  1  0.000000  0.000000  0.500000  1
  Sb  Sb7  1  0.000000  0.000000  0.000000  1
  O  O8  1  0.679782  0.933656  0.470642  1
  O  O9  1  0.933656  0.679782  0.529358  1
  O  O10  1  0.679782  0.933656  0.029358  1
  O  O11  1  0.933656  0.679782  0.970642  1
  O  O12  1  0.320218  0.066344  0.529358  1
  O  O13  1  0.066344  0.320218  0.470642  1
  O  O14  1  0.320218  0.066344  0.970642  1
  O  O15  1  0.066344  0.320218  0.029358  1
  O  O16  1  0.930874  0.069126  0.750000  1
  O  O17  1  0.069126  0.930874  0.250000  1
  O  O18  1  0.366169  0.633831  0.750000  1
  O  O19  1  0.633831  0.366169  0.250000  1
  O  O20  1  0.639699  0.360301  0.750000  1
  O  O21  1  0.360301  0.639699  0.250000  1
