# generated using pymatgen
data_TbDyCo2(Re2C)2
_symmetry_space_group_name_H-M   'P 1'
_cell_length_a   5.66230352
_cell_length_b   5.66230522
_cell_length_c   7.48010200
_cell_angle_alpha   90.00000000
_cell_angle_beta   90.00000000
_cell_angle_gamma   140.19942623
_symmetry_Int_Tables_number   1
_chemical_formula_structural   TbDyCo2(Re2C)2
_chemical_formula_sum   'Tb1 Dy1 Co2 Re4 C2'
_cell_volume   153.51597296
_cell_formula_units_Z   1
loop_
 _symmetry_equiv_pos_site_id
 _symmetry_equiv_pos_as_xyz
  1  'x, y, z'
loop_
 _atom_site_type_symbol
 _atom_site_label
 _atom_site_symmetry_multiplicity
 _atom_site_fract_x
 _atom_site_fract_y
 _atom_site_fract_z
 _atom_site_occupancy
  Tb  Tb0  1  0.465811  0.534189  0.750000  1
  Dy  Dy1  1  0.534132  0.465868  0.250000  1
  Co  Co2  1  0.259609  0.740391  0.250000  1
  Co  Co3  1  0.740305  0.259695  0.750000  1
  Re  Re4  1  0.822186  0.177814  0.065826  1
  Re  Re5  1  0.177851  0.822149  0.934509  1
  Re  Re6  1  0.177851  0.822149  0.565491  1
  Re  Re7  1  0.822186  0.177814  0.434174  1
  C  C8  1  0.000035  0.999965  0.000486  1
  C  C9  1  0.000035  0.999965  0.499514  1
