# generated using pymatgen
data_La2AlZnNi8
_symmetry_space_group_name_H-M   'P 1'
_cell_length_a   4.98745382
_cell_length_b   4.98745420
_cell_length_c   8.12597400
_cell_angle_alpha   90.00000000
_cell_angle_beta   90.00000000
_cell_angle_gamma   118.26794303
_symmetry_Int_Tables_number   1
_chemical_formula_structural   La2AlZnNi8
_chemical_formula_sum   'La2 Al1 Zn1 Ni8'
_cell_volume   178.02548366
_cell_formula_units_Z   1
loop_
 _symmetry_equiv_pos_site_id
 _symmetry_equiv_pos_as_xyz
  1  'x, y, z'
loop_
 _atom_site_type_symbol
 _atom_site_label
 _atom_site_symmetry_multiplicity
 _atom_site_fract_x
 _atom_site_fract_y
 _atom_site_fract_z
 _atom_site_occupancy
  La  La0  1  0.000000  0.000000  0.752962  1
  La  La1  1  0.000000  0.000000  0.247038  1
  Al  Al2  1  0.500000  0.500000  0.500000  1
  Zn  Zn3  1  0.500000  0.500000  0.000000  1
  Ni  Ni4  1  0.670814  0.329186  0.749185  1
  Ni  Ni5  1  0.670814  0.329186  0.250815  1
  Ni  Ni6  1  0.329186  0.670814  0.749185  1
  Ni  Ni7  1  0.500000  0.000000  0.500000  1
  Ni  Ni8  1  0.000000  0.500000  0.000000  1
  Ni  Ni9  1  0.500000  0.000000  0.000000  1
  Ni  Ni10  1  0.329186  0.670814  0.250815  1
  Ni  Ni11  1  0.000000  0.500000  0.500000  1
