# generated using pymatgen
data_Mn3FeSi8(W6C)2
_symmetry_space_group_name_H-M   'P 1'
_cell_length_a   7.78913795
_cell_length_b   7.78913739
_cell_length_c   7.78913802
_cell_angle_alpha   60.00607579
_cell_angle_beta   60.00607844
_cell_angle_gamma   60.00607495
_symmetry_Int_Tables_number   1
_chemical_formula_structural   Mn3FeSi8(W6C)2
_chemical_formula_sum   'Mn3 Fe1 Si8 W12 C2'
_cell_volume   334.20503327
_cell_formula_units_Z   1
loop_
 _symmetry_equiv_pos_site_id
 _symmetry_equiv_pos_as_xyz
  1  'x, y, z'
loop_
 _atom_site_type_symbol
 _atom_site_label
 _atom_site_symmetry_multiplicity
 _atom_site_fract_x
 _atom_site_fract_y
 _atom_site_fract_z
 _atom_site_occupancy
  Mn  Mn0  1  0.125000  0.125000  0.625000  1
  Mn  Mn1  1  0.125000  0.625000  0.125000  1
  Mn  Mn2  1  0.625000  0.125000  0.125000  1
  Fe  Fe3  1  0.125000  0.125000  0.125000  1
  Si  Si4  1  0.916518  0.252012  0.916518  1
  Si  Si5  1  0.333482  0.997988  0.333482  1
  Si  Si6  1  0.333835  0.333835  0.333835  1
  Si  Si7  1  0.997988  0.333482  0.333482  1
  Si  Si8  1  0.916518  0.916518  0.252012  1
  Si  Si9  1  0.252012  0.916518  0.916518  1
  Si  Si10  1  0.333482  0.333482  0.997988  1
  Si  Si11  1  0.916165  0.916165  0.916165  1
  W  W12  1  0.307685  0.693108  0.693108  1
  W  W13  1  0.307177  0.307177  0.692089  1
  W  W14  1  0.556892  0.942315  0.556892  1
  W  W15  1  0.942315  0.556892  0.556892  1
  W  W16  1  0.557911  0.942823  0.942823  1
  W  W17  1  0.692089  0.307177  0.307177  1
  W  W18  1  0.942823  0.557911  0.942823  1
  W  W19  1  0.307177  0.692089  0.307177  1
  W  W20  1  0.556892  0.556892  0.942315  1
  W  W21  1  0.693108  0.307685  0.693108  1
  W  W22  1  0.693108  0.693108  0.307685  1
  W  W23  1  0.942823  0.942823  0.557911  1
  C  C24  1  0.750007  0.750007  0.750007  1
  C  C25  1  0.499993  0.499993  0.499993  1
