# generated using pymatgen
data_HoTmTh2(AsPt)4
_symmetry_space_group_name_H-M   'P 1'
_cell_length_a   4.31447800
_cell_length_b   4.31447802
_cell_length_c   15.51598900
_cell_angle_alpha   90.00000000
_cell_angle_beta   90.00000000
_cell_angle_gamma   120.00001517
_symmetry_Int_Tables_number   1
_chemical_formula_structural   HoTmTh2(AsPt)4
_chemical_formula_sum   'Ho1 Tm1 Th2 As4 Pt4'
_cell_volume   250.13044065
_cell_formula_units_Z   1
loop_
 _symmetry_equiv_pos_site_id
 _symmetry_equiv_pos_as_xyz
  1  'x, y, z'
loop_
 _atom_site_type_symbol
 _atom_site_label
 _atom_site_symmetry_multiplicity
 _atom_site_fract_x
 _atom_site_fract_y
 _atom_site_fract_z
 _atom_site_occupancy
  Ho  Ho0  1  0.000000  0.000000  0.250000  1
  Tm  Tm1  1  0.000000  0.000000  0.750000  1
  Th  Th2  1  0.000000  0.000000  0.500417  1
  Th  Th3  1  0.000000  0.000000  0.999583  1
  As  As4  1  0.333333  0.666667  0.881907  1
  As  As5  1  0.666667  0.333333  0.117979  1
  As  As6  1  0.666667  0.333333  0.382021  1
  As  As7  1  0.333333  0.666667  0.618093  1
  Pt  Pt8  1  0.333333  0.666667  0.357152  1
  Pt  Pt9  1  0.666667  0.333333  0.644888  1
  Pt  Pt10  1  0.666667  0.333333  0.855112  1
  Pt  Pt11  1  0.333333  0.666667  0.142848  1
