# generated using pymatgen
data_Lu5Cd2(InNi)2
_symmetry_space_group_name_H-M   'P 1'
_cell_length_a   7.77718800
_cell_length_b   17.82733100
_cell_length_c   3.51782600
_cell_angle_alpha   90.00000000
_cell_angle_beta   90.00000000
_cell_angle_gamma   90.00000000
_symmetry_Int_Tables_number   1
_chemical_formula_structural   Lu5Cd2(InNi)2
_chemical_formula_sum   'Lu10 Cd4 In4 Ni4'
_cell_volume   487.73427913
_cell_formula_units_Z   2
loop_
 _symmetry_equiv_pos_site_id
 _symmetry_equiv_pos_as_xyz
  1  'x, y, z'
loop_
 _atom_site_type_symbol
 _atom_site_label
 _atom_site_symmetry_multiplicity
 _atom_site_fract_x
 _atom_site_fract_y
 _atom_site_fract_z
 _atom_site_occupancy
  Lu  Lu0  1  0.500000  0.500000  0.000000  1
  Lu  Lu1  1  0.000000  0.000000  0.000000  1
  Lu  Lu2  1  0.758668  0.278650  0.000000  1
  Lu  Lu3  1  0.241332  0.721350  0.000000  1
  Lu  Lu4  1  0.741332  0.778650  0.000000  1
  Lu  Lu5  1  0.258668  0.221350  0.000000  1
  Lu  Lu6  1  0.618457  0.089422  0.000000  1
  Lu  Lu7  1  0.381543  0.910578  0.000000  1
  Lu  Lu8  1  0.881543  0.589422  0.000000  1
  Lu  Lu9  1  0.118457  0.410578  0.000000  1
  Cd  Cd10  1  0.705290  0.930939  0.500000  1
  Cd  Cd11  1  0.294710  0.069061  0.500000  1
  Cd  Cd12  1  0.794710  0.430939  0.500000  1
  Cd  Cd13  1  0.205290  0.569061  0.500000  1
  In  In14  1  0.562600  0.650155  0.500000  1
  In  In15  1  0.437400  0.349845  0.500000  1
  In  In16  1  0.937400  0.150155  0.500000  1
  In  In17  1  0.062600  0.849845  0.500000  1
  Ni  Ni18  1  0.536834  0.197151  0.500000  1
  Ni  Ni19  1  0.463166  0.802849  0.500000  1
  Ni  Ni20  1  0.963166  0.697151  0.500000  1
  Ni  Ni21  1  0.036834  0.302849  0.500000  1
