# generated using pymatgen
data_RbV(AgSe2)2
_symmetry_space_group_name_H-M   'P 1'
_cell_length_a   10.25924863
_cell_length_b   10.25924895
_cell_length_c   8.26624300
_cell_angle_alpha   90.00000000
_cell_angle_beta   90.00000000
_cell_angle_gamma   145.41225930
_symmetry_Int_Tables_number   1
_chemical_formula_structural   RbV(AgSe2)2
_chemical_formula_sum   'Rb2 V2 Ag4 Se8'
_cell_volume   493.89360829
_cell_formula_units_Z   2
loop_
 _symmetry_equiv_pos_site_id
 _symmetry_equiv_pos_as_xyz
  1  'x, y, z'
loop_
 _atom_site_type_symbol
 _atom_site_label
 _atom_site_symmetry_multiplicity
 _atom_site_fract_x
 _atom_site_fract_y
 _atom_site_fract_z
 _atom_site_occupancy
  Rb  Rb0  1  0.453795  0.821770  0.750000  1
  Rb  Rb1  1  0.821770  0.453795  0.250000  1
  V  V2  1  0.522856  0.297091  0.750000  1
  V  V3  1  0.297091  0.522856  0.250000  1
  Ag  Ag4  1  0.370023  0.370023  0.000000  1
  Ag  Ag5  1  0.370023  0.370023  0.500000  1
  Ag  Ag6  1  0.026988  0.795274  0.750000  1
  Ag  Ag7  1  0.795274  0.026988  0.250000  1
  Se  Se8  1  0.647563  0.621853  0.750000  1
  Se  Se9  1  0.621853  0.647563  0.250000  1
  Se  Se10  1  0.319219  0.075348  0.987622  1
  Se  Se11  1  0.075348  0.319219  0.487622  1
  Se  Se12  1  0.401689  0.825358  0.250000  1
  Se  Se13  1  0.075348  0.319219  0.012378  1
  Se  Se14  1  0.319219  0.075348  0.512378  1
  Se  Se15  1  0.825358  0.401689  0.750000  1
