# generated using pymatgen
data_Er4Ga20Os5Ru
_symmetry_space_group_name_H-M   'P 1'
_cell_length_a   8.90458300
_cell_length_b   8.90458300
_cell_length_c   6.38533800
_cell_angle_alpha   90.00000000
_cell_angle_beta   90.00000000
_cell_angle_gamma   90.00196893
_symmetry_Int_Tables_number   1
_chemical_formula_structural   Er4Ga20Os5Ru
_chemical_formula_sum   'Er4 Ga20 Os5 Ru1'
_cell_volume   506.30365622
_cell_formula_units_Z   1
loop_
 _symmetry_equiv_pos_site_id
 _symmetry_equiv_pos_as_xyz
  1  'x, y, z'
loop_
 _atom_site_type_symbol
 _atom_site_label
 _atom_site_symmetry_multiplicity
 _atom_site_fract_x
 _atom_site_fract_y
 _atom_site_fract_z
 _atom_site_occupancy
  Er  Er0  1  0.682815  0.182815  0.000000  1
  Er  Er1  1  0.317097  0.817097  0.000000  1
  Er  Er2  1  0.817115  0.682844  0.000000  1
  Er  Er3  1  0.182844  0.317115  0.000000  1
  Ga  Ga4  1  0.938160  0.206904  0.292871  1
  Ga  Ga5  1  0.706904  0.438160  0.292871  1
  Ga  Ga6  1  0.500508  0.000508  0.284090  1
  Ga  Ga7  1  0.561412  0.706886  0.707530  1
  Ga  Ga8  1  0.293227  0.561302  0.707564  1
  Ga  Ga9  1  0.792817  0.938957  0.292753  1
  Ga  Ga10  1  0.938160  0.206904  0.707129  1
  Ga  Ga11  1  0.293227  0.561302  0.292436  1
  Ga  Ga12  1  0.061302  0.793227  0.292436  1
  Ga  Ga13  1  0.706904  0.438160  0.707129  1
  Ga  Ga14  1  0.438957  0.292817  0.707247  1
  Ga  Ga15  1  0.061302  0.793227  0.707564  1
  Ga  Ga16  1  0.206886  0.061412  0.707530  1
  Ga  Ga17  1  0.792817  0.938957  0.707247  1
  Ga  Ga18  1  0.206886  0.061412  0.292470  1
  Ga  Ga19  1  0.999901  0.499901  0.715911  1
  Ga  Ga20  1  0.999901  0.499901  0.284089  1
  Ga  Ga21  1  0.561412  0.706886  0.292470  1
  Ga  Ga22  1  0.438957  0.292817  0.292753  1
  Ga  Ga23  1  0.500508  0.000508  0.715910  1
  Os  Os24  1  0.821790  0.678289  0.500000  1
  Os  Os25  1  0.178289  0.321790  0.500000  1
  Os  Os26  1  0.000205  0.999819  0.000000  1
  Os  Os27  1  0.321607  0.821607  0.500000  1
  Os  Os28  1  0.499819  0.500205  0.000000  1
  Ru  Ru29  1  0.678272  0.178272  0.500000  1
