# generated using pymatgen
data_Pr5PuThO12
_symmetry_space_group_name_H-M   'P 1'
_cell_length_a   6.84310155
_cell_length_b   6.87589699
_cell_length_c   6.85139200
_cell_angle_alpha   98.74853527
_cell_angle_beta   98.78044923
_cell_angle_gamma   99.09187600
_symmetry_Int_Tables_number   1
_chemical_formula_structural   Pr5PuThO12
_chemical_formula_sum   'Pr5 Pu1 Th1 O12'
_cell_volume   309.42231068
_cell_formula_units_Z   1
loop_
 _symmetry_equiv_pos_site_id
 _symmetry_equiv_pos_as_xyz
  1  'x, y, z'
loop_
 _atom_site_type_symbol
 _atom_site_label
 _atom_site_symmetry_multiplicity
 _atom_site_fract_x
 _atom_site_fract_y
 _atom_site_fract_z
 _atom_site_occupancy
  Pr  Pr0  1  0.690643  0.855425  0.389505  1
  Pr  Pr1  1  0.389835  0.694177  0.857724  1
  Pr  Pr2  1  0.142146  0.609478  0.304210  1
  Pr  Pr3  1  0.308481  0.138501  0.609104  1
  Pr  Pr4  1  0.608950  0.307982  0.143963  1
  Pu  Pu5  1  0.998857  0.001256  0.000046  1
  Th  Th6  1  0.859730  0.393946  0.695780  1
  O  O7  1  0.945766  0.311475  0.060889  1
  O  O8  1  0.068415  0.951590  0.301275  1
  O  O9  1  0.303265  0.066295  0.953347  1
  O  O10  1  0.045121  0.687948  0.925706  1
  O  O11  1  0.932611  0.053855  0.697848  1
  O  O12  1  0.697095  0.933647  0.046524  1
  O  O13  1  0.600645  0.180878  0.444729  1
  O  O14  1  0.438710  0.586802  0.176020  1
  O  O15  1  0.168720  0.432066  0.593135  1
  O  O16  1  0.408492  0.820653  0.560584  1
  O  O17  1  0.569717  0.412196  0.816836  1
  O  O18  1  0.822801  0.561826  0.422775  1
