# generated using pymatgen
data_KFeH9
_symmetry_space_group_name_H-M   'P 1'
_cell_length_a   9.21069700
_cell_length_b   5.19368457
_cell_length_c   5.20953850
_cell_angle_alpha   61.43523297
_cell_angle_beta   90.00000000
_cell_angle_gamma   90.00000000
_symmetry_Int_Tables_number   1
_chemical_formula_structural   KFeH9
_chemical_formula_sum   'K2 Fe2 H18'
_cell_volume   218.87638788
_cell_formula_units_Z   2
loop_
 _symmetry_equiv_pos_site_id
 _symmetry_equiv_pos_as_xyz
  1  'x, y, z'
loop_
 _atom_site_type_symbol
 _atom_site_label
 _atom_site_symmetry_multiplicity
 _atom_site_fract_x
 _atom_site_fract_y
 _atom_site_fract_z
 _atom_site_occupancy
  K  K0  1  0.500000  0.000000  0.000000  1
  K  K1  1  0.000000  0.000000  0.000000  1
  Fe  Fe2  1  0.250000  0.664960  0.643401  1
  Fe  Fe3  1  0.750000  0.335040  0.356599  1
  H  H4  1  0.250000  0.715191  0.904101  1
  H  H5  1  0.750000  0.284809  0.095899  1
  H  H6  1  0.250000  0.357701  0.892464  1
  H  H7  1  0.750000  0.642299  0.107536  1
  H  H8  1  0.250000  0.821885  0.318332  1
  H  H9  1  0.750000  0.178115  0.681668  1
  H  H10  1  0.344134  0.512500  0.524742  1
  H  H11  1  0.844134  0.487500  0.475258  1
  H  H12  1  0.655866  0.487500  0.475258  1
  H  H13  1  0.155866  0.512500  0.524742  1
  H  H14  1  0.343227  0.932164  0.534148  1
  H  H15  1  0.843227  0.067836  0.465852  1
  H  H16  1  0.656773  0.067836  0.465852  1
  H  H17  1  0.156773  0.932164  0.534148  1
  H  H18  1  0.398942  0.605902  0.766359  1
  H  H19  1  0.898942  0.394098  0.233641  1
  H  H20  1  0.601058  0.394098  0.233641  1
  H  H21  1  0.101058  0.605902  0.766359  1
