# generated using pymatgen
data_SmDy3(WO6)2
_symmetry_space_group_name_H-M   'P 1'
_cell_length_a   5.42894000
_cell_length_b   7.74620600
_cell_length_c   11.53339390
_cell_angle_alpha   75.52653280
_cell_angle_beta   90.00000000
_cell_angle_gamma   90.00000000
_symmetry_Int_Tables_number   1
_chemical_formula_structural   SmDy3(WO6)2
_chemical_formula_sum   'Sm2 Dy6 W4 O24'
_cell_volume   469.62884328
_cell_formula_units_Z   2
loop_
 _symmetry_equiv_pos_site_id
 _symmetry_equiv_pos_as_xyz
  1  'x, y, z'
loop_
 _atom_site_type_symbol
 _atom_site_label
 _atom_site_symmetry_multiplicity
 _atom_site_fract_x
 _atom_site_fract_y
 _atom_site_fract_z
 _atom_site_occupancy
  Sm  Sm0  1  0.684102  0.500000  0.750000  1
  Sm  Sm1  1  0.315898  0.500000  0.250000  1
  Dy  Dy2  1  0.739842  0.000000  0.750000  1
  Dy  Dy3  1  0.260158  0.000000  0.250000  1
  Dy  Dy4  1  0.188047  0.797286  0.577207  1
  Dy  Dy5  1  0.811953  0.797286  0.077207  1
  Dy  Dy6  1  0.188047  0.202714  0.922793  1
  Dy  Dy7  1  0.811953  0.202714  0.422793  1
  W  W8  1  0.253140  0.725283  0.885198  1
  W  W9  1  0.746860  0.725283  0.385198  1
  W  W10  1  0.253140  0.274717  0.614802  1
  W  W11  1  0.746860  0.274717  0.114802  1
  O  O12  1  0.040782  0.940192  0.895632  1
  O  O13  1  0.529089  0.848683  0.930676  1
  O  O14  1  0.959218  0.940192  0.395632  1
  O  O15  1  0.457562  0.791634  0.728032  1
  O  O16  1  0.470911  0.848683  0.430676  1
  O  O17  1  0.984230  0.714931  0.770620  1
  O  O18  1  0.542438  0.791634  0.228032  1
  O  O19  1  0.853457  0.638903  0.546779  1
  O  O20  1  0.355691  0.491765  0.887665  1
  O  O21  1  0.015770  0.714931  0.270620  1
  O  O22  1  0.355691  0.508235  0.612335  1
  O  O23  1  0.853457  0.361097  0.953221  1
  O  O24  1  0.146543  0.638903  0.046779  1
  O  O25  1  0.644309  0.491765  0.387665  1
  O  O26  1  0.984230  0.285069  0.729380  1
  O  O27  1  0.644309  0.508235  0.112335  1
  O  O28  1  0.146543  0.361097  0.453221  1
  O  O29  1  0.457562  0.208366  0.771968  1
  O  O30  1  0.015770  0.285069  0.229380  1
  O  O31  1  0.529089  0.151317  0.569324  1
  O  O32  1  0.542438  0.208366  0.271968  1
  O  O33  1  0.040782  0.059808  0.604368  1
  O  O34  1  0.470911  0.151317  0.069324  1
  O  O35  1  0.959218  0.059808  0.104368  1
