# generated using pymatgen
data_Hf4Co4Si3P
_symmetry_space_group_name_H-M   'P 1'
_cell_length_a   3.78313600
_cell_length_b   6.36840977
_cell_length_c   7.11829495
_cell_angle_alpha   90.08512450
_cell_angle_beta   90.00000000
_cell_angle_gamma   90.00000000
_symmetry_Int_Tables_number   1
_chemical_formula_structural   Hf4Co4Si3P
_chemical_formula_sum   'Hf4 Co4 Si3 P1'
_cell_volume   171.49776078
_cell_formula_units_Z   1
loop_
 _symmetry_equiv_pos_site_id
 _symmetry_equiv_pos_as_xyz
  1  'x, y, z'
loop_
 _atom_site_type_symbol
 _atom_site_label
 _atom_site_symmetry_multiplicity
 _atom_site_fract_x
 _atom_site_fract_y
 _atom_site_fract_z
 _atom_site_occupancy
  Hf  Hf0  1  0.250000  0.014812  0.314194  1
  Hf  Hf1  1  0.250000  0.513934  0.188417  1
  Hf  Hf2  1  0.750000  0.990450  0.688229  1
  Hf  Hf3  1  0.750000  0.486010  0.808006  1
  Co  Co4  1  0.250000  0.146955  0.932186  1
  Co  Co5  1  0.250000  0.640181  0.566248  1
  Co  Co6  1  0.750000  0.854582  0.064819  1
  Co  Co7  1  0.750000  0.354056  0.436950  1
  Si  Si8  1  0.250000  0.780314  0.890362  1
  Si  Si9  1  0.750000  0.721928  0.391074  1
  Si  Si10  1  0.750000  0.219859  0.109082  1
  P  P11  1  0.250000  0.276919  0.610434  1
