# generated using pymatgen
data_Sc10Hg3Pd
_symmetry_space_group_name_H-M   'P 1'
_cell_length_a   9.09096400
_cell_length_b   9.09096543
_cell_length_c   8.93078800
_cell_angle_alpha   90.00000000
_cell_angle_beta   90.00000000
_cell_angle_gamma   119.99998751
_symmetry_Int_Tables_number   1
_chemical_formula_structural   Sc10Hg3Pd
_chemical_formula_sum   'Sc20 Hg6 Pd2'
_cell_volume   639.20536414
_cell_formula_units_Z   2
loop_
 _symmetry_equiv_pos_site_id
 _symmetry_equiv_pos_as_xyz
  1  'x, y, z'
loop_
 _atom_site_type_symbol
 _atom_site_label
 _atom_site_symmetry_multiplicity
 _atom_site_fract_x
 _atom_site_fract_y
 _atom_site_fract_z
 _atom_site_occupancy
  Sc  Sc0  1  0.000000  0.000000  0.500000  1
  Sc  Sc1  1  0.000000  0.000000  0.000000  1
  Sc  Sc2  1  0.542261  0.457739  0.250000  1
  Sc  Sc3  1  0.542261  0.084521  0.250000  1
  Sc  Sc4  1  0.915479  0.457739  0.250000  1
  Sc  Sc5  1  0.457739  0.542261  0.750000  1
  Sc  Sc6  1  0.457739  0.915479  0.750000  1
  Sc  Sc7  1  0.084521  0.542261  0.750000  1
  Sc  Sc8  1  0.206610  0.793390  0.442304  1
  Sc  Sc9  1  0.206610  0.413219  0.442304  1
  Sc  Sc10  1  0.586781  0.793390  0.442304  1
  Sc  Sc11  1  0.793390  0.206610  0.557696  1
  Sc  Sc12  1  0.793390  0.586781  0.557696  1
  Sc  Sc13  1  0.413219  0.206610  0.557696  1
  Sc  Sc14  1  0.793390  0.206610  0.942304  1
  Sc  Sc15  1  0.793390  0.586781  0.942304  1
  Sc  Sc16  1  0.413219  0.206610  0.942304  1
  Sc  Sc17  1  0.206610  0.793390  0.057696  1
  Sc  Sc18  1  0.206610  0.413219  0.057696  1
  Sc  Sc19  1  0.586781  0.793390  0.057696  1
  Hg  Hg20  1  0.879847  0.120153  0.250000  1
  Hg  Hg21  1  0.879847  0.759697  0.250000  1
  Hg  Hg22  1  0.240303  0.120153  0.250000  1
  Hg  Hg23  1  0.120153  0.879847  0.750000  1
  Hg  Hg24  1  0.120153  0.240303  0.750000  1
  Hg  Hg25  1  0.759697  0.879847  0.750000  1
  Pd  Pd26  1  0.333333  0.666667  0.250000  1
  Pd  Pd27  1  0.666667  0.333333  0.750000  1
