# generated using pymatgen
data_NpFeCo3MoP3
_symmetry_space_group_name_H-M   'P 1'
_cell_length_a   3.70332500
_cell_length_b   10.39666200
_cell_length_c   11.89080200
_cell_angle_alpha   90.00000000
_cell_angle_beta   90.00000000
_cell_angle_gamma   90.00000000
_symmetry_Int_Tables_number   1
_chemical_formula_structural   NpFeCo3MoP3
_chemical_formula_sum   'Np4 Fe4 Co12 Mo4 P12'
_cell_volume   457.82225438
_cell_formula_units_Z   4
loop_
 _symmetry_equiv_pos_site_id
 _symmetry_equiv_pos_as_xyz
  1  'x, y, z'
loop_
 _atom_site_type_symbol
 _atom_site_label
 _atom_site_symmetry_multiplicity
 _atom_site_fract_x
 _atom_site_fract_y
 _atom_site_fract_z
 _atom_site_occupancy
  Np  Np0  1  0.250000  0.581743  0.706240  1
  Np  Np1  1  0.250000  0.918257  0.206240  1
  Np  Np2  1  0.750000  0.418257  0.293760  1
  Np  Np3  1  0.750000  0.081743  0.793760  1
  Fe  Fe4  1  0.250000  0.463544  0.932484  1
  Fe  Fe5  1  0.250000  0.036456  0.432484  1
  Fe  Fe6  1  0.750000  0.536456  0.067516  1
  Fe  Fe7  1  0.750000  0.963544  0.567516  1
  Co  Co8  1  0.250000  0.406910  0.488005  1
  Co  Co9  1  0.250000  0.093091  0.988005  1
  Co  Co10  1  0.750000  0.593090  0.511995  1
  Co  Co11  1  0.750000  0.906910  0.011995  1
  Co  Co12  1  0.250000  0.222490  0.175180  1
  Co  Co13  1  0.250000  0.277510  0.675180  1
  Co  Co14  1  0.750000  0.777510  0.824820  1
  Co  Co15  1  0.750000  0.722490  0.324820  1
  Co  Co16  1  0.250000  0.884458  0.702710  1
  Co  Co17  1  0.250000  0.615542  0.202710  1
  Co  Co18  1  0.750000  0.115542  0.297290  1
  Co  Co19  1  0.750000  0.384458  0.797290  1
  Mo  Mo20  1  0.250000  0.707440  0.990245  1
  Mo  Mo21  1  0.250000  0.792560  0.490245  1
  Mo  Mo22  1  0.750000  0.292560  0.009755  1
  Mo  Mo23  1  0.750000  0.207440  0.509755  1
  P  P24  1  0.250000  0.423621  0.114187  1
  P  P25  1  0.250000  0.076379  0.614187  1
  P  P26  1  0.750000  0.576379  0.885813  1
  P  P27  1  0.750000  0.923621  0.385813  1
  P  P28  1  0.250000  0.268830  0.862539  1
  P  P29  1  0.250000  0.231170  0.362539  1
  P  P30  1  0.750000  0.731170  0.137461  1
  P  P31  1  0.750000  0.768830  0.637461  1
  P  P32  1  0.250000  0.596805  0.391620  1
  P  P33  1  0.250000  0.903195  0.891620  1
  P  P34  1  0.750000  0.403195  0.608380  1
  P  P35  1  0.750000  0.096805  0.108380  1
