# generated using pymatgen
data_Ac2MgGe3
_symmetry_space_group_name_H-M   'P 1'
_cell_length_a   4.64532400
_cell_length_b   7.29283600
_cell_length_c   19.58522400
_cell_angle_alpha   90.00000000
_cell_angle_beta   90.00000000
_cell_angle_gamma   90.00000000
_symmetry_Int_Tables_number   1
_chemical_formula_structural   Ac2MgGe3
_chemical_formula_sum   'Ac8 Mg4 Ge12'
_cell_volume   663.50011233
_cell_formula_units_Z   4
loop_
 _symmetry_equiv_pos_site_id
 _symmetry_equiv_pos_as_xyz
  1  'x, y, z'
loop_
 _atom_site_type_symbol
 _atom_site_label
 _atom_site_symmetry_multiplicity
 _atom_site_fract_x
 _atom_site_fract_y
 _atom_site_fract_z
 _atom_site_occupancy
  Ac  Ac0  1  0.750000  0.836121  0.919007  1
  Ac  Ac1  1  0.250000  0.663879  0.419007  1
  Ac  Ac2  1  0.750000  0.336121  0.580993  1
  Ac  Ac3  1  0.250000  0.163879  0.080993  1
  Ac  Ac4  1  0.750000  0.811776  0.700712  1
  Ac  Ac5  1  0.250000  0.688224  0.200712  1
  Ac  Ac6  1  0.750000  0.311776  0.799288  1
  Ac  Ac7  1  0.250000  0.188224  0.299288  1
  Mg  Mg8  1  0.750000  0.546724  0.060738  1
  Mg  Mg9  1  0.250000  0.953276  0.560738  1
  Mg  Mg10  1  0.750000  0.046724  0.439262  1
  Mg  Mg11  1  0.250000  0.453276  0.939262  1
  Ge  Ge12  1  0.750000  0.765290  0.534905  1
  Ge  Ge13  1  0.250000  0.734710  0.034905  1
  Ge  Ge14  1  0.750000  0.265290  0.965095  1
  Ge  Ge15  1  0.250000  0.234710  0.465095  1
  Ge  Ge16  1  0.750000  0.506666  0.310784  1
  Ge  Ge17  1  0.250000  0.993334  0.810784  1
  Ge  Ge18  1  0.750000  0.006666  0.189216  1
  Ge  Ge19  1  0.250000  0.493334  0.689216  1
  Ge  Ge20  1  0.750000  0.863278  0.311533  1
  Ge  Ge21  1  0.250000  0.636722  0.811533  1
  Ge  Ge22  1  0.750000  0.363278  0.188467  1
  Ge  Ge23  1  0.250000  0.136722  0.688467  1
