# generated using pymatgen
data_Ho12TcNi4Bi
_symmetry_space_group_name_H-M   'P 1'
_cell_length_a   8.31311402
_cell_length_b   8.31731771
_cell_length_c   8.31311554
_cell_angle_alpha   111.83194236
_cell_angle_beta   110.05459925
_cell_angle_gamma   106.55089385
_symmetry_Int_Tables_number   1
_chemical_formula_structural   Ho12TcNi4Bi
_chemical_formula_sum   'Ho12 Tc1 Ni4 Bi1'
_cell_volume   441.62058056
_cell_formula_units_Z   1
loop_
 _symmetry_equiv_pos_site_id
 _symmetry_equiv_pos_as_xyz
  1  'x, y, z'
loop_
 _atom_site_type_symbol
 _atom_site_label
 _atom_site_symmetry_multiplicity
 _atom_site_fract_x
 _atom_site_fract_y
 _atom_site_fract_z
 _atom_site_occupancy
  Ho  Ho0  1  0.819690  0.714646  0.534387  1
  Ho  Ho1  1  0.180310  0.285354  0.465613  1
  Ho  Ho2  1  0.180259  0.714646  0.894955  1
  Ho  Ho3  1  0.819741  0.285354  0.105045  1
  Ho  Ho4  1  0.683890  0.376019  0.692130  1
  Ho  Ho5  1  0.316110  0.623981  0.307870  1
  Ho  Ho6  1  0.683783  0.991587  0.307804  1
  Ho  Ho7  1  0.316217  0.008413  0.692196  1
  Ho  Ho8  1  0.592378  0.785578  0.806824  1
  Ho  Ho9  1  0.407622  0.214422  0.193176  1
  Ho  Ho10  1  0.978754  0.785578  0.193200  1
  Ho  Ho11  1  0.021246  0.214422  0.806800  1
  Tc  Tc12  1  0.000000  0.000000  0.000000  1
  Ni  Ni13  1  0.636002  0.000000  0.636002  1
  Ni  Ni14  1  0.363998  0.000000  0.363998  1
  Ni  Ni15  1  0.120584  0.621022  0.500437  1
  Ni  Ni16  1  0.879416  0.378978  0.499563  1
  Bi  Bi17  1  0.500000  0.500000  0.000000  1
