# generated using pymatgen
data_Np5SbI18
_symmetry_space_group_name_H-M   'P 1'
_cell_length_a   8.00372911
_cell_length_b   8.00474874
_cell_length_c   25.34441100
_cell_angle_alpha   90.01891786
_cell_angle_beta   89.99054344
_cell_angle_gamma   120.00421534
_symmetry_Int_Tables_number   1
_chemical_formula_structural   Np5SbI18
_chemical_formula_sum   'Np5 Sb1 I18'
_cell_volume   1406.15905479
_cell_formula_units_Z   1
loop_
 _symmetry_equiv_pos_site_id
 _symmetry_equiv_pos_as_xyz
  1  'x, y, z'
loop_
 _atom_site_type_symbol
 _atom_site_label
 _atom_site_symmetry_multiplicity
 _atom_site_fract_x
 _atom_site_fract_y
 _atom_site_fract_z
 _atom_site_occupancy
  Np  Np0  1  0.554692  0.777574  0.998963  1
  Np  Np1  1  0.221951  0.445118  0.333518  1
  Np  Np2  1  0.888638  0.778595  0.333560  1
  Np  Np3  1  0.888987  0.110760  0.667114  1
  Np  Np4  1  0.221762  0.776786  0.667165  1
  Sb  Sb5  1  0.222178  0.110199  0.999693  1
  I  I6  1  0.519591  0.438532  0.069270  1
  I  I7  1  0.894364  0.082248  0.069261  1
  I  I8  1  0.250781  0.812038  0.069166  1
  I  I9  1  0.191035  0.745300  0.262190  1
  I  I10  1  0.921200  0.111997  0.262516  1
  I  I11  1  0.557709  0.478139  0.262339  1
  I  I12  1  0.920544  0.475553  0.404830  1
  I  I13  1  0.189742  0.111853  0.404806  1
  I  I14  1  0.557015  0.747976  0.404932  1
  I  I15  1  0.556535  0.808120  0.596058  1
  I  I16  1  0.190236  0.078462  0.595791  1
  I  I17  1  0.920489  0.446043  0.595887  1
  I  I18  1  0.556219  0.080299  0.738698  1
  I  I19  1  0.917587  0.806192  0.738062  1
  I  I20  1  0.193967  0.446389  0.738445  1
  I  I21  1  0.249522  0.437469  0.929161  1
  I  I22  1  0.894472  0.812029  0.929332  1
  I  I23  1  0.520786  0.082331  0.929244  1
