# generated using pymatgen
data_SmY5Sb7AsPd16
_symmetry_space_group_name_H-M   'P 1'
_cell_length_a   9.36413106
_cell_length_b   9.36412230
_cell_length_c   9.36412700
_cell_angle_alpha   60.00014575
_cell_angle_beta   60.00005037
_cell_angle_gamma   59.99997765
_symmetry_Int_Tables_number   1
_chemical_formula_structural   SmY5Sb7AsPd16
_chemical_formula_sum   'Sm1 Y5 Sb7 As1 Pd16'
_cell_volume   580.61389937
_cell_formula_units_Z   1
loop_
 _symmetry_equiv_pos_site_id
 _symmetry_equiv_pos_as_xyz
  1  'x, y, z'
loop_
 _atom_site_type_symbol
 _atom_site_label
 _atom_site_symmetry_multiplicity
 _atom_site_fract_x
 _atom_site_fract_y
 _atom_site_fract_z
 _atom_site_occupancy
  Sm  Sm0  1  0.716556  0.283443  0.283443  1
  Y  Y1  1  0.282591  0.717409  0.717410  1
  Y  Y2  1  0.283388  0.716612  0.283461  1
  Y  Y3  1  0.716539  0.283463  0.716611  1
  Y  Y4  1  0.283388  0.283462  0.716613  1
  Y  Y5  1  0.716537  0.716612  0.283463  1
  Sb  Sb6  1  0.999631  0.000369  0.000369  1
  Sb  Sb7  1  0.499977  0.000023  0.000023  1
  Sb  Sb8  1  0.999977  0.500023  0.500024  1
  Sb  Sb9  1  0.000502  0.501123  0.999498  1
  Sb  Sb10  1  0.498877  0.999498  0.501123  1
  Sb  Sb11  1  0.000502  0.999498  0.501123  1
  Sb  Sb12  1  0.498877  0.501122  0.999498  1
  As  As13  1  0.497230  0.502770  0.502770  1
  Pd  Pd14  1  0.121527  0.116900  0.116898  1
  Pd  Pd15  1  0.882121  0.881977  0.881977  1
  Pd  Pd16  1  0.118023  0.117880  0.646077  1
  Pd  Pd17  1  0.118023  0.646075  0.117879  1
  Pd  Pd18  1  0.883103  0.878471  0.355324  1
  Pd  Pd19  1  0.883101  0.355325  0.878474  1
  Pd  Pd20  1  0.644677  0.116899  0.116896  1
  Pd  Pd21  1  0.353923  0.881978  0.881977  1
  Pd  Pd22  1  0.331531  0.332824  0.332824  1
  Pd  Pd23  1  0.667042  0.666943  0.666943  1
  Pd  Pd24  1  0.333056  0.332956  0.000931  1
  Pd  Pd25  1  0.333057  0.000929  0.332957  1
  Pd  Pd26  1  0.667176  0.668469  0.997179  1
  Pd  Pd27  1  0.667176  0.997182  0.668467  1
  Pd  Pd28  1  0.002820  0.332823  0.332825  1
  Pd  Pd29  1  0.999072  0.666943  0.666943  1
