# generated using pymatgen
data_TbDy2In3PtAu2
_symmetry_space_group_name_H-M   'P 1'
_cell_length_a   7.72801900
_cell_length_b   7.73417409
_cell_length_c   3.97648600
_cell_angle_alpha   90.00000000
_cell_angle_beta   90.00000000
_cell_angle_gamma   119.97130694
_symmetry_Int_Tables_number   1
_chemical_formula_structural   TbDy2In3PtAu2
_chemical_formula_sum   'Tb1 Dy2 In3 Pt1 Au2'
_cell_volume   205.89116432
_cell_formula_units_Z   1
loop_
 _symmetry_equiv_pos_site_id
 _symmetry_equiv_pos_as_xyz
  1  'x, y, z'
loop_
 _atom_site_type_symbol
 _atom_site_label
 _atom_site_symmetry_multiplicity
 _atom_site_fract_x
 _atom_site_fract_y
 _atom_site_fract_z
 _atom_site_occupancy
  Tb  Tb0  1  0.586844  0.989591  0.500000  1
  Dy  Dy1  1  0.402586  0.413189  0.500000  1
  Dy  Dy2  1  0.010437  0.597345  0.500000  1
  In  In3  1  0.737196  0.737696  0.000000  1
  In  In4  1  0.001159  0.263170  0.000000  1
  In  In5  1  0.261900  0.999144  0.000000  1
  Pt  Pt6  1  0.332731  0.665848  0.000000  1
  Au  Au7  1  0.666810  0.333997  0.000000  1
  Au  Au8  1  0.000338  0.000021  0.500000  1
