# generated using pymatgen
data_CsP4RuO12
_symmetry_space_group_name_H-M   'P 1'
_cell_length_a   13.69656700
_cell_length_b   5.27869016
_cell_length_c   7.63521949
_cell_angle_alpha   79.35488748
_cell_angle_beta   90.00000000
_cell_angle_gamma   90.00000000
_symmetry_Int_Tables_number   1
_chemical_formula_structural   CsP4RuO12
_chemical_formula_sum   'Cs2 P8 Ru2 O24'
_cell_volume   542.52561137
_cell_formula_units_Z   2
loop_
 _symmetry_equiv_pos_site_id
 _symmetry_equiv_pos_as_xyz
  1  'x, y, z'
loop_
 _atom_site_type_symbol
 _atom_site_label
 _atom_site_symmetry_multiplicity
 _atom_site_fract_x
 _atom_site_fract_y
 _atom_site_fract_z
 _atom_site_occupancy
  Cs  Cs0  1  0.001745  0.397292  0.833025  1
  Cs  Cs1  1  0.501745  0.602708  0.166975  1
  P  P2  1  0.871448  0.023044  0.444048  1
  P  P3  1  0.818114  0.790269  0.139083  1
  P  P4  1  0.371448  0.976956  0.555952  1
  P  P5  1  0.180084  0.864896  0.099049  1
  P  P6  1  0.098574  0.025863  0.427165  1
  P  P7  1  0.598574  0.974137  0.572835  1
  P  P8  1  0.680084  0.135104  0.900951  1
  P  P9  1  0.318114  0.209731  0.860917  1
  Ru  Ru10  1  0.235479  0.502365  0.487325  1
  Ru  Ru11  1  0.735479  0.497635  0.512675  1
  O  O12  1  0.153420  0.810544  0.541965  1
  O  O13  1  0.109431  0.295183  0.468934  1
  O  O14  1  0.616600  0.965415  0.780432  1
  O  O15  1  0.985572  0.953193  0.455225  1
  O  O16  1  0.861370  0.289654  0.491054  1
  O  O17  1  0.844201  0.033914  0.239822  1
  O  O18  1  0.116600  0.034585  0.219568  1
  O  O19  1  0.620314  0.167616  0.055732  1
  O  O20  1  0.120314  0.832384  0.944268  1
  O  O21  1  0.235644  0.363886  0.754252  1
  O  O22  1  0.361370  0.710346  0.508946  1
  O  O23  1  0.609431  0.704817  0.531066  1
  O  O24  1  0.653420  0.189456  0.458035  1
  O  O25  1  0.485572  0.046807  0.544775  1
  O  O26  1  0.271880  0.057535  0.043430  1
  O  O27  1  0.908177  0.660046  0.098321  1
  O  O28  1  0.725982  0.367235  0.780451  1
  O  O29  1  0.771880  0.942465  0.956570  1
  O  O30  1  0.408177  0.339954  0.901679  1
  O  O31  1  0.821729  0.804052  0.566507  1
  O  O32  1  0.321729  0.195948  0.433493  1
  O  O33  1  0.344201  0.966086  0.760178  1
  O  O34  1  0.735644  0.636114  0.245748  1
  O  O35  1  0.225982  0.632765  0.219549  1
