# generated using pymatgen
data_Li2Tm3Ga4
_symmetry_space_group_name_H-M   'P 1'
_cell_length_a   6.94745428
_cell_length_b   6.90319271
_cell_length_c   4.34378100
_cell_angle_alpha   90.00000000
_cell_angle_beta   90.00000000
_cell_angle_gamma   119.78946627
_symmetry_Int_Tables_number   1
_chemical_formula_structural   Li2Tm3Ga4
_chemical_formula_sum   'Li2 Tm3 Ga4'
_cell_volume   180.79719563
_cell_formula_units_Z   1
loop_
 _symmetry_equiv_pos_site_id
 _symmetry_equiv_pos_as_xyz
  1  'x, y, z'
loop_
 _atom_site_type_symbol
 _atom_site_label
 _atom_site_symmetry_multiplicity
 _atom_site_fract_x
 _atom_site_fract_y
 _atom_site_fract_z
 _atom_site_occupancy
  Li  Li0  1  0.769681  0.772147  0.500000  1
  Li  Li1  1  0.230319  0.002465  0.500000  1
  Tm  Tm2  1  0.000000  0.561644  0.000000  1
  Tm  Tm3  1  0.430264  0.430033  0.000000  1
  Tm  Tm4  1  0.569736  0.999769  0.000000  1
  Ga  Ga5  1  0.000000  0.236017  0.500000  1
  Ga  Ga6  1  0.665990  0.334388  0.500000  1
  Ga  Ga7  1  0.000000  0.995138  0.000000  1
  Ga  Ga8  1  0.334010  0.668397  0.500000  1
