# generated using pymatgen
data_TbYAl9Pd2Rh
_symmetry_space_group_name_H-M   'P 1'
_cell_length_a   7.61184202
_cell_length_b   7.61226889
_cell_length_c   9.46682600
_cell_angle_alpha   90.00000000
_cell_angle_beta   90.00000000
_cell_angle_gamma   119.58026861
_symmetry_Int_Tables_number   1
_chemical_formula_structural   TbYAl9Pd2Rh
_chemical_formula_sum   'Tb2 Y2 Al18 Pd4 Rh2'
_cell_volume   477.04600604
_cell_formula_units_Z   2
loop_
 _symmetry_equiv_pos_site_id
 _symmetry_equiv_pos_as_xyz
  1  'x, y, z'
loop_
 _atom_site_type_symbol
 _atom_site_label
 _atom_site_symmetry_multiplicity
 _atom_site_fract_x
 _atom_site_fract_y
 _atom_site_fract_z
 _atom_site_occupancy
  Tb  Tb0  1  0.993863  0.667938  0.250000  1
  Tb  Tb1  1  0.006137  0.332062  0.750000  1
  Y  Y2  1  0.667970  0.993872  0.250000  1
  Y  Y3  1  0.332030  0.006128  0.750000  1
  Al  Al4  1  0.126706  0.126676  0.250000  1
  Al  Al5  1  0.873294  0.873324  0.750000  1
  Al  Al6  1  0.999994  0.330744  0.075653  1
  Al  Al7  1  0.000006  0.669256  0.924347  1
  Al  Al8  1  0.000006  0.669256  0.575653  1
  Al  Al9  1  0.330818  0.000025  0.424344  1
  Al  Al10  1  0.999994  0.330744  0.424347  1
  Al  Al11  1  0.669182  0.999975  0.575656  1
  Al  Al12  1  0.669182  0.999975  0.924344  1
  Al  Al13  1  0.330818  0.000025  0.075656  1
  Al  Al14  1  0.329941  0.329909  0.554465  1
  Al  Al15  1  0.670059  0.670091  0.445535  1
  Al  Al16  1  0.670059  0.670091  0.054465  1
  Al  Al17  1  0.329941  0.329909  0.945535  1
  Al  Al18  1  0.340464  0.546853  0.250000  1
  Al  Al19  1  0.659536  0.453147  0.750000  1
  Al  Al20  1  0.546845  0.340476  0.250000  1
  Al  Al21  1  0.453155  0.659524  0.750000  1
  Pd  Pd22  1  0.672162  0.327657  0.999988  1
  Pd  Pd23  1  0.327838  0.672343  0.000012  1
  Pd  Pd24  1  0.327838  0.672343  0.499988  1
  Pd  Pd25  1  0.672162  0.327657  0.500012  1
  Rh  Rh26  1  0.000000  0.000000  0.000000  1
  Rh  Rh27  1  0.000000  0.000000  0.500000  1
