# generated using pymatgen
data_Ho19Er(Ir3Os)3
_symmetry_space_group_name_H-M   'P 1'
_cell_length_a   10.81735100
_cell_length_b   10.81738600
_cell_length_c   6.38851500
_cell_angle_alpha   90.00000000
_cell_angle_beta   90.00000000
_cell_angle_gamma   90.00296612
_symmetry_Int_Tables_number   1
_chemical_formula_structural   Ho19Er(Ir3Os)3
_chemical_formula_sum   'Ho19 Er1 Ir9 Os3'
_cell_volume   747.55502902
_cell_formula_units_Z   1
loop_
 _symmetry_equiv_pos_site_id
 _symmetry_equiv_pos_as_xyz
  1  'x, y, z'
loop_
 _atom_site_type_symbol
 _atom_site_label
 _atom_site_symmetry_multiplicity
 _atom_site_fract_x
 _atom_site_fract_y
 _atom_site_fract_z
 _atom_site_occupancy
  Ho  Ho0  1  0.293752  0.086227  0.376786  1
  Ho  Ho1  1  0.293754  0.914005  0.876877  1
  Ho  Ho2  1  0.706246  0.085995  0.876877  1
  Ho  Ho3  1  0.706248  0.913773  0.376786  1
  Ho  Ho4  1  0.585983  0.793731  0.876862  1
  Ho  Ho5  1  0.586223  0.206335  0.376760  1
  Ho  Ho6  1  0.413777  0.793665  0.376760  1
  Ho  Ho7  1  0.414017  0.206269  0.876862  1
  Ho  Ho8  1  0.208094  0.413263  0.624808  1
  Ho  Ho9  1  0.207687  0.586941  0.120953  1
  Ho  Ho10  1  0.792313  0.413059  0.120953  1
  Ho  Ho11  1  0.791906  0.586737  0.624808  1
  Ho  Ho12  1  0.913082  0.707650  0.120882  1
  Ho  Ho13  1  0.913216  0.291984  0.624855  1
  Ho  Ho14  1  0.086784  0.708016  0.624855  1
  Ho  Ho15  1  0.086918  0.292350  0.120882  1
  Ho  Ho16  1  0.000000  0.000000  0.499671  1
  Ho  Ho17  1  0.000000  0.000000  0.999878  1
  Ho  Ho18  1  0.500000  0.500000  0.999922  1
  Er  Er19  1  0.500000  0.500000  0.499594  1
  Ir  Ir20  1  0.848054  0.153221  0.250326  1
  Ir  Ir21  1  0.847855  0.847000  0.749725  1
  Ir  Ir22  1  0.152145  0.153000  0.749725  1
  Ir  Ir23  1  0.151946  0.846779  0.250326  1
  Ir  Ir24  1  0.652901  0.347944  0.749551  1
  Ir  Ir25  1  0.653092  0.651825  0.250522  1
  Ir  Ir26  1  0.346908  0.348175  0.250522  1
  Ir  Ir27  1  0.347099  0.652056  0.749551  1
  Ir  Ir28  1  0.000000  0.500000  0.379198  1
  Os  Os29  1  0.500000  0.000000  0.123131  1
  Os  Os30  1  0.500000  0.000000  0.622819  1
  Os  Os31  1  0.000000  0.500000  0.877971  1
