# generated using pymatgen
data_TiNbB2AsRu5
_symmetry_space_group_name_H-M   'P 1'
_cell_length_a   9.29540382
_cell_length_b   9.29540382
_cell_length_c   2.97884900
_cell_angle_alpha   90.00000000
_cell_angle_beta   90.00000000
_cell_angle_gamma   89.47969254
_symmetry_Int_Tables_number   1
_chemical_formula_structural   TiNbB2AsRu5
_chemical_formula_sum   'Ti2 Nb2 B4 As2 Ru10'
_cell_volume   257.37544150
_cell_formula_units_Z   2
loop_
 _symmetry_equiv_pos_site_id
 _symmetry_equiv_pos_as_xyz
  1  'x, y, z'
loop_
 _atom_site_type_symbol
 _atom_site_label
 _atom_site_symmetry_multiplicity
 _atom_site_fract_x
 _atom_site_fract_y
 _atom_site_fract_z
 _atom_site_occupancy
  Ti  Ti0  1  0.825596  0.674404  0.000000  1
  Ti  Ti1  1  0.174404  0.325596  0.000000  1
  Nb  Nb2  1  0.323437  0.823437  0.000000  1
  Nb  Nb3  1  0.676563  0.176563  0.000000  1
  B  B4  1  0.624866  0.875134  0.000000  1
  B  B5  1  0.375134  0.124866  0.000000  1
  B  B6  1  0.122757  0.622757  0.000000  1
  B  B7  1  0.877243  0.377243  0.000000  1
  As  As8  1  0.500000  0.500000  0.000000  1
  As  As9  1  0.000000  0.000000  0.000000  1
  Ru  Ru10  1  0.570462  0.712491  0.500000  1
  Ru  Ru11  1  0.429538  0.287509  0.500000  1
  Ru  Ru12  1  0.068058  0.787076  0.500000  1
  Ru  Ru13  1  0.931942  0.212924  0.500000  1
  Ru  Ru14  1  0.287076  0.568058  0.500000  1
  Ru  Ru15  1  0.712924  0.431942  0.500000  1
  Ru  Ru16  1  0.212491  0.070462  0.500000  1
  Ru  Ru17  1  0.787509  0.929538  0.500000  1
  Ru  Ru18  1  0.500000  0.000000  0.500000  1
  Ru  Ru19  1  0.000000  0.500000  0.500000  1
