# generated using pymatgen
data_Lu7Th(AlIr)2
_symmetry_space_group_name_H-M   'P 1'
_cell_length_a   9.43416142
_cell_length_b   9.43431664
_cell_length_c   9.42215400
_cell_angle_alpha   60.04331431
_cell_angle_beta   60.04211223
_cell_angle_gamma   60.18748449
_symmetry_Int_Tables_number   1
_chemical_formula_structural   Lu7Th(AlIr)2
_chemical_formula_sum   'Lu14 Th2 Al4 Ir4'
_cell_volume   594.21199285
_cell_formula_units_Z   2
loop_
 _symmetry_equiv_pos_site_id
 _symmetry_equiv_pos_as_xyz
  1  'x, y, z'
loop_
 _atom_site_type_symbol
 _atom_site_label
 _atom_site_symmetry_multiplicity
 _atom_site_fract_x
 _atom_site_fract_y
 _atom_site_fract_z
 _atom_site_occupancy
  Lu  Lu0  1  0.353514  0.940602  0.352938  1
  Lu  Lu1  1  0.940624  0.353506  0.352925  1
  Lu  Lu2  1  0.808513  0.193320  0.193087  1
  Lu  Lu3  1  0.193328  0.808498  0.805075  1
  Lu  Lu4  1  0.193325  0.808514  0.193095  1
  Lu  Lu5  1  0.808490  0.193337  0.805078  1
  Lu  Lu6  1  0.190885  0.190894  0.809118  1
  Lu  Lu7  1  0.804531  0.804528  0.195463  1
  Lu  Lu8  1  0.935735  0.563928  0.563122  1
  Lu  Lu9  1  0.563921  0.935738  0.937225  1
  Lu  Lu10  1  0.563933  0.935729  0.563121  1
  Lu  Lu11  1  0.935734  0.563928  0.937220  1
  Lu  Lu12  1  0.565292  0.565298  0.934702  1
  Lu  Lu13  1  0.939315  0.939312  0.560691  1
  Th  Th14  1  0.350353  0.350403  0.351995  1
  Th  Th15  1  0.350380  0.350400  0.947244  1
  Al  Al16  1  0.580489  0.580476  0.577369  1
  Al  Al17  1  0.580487  0.580480  0.261675  1
  Al  Al18  1  0.581140  0.262713  0.578078  1
  Al  Al19  1  0.262717  0.581136  0.578077  1
  Ir  Ir20  1  0.140065  0.140068  0.144546  1
  Ir  Ir21  1  0.140039  0.140069  0.575336  1
  Ir  Ir22  1  0.140040  0.577123  0.141408  1
  Ir  Ir23  1  0.577150  0.140000  0.141413  1
