# generated using pymatgen
data_Ce3Sm(AlRu)4
_symmetry_space_group_name_H-M   'P 1'
_cell_length_a   4.01824900
_cell_length_b   7.30771572
_cell_length_c   15.99010924
_cell_angle_alpha   90.10000893
_cell_angle_beta   90.00397809
_cell_angle_gamma   89.99895463
_symmetry_Int_Tables_number   1
_chemical_formula_structural   Ce3Sm(AlRu)4
_chemical_formula_sum   'Ce6 Sm2 Al8 Ru8'
_cell_volume   469.53639149
_cell_formula_units_Z   2
loop_
 _symmetry_equiv_pos_site_id
 _symmetry_equiv_pos_as_xyz
  1  'x, y, z'
loop_
 _atom_site_type_symbol
 _atom_site_label
 _atom_site_symmetry_multiplicity
 _atom_site_fract_x
 _atom_site_fract_y
 _atom_site_fract_z
 _atom_site_occupancy
  Ce  Ce0  1  0.749987  0.822386  0.437983  1
  Ce  Ce1  1  0.749995  0.456036  0.282204  1
  Ce  Ce2  1  0.749984  0.329216  0.062137  1
  Ce  Ce3  1  0.250011  0.672856  0.938532  1
  Ce  Ce4  1  0.249976  0.047750  0.780271  1
  Ce  Ce5  1  0.250011  0.540864  0.719632  1
  Sm  Sm6  1  0.750023  0.957954  0.218019  1
  Sm  Sm7  1  0.249983  0.160916  0.560308  1
  Al  Al8  1  0.749974  0.492568  0.563499  1
  Al  Al9  1  0.750001  0.369443  0.851757  1
  Al  Al10  1  0.750005  0.005036  0.936482  1
  Al  Al11  1  0.749967  0.866540  0.650564  1
  Al  Al12  1  0.250013  0.490224  0.437634  1
  Al  Al13  1  0.249988  0.996337  0.064182  1
  Al  Al14  1  0.249993  0.635560  0.150776  1
  Al  Al15  1  0.250022  0.127782  0.345481  1
  Ru  Ru16  1  0.750008  0.747671  0.817025  1
  Ru  Ru17  1  0.250020  0.238138  0.938020  1
  Ru  Ru18  1  0.750027  0.269516  0.425210  1
  Ru  Ru19  1  0.250141  0.756256  0.325968  1
  Ru  Ru20  1  0.749965  0.760933  0.060253  1
  Ru  Ru21  1  0.750002  0.250771  0.692175  1
  Ru  Ru22  1  0.249979  0.274713  0.176686  1
  Ru  Ru23  1  0.249924  0.730535  0.565202  1
