# generated using pymatgen
data_LuSc9(Si5Ir2)4
_symmetry_space_group_name_H-M   'P 1'
_cell_length_a   12.41297402
_cell_length_b   12.41297402
_cell_length_c   4.11237500
_cell_angle_alpha   90.00000000
_cell_angle_beta   90.00000000
_cell_angle_gamma   89.99389792
_symmetry_Int_Tables_number   1
_chemical_formula_structural   LuSc9(Si5Ir2)4
_chemical_formula_sum   'Lu1 Sc9 Si20 Ir8'
_cell_volume   633.64264846
_cell_formula_units_Z   1
loop_
 _symmetry_equiv_pos_site_id
 _symmetry_equiv_pos_as_xyz
  1  'x, y, z'
loop_
 _atom_site_type_symbol
 _atom_site_label
 _atom_site_symmetry_multiplicity
 _atom_site_fract_x
 _atom_site_fract_y
 _atom_site_fract_z
 _atom_site_occupancy
  Lu  Lu0  1  0.116457  0.383543  0.500000  1
  Sc  Sc1  1  0.500205  0.499813  0.000000  1
  Sc  Sc2  1  0.000187  0.999795  0.000000  1
  Sc  Sc3  1  0.673198  0.826802  0.500000  1
  Sc  Sc4  1  0.327494  0.172506  0.500000  1
  Sc  Sc5  1  0.173161  0.673974  0.500000  1
  Sc  Sc6  1  0.826026  0.326839  0.500000  1
  Sc  Sc7  1  0.382844  0.882731  0.500000  1
  Sc  Sc8  1  0.617269  0.117156  0.500000  1
  Sc  Sc9  1  0.883014  0.616986  0.500000  1
  Si  Si10  1  0.566179  0.933821  0.000000  1
  Si  Si11  1  0.434261  0.065739  0.000000  1
  Si  Si12  1  0.065745  0.567024  0.000000  1
  Si  Si13  1  0.932976  0.434255  0.000000  1
  Si  Si14  1  0.699431  0.666327  0.000000  1
  Si  Si15  1  0.301521  0.333134  0.000000  1
  Si  Si16  1  0.199472  0.833875  0.000000  1
  Si  Si17  1  0.800192  0.166061  0.000000  1
  Si  Si18  1  0.333939  0.699808  0.000000  1
  Si  Si19  1  0.666125  0.300528  0.000000  1
  Si  Si20  1  0.166866  0.198479  0.000000  1
  Si  Si21  1  0.833673  0.800569  0.000000  1
  Si  Si22  1  0.506065  0.651798  0.500000  1
  Si  Si23  1  0.494046  0.348080  0.500000  1
  Si  Si24  1  0.005525  0.848316  0.500000  1
  Si  Si25  1  0.992324  0.150707  0.500000  1
  Si  Si26  1  0.349293  0.507676  0.500000  1
  Si  Si27  1  0.651684  0.494475  0.500000  1
  Si  Si28  1  0.151920  0.005954  0.500000  1
  Si  Si29  1  0.848202  0.993935  0.500000  1
  Ir  Ir30  1  0.518617  0.746784  0.000000  1
  Ir  Ir31  1  0.481709  0.252849  0.000000  1
  Ir  Ir32  1  0.018485  0.753769  0.000000  1
  Ir  Ir33  1  0.981306  0.246007  0.000000  1
  Ir  Ir34  1  0.253993  0.518694  0.000000  1
  Ir  Ir35  1  0.746231  0.481515  0.000000  1
  Ir  Ir36  1  0.247151  0.018291  0.000000  1
  Ir  Ir37  1  0.753216  0.981383  0.000000  1
