# generated using pymatgen
data_Ti2VSi2B4Mo7
_symmetry_space_group_name_H-M   'P 1'
_cell_length_a   7.01006613
_cell_length_b   6.99058416
_cell_length_c   7.00536680
_cell_angle_alpha   129.15292894
_cell_angle_beta   129.25778340
_cell_angle_gamma   74.62728050
_symmetry_Int_Tables_number   1
_chemical_formula_structural   Ti2VSi2B4Mo7
_chemical_formula_sum   'Ti2 V1 Si2 B4 Mo7'
_cell_volume   200.89545458
_cell_formula_units_Z   1
loop_
 _symmetry_equiv_pos_site_id
 _symmetry_equiv_pos_as_xyz
  1  'x, y, z'
loop_
 _atom_site_type_symbol
 _atom_site_label
 _atom_site_symmetry_multiplicity
 _atom_site_fract_x
 _atom_site_fract_y
 _atom_site_fract_z
 _atom_site_occupancy
  Ti  Ti0  1  0.806900  0.978968  0.502537  1
  Ti  Ti1  1  0.500101  0.499068  0.999960  1
  V  V2  1  0.000035  0.998587  0.999395  1
  Si  Si3  1  0.748011  0.747805  0.998338  1
  Si  Si4  1  0.251067  0.250402  0.001708  1
  B  B5  1  0.381026  0.882873  0.262685  1
  B  B6  1  0.880859  0.620663  0.502688  1
  B  B7  1  0.621225  0.117682  0.737970  1
  B  B8  1  0.117376  0.377866  0.497623  1
  Mo  Mo9  1  0.302865  0.805326  0.833577  1
  Mo  Mo10  1  0.194275  0.027092  0.496811  1
  Mo  Mo11  1  0.533243  0.697224  0.502350  1
  Mo  Mo12  1  0.027757  0.530018  0.835012  1
  Mo  Mo13  1  0.695623  0.192534  0.164879  1
  Mo  Mo14  1  0.972557  0.469018  0.166777  1
  Mo  Mo15  1  0.467080  0.304874  0.497689  1
