# generated using pymatgen
data_TbDy15(In3Co)2
_symmetry_space_group_name_H-M   'P 1'
_cell_length_a   10.39394000
_cell_length_b   10.39430280
_cell_length_c   7.00272400
_cell_angle_alpha   89.99714257
_cell_angle_beta   90.00000000
_cell_angle_gamma   119.99884541
_symmetry_Int_Tables_number   1
_chemical_formula_structural   TbDy15(In3Co)2
_chemical_formula_sum   'Tb1 Dy15 In6 Co2'
_cell_volume   655.20659940
_cell_formula_units_Z   1
loop_
 _symmetry_equiv_pos_site_id
 _symmetry_equiv_pos_as_xyz
  1  'x, y, z'
loop_
 _atom_site_type_symbol
 _atom_site_label
 _atom_site_symmetry_multiplicity
 _atom_site_fract_x
 _atom_site_fract_y
 _atom_site_fract_z
 _atom_site_occupancy
  Tb  Tb0  1  0.534687  0.069373  0.511303  1
  Dy  Dy1  1  0.930537  0.465295  0.511551  1
  Dy  Dy2  1  0.534759  0.465295  0.511551  1
  Dy  Dy3  1  0.465145  0.930292  0.011452  1
  Dy  Dy4  1  0.069560  0.534774  0.011552  1
  Dy  Dy5  1  0.465213  0.534774  0.011552  1
  Dy  Dy6  1  0.177716  0.355432  0.721642  1
  Dy  Dy7  1  0.644674  0.822192  0.721757  1
  Dy  Dy8  1  0.177518  0.822192  0.721757  1
  Dy  Dy9  1  0.822285  0.644569  0.221608  1
  Dy  Dy10  1  0.355281  0.177739  0.221497  1
  Dy  Dy11  1  0.822458  0.177739  0.221497  1
  Dy  Dy12  1  0.666756  0.333511  0.903129  1
  Dy  Dy13  1  0.333255  0.666511  0.402996  1
  Dy  Dy14  1  0.999992  0.999983  0.501511  1
  Dy  Dy15  1  0.000021  0.000042  0.001568  1
  In  In16  1  0.836612  0.673225  0.759669  1
  In  In17  1  0.326569  0.163395  0.759895  1
  In  In18  1  0.836826  0.163395  0.759895  1
  In  In19  1  0.163377  0.326755  0.259738  1
  In  In20  1  0.673252  0.836597  0.259654  1
  In  In21  1  0.163346  0.836597  0.259654  1
  Co  Co22  1  0.666831  0.333661  0.288819  1
  Co  Co23  1  0.333329  0.666660  0.788953  1
