# generated using pymatgen
data_Zr3ZnIr2C
_symmetry_space_group_name_H-M   'P 1'
_cell_length_a   8.61796400
_cell_length_b   8.61796345
_cell_length_c   8.61796400
_cell_angle_alpha   120.00000213
_cell_angle_beta   90.00000000
_cell_angle_gamma   120.00000213
_symmetry_Int_Tables_number   1
_chemical_formula_structural   Zr3ZnIr2C
_chemical_formula_sum   'Zr12 Zn4 Ir8 C4'
_cell_volume   452.58376709
_cell_formula_units_Z   4
loop_
 _symmetry_equiv_pos_site_id
 _symmetry_equiv_pos_as_xyz
  1  'x, y, z'
loop_
 _atom_site_type_symbol
 _atom_site_label
 _atom_site_symmetry_multiplicity
 _atom_site_fract_x
 _atom_site_fract_y
 _atom_site_fract_z
 _atom_site_occupancy
  Zr  Zr0  1  0.305124  0.000000  0.305124  1
  Zr  Zr1  1  0.694876  0.000000  0.305124  1
  Zr  Zr2  1  0.305124  0.610247  0.305124  1
  Zr  Zr3  1  0.055124  0.110246  0.555124  1
  Zr  Zr4  1  0.055124  0.500000  0.555124  1
  Zr  Zr5  1  0.444876  0.500000  0.555124  1
  Zr  Zr6  1  0.694876  0.000000  0.694876  1
  Zr  Zr7  1  0.305124  0.000000  0.694876  1
  Zr  Zr8  1  0.694876  0.389754  0.694876  1
  Zr  Zr9  1  0.055124  0.500000  0.944876  1
  Zr  Zr10  1  0.444876  0.500000  0.944876  1
  Zr  Zr11  1  0.444876  0.889754  0.944876  1
  Zn  Zn12  1  0.375000  0.250000  0.125000  1
  Zn  Zn13  1  0.875000  0.250000  0.125000  1
  Zn  Zn14  1  0.875000  0.750000  0.125000  1
  Zn  Zn15  1  0.875000  0.750000  0.625000  1
  Ir  Ir16  1  0.665993  0.331983  0.997973  1
  Ir  Ir17  1  0.084008  0.168017  0.252026  1
  Ir  Ir18  1  0.665993  0.331983  0.334009  1
  Ir  Ir19  1  0.665993  0.668019  0.334009  1
  Ir  Ir20  1  0.002027  0.668019  0.334009  1
  Ir  Ir21  1  0.084008  0.168017  0.915990  1
  Ir  Ir22  1  0.084008  0.831982  0.915990  1
  Ir  Ir23  1  0.747972  0.831982  0.915990  1
  C  C24  1  0.375000  0.750000  0.125000  1
  C  C25  1  0.375000  0.250000  0.625000  1
  C  C26  1  0.875000  0.250000  0.625000  1
  C  C27  1  0.375000  0.750000  0.625000  1
