# generated using pymatgen
data_Zn11IrPd
_symmetry_space_group_name_H-M   'P 1'
_cell_length_a   7.93117334
_cell_length_b   7.93117313
_cell_length_c   7.93382380
_cell_angle_alpha   109.43942333
_cell_angle_beta   109.43942543
_cell_angle_gamma   109.52131689
_symmetry_Int_Tables_number   1
_chemical_formula_structural   Zn11IrPd
_chemical_formula_sum   'Zn22 Ir2 Pd2'
_cell_volume   384.24447020
_cell_formula_units_Z   2
loop_
 _symmetry_equiv_pos_site_id
 _symmetry_equiv_pos_as_xyz
  1  'x, y, z'
loop_
 _atom_site_type_symbol
 _atom_site_label
 _atom_site_symmetry_multiplicity
 _atom_site_fract_x
 _atom_site_fract_y
 _atom_site_fract_z
 _atom_site_occupancy
  Zn  Zn0  1  0.732326  0.381718  0.731120  1
  Zn  Zn1  1  0.618764  0.352546  0.350967  1
  Zn  Zn2  1  0.351446  0.351446  0.616731  1
  Zn  Zn3  1  0.649575  0.269685  0.000000  1
  Zn  Zn4  1  0.215519  0.215519  0.217412  1
  Zn  Zn5  1  0.998107  0.998107  0.782588  1
  Zn  Zn6  1  0.786770  0.997201  0.000000  1
  Zn  Zn7  1  0.997201  0.786770  0.000000  1
  Zn  Zn8  1  0.357235  0.357235  0.000000  1
  Zn  Zn9  1  0.001095  0.639258  0.646829  1
  Zn  Zn10  1  0.992429  0.354266  0.353171  1
  Zn  Zn11  1  0.354266  0.992429  0.353171  1
  Zn  Zn12  1  0.639258  0.001095  0.646829  1
  Zn  Zn13  1  0.641655  0.641655  0.000000  1
  Zn  Zn14  1  0.352546  0.618764  0.350967  1
  Zn  Zn15  1  0.267795  0.001578  0.649033  1
  Zn  Zn16  1  0.650599  0.001206  0.268880  1
  Zn  Zn17  1  0.269685  0.649575  0.000000  1
  Zn  Zn18  1  0.734716  0.734716  0.383269  1
  Zn  Zn19  1  0.381718  0.732326  0.731120  1
  Zn  Zn20  1  0.001206  0.650599  0.268880  1
  Zn  Zn21  1  0.001578  0.267795  0.649033  1
  Ir  Ir22  1  0.001456  0.001456  0.346184  1
  Ir  Ir23  1  0.655272  0.655272  0.653816  1
  Pd  Pd24  1  0.001137  0.346647  0.000000  1
  Pd  Pd25  1  0.346647  0.001137  0.000000  1
