# generated using pymatgen
data_LiZr2BIrRh4
_symmetry_space_group_name_H-M   'P 1'
_cell_length_a   5.67751220
_cell_length_b   5.67725446
_cell_length_c   5.79474204
_cell_angle_alpha   59.31599995
_cell_angle_beta   59.32739673
_cell_angle_gamma   61.37237808
_symmetry_Int_Tables_number   1
_chemical_formula_structural   LiZr2BIrRh4
_chemical_formula_sum   'Li1 Zr2 B1 Ir1 Rh4'
_cell_volume   131.97482608
_cell_formula_units_Z   1
loop_
 _symmetry_equiv_pos_site_id
 _symmetry_equiv_pos_as_xyz
  1  'x, y, z'
loop_
 _atom_site_type_symbol
 _atom_site_label
 _atom_site_symmetry_multiplicity
 _atom_site_fract_x
 _atom_site_fract_y
 _atom_site_fract_z
 _atom_site_occupancy
  Li  Li0  1  0.727103  0.726347  0.272897  1
  Zr  Zr1  1  0.749184  0.751068  0.749107  1
  Zr  Zr2  1  0.250893  0.249359  0.250816  1
  B  B3  1  0.005266  0.005080  0.994734  1
  Ir  Ir4  1  0.252516  0.746347  0.747484  1
  Rh  Rh5  1  0.255156  0.747694  0.253307  1
  Rh  Rh6  1  0.748048  0.252556  0.251952  1
  Rh  Rh7  1  0.265141  0.265393  0.734859  1
  Rh  Rh8  1  0.746693  0.256156  0.744844  1
