# generated using pymatgen
data_TiTc5Te8
_symmetry_space_group_name_H-M   'P 1'
_cell_length_a   7.08120451
_cell_length_b   7.08720744
_cell_length_c   7.11994384
_cell_angle_alpha   93.10866614
_cell_angle_beta   94.12736904
_cell_angle_gamma   93.35151129
_symmetry_Int_Tables_number   1
_chemical_formula_structural   TiTc5Te8
_chemical_formula_sum   'Ti1 Tc5 Te8'
_cell_volume   355.17171227
_cell_formula_units_Z   1
loop_
 _symmetry_equiv_pos_site_id
 _symmetry_equiv_pos_as_xyz
  1  'x, y, z'
loop_
 _atom_site_type_symbol
 _atom_site_label
 _atom_site_symmetry_multiplicity
 _atom_site_fract_x
 _atom_site_fract_y
 _atom_site_fract_z
 _atom_site_occupancy
  Ti  Ti0  1  0.911931  0.043711  0.743930  1
  Tc  Tc1  1  0.744643  0.912284  0.042413  1
  Tc  Tc2  1  0.051087  0.751571  0.914183  1
  Tc  Tc3  1  0.086179  0.954170  0.253727  1
  Tc  Tc4  1  0.256658  0.091809  0.957235  1
  Tc  Tc5  1  0.950958  0.255234  0.084555  1
  Te  Te6  1  0.706494  0.699447  0.715684  1
  Te  Te7  1  0.289004  0.287621  0.290914  1
  Te  Te8  1  0.768995  0.116165  0.371422  1
  Te  Te9  1  0.381738  0.770945  0.125179  1
  Te  Te10  1  0.112434  0.386465  0.772920  1
  Te  Te11  1  0.243745  0.879538  0.623130  1
  Te  Te12  1  0.615601  0.230971  0.875386  1
  Te  Te13  1  0.880532  0.620070  0.229322  1
