# generated using pymatgen
data_Yb3SbPdPt3O14
_symmetry_space_group_name_H-M   'P 1'
_cell_length_a   7.14584370
_cell_length_b   7.20824389
_cell_length_c   7.13316600
_cell_angle_alpha   60.34394993
_cell_angle_beta   60.05867060
_cell_angle_gamma   60.39162218
_symmetry_Int_Tables_number   1
_chemical_formula_structural   Yb3SbPdPt3O14
_chemical_formula_sum   'Yb3 Sb1 Pd1 Pt3 O14'
_cell_volume   261.35843425
_cell_formula_units_Z   1
loop_
 _symmetry_equiv_pos_site_id
 _symmetry_equiv_pos_as_xyz
  1  'x, y, z'
loop_
 _atom_site_type_symbol
 _atom_site_label
 _atom_site_symmetry_multiplicity
 _atom_site_fract_x
 _atom_site_fract_y
 _atom_site_fract_z
 _atom_site_occupancy
  Yb  Yb0  1  0.125000  0.125000  0.125000  1
  Yb  Yb1  1  0.625000  0.125000  0.125000  1
  Yb  Yb2  1  0.125000  0.125000  0.625000  1
  Sb  Sb3  1  0.125000  0.625000  0.125000  1
  Pd  Pd4  1  0.125000  0.625000  0.625000  1
  Pt  Pt5  1  0.625000  0.625000  0.625000  1
  Pt  Pt6  1  0.625000  0.625000  0.125000  1
  Pt  Pt7  1  0.625000  0.125000  0.625000  1
  O  O8  1  0.014879  0.954484  0.015318  1
  O  O9  1  0.235121  0.295516  0.234682  1
  O  O10  1  0.521696  0.546422  0.965941  1
  O  O11  1  0.285057  0.286765  0.714089  1
  O  O12  1  0.965326  0.546871  0.966966  1
  O  O13  1  0.965326  0.546871  0.520838  1
  O  O14  1  0.536714  0.961544  0.965566  1
  O  O15  1  0.536714  0.961544  0.536176  1
  O  O16  1  0.964943  0.963235  0.535911  1
  O  O17  1  0.713286  0.288456  0.284434  1
  O  O18  1  0.284674  0.703129  0.729162  1
  O  O19  1  0.728304  0.703578  0.284059  1
  O  O20  1  0.713286  0.288456  0.713824  1
  O  O21  1  0.284674  0.703129  0.283034  1
