# generated using pymatgen
data_Pr10Mg(GaRu2)3
_symmetry_space_group_name_H-M   'P 1'
_cell_length_a   8.65163016
_cell_length_b   8.62994822
_cell_length_c   8.65049100
_cell_angle_alpha   109.56049489
_cell_angle_beta   109.64916752
_cell_angle_gamma   109.57725600
_symmetry_Int_Tables_number   1
_chemical_formula_structural   Pr10Mg(GaRu2)3
_chemical_formula_sum   'Pr10 Mg1 Ga3 Ru6'
_cell_volume   494.88918693
_cell_formula_units_Z   1
loop_
 _symmetry_equiv_pos_site_id
 _symmetry_equiv_pos_as_xyz
  1  'x, y, z'
loop_
 _atom_site_type_symbol
 _atom_site_label
 _atom_site_symmetry_multiplicity
 _atom_site_fract_x
 _atom_site_fract_y
 _atom_site_fract_z
 _atom_site_occupancy
  Pr  Pr0  1  0.246115  0.686906  0.435810  1
  Pr  Pr1  1  0.746844  0.815598  0.070695  1
  Pr  Pr2  1  0.435667  0.245586  0.686852  1
  Pr  Pr3  1  0.686021  0.435441  0.245001  1
  Pr  Pr4  1  0.070536  0.746573  0.815819  1
  Pr  Pr5  1  0.815376  0.070499  0.746180  1
  Pr  Pr6  1  0.208056  0.207596  0.207800  1
  Pr  Pr7  1  0.499426  0.003511  0.283198  1
  Pr  Pr8  1  0.283225  0.498848  0.003464  1
  Pr  Pr9  1  0.003250  0.282456  0.499302  1
  Mg  Mg10  1  0.591551  0.591437  0.590833  1
  Ga  Ga11  1  0.999652  0.910087  0.501628  1
  Ga  Ga12  1  0.500590  0.999269  0.909144  1
  Ga  Ga13  1  0.909959  0.502039  0.000096  1
  Ru  Ru14  1  0.251122  0.118118  0.870646  1
  Ru  Ru15  1  0.759843  0.372592  0.632311  1
  Ru  Ru16  1  0.870083  0.251468  0.118076  1
  Ru  Ru17  1  0.118437  0.870313  0.251627  1
  Ru  Ru18  1  0.631846  0.759524  0.371947  1
  Ru  Ru19  1  0.372397  0.632140  0.759573  1
