# generated using pymatgen
data_Lu7ScTi11Si16Mo
_symmetry_space_group_name_H-M   'P 1'
_cell_length_a   6.77290770
_cell_length_b   6.93837881
_cell_length_c   13.18280265
_cell_angle_alpha   89.93375145
_cell_angle_beta   89.97040566
_cell_angle_gamma   90.04495699
_symmetry_Int_Tables_number   1
_chemical_formula_structural   Lu7ScTi11Si16Mo
_chemical_formula_sum   'Lu7 Sc1 Ti11 Si16 Mo1'
_cell_volume   619.49874736
_cell_formula_units_Z   1
loop_
 _symmetry_equiv_pos_site_id
 _symmetry_equiv_pos_as_xyz
  1  'x, y, z'
loop_
 _atom_site_type_symbol
 _atom_site_label
 _atom_site_symmetry_multiplicity
 _atom_site_fract_x
 _atom_site_fract_y
 _atom_site_fract_z
 _atom_site_occupancy
  Lu  Lu0  1  0.504788  0.328196  0.096285  1
  Lu  Lu1  1  0.002529  0.174451  0.403220  1
  Lu  Lu2  1  0.495927  0.672739  0.594538  1
  Lu  Lu3  1  0.995806  0.827273  0.906967  1
  Lu  Lu4  1  0.495292  0.672861  0.906129  1
  Lu  Lu5  1  0.995983  0.826828  0.594232  1
  Lu  Lu6  1  0.504955  0.328228  0.402773  1
  Sc  Sc7  1  0.002815  0.176684  0.098411  1
  Ti  Ti8  1  0.834646  0.325954  0.627258  1
  Ti  Ti9  1  0.334221  0.173976  0.872993  1
  Ti  Ti10  1  0.165354  0.672691  0.126806  1
  Ti  Ti11  1  0.668426  0.825282  0.372766  1
  Ti  Ti12  1  0.164666  0.672724  0.372278  1
  Ti  Ti13  1  0.668522  0.825031  0.126120  1
  Ti  Ti14  1  0.834925  0.325030  0.873382  1
  Ti  Ti15  1  0.334344  0.174018  0.627010  1
  Ti  Ti16  1  0.661210  0.008735  0.750182  1
  Ti  Ti17  1  0.160841  0.491752  0.750233  1
  Ti  Ti18  1  0.338870  0.991863  0.249476  1
  Si  Si19  1  0.660677  0.038110  0.540649  1
  Si  Si20  1  0.160202  0.458268  0.960963  1
  Si  Si21  1  0.334644  0.965364  0.041791  1
  Si  Si22  1  0.839374  0.537955  0.457526  1
  Si  Si23  1  0.339196  0.962377  0.458513  1
  Si  Si24  1  0.841380  0.533960  0.043239  1
  Si  Si25  1  0.660733  0.038357  0.960013  1
  Si  Si26  1  0.160967  0.461211  0.540415  1
  Si  Si27  1  0.535453  0.378725  0.750196  1
  Si  Si28  1  0.036066  0.121711  0.750144  1
  Si  Si29  1  0.464930  0.622219  0.249553  1
  Si  Si30  1  0.964223  0.879742  0.248609  1
  Si  Si31  1  0.794808  0.630547  0.750418  1
  Si  Si32  1  0.293930  0.869597  0.750306  1
  Si  Si33  1  0.202280  0.368938  0.248475  1
  Si  Si34  1  0.706943  0.129587  0.248559  1
  Mo  Mo35  1  0.840071  0.509017  0.249573  1
