# generated using pymatgen
data_Nb4Al4V2FeNi
_symmetry_space_group_name_H-M   'P 1'
_cell_length_a   4.96744505
_cell_length_b   4.92863175
_cell_length_c   8.34334900
_cell_angle_alpha   90.00000000
_cell_angle_beta   90.00000000
_cell_angle_gamma   61.15604211
_symmetry_Int_Tables_number   1
_chemical_formula_structural   Nb4Al4V2FeNi
_chemical_formula_sum   'Nb4 Al4 V2 Fe1 Ni1'
_cell_volume   178.92566214
_cell_formula_units_Z   1
loop_
 _symmetry_equiv_pos_site_id
 _symmetry_equiv_pos_as_xyz
  1  'x, y, z'
loop_
 _atom_site_type_symbol
 _atom_site_label
 _atom_site_symmetry_multiplicity
 _atom_site_fract_x
 _atom_site_fract_y
 _atom_site_fract_z
 _atom_site_occupancy
  Nb  Nb0  1  0.337509  0.332446  0.557013  1
  Nb  Nb1  1  0.660409  0.667521  0.433287  1
  Nb  Nb2  1  0.660409  0.667521  0.066713  1
  Nb  Nb3  1  0.337509  0.332446  0.942987  1
  Al  Al4  1  0.995452  0.985307  0.500955  1
  Al  Al5  1  0.995452  0.985307  0.999045  1
  Al  Al6  1  0.838627  0.352689  0.750000  1
  Al  Al7  1  0.352945  0.836743  0.750000  1
  V  V8  1  0.645477  0.170783  0.250000  1
  V  V9  1  0.170353  0.170852  0.250000  1
  Fe  Fe10  1  0.166630  0.658409  0.250000  1
  Ni  Ni11  1  0.839228  0.839979  0.750000  1
