# generated using pymatgen
data_Sm4YZr3(As3Pd4)4
_symmetry_space_group_name_H-M   'P 1'
_cell_length_a   13.58412365
_cell_length_b   13.57685856
_cell_length_c   4.13812500
_cell_angle_alpha   90.00000000
_cell_angle_beta   90.00000000
_cell_angle_gamma   119.98231385
_symmetry_Int_Tables_number   1
_chemical_formula_structural   Sm4YZr3(As3Pd4)4
_chemical_formula_sum   'Sm4 Y1 Zr3 As12 Pd16'
_cell_volume   661.06250930
_cell_formula_units_Z   1
loop_
 _symmetry_equiv_pos_site_id
 _symmetry_equiv_pos_as_xyz
  1  'x, y, z'
loop_
 _atom_site_type_symbol
 _atom_site_label
 _atom_site_symmetry_multiplicity
 _atom_site_fract_x
 _atom_site_fract_y
 _atom_site_fract_z
 _atom_site_occupancy
  Sm  Sm0  1  0.189630  0.189503  0.500000  1
  Sm  Sm1  1  0.810370  0.999873  0.500000  1
  Sm  Sm2  1  0.333295  0.666800  0.000000  1
  Sm  Sm3  1  0.666705  0.333504  0.000000  1
  Y  Y4  1  0.000000  0.809526  0.500000  1
  Zr  Zr5  1  0.557804  0.557381  0.000000  1
  Zr  Zr6  1  0.442196  0.999577  0.000000  1
  Zr  Zr7  1  0.000000  0.442939  0.000000  1
  As  As8  1  0.825940  0.824966  0.000000  1
  As  As9  1  0.174060  0.999025  0.000000  1
  As  As10  1  0.000000  0.174464  0.000000  1
  As  As11  1  0.166326  0.482373  0.500000  1
  As  As12  1  0.518031  0.684040  0.500000  1
  As  As13  1  0.316187  0.833828  0.500000  1
  As  As14  1  0.683813  0.517641  0.500000  1
  As  As15  1  0.833674  0.316047  0.500000  1
  As  As16  1  0.481969  0.166009  0.500000  1
  As  As17  1  0.359872  0.359960  0.000000  1
  As  As18  1  0.640128  0.000088  0.000000  1
  As  As19  1  0.000000  0.641640  0.000000  1
  Pd  Pd20  1  0.722435  0.722193  0.500000  1
  Pd  Pd21  1  0.277565  0.999758  0.500000  1
  Pd  Pd22  1  0.000000  0.278340  0.500000  1
  Pd  Pd23  1  0.181260  0.373180  0.000000  1
  Pd  Pd24  1  0.626879  0.808058  0.000000  1
  Pd  Pd25  1  0.190615  0.818702  0.000000  1
  Pd  Pd26  1  0.809385  0.628087  0.000000  1
  Pd  Pd27  1  0.818740  0.191919  0.000000  1
  Pd  Pd28  1  0.373121  0.181179  0.000000  1
  Pd  Pd29  1  0.357603  0.484316  0.500000  1
  Pd  Pd30  1  0.515733  0.873106  0.500000  1
  Pd  Pd31  1  0.126876  0.642679  0.500000  1
  Pd  Pd32  1  0.873124  0.515802  0.500000  1
  Pd  Pd33  1  0.642397  0.126713  0.500000  1
  Pd  Pd34  1  0.484267  0.357373  0.500000  1
  Pd  Pd35  1  0.000000  0.999413  0.000000  1
