# generated using pymatgen
data_YbSc2O4
_symmetry_space_group_name_H-M   'P 1'
_cell_length_a   3.14096800
_cell_length_b   9.42881800
_cell_length_c   11.10900000
_cell_angle_alpha   90.00000000
_cell_angle_beta   90.00000000
_cell_angle_gamma   90.00000000
_symmetry_Int_Tables_number   1
_chemical_formula_structural   YbSc2O4
_chemical_formula_sum   'Yb4 Sc8 O16'
_cell_volume   328.99987388
_cell_formula_units_Z   4
loop_
 _symmetry_equiv_pos_site_id
 _symmetry_equiv_pos_as_xyz
  1  'x, y, z'
loop_
 _atom_site_type_symbol
 _atom_site_label
 _atom_site_symmetry_multiplicity
 _atom_site_fract_x
 _atom_site_fract_y
 _atom_site_fract_z
 _atom_site_occupancy
  Yb  Yb0  1  0.750000  0.255760  0.846740  1
  Yb  Yb1  1  0.250000  0.744240  0.153260  1
  Yb  Yb2  1  0.750000  0.755760  0.653260  1
  Yb  Yb3  1  0.250000  0.244240  0.346740  1
  Sc  Sc4  1  0.250000  0.580247  0.893023  1
  Sc  Sc5  1  0.750000  0.419753  0.106977  1
  Sc  Sc6  1  0.250000  0.080247  0.606977  1
  Sc  Sc7  1  0.750000  0.919753  0.393023  1
  Sc  Sc8  1  0.750000  0.929451  0.887498  1
  Sc  Sc9  1  0.250000  0.070549  0.112502  1
  Sc  Sc10  1  0.750000  0.429451  0.612502  1
  Sc  Sc11  1  0.250000  0.570549  0.387498  1
  O  O12  1  0.250000  0.582430  0.576433  1
  O  O13  1  0.750000  0.417570  0.423567  1
  O  O14  1  0.250000  0.082430  0.923567  1
  O  O15  1  0.750000  0.917570  0.076433  1
  O  O16  1  0.250000  0.477547  0.215961  1
  O  O17  1  0.750000  0.522453  0.784039  1
  O  O18  1  0.250000  0.977547  0.284039  1
  O  O19  1  0.750000  0.022453  0.715961  1
  O  O20  1  0.250000  0.874268  0.526275  1
  O  O21  1  0.750000  0.125732  0.473725  1
  O  O22  1  0.250000  0.374268  0.973725  1
  O  O23  1  0.750000  0.625732  0.026275  1
  O  O24  1  0.750000  0.707564  0.324743  1
  O  O25  1  0.250000  0.292436  0.675257  1
  O  O26  1  0.750000  0.207564  0.175257  1
  O  O27  1  0.250000  0.792436  0.824743  1
