# generated using pymatgen
data_U4Tc10Ru2C3
_symmetry_space_group_name_H-M   'P 1'
_cell_length_a   4.15318100
_cell_length_b   4.17259500
_cell_length_c   16.33703100
_cell_angle_alpha   90.00000000
_cell_angle_beta   90.00000000
_cell_angle_gamma   90.00000000
_symmetry_Int_Tables_number   1
_chemical_formula_structural   U4Tc10Ru2C3
_chemical_formula_sum   'U4 Tc10 Ru2 C3'
_cell_volume   283.11326936
_cell_formula_units_Z   1
loop_
 _symmetry_equiv_pos_site_id
 _symmetry_equiv_pos_as_xyz
  1  'x, y, z'
loop_
 _atom_site_type_symbol
 _atom_site_label
 _atom_site_symmetry_multiplicity
 _atom_site_fract_x
 _atom_site_fract_y
 _atom_site_fract_z
 _atom_site_occupancy
  U  U0  1  0.000000  0.000000  0.886591  1
  U  U1  1  0.000000  0.000000  0.115384  1
  U  U2  1  0.000000  0.000000  0.370813  1
  U  U3  1  0.000000  0.000000  0.626945  1
  Tc  Tc4  1  0.500000  0.500000  0.882557  1
  Tc  Tc5  1  0.500000  0.500000  0.116850  1
  Tc  Tc6  1  0.500000  0.500000  0.372282  1
  Tc  Tc7  1  0.500000  0.500000  0.627880  1
  Tc  Tc8  1  0.500000  0.000000  0.999975  1
  Tc  Tc9  1  0.500000  0.000000  0.247222  1
  Tc  Tc10  1  0.500000  0.000000  0.500501  1
  Tc  Tc11  1  0.500000  0.000000  0.752819  1
  Tc  Tc12  1  0.000000  0.500000  0.247389  1
  Tc  Tc13  1  0.000000  0.500000  0.501014  1
  Ru  Ru14  1  0.000000  0.500000  0.000050  1
  Ru  Ru15  1  0.000000  0.500000  0.752247  1
  C  C16  1  0.500000  0.500000  0.240353  1
  C  C17  1  0.500000  0.500000  0.499539  1
  C  C18  1  0.500000  0.500000  0.759588  1
