# generated using pymatgen
data_Sc12CuRhSe4
_symmetry_space_group_name_H-M   'P 1'
_cell_length_a   3.67982100
_cell_length_b   10.34983051
_cell_length_c   19.69654980
_cell_angle_alpha   90.18531689
_cell_angle_beta   90.00000000
_cell_angle_gamma   90.00000000
_symmetry_Int_Tables_number   1
_chemical_formula_structural   Sc12CuRhSe4
_chemical_formula_sum   'Sc24 Cu2 Rh2 Se8'
_cell_volume   750.14948968
_cell_formula_units_Z   2
loop_
 _symmetry_equiv_pos_site_id
 _symmetry_equiv_pos_as_xyz
  1  'x, y, z'
loop_
 _atom_site_type_symbol
 _atom_site_label
 _atom_site_symmetry_multiplicity
 _atom_site_fract_x
 _atom_site_fract_y
 _atom_site_fract_z
 _atom_site_occupancy
  Sc  Sc0  1  0.250000  0.383417  0.988764  1
  Sc  Sc1  1  0.750000  0.616583  0.011236  1
  Sc  Sc2  1  0.750000  0.885865  0.512216  1
  Sc  Sc3  1  0.250000  0.114135  0.487784  1
  Sc  Sc4  1  0.250000  0.925004  0.645790  1
  Sc  Sc5  1  0.750000  0.074996  0.354210  1
  Sc  Sc6  1  0.750000  0.425858  0.854094  1
  Sc  Sc7  1  0.250000  0.574142  0.145906  1
  Sc  Sc8  1  0.250000  0.880830  0.029104  1
  Sc  Sc9  1  0.750000  0.119170  0.970896  1
  Sc  Sc10  1  0.750000  0.379343  0.469261  1
  Sc  Sc11  1  0.250000  0.620657  0.530739  1
  Sc  Sc12  1  0.250000  0.821295  0.390585  1
  Sc  Sc13  1  0.750000  0.178705  0.609415  1
  Sc  Sc14  1  0.750000  0.319752  0.109789  1
  Sc  Sc15  1  0.250000  0.680248  0.890211  1
  Sc  Sc16  1  0.250000  0.530382  0.337184  1
  Sc  Sc17  1  0.750000  0.469618  0.662816  1
  Sc  Sc18  1  0.750000  0.030799  0.160682  1
  Sc  Sc19  1  0.250000  0.969201  0.839318  1
  Sc  Sc20  1  0.250000  0.249959  0.236178  1
  Sc  Sc21  1  0.750000  0.750041  0.763822  1
  Sc  Sc22  1  0.750000  0.751520  0.264613  1
  Sc  Sc23  1  0.250000  0.248480  0.735387  1
  Cu  Cu24  1  0.750000  0.639379  0.423039  1
  Cu  Cu25  1  0.250000  0.360621  0.576961  1
  Rh  Rh26  1  0.250000  0.141790  0.076011  1
  Rh  Rh27  1  0.750000  0.858210  0.923989  1
  Se  Se28  1  0.250000  0.229313  0.872991  1
  Se  Se29  1  0.750000  0.770687  0.127009  1
  Se  Se30  1  0.750000  0.726947  0.625335  1
  Se  Se31  1  0.250000  0.273053  0.374665  1
  Se  Se32  1  0.250000  0.535831  0.764612  1
  Se  Se33  1  0.750000  0.464169  0.235388  1
  Se  Se34  1  0.750000  0.036030  0.734589  1
  Se  Se35  1  0.250000  0.963970  0.265411  1
