# generated using pymatgen
data_TbEr3Ga5Tc3
_symmetry_space_group_name_H-M   'P 1'
_cell_length_a   5.46630929
_cell_length_b   5.52344115
_cell_length_c   8.69322400
_cell_angle_alpha   90.00014328
_cell_angle_beta   89.99778150
_cell_angle_gamma   120.34645796
_symmetry_Int_Tables_number   1
_chemical_formula_structural   TbEr3Ga5Tc3
_chemical_formula_sum   'Tb1 Er3 Ga5 Tc3'
_cell_volume   226.51065667
_cell_formula_units_Z   1
loop_
 _symmetry_equiv_pos_site_id
 _symmetry_equiv_pos_as_xyz
  1  'x, y, z'
loop_
 _atom_site_type_symbol
 _atom_site_label
 _atom_site_symmetry_multiplicity
 _atom_site_fract_x
 _atom_site_fract_y
 _atom_site_fract_z
 _atom_site_occupancy
  Tb  Tb0  1  0.334356  0.667179  0.443207  1
  Er  Er1  1  0.662597  0.331298  0.552310  1
  Er  Er2  1  0.662629  0.331315  0.947764  1
  Er  Er3  1  0.334570  0.667286  0.056517  1
  Ga  Ga4  1  0.835433  0.164766  0.249824  1
  Ga  Ga5  1  0.835432  0.670669  0.249824  1
  Ga  Ga6  1  0.326471  0.163236  0.249919  1
  Ga  Ga7  1  0.189111  0.841249  0.750208  1
  Ga  Ga8  1  0.189111  0.347862  0.750208  1
  Tc  Tc9  1  0.975798  0.987898  0.510235  1
  Tc  Tc10  1  0.975554  0.987776  0.989939  1
  Tc  Tc11  1  0.678937  0.839468  0.750045  1
