# generated using pymatgen
data_AsRuI18
_symmetry_space_group_name_H-M   'P 1'
_cell_length_a   10.07029334
_cell_length_b   10.19899538
_cell_length_c   10.09377339
_cell_angle_alpha   93.44583089
_cell_angle_beta   93.62286387
_cell_angle_gamma   93.40000161
_symmetry_Int_Tables_number   1
_chemical_formula_structural   AsRuI18
_chemical_formula_sum   'As1 Ru1 I18'
_cell_volume   1030.68352481
_cell_formula_units_Z   1
loop_
 _symmetry_equiv_pos_site_id
 _symmetry_equiv_pos_as_xyz
  1  'x, y, z'
loop_
 _atom_site_type_symbol
 _atom_site_label
 _atom_site_symmetry_multiplicity
 _atom_site_fract_x
 _atom_site_fract_y
 _atom_site_fract_z
 _atom_site_occupancy
  As  As0  1  0.500000  0.500000  0.500000  1
  Ru  Ru1  1  0.000000  0.000000  0.000000  1
  I  I2  1  0.787307  0.479597  0.522885  1
  I  I3  1  0.522542  0.783425  0.479190  1
  I  I4  1  0.481773  0.524076  0.787220  1
  I  I5  1  0.212693  0.520403  0.477115  1
  I  I6  1  0.477458  0.216575  0.520810  1
  I  I7  1  0.518227  0.475924  0.212780  1
  I  I8  1  0.899071  0.363827  0.765147  1
  I  I9  1  0.764962  0.893163  0.364728  1
  I  I10  1  0.364461  0.763222  0.896246  1
  I  I11  1  0.100929  0.636173  0.234853  1
  I  I12  1  0.235038  0.106837  0.635272  1
  I  I13  1  0.635539  0.236778  0.103754  1
  I  I14  1  0.004613  0.963892  0.733223  1
  I  I15  1  0.734731  0.003512  0.969238  1
  I  I16  1  0.966629  0.733476  0.998842  1
  I  I17  1  0.995387  0.036108  0.266777  1
  I  I18  1  0.265269  0.996488  0.030762  1
  I  I19  1  0.033371  0.266524  0.001158  1
