# generated using pymatgen
data_Y3Zn6Au5
_symmetry_space_group_name_H-M   'P 1'
_cell_length_a   4.32073951
_cell_length_b   8.33147833
_cell_length_c   8.33147653
_cell_angle_alpha   72.49425439
_cell_angle_beta   74.97134759
_cell_angle_gamma   74.97135409
_symmetry_Int_Tables_number   1
_chemical_formula_structural   Y3Zn6Au5
_chemical_formula_sum   'Y3 Zn6 Au5'
_cell_volume   270.83977391
_cell_formula_units_Z   1
loop_
 _symmetry_equiv_pos_site_id
 _symmetry_equiv_pos_as_xyz
  1  'x, y, z'
loop_
 _atom_site_type_symbol
 _atom_site_label
 _atom_site_symmetry_multiplicity
 _atom_site_fract_x
 _atom_site_fract_y
 _atom_site_fract_z
 _atom_site_occupancy
  Y  Y0  1  0.704735  0.295265  0.295265  1
  Y  Y1  1  0.295265  0.704735  0.704735  1
  Y  Y2  1  0.000000  0.000000  0.000000  1
  Zn  Zn3  1  0.500000  0.677167  0.322833  1
  Zn  Zn4  1  0.500000  0.322833  0.677167  1
  Zn  Zn5  1  0.866394  0.422054  0.845158  1
  Zn  Zn6  1  0.133606  0.577946  0.154842  1
  Zn  Zn7  1  0.866394  0.845158  0.422054  1
  Zn  Zn8  1  0.133606  0.154842  0.577946  1
  Au  Au9  1  0.655672  0.702651  0.986006  1
  Au  Au10  1  0.344328  0.297349  0.013994  1
  Au  Au11  1  0.655672  0.986006  0.702651  1
  Au  Au12  1  0.344328  0.013994  0.297349  1
  Au  Au13  1  0.000000  0.500000  0.500000  1
