# generated using pymatgen
data_Y3LuCoAg
_symmetry_space_group_name_H-M   'P 1'
_cell_length_a   9.41083323
_cell_length_b   9.41083264
_cell_length_c   9.41083400
_cell_angle_alpha   60.00000224
_cell_angle_beta   60.00000431
_cell_angle_gamma   60.00000486
_symmetry_Int_Tables_number   1
_chemical_formula_structural   Y3LuCoAg
_chemical_formula_sum   'Y12 Lu4 Co4 Ag4'
_cell_volume   589.34456072
_cell_formula_units_Z   4
loop_
 _symmetry_equiv_pos_site_id
 _symmetry_equiv_pos_as_xyz
  1  'x, y, z'
loop_
 _atom_site_type_symbol
 _atom_site_label
 _atom_site_symmetry_multiplicity
 _atom_site_fract_x
 _atom_site_fract_y
 _atom_site_fract_z
 _atom_site_occupancy
  Y  Y0  1  0.810008  0.189992  0.189992  1
  Y  Y1  1  0.189992  0.810008  0.810008  1
  Y  Y2  1  0.189992  0.810008  0.189992  1
  Y  Y3  1  0.810008  0.189992  0.810008  1
  Y  Y4  1  0.189992  0.189992  0.810008  1
  Y  Y5  1  0.810008  0.810008  0.189992  1
  Y  Y6  1  0.939164  0.560836  0.560836  1
  Y  Y7  1  0.560836  0.939164  0.939164  1
  Y  Y8  1  0.560836  0.939164  0.560836  1
  Y  Y9  1  0.939164  0.560836  0.939164  1
  Y  Y10  1  0.560836  0.560836  0.939164  1
  Y  Y11  1  0.939164  0.939164  0.560836  1
  Lu  Lu12  1  0.346161  0.346161  0.346161  1
  Lu  Lu13  1  0.346161  0.346161  0.961517  1
  Lu  Lu14  1  0.346161  0.961517  0.346161  1
  Lu  Lu15  1  0.961517  0.346161  0.346161  1
  Co  Co16  1  0.143187  0.143187  0.143187  1
  Co  Co17  1  0.143187  0.143187  0.570438  1
  Co  Co18  1  0.143187  0.570438  0.143187  1
  Co  Co19  1  0.570438  0.143187  0.143187  1
  Ag  Ag20  1  0.580430  0.580430  0.580430  1
  Ag  Ag21  1  0.580430  0.580430  0.258711  1
  Ag  Ag22  1  0.580430  0.258711  0.580430  1
  Ag  Ag23  1  0.258711  0.580430  0.580430  1
