# generated using pymatgen
data_Sc3Sn3Pt2Rh
_symmetry_space_group_name_H-M   'P 1'
_cell_length_a   7.55116900
_cell_length_b   7.55116909
_cell_length_c   7.08359000
_cell_angle_alpha   90.00000000
_cell_angle_beta   90.00000000
_cell_angle_gamma   120.00000398
_symmetry_Int_Tables_number   1
_chemical_formula_structural   Sc3Sn3Pt2Rh
_chemical_formula_sum   'Sc6 Sn6 Pt4 Rh2'
_cell_volume   349.79404858
_cell_formula_units_Z   2
loop_
 _symmetry_equiv_pos_site_id
 _symmetry_equiv_pos_as_xyz
  1  'x, y, z'
loop_
 _atom_site_type_symbol
 _atom_site_label
 _atom_site_symmetry_multiplicity
 _atom_site_fract_x
 _atom_site_fract_y
 _atom_site_fract_z
 _atom_site_occupancy
  Sc  Sc0  1  0.398930  0.007801  0.250000  1
  Sc  Sc1  1  0.608871  0.601070  0.250000  1
  Sc  Sc2  1  0.992199  0.391129  0.250000  1
  Sc  Sc3  1  0.391129  0.992199  0.750000  1
  Sc  Sc4  1  0.601070  0.608871  0.750000  1
  Sc  Sc5  1  0.007801  0.398930  0.750000  1
  Sn  Sn6  1  0.271077  0.271077  0.000000  1
  Sn  Sn7  1  0.000000  0.728923  0.000000  1
  Sn  Sn8  1  0.000000  0.728923  0.500000  1
  Sn  Sn9  1  0.728923  0.000000  0.500000  1
  Sn  Sn10  1  0.271077  0.271077  0.500000  1
  Sn  Sn11  1  0.728923  0.000000  0.000000  1
  Pt  Pt12  1  0.666667  0.333333  0.985900  1
  Pt  Pt13  1  0.333333  0.666667  0.485900  1
  Pt  Pt14  1  0.333333  0.666667  0.014100  1
  Pt  Pt15  1  0.666667  0.333333  0.514100  1
  Rh  Rh16  1  0.000000  0.000000  0.750000  1
  Rh  Rh17  1  0.000000  0.000000  0.250000  1
