# generated using pymatgen
data_LuScNi12As7
_symmetry_space_group_name_H-M   'P 1'
_cell_length_a   9.34008600
_cell_length_b   9.34008708
_cell_length_c   3.77187500
_cell_angle_alpha   90.00000000
_cell_angle_beta   90.00000000
_cell_angle_gamma   119.99999616
_symmetry_Int_Tables_number   1
_chemical_formula_structural   LuScNi12As7
_chemical_formula_sum   'Lu1 Sc1 Ni12 As7'
_cell_volume   284.96383101
_cell_formula_units_Z   1
loop_
 _symmetry_equiv_pos_site_id
 _symmetry_equiv_pos_as_xyz
  1  'x, y, z'
loop_
 _atom_site_type_symbol
 _atom_site_label
 _atom_site_symmetry_multiplicity
 _atom_site_fract_x
 _atom_site_fract_y
 _atom_site_fract_z
 _atom_site_occupancy
  Lu  Lu0  1  0.000000  0.000000  0.500000  1
  Sc  Sc1  1  0.666667  0.333333  0.000000  1
  Ni  Ni2  1  0.485409  0.947926  0.000000  1
  Ni  Ni3  1  0.052074  0.537483  0.000000  1
  Ni  Ni4  1  0.462517  0.514591  0.000000  1
  Ni  Ni5  1  0.710939  0.092739  0.500000  1
  Ni  Ni6  1  0.907261  0.618200  0.500000  1
  Ni  Ni7  1  0.381800  0.289061  0.500000  1
  Ni  Ni8  1  0.774192  0.723739  0.000000  1
  Ni  Ni9  1  0.276261  0.050451  0.000000  1
  Ni  Ni10  1  0.949549  0.225808  0.000000  1
  Ni  Ni11  1  0.547366  0.759755  0.500000  1
  Ni  Ni12  1  0.240245  0.787611  0.500000  1
  Ni  Ni13  1  0.212389  0.452634  0.500000  1
  As  As14  1  0.333333  0.666667  0.000000  1
  As  As15  1  0.450424  0.082209  0.500000  1
  As  As16  1  0.917791  0.368215  0.500000  1
  As  As17  1  0.631785  0.549576  0.500000  1
  As  As18  1  0.737223  0.950138  0.000000  1
  As  As19  1  0.049862  0.787084  0.000000  1
  As  As20  1  0.212916  0.262777  0.000000  1
