# generated using pymatgen
data_ZrNb2(GaRu2)3
_symmetry_space_group_name_H-M   'P 1'
_cell_length_a   4.42267200
_cell_length_b   6.25861500
_cell_length_c   13.22400300
_cell_angle_alpha   90.00000000
_cell_angle_beta   90.00018167
_cell_angle_gamma   90.00000000
_symmetry_Int_Tables_number   1
_chemical_formula_structural   ZrNb2(GaRu2)3
_chemical_formula_sum   'Zr2 Nb4 Ga6 Ru12'
_cell_volume   366.03777568
_cell_formula_units_Z   2
loop_
 _symmetry_equiv_pos_site_id
 _symmetry_equiv_pos_as_xyz
  1  'x, y, z'
loop_
 _atom_site_type_symbol
 _atom_site_label
 _atom_site_symmetry_multiplicity
 _atom_site_fract_x
 _atom_site_fract_y
 _atom_site_fract_z
 _atom_site_occupancy
  Zr  Zr0  1  0.000076  0.000000  0.666039  1
  Zr  Zr1  1  0.500083  0.500001  0.833962  1
  Nb  Nb2  1  0.999990  0.000000  0.000206  1
  Nb  Nb3  1  0.499920  0.500001  0.166614  1
  Nb  Nb4  1  0.999927  0.000000  0.333385  1
  Nb  Nb5  1  0.499989  0.500001  0.499796  1
  Ga  Ga6  1  0.999989  0.500001  0.000811  1
  Ga  Ga7  1  0.499895  0.000000  0.167916  1
  Ga  Ga8  1  0.999903  0.500001  0.332082  1
  Ga  Ga9  1  0.499995  0.000000  0.499189  1
  Ga  Ga10  1  0.000092  0.500001  0.666902  1
  Ga  Ga11  1  0.500096  0.000000  0.833102  1
  Ru  Ru12  1  0.499989  0.245593  0.004573  1
  Ru  Ru13  1  0.499989  0.754407  0.004573  1
  Ru  Ru14  1  0.999933  0.251172  0.167660  1
  Ru  Ru15  1  0.999933  0.748827  0.167660  1
  Ru  Ru16  1  0.499940  0.248832  0.332337  1
  Ru  Ru17  1  0.499940  0.751170  0.332337  1
  Ru  Ru18  1  0.999988  0.254406  0.495427  1
  Ru  Ru19  1  0.999988  0.745593  0.495427  1
  Ru  Ru20  1  0.500080  0.253652  0.662799  1
  Ru  Ru21  1  0.500080  0.746350  0.662799  1
  Ru  Ru22  1  0.000089  0.246345  0.837203  1
  Ru  Ru23  1  0.000089  0.753654  0.837203  1
