# generated using pymatgen
data_ScMnNi4
_symmetry_space_group_name_H-M   'P 1'
_cell_length_a   4.79207775
_cell_length_b   4.79207782
_cell_length_c   4.79207800
_cell_angle_alpha   59.99999877
_cell_angle_beta   59.99999830
_cell_angle_gamma   59.99999535
_symmetry_Int_Tables_number   1
_chemical_formula_structural   ScMnNi4
_chemical_formula_sum   'Sc1 Mn1 Ni4'
_cell_volume   77.81379096
_cell_formula_units_Z   1
loop_
 _symmetry_equiv_pos_site_id
 _symmetry_equiv_pos_as_xyz
  1  'x, y, z'
loop_
 _atom_site_type_symbol
 _atom_site_label
 _atom_site_symmetry_multiplicity
 _atom_site_fract_x
 _atom_site_fract_y
 _atom_site_fract_z
 _atom_site_occupancy
  Sc  Sc0  1  0.000000  0.000000  0.000000  1
  Mn  Mn1  1  0.250000  0.250000  0.250000  1
  Ni  Ni2  1  0.624546  0.624546  0.126363  1
  Ni  Ni3  1  0.624546  0.126363  0.624546  1
  Ni  Ni4  1  0.126363  0.624546  0.624546  1
  Ni  Ni5  1  0.624546  0.624546  0.624546  1
