# generated using pymatgen
data_Dy12InCo4Rh
_symmetry_space_group_name_H-M   'P 1'
_cell_length_a   8.32080720
_cell_length_b   8.32080714
_cell_length_c   8.32080766
_cell_angle_alpha   110.87317730
_cell_angle_beta   110.57176070
_cell_angle_gamma   106.99685360
_symmetry_Int_Tables_number   1
_chemical_formula_structural   Dy12InCo4Rh
_chemical_formula_sum   'Dy12 In1 Co4 Rh1'
_cell_volume   442.86028591
_cell_formula_units_Z   1
loop_
 _symmetry_equiv_pos_site_id
 _symmetry_equiv_pos_as_xyz
  1  'x, y, z'
loop_
 _atom_site_type_symbol
 _atom_site_label
 _atom_site_symmetry_multiplicity
 _atom_site_fract_x
 _atom_site_fract_y
 _atom_site_fract_z
 _atom_site_occupancy
  Dy  Dy0  1  0.405939  0.211375  0.194565  1
  Dy  Dy1  1  0.594061  0.788625  0.805435  1
  Dy  Dy2  1  0.016811  0.211375  0.805435  1
  Dy  Dy3  1  0.983189  0.788625  0.194565  1
  Dy  Dy4  1  0.186274  0.292809  0.479083  1
  Dy  Dy5  1  0.813726  0.707191  0.520917  1
  Dy  Dy6  1  0.186274  0.707191  0.893464  1
  Dy  Dy7  1  0.813726  0.292809  0.106536  1
  Dy  Dy8  1  0.314347  0.619641  0.305294  1
  Dy  Dy9  1  0.685653  0.380359  0.694706  1
  Dy  Dy10  1  0.314347  0.009053  0.694706  1
  Dy  Dy11  1  0.685653  0.990947  0.305294  1
  In  In12  1  0.500000  0.500000  0.000000  1
  Co  Co13  1  0.380169  0.000000  0.380169  1
  Co  Co14  1  0.619831  0.000000  0.619831  1
  Co  Co15  1  0.111793  0.611793  0.500000  1
  Co  Co16  1  0.888207  0.388207  0.500000  1
  Rh  Rh17  1  0.000000  0.000000  0.000000  1
