# generated using pymatgen
data_Lu3Th(Ga3Ir)6
_symmetry_space_group_name_H-M   'P 1'
_cell_length_a   7.60028532
_cell_length_b   7.58938146
_cell_length_c   9.46441200
_cell_angle_alpha   90.00000000
_cell_angle_beta   90.00000000
_cell_angle_gamma   119.77323173
_symmetry_Int_Tables_number   1
_chemical_formula_structural   Lu3Th(Ga3Ir)6
_chemical_formula_sum   'Lu3 Th1 Ga18 Ir6'
_cell_volume   473.85821156
_cell_formula_units_Z   1
loop_
 _symmetry_equiv_pos_site_id
 _symmetry_equiv_pos_as_xyz
  1  'x, y, z'
loop_
 _atom_site_type_symbol
 _atom_site_label
 _atom_site_symmetry_multiplicity
 _atom_site_fract_x
 _atom_site_fract_y
 _atom_site_fract_z
 _atom_site_occupancy
  Lu  Lu0  1  0.996890  0.672173  0.250000  1
  Lu  Lu1  1  0.003579  0.327380  0.750000  1
  Lu  Lu2  1  0.670510  0.997636  0.250000  1
  Th  Th3  1  0.330131  0.003234  0.750000  1
  Ga  Ga4  1  0.127098  0.130545  0.250000  1
  Ga  Ga5  1  0.865899  0.867447  0.750000  1
  Ga  Ga6  1  0.997185  0.335536  0.081434  1
  Ga  Ga7  1  0.995171  0.657313  0.922577  1
  Ga  Ga8  1  0.995171  0.657313  0.577423  1
  Ga  Ga9  1  0.335470  0.998648  0.412228  1
  Ga  Ga10  1  0.997185  0.335536  0.418566  1
  Ga  Ga11  1  0.671370  0.000578  0.577370  1
  Ga  Ga12  1  0.671370  0.000578  0.922630  1
  Ga  Ga13  1  0.335470  0.998648  0.087772  1
  Ga  Ga14  1  0.331822  0.337454  0.563042  1
  Ga  Ga15  1  0.669826  0.670206  0.428310  1
  Ga  Ga16  1  0.669826  0.670206  0.071690  1
  Ga  Ga17  1  0.331822  0.337454  0.936958  1
  Ga  Ga18  1  0.337631  0.548587  0.250000  1
  Ga  Ga19  1  0.663896  0.457752  0.750000  1
  Ga  Ga20  1  0.549389  0.341419  0.250000  1
  Ga  Ga21  1  0.452574  0.656719  0.750000  1
  Ir  Ir22  1  0.668739  0.326011  0.999797  1
  Ir  Ir23  1  0.329089  0.673433  0.999978  1
  Ir  Ir24  1  0.329089  0.673433  0.500022  1
  Ir  Ir25  1  0.668739  0.326011  0.500203  1
  Ir  Ir26  1  0.002530  0.999376  0.999745  1
  Ir  Ir27  1  0.002530  0.999376  0.500255  1
