# generated using pymatgen
data_La10Os3Pd
_symmetry_space_group_name_H-M   'P 1'
_cell_length_a   9.19369973
_cell_length_b   9.14582967
_cell_length_c   7.48053039
_cell_angle_alpha   84.30393044
_cell_angle_beta   84.48841387
_cell_angle_gamma   43.30413240
_symmetry_Int_Tables_number   1
_chemical_formula_structural   La10Os3Pd
_chemical_formula_sum   'La10 Os3 Pd1'
_cell_volume   429.01630537
_cell_formula_units_Z   1
loop_
 _symmetry_equiv_pos_site_id
 _symmetry_equiv_pos_as_xyz
  1  'x, y, z'
loop_
 _atom_site_type_symbol
 _atom_site_label
 _atom_site_symmetry_multiplicity
 _atom_site_fract_x
 _atom_site_fract_y
 _atom_site_fract_z
 _atom_site_occupancy
  La  La0  1  0.028419  0.790745  0.903430  1
  La  La1  1  0.197266  0.987793  0.592738  1
  La  La2  1  0.989923  0.197810  0.091975  1
  La  La3  1  0.810905  0.009332  0.421500  1
  La  La4  1  0.351621  0.209520  0.813644  1
  La  La5  1  0.784762  0.646708  0.681555  1
  La  La6  1  0.642549  0.779947  0.179749  1
  La  La7  1  0.199473  0.366454  0.325241  1
  La  La8  1  0.576174  0.431450  0.740626  1
  La  La9  1  0.426016  0.576549  0.251463  1
  Os  Os10  1  0.174533  0.601402  0.576788  1
  Os  Os11  1  0.397671  0.822676  0.925302  1
  Os  Os12  1  0.822306  0.399241  0.421714  1
  Pd  Pd13  1  0.598382  0.180375  0.074276  1
