# generated using pymatgen
data_Re3TcO12
_symmetry_space_group_name_H-M   'P 1'
_cell_length_a   6.56110898
_cell_length_b   6.56110926
_cell_length_c   6.56110900
_cell_angle_alpha   109.47090342
_cell_angle_beta   109.47090295
_cell_angle_gamma   109.47091441
_symmetry_Int_Tables_number   1
_chemical_formula_structural   Re3TcO12
_chemical_formula_sum   'Re3 Tc1 O12'
_cell_volume   217.42772818
_cell_formula_units_Z   1
loop_
 _symmetry_equiv_pos_site_id
 _symmetry_equiv_pos_as_xyz
  1  'x, y, z'
loop_
 _atom_site_type_symbol
 _atom_site_label
 _atom_site_symmetry_multiplicity
 _atom_site_fract_x
 _atom_site_fract_y
 _atom_site_fract_z
 _atom_site_occupancy
  Re  Re0  1  0.000000  0.000000  0.500000  1
  Re  Re1  1  0.000000  0.500000  0.000000  1
  Re  Re2  1  0.500000  0.000000  0.000000  1
  Tc  Tc3  1  0.500000  0.500000  0.500000  1
  O  O4  1  0.744530  0.761660  0.500276  1
  O  O5  1  0.741437  0.241159  0.982598  1
  O  O6  1  0.258563  0.758841  0.017402  1
  O  O7  1  0.238340  0.499724  0.255470  1
  O  O8  1  0.255470  0.238340  0.499724  1
  O  O9  1  0.758841  0.017402  0.258563  1
  O  O10  1  0.982598  0.741437  0.241159  1
  O  O11  1  0.761660  0.500276  0.744530  1
  O  O12  1  0.017402  0.258563  0.758841  1
  O  O13  1  0.241159  0.982598  0.741437  1
  O  O14  1  0.500276  0.744530  0.761660  1
  O  O15  1  0.499724  0.255470  0.238340  1
