# generated using pymatgen
data_NaScMn3Ni9As7
_symmetry_space_group_name_H-M   'P 1'
_cell_length_a   9.47287300
_cell_length_b   9.47287354
_cell_length_c   3.73850700
_cell_angle_alpha   90.00000000
_cell_angle_beta   90.00000000
_cell_angle_gamma   120.00000161
_symmetry_Int_Tables_number   1
_chemical_formula_structural   NaScMn3Ni9As7
_chemical_formula_sum   'Na1 Sc1 Mn3 Ni9 As7'
_cell_volume   290.53086516
_cell_formula_units_Z   1
loop_
 _symmetry_equiv_pos_site_id
 _symmetry_equiv_pos_as_xyz
  1  'x, y, z'
loop_
 _atom_site_type_symbol
 _atom_site_label
 _atom_site_symmetry_multiplicity
 _atom_site_fract_x
 _atom_site_fract_y
 _atom_site_fract_z
 _atom_site_occupancy
  Na  Na0  1  0.333333  0.666667  0.000000  1
  Sc  Sc1  1  0.666667  0.333333  0.500000  1
  Mn  Mn2  1  0.222421  0.124344  0.500000  1
  Mn  Mn3  1  0.875656  0.098078  0.500000  1
  Mn  Mn4  1  0.901922  0.777579  0.500000  1
  Ni  Ni5  1  0.121749  0.280174  0.000000  1
  Ni  Ni6  1  0.719826  0.841576  0.000000  1
  Ni  Ni7  1  0.158424  0.878251  0.000000  1
  Ni  Ni8  1  0.433003  0.371837  0.000000  1
  Ni  Ni9  1  0.628163  0.061166  0.000000  1
  Ni  Ni10  1  0.938834  0.566997  0.000000  1
  Ni  Ni11  1  0.046851  0.430271  0.500000  1
  Ni  Ni12  1  0.569729  0.616580  0.500000  1
  Ni  Ni13  1  0.383420  0.953149  0.500000  1
  As  As14  1  0.293683  0.413186  0.500000  1
  As  As15  1  0.586814  0.880497  0.500000  1
  As  As16  1  0.119503  0.706317  0.500000  1
  As  As17  1  0.416605  0.121186  0.000000  1
  As  As18  1  0.878814  0.295419  0.000000  1
  As  As19  1  0.704581  0.583395  0.000000  1
  As  As20  1  0.000000  0.000000  0.000000  1
