# generated using pymatgen
data_Gd5Y(RuI3)2
_symmetry_space_group_name_H-M   'P 1'
_cell_length_a   4.29934200
_cell_length_b   9.23775728
_cell_length_c   12.43618100
_cell_angle_alpha   87.59908202
_cell_angle_beta   90.00000000
_cell_angle_gamma   90.00000000
_symmetry_Int_Tables_number   1
_chemical_formula_structural   Gd5Y(RuI3)2
_chemical_formula_sum   'Gd5 Y1 Ru2 I6'
_cell_volume   493.48523803
_cell_formula_units_Z   1
loop_
 _symmetry_equiv_pos_site_id
 _symmetry_equiv_pos_as_xyz
  1  'x, y, z'
loop_
 _atom_site_type_symbol
 _atom_site_label
 _atom_site_symmetry_multiplicity
 _atom_site_fract_x
 _atom_site_fract_y
 _atom_site_fract_z
 _atom_site_occupancy
  Gd  Gd0  1  0.250000  0.296816  0.384311  1
  Gd  Gd1  1  0.750000  0.703208  0.614424  1
  Gd  Gd2  1  0.250000  0.902524  0.389386  1
  Gd  Gd3  1  0.750000  0.099983  0.611011  1
  Gd  Gd4  1  0.250000  0.887797  0.824514  1
  Y  Y5  1  0.750000  0.110674  0.176234  1
  Ru  Ru6  1  0.250000  0.900922  0.615142  1
  Ru  Ru7  1  0.750000  0.099050  0.387204  1
  I  I8  1  0.250000  0.403468  0.630301  1
  I  I9  1  0.750000  0.599410  0.367485  1
  I  I10  1  0.250000  0.872851  0.116779  1
  I  I11  1  0.750000  0.130242  0.884965  1
  I  I12  1  0.250000  0.350769  0.126693  1
  I  I13  1  0.750000  0.642283  0.871552  1
