# generated using pymatgen
data_Ba8Zn3Si12Pt
_symmetry_space_group_name_H-M   'P 1'
_cell_length_a   12.49888490
_cell_length_b   10.94119328
_cell_length_c   8.51426700
_cell_angle_alpha   78.78878162
_cell_angle_beta   59.13783763
_cell_angle_gamma   42.02371486
_symmetry_Int_Tables_number   1
_chemical_formula_structural   Ba8Zn3Si12Pt
_chemical_formula_sum   'Ba8 Zn3 Si12 Pt1'
_cell_volume   632.81490199
_cell_formula_units_Z   1
loop_
 _symmetry_equiv_pos_site_id
 _symmetry_equiv_pos_as_xyz
  1  'x, y, z'
loop_
 _atom_site_type_symbol
 _atom_site_label
 _atom_site_symmetry_multiplicity
 _atom_site_fract_x
 _atom_site_fract_y
 _atom_site_fract_z
 _atom_site_occupancy
  Ba  Ba0  1  0.119892  0.126662  0.382442  1
  Ba  Ba1  1  0.875813  0.880131  0.119198  1
  Ba  Ba2  1  0.118348  0.125558  0.876508  1
  Ba  Ba3  1  0.382077  0.370445  0.120221  1
  Ba  Ba4  1  0.621911  0.620771  0.378809  1
  Ba  Ba5  1  0.378806  0.378613  0.621391  1
  Ba  Ba6  1  0.629990  0.621655  0.872576  1
  Ba  Ba7  1  0.872743  0.876352  0.629521  1
  Zn  Zn8  1  0.083511  0.416777  0.081808  1
  Zn  Zn9  1  0.167150  0.832777  0.167826  1
  Zn  Zn10  1  0.416534  0.082724  0.418992  1
  Si  Si11  1  0.338734  0.658605  0.822227  1
  Si  Si12  1  0.166257  0.838381  0.664637  1
  Si  Si13  1  0.823342  0.180433  0.337528  1
  Si  Si14  1  0.665162  0.330529  0.166049  1
  Si  Si15  1  0.914884  0.589152  0.421698  1
  Si  Si16  1  0.080141  0.420720  0.585058  1
  Si  Si17  1  0.418350  0.076583  0.916657  1
  Si  Si18  1  0.915084  0.585276  0.915129  1
  Si  Si19  1  0.668008  0.331242  0.668207  1
  Si  Si20  1  0.338626  0.660804  0.338730  1
  Si  Si21  1  0.585952  0.915543  0.584273  1
  Si  Si22  1  0.586582  0.912637  0.076980  1
  Pt  Pt23  1  0.832103  0.167634  0.833533  1
