# generated using pymatgen
data_Nd6RhBr10
_symmetry_space_group_name_H-M   'P 1'
_cell_length_a   7.65710739
_cell_length_b   9.52069078
_cell_length_c   9.52077930
_cell_angle_alpha   108.46572790
_cell_angle_beta   97.01950739
_cell_angle_gamma   105.95392584
_symmetry_Int_Tables_number   1
_chemical_formula_structural   Nd6RhBr10
_chemical_formula_sum   'Nd6 Rh1 Br10'
_cell_volume   616.09125879
_cell_formula_units_Z   1
loop_
 _symmetry_equiv_pos_site_id
 _symmetry_equiv_pos_as_xyz
  1  'x, y, z'
loop_
 _atom_site_type_symbol
 _atom_site_label
 _atom_site_symmetry_multiplicity
 _atom_site_fract_x
 _atom_site_fract_y
 _atom_site_fract_z
 _atom_site_occupancy
  Nd  Nd0  1  0.631773  0.860198  0.815612  1
  Nd  Nd1  1  0.368227  0.139802  0.184388  1
  Nd  Nd2  1  0.971745  0.302323  0.096366  1
  Nd  Nd3  1  0.028255  0.697677  0.903634  1
  Nd  Nd4  1  0.127095  0.047017  0.753065  1
  Nd  Nd5  1  0.872905  0.952983  0.246935  1
  Rh  Rh6  1  0.000000  0.000000  0.000000  1
  Br  Br7  1  0.642838  0.543042  0.727085  1
  Br  Br8  1  0.357162  0.456958  0.272915  1
  Br  Br9  1  0.547586  0.175240  0.916078  1
  Br  Br10  1  0.452414  0.824760  0.083922  1
  Br  Br11  1  0.207479  0.741180  0.650341  1
  Br  Br12  1  0.792521  0.258820  0.349659  1
  Br  Br13  1  0.086211  0.368482  0.828499  1
  Br  Br14  1  0.913789  0.631518  0.171501  1
  Br  Br15  1  0.748821  0.916519  0.544103  1
  Br  Br16  1  0.251179  0.083481  0.455897  1
