# generated using pymatgen
data_Tm4Ir3RhO14
_symmetry_space_group_name_H-M   'P 1'
_cell_length_a   7.18357435
_cell_length_b   7.18357369
_cell_length_c   7.18357453
_cell_angle_alpha   60.07254431
_cell_angle_beta   60.07254430
_cell_angle_gamma   60.07254405
_symmetry_Int_Tables_number   1
_chemical_formula_structural   Tm4Ir3RhO14
_chemical_formula_sum   'Tm4 Ir3 Rh1 O14'
_cell_volume   262.55490896
_cell_formula_units_Z   1
loop_
 _symmetry_equiv_pos_site_id
 _symmetry_equiv_pos_as_xyz
  1  'x, y, z'
loop_
 _atom_site_type_symbol
 _atom_site_label
 _atom_site_symmetry_multiplicity
 _atom_site_fract_x
 _atom_site_fract_y
 _atom_site_fract_z
 _atom_site_occupancy
  Tm  Tm0  1  0.625000  0.125000  0.125000  1
  Tm  Tm1  1  0.125000  0.625000  0.125000  1
  Tm  Tm2  1  0.125000  0.125000  0.625000  1
  Tm  Tm3  1  0.125000  0.125000  0.125000  1
  Ir  Ir4  1  0.125000  0.625000  0.625000  1
  Ir  Ir5  1  0.625000  0.125000  0.625000  1
  Ir  Ir6  1  0.625000  0.625000  0.125000  1
  Rh  Rh7  1  0.625000  0.625000  0.625000  1
  O  O8  1  0.716112  0.716112  0.281616  1
  O  O9  1  0.287170  0.287170  0.716537  1
  O  O10  1  0.716112  0.281616  0.716112  1
  O  O11  1  0.287170  0.716537  0.287170  1
  O  O12  1  0.281616  0.716112  0.716112  1
  O  O13  1  0.716537  0.287170  0.287170  1
  O  O14  1  0.533888  0.533888  0.968384  1
  O  O15  1  0.962830  0.962830  0.533463  1
  O  O16  1  0.533888  0.968384  0.533888  1
  O  O17  1  0.962830  0.533463  0.962830  1
  O  O18  1  0.968384  0.533888  0.533888  1
  O  O19  1  0.533463  0.962830  0.962830  1
  O  O20  1  0.249450  0.249450  0.249450  1
  O  O21  1  0.000550  0.000550  0.000550  1
