# generated using pymatgen
data_Pr3Nd7(InSi2)2
_symmetry_space_group_name_H-M   'P 1'
_cell_length_a   7.92268628
_cell_length_b   7.92268602
_cell_length_c   9.28301791
_cell_angle_alpha   115.27402904
_cell_angle_beta   115.21600644
_cell_angle_gamma   90.03224693
_symmetry_Int_Tables_number   1
_chemical_formula_structural   Pr3Nd7(InSi2)2
_chemical_formula_sum   'Pr3 Nd7 In2 Si4'
_cell_volume   464.69183981
_cell_formula_units_Z   1
loop_
 _symmetry_equiv_pos_site_id
 _symmetry_equiv_pos_as_xyz
  1  'x, y, z'
loop_
 _atom_site_type_symbol
 _atom_site_label
 _atom_site_symmetry_multiplicity
 _atom_site_fract_x
 _atom_site_fract_y
 _atom_site_fract_z
 _atom_site_occupancy
  Pr  Pr0  1  0.684646  0.537842  0.722488  1
  Pr  Pr1  1  0.184205  0.684380  0.722600  1
  Pr  Pr2  1  0.538220  0.038395  0.722600  1
  Nd  Nd3  1  0.500304  0.500363  0.000834  1
  Nd  Nd4  1  0.000470  0.000530  0.000834  1
  Nd  Nd5  1  0.960980  0.814686  0.275666  1
  Nd  Nd6  1  0.314675  0.460975  0.275650  1
  Nd  Nd7  1  0.814599  0.314474  0.275609  1
  Nd  Nd8  1  0.461134  0.961009  0.275609  1
  Nd  Nd9  1  0.038790  0.185667  0.724457  1
  In  In10  1  0.749697  0.750039  0.498275  1
  In  In11  1  0.248236  0.248578  0.498275  1
  Si  Si12  1  0.616990  0.885293  0.002282  1
  Si  Si13  1  0.384409  0.117229  0.001637  1
  Si  Si14  1  0.885672  0.384620  0.001592  1
  Si  Si15  1  0.116972  0.615921  0.001592  1
