# generated using pymatgen
data_K2AuBrF6
_symmetry_space_group_name_H-M   'P 1'
_cell_length_a   6.56872843
_cell_length_b   6.58259024
_cell_length_c   9.54068749
_cell_angle_alpha   89.86782439
_cell_angle_beta   97.06359706
_cell_angle_gamma   90.01586354
_symmetry_Int_Tables_number   1
_chemical_formula_structural   K2AuBrF6
_chemical_formula_sum   'K4 Au2 Br2 F12'
_cell_volume   409.40005096
_cell_formula_units_Z   2
loop_
 _symmetry_equiv_pos_site_id
 _symmetry_equiv_pos_as_xyz
  1  'x, y, z'
loop_
 _atom_site_type_symbol
 _atom_site_label
 _atom_site_symmetry_multiplicity
 _atom_site_fract_x
 _atom_site_fract_y
 _atom_site_fract_z
 _atom_site_occupancy
  K  K0  1  0.030451  0.455508  0.230834  1
  K  K1  1  0.469366  0.955653  0.268542  1
  K  K2  1  0.530633  0.044347  0.731458  1
  K  K3  1  0.969550  0.544491  0.769166  1
  Au  Au4  1  0.500001  0.500000  0.000000  1
  Au  Au5  1  0.000000  0.000000  0.500000  1
  Br  Br6  1  0.000000  0.000000  0.000000  1
  Br  Br7  1  0.500001  0.500000  0.500000  1
  F  F8  1  0.384283  0.315843  0.132366  1
  F  F9  1  0.151667  0.739190  0.047416  1
  F  F10  1  0.838377  0.137596  0.339399  1
  F  F11  1  0.661305  0.637289  0.160244  1
  F  F12  1  0.347375  0.240663  0.452077  1
  F  F13  1  0.116027  0.817075  0.367820  1
  F  F14  1  0.883973  0.182925  0.632180  1
  F  F15  1  0.652627  0.759337  0.547923  1
  F  F16  1  0.338695  0.362712  0.839756  1
  F  F17  1  0.161622  0.862403  0.660601  1
  F  F18  1  0.848333  0.260809  0.952584  1
  F  F19  1  0.615718  0.684156  0.867634  1
