# generated using pymatgen
data_Th8Be(Si4Pd)3
_symmetry_space_group_name_H-M   'P 1'
_cell_length_a   8.19451700
_cell_length_b   8.19451698
_cell_length_c   8.51345700
_cell_angle_alpha   90.00000000
_cell_angle_beta   90.00000000
_cell_angle_gamma   120.00001221
_symmetry_Int_Tables_number   1
_chemical_formula_structural   Th8Be(Si4Pd)3
_chemical_formula_sum   'Th8 Be1 Si12 Pd3'
_cell_volume   495.08896320
_cell_formula_units_Z   1
loop_
 _symmetry_equiv_pos_site_id
 _symmetry_equiv_pos_as_xyz
  1  'x, y, z'
loop_
 _atom_site_type_symbol
 _atom_site_label
 _atom_site_symmetry_multiplicity
 _atom_site_fract_x
 _atom_site_fract_y
 _atom_site_fract_z
 _atom_site_occupancy
  Th  Th0  1  0.498081  0.996160  0.242846  1
  Th  Th1  1  0.497747  0.995495  0.757086  1
  Th  Th2  1  0.003840  0.501919  0.242846  1
  Th  Th3  1  0.004505  0.502253  0.757086  1
  Th  Th4  1  0.498081  0.501919  0.242846  1
  Th  Th5  1  0.497747  0.502253  0.757086  1
  Th  Th6  1  0.000000  0.000000  0.248116  1
  Th  Th7  1  0.000000  0.000000  0.752485  1
  Be  Be8  1  0.333333  0.666667  0.999317  1
  Si  Si9  1  0.175809  0.351618  0.000055  1
  Si  Si10  1  0.836548  0.673096  0.000588  1
  Si  Si11  1  0.648382  0.824191  0.000055  1
  Si  Si12  1  0.834424  0.668848  0.501340  1
  Si  Si13  1  0.326904  0.163452  0.000588  1
  Si  Si14  1  0.165592  0.331186  0.498943  1
  Si  Si15  1  0.175809  0.824191  0.000055  1
  Si  Si16  1  0.331152  0.165576  0.501340  1
  Si  Si17  1  0.836548  0.163452  0.000588  1
  Si  Si18  1  0.668814  0.834408  0.498943  1
  Si  Si19  1  0.834424  0.165576  0.501340  1
  Si  Si20  1  0.165592  0.834408  0.498943  1
  Pd  Pd21  1  0.666667  0.333333  0.997718  1
  Pd  Pd22  1  0.666667  0.333333  0.499807  1
  Pd  Pd23  1  0.333333  0.666667  0.499981  1
