# generated using pymatgen
data_Er5In5Rh
_symmetry_space_group_name_H-M   'P 1'
_cell_length_a   3.58715000
_cell_length_b   8.31137916
_cell_length_c   18.44188216
_cell_angle_alpha   90.95242436
_cell_angle_beta   90.00000000
_cell_angle_gamma   90.00000000
_symmetry_Int_Tables_number   1
_chemical_formula_structural   Er5In5Rh
_chemical_formula_sum   'Er10 In10 Rh2'
_cell_volume   549.75333105
_cell_formula_units_Z   2
loop_
 _symmetry_equiv_pos_site_id
 _symmetry_equiv_pos_as_xyz
  1  'x, y, z'
loop_
 _atom_site_type_symbol
 _atom_site_label
 _atom_site_symmetry_multiplicity
 _atom_site_fract_x
 _atom_site_fract_y
 _atom_site_fract_z
 _atom_site_occupancy
  Er  Er0  1  0.000000  0.114072  0.417379  1
  Er  Er1  1  0.000000  0.885928  0.582621  1
  Er  Er2  1  0.000000  0.374866  0.926912  1
  Er  Er3  1  0.000000  0.625134  0.073088  1
  Er  Er4  1  0.000000  0.200465  0.224293  1
  Er  Er5  1  0.000000  0.799535  0.775707  1
  Er  Er6  1  0.000000  0.233515  0.711599  1
  Er  Er7  1  0.000000  0.766485  0.288401  1
  Er  Er8  1  0.000000  0.000000  0.000000  1
  Er  Er9  1  0.000000  0.500000  0.500000  1
  In  In10  1  0.500000  0.410427  0.354705  1
  In  In11  1  0.500000  0.589573  0.645295  1
  In  In12  1  0.500000  0.084345  0.851688  1
  In  In13  1  0.500000  0.915655  0.148312  1
  In  In14  1  0.500000  0.287579  0.071241  1
  In  In15  1  0.500000  0.712421  0.928759  1
  In  In16  1  0.500000  0.206915  0.564913  1
  In  In17  1  0.500000  0.793085  0.435087  1
  In  In18  1  0.500000  0.481436  0.800241  1
  In  In19  1  0.500000  0.518564  0.199759  1
  Rh  Rh20  1  0.500000  0.020595  0.307846  1
  Rh  Rh21  1  0.500000  0.979405  0.692154  1
