# generated using pymatgen
data_HoEr(Hf4Sn3)2
_symmetry_space_group_name_H-M   'P 1'
_cell_length_a   8.60672216
_cell_length_b   8.60672230
_cell_length_c   5.83968100
_cell_angle_alpha   90.00000000
_cell_angle_beta   90.00000000
_cell_angle_gamma   121.42883765
_symmetry_Int_Tables_number   1
_chemical_formula_structural   HoEr(Hf4Sn3)2
_chemical_formula_sum   'Ho1 Er1 Hf8 Sn6'
_cell_volume   369.11404410
_cell_formula_units_Z   1
loop_
 _symmetry_equiv_pos_site_id
 _symmetry_equiv_pos_as_xyz
  1  'x, y, z'
loop_
 _atom_site_type_symbol
 _atom_site_label
 _atom_site_symmetry_multiplicity
 _atom_site_fract_x
 _atom_site_fract_y
 _atom_site_fract_z
 _atom_site_occupancy
  Ho  Ho0  1  0.771901  0.771901  0.750000  1
  Er  Er1  1  0.228508  0.228508  0.250000  1
  Hf  Hf2  1  0.251589  0.000274  0.750000  1
  Hf  Hf3  1  0.000274  0.251589  0.750000  1
  Hf  Hf4  1  0.748150  0.999848  0.250000  1
  Hf  Hf5  1  0.999848  0.748150  0.250000  1
  Hf  Hf6  1  0.665560  0.334418  0.000045  1
  Hf  Hf7  1  0.334418  0.665560  0.000045  1
  Hf  Hf8  1  0.334418  0.665560  0.499955  1
  Hf  Hf9  1  0.665560  0.334418  0.499955  1
  Sn  Sn10  1  0.391147  0.391147  0.750000  1
  Sn  Sn11  1  0.606243  0.003515  0.750000  1
  Sn  Sn12  1  0.003515  0.606243  0.750000  1
  Sn  Sn13  1  0.608692  0.608692  0.250000  1
  Sn  Sn14  1  0.393392  0.996783  0.250000  1
  Sn  Sn15  1  0.996783  0.393392  0.250000  1
