# generated using pymatgen
data_Cs3RbCdCl6
_symmetry_space_group_name_H-M   'P 1'
_cell_length_a   9.35962689
_cell_length_b   9.35962672
_cell_length_c   9.35962650
_cell_angle_alpha   90.60948810
_cell_angle_beta   90.60948670
_cell_angle_gamma   90.60948865
_symmetry_Int_Tables_number   1
_chemical_formula_structural   Cs3RbCdCl6
_chemical_formula_sum   'Cs6 Rb2 Cd2 Cl12'
_cell_volume   819.78758118
_cell_formula_units_Z   2
loop_
 _symmetry_equiv_pos_site_id
 _symmetry_equiv_pos_as_xyz
  1  'x, y, z'
loop_
 _atom_site_type_symbol
 _atom_site_label
 _atom_site_symmetry_multiplicity
 _atom_site_fract_x
 _atom_site_fract_y
 _atom_site_fract_z
 _atom_site_occupancy
  Cs  Cs0  1  0.373463  0.126537  0.750000  1
  Cs  Cs1  1  0.126537  0.750000  0.373463  1
  Cs  Cs2  1  0.750000  0.373463  0.126537  1
  Cs  Cs3  1  0.626537  0.873463  0.250000  1
  Cs  Cs4  1  0.250000  0.626537  0.873463  1
  Cs  Cs5  1  0.873463  0.250000  0.626537  1
  Rb  Rb6  1  0.250000  0.250000  0.250000  1
  Rb  Rb7  1  0.750000  0.750000  0.750000  1
  Cd  Cd8  1  0.000000  0.000000  0.000000  1
  Cd  Cd9  1  0.500000  0.500000  0.500000  1
  Cl  Cl10  1  0.948731  0.071803  0.275189  1
  Cl  Cl11  1  0.071803  0.275189  0.948731  1
  Cl  Cl12  1  0.275189  0.948731  0.071803  1
  Cl  Cl13  1  0.571803  0.448731  0.775189  1
  Cl  Cl14  1  0.775189  0.571803  0.448731  1
  Cl  Cl15  1  0.448731  0.775189  0.571803  1
  Cl  Cl16  1  0.224811  0.428197  0.551269  1
  Cl  Cl17  1  0.428197  0.551269  0.224811  1
  Cl  Cl18  1  0.551269  0.224811  0.428197  1
  Cl  Cl19  1  0.928197  0.724811  0.051269  1
  Cl  Cl20  1  0.051269  0.928197  0.724811  1
  Cl  Cl21  1  0.724811  0.051269  0.928197  1
