# generated using pymatgen
data_AcLaFeCoSi2
_symmetry_space_group_name_H-M   'P 1'
_cell_length_a   4.05868900
_cell_length_b   4.06520700
_cell_length_c   7.57781000
_cell_angle_alpha   90.00000000
_cell_angle_beta   90.00000000
_cell_angle_gamma   90.00000000
_symmetry_Int_Tables_number   1
_chemical_formula_structural   AcLaFeCoSi2
_chemical_formula_sum   'Ac1 La1 Fe1 Co1 Si2'
_cell_volume   125.02940117
_cell_formula_units_Z   1
loop_
 _symmetry_equiv_pos_site_id
 _symmetry_equiv_pos_as_xyz
  1  'x, y, z'
loop_
 _atom_site_type_symbol
 _atom_site_label
 _atom_site_symmetry_multiplicity
 _atom_site_fract_x
 _atom_site_fract_y
 _atom_site_fract_z
 _atom_site_occupancy
  Ac  Ac0  1  0.000000  0.500000  0.318510  1
  La  La1  1  0.500000  0.000000  0.699584  1
  Fe  Fe2  1  0.000000  0.000000  0.995524  1
  Co  Co3  1  0.500000  0.500000  0.995990  1
  Si  Si4  1  0.000000  0.500000  0.844826  1
  Si  Si5  1  0.500000  0.000000  0.145566  1
