# generated using pymatgen
data_Tb3Ni5(BIr)2
_symmetry_space_group_name_H-M   'P 1'
_cell_length_a   5.09101604
_cell_length_b   5.19514290
_cell_length_c   14.71925628
_cell_angle_alpha   89.97757940
_cell_angle_beta   90.00965956
_cell_angle_gamma   119.33115126
_symmetry_Int_Tables_number   1
_chemical_formula_structural   Tb3Ni5(BIr)2
_chemical_formula_sum   'Tb6 Ni10 B4 Ir4'
_cell_volume   339.39558720
_cell_formula_units_Z   2
loop_
 _symmetry_equiv_pos_site_id
 _symmetry_equiv_pos_as_xyz
  1  'x, y, z'
loop_
 _atom_site_type_symbol
 _atom_site_label
 _atom_site_symmetry_multiplicity
 _atom_site_fract_x
 _atom_site_fract_y
 _atom_site_fract_z
 _atom_site_occupancy
  Tb  Tb0  1  0.332741  0.666147  0.532182  1
  Tb  Tb1  1  0.667176  0.334274  0.032226  1
  Tb  Tb2  1  0.664313  0.328807  0.469299  1
  Tb  Tb3  1  0.335686  0.671663  0.969365  1
  Tb  Tb4  1  0.332719  0.665694  0.751599  1
  Tb  Tb5  1  0.667175  0.334441  0.251522  1
  Ni  Ni6  1  0.669331  0.833177  0.152344  1
  Ni  Ni7  1  0.164128  0.832954  0.152167  1
  Ni  Ni8  1  0.835396  0.166969  0.652384  1
  Ni  Ni9  1  0.330620  0.167574  0.652437  1
  Ni  Ni10  1  0.835165  0.669750  0.846404  1
  Ni  Ni11  1  0.834009  0.163490  0.848225  1
  Ni  Ni12  1  0.329684  0.163809  0.847929  1
  Ni  Ni13  1  0.670491  0.835733  0.348033  1
  Ni  Ni14  1  0.166306  0.835968  0.347845  1
  Ni  Ni15  1  0.164539  0.329377  0.346175  1
  B  B16  1  0.337492  0.674141  0.251434  1
  B  B17  1  0.662881  0.325748  0.751590  1
  B  B18  1  0.997602  0.994796  0.251228  1
  B  B19  1  0.002049  0.004638  0.751369  1
  Ir  Ir20  1  0.996228  0.992330  0.996644  1
  Ir  Ir21  1  0.004063  0.008230  0.496594  1
  Ir  Ir22  1  0.164974  0.329632  0.150483  1
  Ir  Ir23  1  0.835128  0.670650  0.650521  1
