# generated using pymatgen
data_TbY4Zr3(As3Rh4)4
_symmetry_space_group_name_H-M   'P 1'
_cell_length_a   13.33272100
_cell_length_b   13.33272117
_cell_length_c   4.01382700
_cell_angle_alpha   90.00000000
_cell_angle_beta   90.00000000
_cell_angle_gamma   120.00000205
_symmetry_Int_Tables_number   1
_chemical_formula_structural   TbY4Zr3(As3Rh4)4
_chemical_formula_sum   'Tb1 Y4 Zr3 As12 Rh16'
_cell_volume   617.91232920
_cell_formula_units_Z   1
loop_
 _symmetry_equiv_pos_site_id
 _symmetry_equiv_pos_as_xyz
  1  'x, y, z'
loop_
 _atom_site_type_symbol
 _atom_site_label
 _atom_site_symmetry_multiplicity
 _atom_site_fract_x
 _atom_site_fract_y
 _atom_site_fract_z
 _atom_site_occupancy
  Tb  Tb0  1  0.333333  0.666667  0.000000  1
  Y  Y1  1  0.187449  0.187498  0.500000  1
  Y  Y2  1  0.812502  0.999951  0.500000  1
  Y  Y3  1  0.000049  0.812551  0.500000  1
  Y  Y4  1  0.666667  0.333333  0.000000  1
  Zr  Zr5  1  0.556346  0.556381  0.000000  1
  Zr  Zr6  1  0.443619  0.999965  0.000000  1
  Zr  Zr7  1  0.000035  0.443654  0.000000  1
  As  As8  1  0.824644  0.824646  0.000000  1
  As  As9  1  0.175354  0.999998  0.000000  1
  As  As10  1  0.000002  0.175356  0.000000  1
  As  As11  1  0.170420  0.485518  0.500000  1
  As  As12  1  0.514482  0.684902  0.500000  1
  As  As13  1  0.315098  0.829580  0.500000  1
  As  As14  1  0.684900  0.514377  0.500000  1
  As  As15  1  0.829477  0.315100  0.500000  1
  As  As16  1  0.485623  0.170523  0.500000  1
  As  As17  1  0.354367  0.354369  0.000000  1
  As  As18  1  0.645631  0.999998  0.000000  1
  As  As19  1  0.000002  0.645633  0.000000  1
  Rh  Rh20  1  0.719149  0.719160  0.500000  1
  Rh  Rh21  1  0.280840  0.999988  0.500000  1
  Rh  Rh22  1  0.000012  0.280851  0.500000  1
  Rh  Rh23  1  0.176452  0.373924  0.000000  1
  Rh  Rh24  1  0.626076  0.802528  0.000000  1
  Rh  Rh25  1  0.197472  0.823548  0.000000  1
  Rh  Rh26  1  0.802563  0.626133  0.000000  1
  Rh  Rh27  1  0.823570  0.197437  0.000000  1
  Rh  Rh28  1  0.373867  0.176430  0.000000  1
  Rh  Rh29  1  0.354877  0.482430  0.500000  1
  Rh  Rh30  1  0.517570  0.872448  0.500000  1
  Rh  Rh31  1  0.127552  0.645123  0.500000  1
  Rh  Rh32  1  0.872393  0.517500  0.500000  1
  Rh  Rh33  1  0.645108  0.127607  0.500000  1
  Rh  Rh34  1  0.482500  0.354892  0.500000  1
  Rh  Rh35  1  0.000000  0.000000  0.000000  1
