# generated using pymatgen
data_Pr2YSi4(PPd10)2
_symmetry_space_group_name_H-M   'P 1'
_cell_length_a   8.75504132
_cell_length_b   8.75504108
_cell_length_c   8.75023200
_cell_angle_alpha   60.01816878
_cell_angle_beta   60.01816969
_cell_angle_gamma   59.96366541
_symmetry_Int_Tables_number   1
_chemical_formula_structural   Pr2YSi4(PPd10)2
_chemical_formula_sum   'Pr2 Y1 Si4 P2 Pd20'
_cell_volume   474.26459972
_cell_formula_units_Z   1
loop_
 _symmetry_equiv_pos_site_id
 _symmetry_equiv_pos_as_xyz
  1  'x, y, z'
loop_
 _atom_site_type_symbol
 _atom_site_label
 _atom_site_symmetry_multiplicity
 _atom_site_fract_x
 _atom_site_fract_y
 _atom_site_fract_z
 _atom_site_occupancy
  Pr  Pr0  1  0.250000  0.250000  0.250000  1
  Pr  Pr1  1  0.750000  0.750000  0.750000  1
  Y  Y2  1  0.000000  0.000000  0.000000  1
  Si  Si3  1  0.735205  0.264795  0.264795  1
  Si  Si4  1  0.264795  0.735205  0.735205  1
  Si  Si5  1  0.264795  0.735205  0.264795  1
  Si  Si6  1  0.735205  0.264795  0.735205  1
  P  P7  1  0.264050  0.264050  0.735950  1
  P  P8  1  0.735950  0.735950  0.264050  1
  Pd  Pd9  1  0.385667  0.385667  0.387335  1
  Pd  Pd10  1  0.614333  0.614333  0.612665  1
  Pd  Pd11  1  0.385667  0.385667  0.841333  1
  Pd  Pd12  1  0.387335  0.841333  0.385667  1
  Pd  Pd13  1  0.614333  0.614333  0.158667  1
  Pd  Pd14  1  0.612665  0.158667  0.614333  1
  Pd  Pd15  1  0.841333  0.387335  0.385667  1
  Pd  Pd16  1  0.158667  0.612665  0.614333  1
  Pd  Pd17  1  0.345710  0.001427  0.998573  1
  Pd  Pd18  1  0.654290  0.998573  0.001427  1
  Pd  Pd19  1  0.001427  0.345710  0.654290  1
  Pd  Pd20  1  0.998573  0.654290  0.345710  1
  Pd  Pd21  1  0.001427  0.345710  0.998573  1
  Pd  Pd22  1  0.654290  0.998573  0.345710  1
  Pd  Pd23  1  0.998573  0.654290  0.001427  1
  Pd  Pd24  1  0.345710  0.001427  0.654290  1
  Pd  Pd25  1  0.000000  0.000000  0.346967  1
  Pd  Pd26  1  0.000000  0.000000  0.653033  1
  Pd  Pd27  1  0.653033  0.346967  0.000000  1
  Pd  Pd28  1  0.346967  0.653033  0.000000  1
