# generated using pymatgen
data_Sc8Tc(B8Rh)3
_symmetry_space_group_name_H-M   'P 1'
_cell_length_a   3.48334900
_cell_length_b   8.90693320
_cell_length_c   11.21131021
_cell_angle_alpha   90.15505026
_cell_angle_beta   90.00000000
_cell_angle_gamma   90.00000000
_symmetry_Int_Tables_number   1
_chemical_formula_structural   Sc8Tc(B8Rh)3
_chemical_formula_sum   'Sc8 Tc1 B24 Rh3'
_cell_volume   347.84035304
_cell_formula_units_Z   1
loop_
 _symmetry_equiv_pos_site_id
 _symmetry_equiv_pos_as_xyz
  1  'x, y, z'
loop_
 _atom_site_type_symbol
 _atom_site_label
 _atom_site_symmetry_multiplicity
 _atom_site_fract_x
 _atom_site_fract_y
 _atom_site_fract_z
 _atom_site_occupancy
  Sc  Sc0  1  0.000000  0.946931  0.373005  1
  Sc  Sc1  1  0.000000  0.055230  0.626390  1
  Sc  Sc2  1  0.000000  0.555649  0.873906  1
  Sc  Sc3  1  0.000000  0.181374  0.917717  1
  Sc  Sc4  1  0.000000  0.822124  0.086171  1
  Sc  Sc5  1  0.000000  0.681572  0.585640  1
  Sc  Sc6  1  0.000000  0.315383  0.411074  1
  Sc  Sc7  1  0.000000  0.442631  0.125655  1
  Tc  Tc8  1  0.000000  0.139210  0.179743  1
  B  B9  1  0.500000  0.369204  0.819049  1
  B  B10  1  0.500000  0.980004  0.212842  1
  B  B11  1  0.500000  0.554245  0.436279  1
  B  B12  1  0.500000  0.296115  0.236929  1
  B  B13  1  0.500000  0.204350  0.737498  1
  B  B14  1  0.500000  0.101705  0.473086  1
  B  B15  1  0.500000  0.795372  0.263895  1
  B  B16  1  0.500000  0.445619  0.563769  1
  B  B17  1  0.500000  0.246790  0.578060  1
  B  B18  1  0.500000  0.480723  0.287339  1
  B  B19  1  0.500000  0.703810  0.762364  1
  B  B20  1  0.500000  0.752942  0.421936  1
  B  B21  1  0.500000  0.519704  0.712753  1
  B  B22  1  0.500000  0.897645  0.528106  1
  B  B23  1  0.500000  0.053665  0.064149  1
  B  B24  1  0.500000  0.603242  0.027372  1
  B  B25  1  0.500000  0.747060  0.921891  1
  B  B26  1  0.500000  0.019799  0.787167  1
  B  B27  1  0.500000  0.398453  0.971678  1
  B  B28  1  0.500000  0.946038  0.935578  1
  B  B29  1  0.500000  0.631116  0.181299  1
  B  B30  1  0.500000  0.252889  0.078800  1
  B  B31  1  0.500000  0.868272  0.680812  1
  B  B32  1  0.500000  0.131161  0.318108  1
  Rh  Rh33  1  0.000000  0.359173  0.679958  1
  Rh  Rh34  1  0.000000  0.860040  0.820388  1
  Rh  Rh35  1  0.000000  0.640762  0.319594  1
