# generated using pymatgen
data_Dy3Ho5Au4
_symmetry_space_group_name_H-M   'P 1'
_cell_length_a   4.93470200
_cell_length_b   7.12165529
_cell_length_c   8.95382937
_cell_angle_alpha   90.03280011
_cell_angle_beta   90.00000000
_cell_angle_gamma   90.00000000
_symmetry_Int_Tables_number   1
_chemical_formula_structural   Dy3Ho5Au4
_chemical_formula_sum   'Dy3 Ho5 Au4'
_cell_volume   314.66658199
_cell_formula_units_Z   1
loop_
 _symmetry_equiv_pos_site_id
 _symmetry_equiv_pos_as_xyz
  1  'x, y, z'
loop_
 _atom_site_type_symbol
 _atom_site_label
 _atom_site_symmetry_multiplicity
 _atom_site_fract_x
 _atom_site_fract_y
 _atom_site_fract_z
 _atom_site_occupancy
  Dy  Dy0  1  0.250000  0.486742  0.176683  1
  Dy  Dy1  1  0.750000  0.513195  0.823128  1
  Dy  Dy2  1  0.250000  0.986782  0.323346  1
  Ho  Ho3  1  0.750000  0.013312  0.676597  1
  Ho  Ho4  1  0.750000  0.648705  0.419703  1
  Ho  Ho5  1  0.250000  0.351248  0.580466  1
  Ho  Ho6  1  0.750000  0.148506  0.080321  1
  Ho  Ho7  1  0.250000  0.851499  0.919283  1
  Au  Au8  1  0.250000  0.256722  0.900570  1
  Au  Au9  1  0.750000  0.743162  0.099337  1
  Au  Au10  1  0.250000  0.757189  0.599423  1
  Au  Au11  1  0.750000  0.242938  0.401142  1
