# generated using pymatgen
data_Sm2Mn2Co10P7
_symmetry_space_group_name_H-M   'P 1'
_cell_length_a   9.10162787
_cell_length_b   9.09153059
_cell_length_c   3.62950300
_cell_angle_alpha   90.00000000
_cell_angle_beta   90.00000000
_cell_angle_gamma   120.12777923
_symmetry_Int_Tables_number   1
_chemical_formula_structural   Sm2Mn2Co10P7
_chemical_formula_sum   'Sm2 Mn2 Co10 P7'
_cell_volume   259.76057486
_cell_formula_units_Z   1
loop_
 _symmetry_equiv_pos_site_id
 _symmetry_equiv_pos_as_xyz
  1  'x, y, z'
loop_
 _atom_site_type_symbol
 _atom_site_label
 _atom_site_symmetry_multiplicity
 _atom_site_fract_x
 _atom_site_fract_y
 _atom_site_fract_z
 _atom_site_occupancy
  Sm  Sm0  1  0.666302  0.333662  0.000000  1
  Sm  Sm1  1  0.334778  0.668572  0.500000  1
  Mn  Mn2  1  0.900149  0.119325  0.000000  1
  Mn  Mn3  1  0.881464  0.780089  0.000000  1
  Co  Co4  1  0.427440  0.059107  0.500000  1
  Co  Co5  1  0.940917  0.370410  0.500000  1
  Co  Co6  1  0.629186  0.570113  0.500000  1
  Co  Co7  1  0.155718  0.272848  0.500000  1
  Co  Co8  1  0.727309  0.883794  0.500000  1
  Co  Co9  1  0.118636  0.845545  0.500000  1
  Co  Co10  1  0.384385  0.432565  0.000000  1
  Co  Co11  1  0.564897  0.951034  0.000000  1
  Co  Co12  1  0.050703  0.616089  0.000000  1
  Co  Co13  1  0.218161  0.094016  0.000000  1
  P  P14  1  0.113623  0.404518  0.000000  1
  P  P15  1  0.599510  0.709960  0.000000  1
  P  P16  1  0.289160  0.890014  0.000000  1
  P  P17  1  0.001156  0.999576  0.500000  1
  P  P18  1  0.406757  0.297895  0.500000  1
  P  P19  1  0.698843  0.109229  0.500000  1
  P  P20  1  0.890904  0.591639  0.500000  1
