# generated using pymatgen
data_Tm12Re3Si16Os5
_symmetry_space_group_name_H-M   'P 1'
_cell_length_a   10.41571858
_cell_length_b   10.42398593
_cell_length_c   14.06975175
_cell_angle_alpha   55.19623900
_cell_angle_beta   55.20675478
_cell_angle_gamma   31.12803503
_symmetry_Int_Tables_number   1
_chemical_formula_structural   Tm12Re3Si16Os5
_chemical_formula_sum   'Tm12 Re3 Si16 Os5'
_cell_volume   636.20491504
_cell_formula_units_Z   1
loop_
 _symmetry_equiv_pos_site_id
 _symmetry_equiv_pos_as_xyz
  1  'x, y, z'
loop_
 _atom_site_type_symbol
 _atom_site_label
 _atom_site_symmetry_multiplicity
 _atom_site_fract_x
 _atom_site_fract_y
 _atom_site_fract_z
 _atom_site_occupancy
  Tm  Tm0  1  0.749219  0.489041  0.051837  1
  Tm  Tm1  1  0.539598  0.307730  0.152436  1
  Tm  Tm2  1  0.512555  0.249674  0.449238  1
  Tm  Tm3  1  0.460448  0.692112  0.847749  1
  Tm  Tm4  1  0.292390  0.041972  0.136776  1
  Tm  Tm5  1  0.959547  0.707079  0.362705  1
  Tm  Tm6  1  0.707263  0.958242  0.863735  1
  Tm  Tm7  1  0.041052  0.292040  0.637039  1
  Tm  Tm8  1  0.252034  0.509864  0.948165  1
  Tm  Tm9  1  0.487267  0.750277  0.550275  1
  Tm  Tm10  1  0.309232  0.534052  0.655608  1
  Tm  Tm11  1  0.690481  0.466557  0.343659  1
  Re  Re12  1  0.081579  0.868413  0.424111  1
  Re  Re13  1  0.860948  0.089798  0.922645  1
  Re  Re14  1  0.918413  0.131447  0.575011  1
  Si  Si15  1  0.905664  0.096361  0.249010  1
  Si  Si16  1  0.094442  0.903379  0.750704  1
  Si  Si17  1  0.342804  0.657439  0.250656  1
  Si  Si18  1  0.657126  0.341882  0.748962  1
  Si  Si19  1  0.999222  0.229899  0.877641  1
  Si  Si20  1  0.769433  0.996787  0.624680  1
  Si  Si21  1  0.001390  0.771164  0.120726  1
  Si  Si22  1  0.229873  0.003910  0.375153  1
  Si  Si23  1  0.600294  0.051429  0.077125  1
  Si  Si24  1  0.950424  0.398284  0.422693  1
  Si  Si25  1  0.398192  0.949989  0.924122  1
  Si  Si26  1  0.049657  0.601154  0.577836  1
  Si  Si27  1  0.387408  0.157276  0.379765  1
  Si  Si28  1  0.844050  0.613982  0.119067  1
  Si  Si29  1  0.611928  0.842815  0.620387  1
  Si  Si30  1  0.156119  0.386083  0.881121  1
  Os  Os31  1  0.637357  0.831708  0.283591  1
  Os  Os32  1  0.829961  0.636105  0.784893  1
  Os  Os33  1  0.362543  0.167533  0.717293  1
  Os  Os34  1  0.169373  0.364220  0.215891  1
  Os  Os35  1  0.140712  0.910306  0.077692  1
