# generated using pymatgen
data_CeNd2Er(NiAs)4
_symmetry_space_group_name_H-M   'P 1'
_cell_length_a   4.10199400
_cell_length_b   4.10199399
_cell_length_c   15.87886200
_cell_angle_alpha   90.00000000
_cell_angle_beta   90.00000000
_cell_angle_gamma   120.00000007
_symmetry_Int_Tables_number   1
_chemical_formula_structural   CeNd2Er(NiAs)4
_chemical_formula_sum   'Ce1 Nd2 Er1 Ni4 As4'
_cell_volume   231.38758129
_cell_formula_units_Z   1
loop_
 _symmetry_equiv_pos_site_id
 _symmetry_equiv_pos_as_xyz
  1  'x, y, z'
loop_
 _atom_site_type_symbol
 _atom_site_label
 _atom_site_symmetry_multiplicity
 _atom_site_fract_x
 _atom_site_fract_y
 _atom_site_fract_z
 _atom_site_occupancy
  Ce  Ce0  1  0.000000  0.000000  0.500000  1
  Nd  Nd1  1  0.000000  0.000000  0.244910  1
  Nd  Nd2  1  0.000000  0.000000  0.755090  1
  Er  Er3  1  0.000000  0.000000  0.000000  1
  Ni  Ni4  1  0.333333  0.666667  0.120353  1
  Ni  Ni5  1  0.666667  0.333333  0.879647  1
  Ni  Ni6  1  0.666667  0.333333  0.621515  1
  Ni  Ni7  1  0.333333  0.666667  0.378485  1
  As  As8  1  0.333333  0.666667  0.626013  1
  As  As9  1  0.666667  0.333333  0.373987  1
  As  As10  1  0.666667  0.333333  0.115767  1
  As  As11  1  0.333333  0.666667  0.884233  1
