# generated using pymatgen
data_Sr19MgAu16
_symmetry_space_group_name_H-M   'P 1'
_cell_length_a   8.26229281
_cell_length_b   8.50034679
_cell_length_c   16.08806600
_cell_angle_alpha   90.00000000
_cell_angle_beta   90.00000000
_cell_angle_gamma   90.04450364
_symmetry_Int_Tables_number   1
_chemical_formula_structural   Sr19MgAu16
_chemical_formula_sum   'Sr19 Mg1 Au16'
_cell_volume   1129.90240834
_cell_formula_units_Z   1
loop_
 _symmetry_equiv_pos_site_id
 _symmetry_equiv_pos_as_xyz
  1  'x, y, z'
loop_
 _atom_site_type_symbol
 _atom_site_label
 _atom_site_symmetry_multiplicity
 _atom_site_fract_x
 _atom_site_fract_y
 _atom_site_fract_z
 _atom_site_occupancy
  Sr  Sr0  1  0.005368  0.186682  0.396624  1
  Sr  Sr1  1  0.852482  0.662736  0.373336  1
  Sr  Sr2  1  0.498875  0.328036  0.103532  1
  Sr  Sr3  1  0.155952  0.330951  0.619494  1
  Sr  Sr4  1  0.335753  0.828008  0.374918  1
  Sr  Sr5  1  0.155952  0.330951  0.880506  1
  Sr  Sr6  1  0.335753  0.828008  0.125082  1
  Sr  Sr7  1  0.498875  0.328036  0.396468  1
  Sr  Sr8  1  0.819776  0.509797  0.750000  1
  Sr  Sr9  1  0.998769  0.818138  0.905012  1
  Sr  Sr10  1  0.998769  0.818138  0.594988  1
  Sr  Sr11  1  0.499736  0.680157  0.595338  1
  Sr  Sr12  1  0.657293  0.166014  0.617679  1
  Sr  Sr13  1  0.320312  0.988003  0.750000  1
  Sr  Sr14  1  0.657293  0.166014  0.882321  1
  Sr  Sr15  1  0.674632  0.012483  0.250000  1
  Sr  Sr16  1  0.852482  0.662736  0.126664  1
  Sr  Sr17  1  0.499736  0.680157  0.904662  1
  Sr  Sr18  1  0.005368  0.186682  0.103376  1
  Mg  Mg19  1  0.194037  0.479371  0.250000  1
  Au  Au20  1  0.803417  0.368910  0.250000  1
  Au  Au21  1  0.452036  0.386729  0.750000  1
  Au  Au22  1  0.702741  0.868874  0.750000  1
  Au  Au23  1  0.818536  0.475820  0.543947  1
  Au  Au24  1  0.681292  0.969984  0.048609  1
  Au  Au25  1  0.818536  0.475820  0.956053  1
  Au  Au26  1  0.182213  0.527222  0.453846  1
  Au  Au27  1  0.182213  0.527222  0.046154  1
  Au  Au28  1  0.204490  0.627156  0.750000  1
  Au  Au29  1  0.293534  0.148213  0.250000  1
  Au  Au30  1  0.532532  0.602359  0.250000  1
  Au  Au31  1  0.041617  0.905297  0.250000  1
  Au  Au32  1  0.318930  0.023270  0.955785  1
  Au  Au33  1  0.950477  0.108771  0.750000  1
  Au  Au34  1  0.681292  0.969984  0.451391  1
  Au  Au35  1  0.318930  0.023270  0.544215  1
