# generated using pymatgen
data_Er8Mn2B24RuRh
_symmetry_space_group_name_H-M   'P 1'
_cell_length_a   3.58822800
_cell_length_b   9.06834274
_cell_length_c   11.43831899
_cell_angle_alpha   90.09313391
_cell_angle_beta   90.00000000
_cell_angle_gamma   90.00000000
_symmetry_Int_Tables_number   1
_chemical_formula_structural   Er8Mn2B24RuRh
_chemical_formula_sum   'Er8 Mn2 B24 Ru1 Rh1'
_cell_volume   372.19418795
_cell_formula_units_Z   1
loop_
 _symmetry_equiv_pos_site_id
 _symmetry_equiv_pos_as_xyz
  1  'x, y, z'
loop_
 _atom_site_type_symbol
 _atom_site_label
 _atom_site_symmetry_multiplicity
 _atom_site_fract_x
 _atom_site_fract_y
 _atom_site_fract_z
 _atom_site_occupancy
  Er  Er0  1  0.500000  0.317860  0.412967  1
  Er  Er1  1  0.500000  0.680003  0.590945  1
  Er  Er2  1  0.500000  0.172820  0.915547  1
  Er  Er3  1  0.500000  0.829074  0.081255  1
  Er  Er4  1  0.500000  0.438983  0.127626  1
  Er  Er5  1  0.500000  0.559201  0.871803  1
  Er  Er6  1  0.500000  0.053515  0.630352  1
  Er  Er7  1  0.500000  0.947511  0.369440  1
  Mn  Mn8  1  0.500000  0.138978  0.180072  1
  Mn  Mn9  1  0.500000  0.861131  0.820213  1
  B  B10  1  0.000000  0.106762  0.470384  1
  B  B11  1  0.000000  0.892234  0.529253  1
  B  B12  1  0.000000  0.392566  0.970605  1
  B  B13  1  0.000000  0.607719  0.029787  1
  B  B14  1  0.000000  0.132101  0.313525  1
  B  B15  1  0.000000  0.867701  0.686911  1
  B  B16  1  0.000000  0.367888  0.815135  1
  B  B17  1  0.000000  0.632778  0.183125  1
  B  B18  1  0.000000  0.053909  0.067585  1
  B  B19  1  0.000000  0.946243  0.932160  1
  B  B20  1  0.000000  0.446314  0.566752  1
  B  B21  1  0.000000  0.553654  0.433785  1
  B  B22  1  0.000000  0.482043  0.287195  1
  B  B23  1  0.000000  0.517643  0.712799  1
  B  B24  1  0.000000  0.014594  0.788449  1
  B  B25  1  0.000000  0.985801  0.211229  1
  B  B26  1  0.000000  0.245870  0.081782  1
  B  B27  1  0.000000  0.754135  0.918309  1
  B  B28  1  0.000000  0.250744  0.580304  1
  B  B29  1  0.000000  0.749930  0.421001  1
  B  B30  1  0.000000  0.290470  0.233732  1
  B  B31  1  0.000000  0.709506  0.766798  1
  B  B32  1  0.000000  0.207482  0.734756  1
  B  B33  1  0.000000  0.793009  0.264462  1
  Ru  Ru34  1  0.500000  0.361535  0.678979  1
  Rh  Rh35  1  0.500000  0.638293  0.320978  1
