# generated using pymatgen
data_TbDy11Tc3Ru
_symmetry_space_group_name_H-M   'P 1'
_cell_length_a   6.27171103
_cell_length_b   7.39353677
_cell_length_c   9.18708300
_cell_angle_alpha   90.00000000
_cell_angle_beta   90.00000000
_cell_angle_gamma   89.95501728
_symmetry_Int_Tables_number   1
_chemical_formula_structural   TbDy11Tc3Ru
_chemical_formula_sum   'Tb1 Dy11 Tc3 Ru1'
_cell_volume   426.00606579
_cell_formula_units_Z   1
loop_
 _symmetry_equiv_pos_site_id
 _symmetry_equiv_pos_as_xyz
  1  'x, y, z'
loop_
 _atom_site_type_symbol
 _atom_site_label
 _atom_site_symmetry_multiplicity
 _atom_site_fract_x
 _atom_site_fract_y
 _atom_site_fract_z
 _atom_site_occupancy
  Tb  Tb0  1  0.874187  0.542270  0.250000  1
  Dy  Dy1  1  0.335019  0.676617  0.063570  1
  Dy  Dy2  1  0.163098  0.175473  0.437562  1
  Dy  Dy3  1  0.662548  0.324128  0.562634  1
  Dy  Dy4  1  0.836138  0.824448  0.937625  1
  Dy  Dy5  1  0.662548  0.324128  0.937366  1
  Dy  Dy6  1  0.836138  0.824448  0.562375  1
  Dy  Dy7  1  0.335019  0.676617  0.436430  1
  Dy  Dy8  1  0.163098  0.175473  0.062438  1
  Dy  Dy9  1  0.625059  0.040809  0.250000  1
  Dy  Dy10  1  0.131177  0.457181  0.750000  1
  Dy  Dy11  1  0.373236  0.955851  0.750000  1
  Tc  Tc12  1  0.038599  0.886212  0.250000  1
  Tc  Tc13  1  0.462726  0.388133  0.250000  1
  Tc  Tc14  1  0.962374  0.113899  0.750000  1
  Ru  Ru15  1  0.539040  0.614315  0.750000  1
