# generated using pymatgen
data_Y8NbPd24
_symmetry_space_group_name_H-M   'P 1'
_cell_length_a   8.41383400
_cell_length_b   8.41383400
_cell_length_c   8.41383400
_cell_angle_alpha   90.00000000
_cell_angle_beta   90.00000000
_cell_angle_gamma   90.00000000
_symmetry_Int_Tables_number   1
_chemical_formula_structural   Y8NbPd24
_chemical_formula_sum   'Y8 Nb1 Pd24'
_cell_volume   595.63720653
_cell_formula_units_Z   1
loop_
 _symmetry_equiv_pos_site_id
 _symmetry_equiv_pos_as_xyz
  1  'x, y, z'
loop_
 _atom_site_type_symbol
 _atom_site_label
 _atom_site_symmetry_multiplicity
 _atom_site_fract_x
 _atom_site_fract_y
 _atom_site_fract_z
 _atom_site_occupancy
  Y  Y0  1  0.253242  0.253242  0.746758  1
  Y  Y1  1  0.253242  0.746758  0.253242  1
  Y  Y2  1  0.746758  0.253242  0.253242  1
  Y  Y3  1  0.746758  0.746758  0.746758  1
  Y  Y4  1  0.746758  0.746758  0.253242  1
  Y  Y5  1  0.746758  0.253242  0.746758  1
  Y  Y6  1  0.253242  0.746758  0.746758  1
  Y  Y7  1  0.253242  0.253242  0.253242  1
  Nb  Nb8  1  0.000000  0.000000  0.000000  1
  Pd  Pd9  1  0.500000  0.500000  0.746311  1
  Pd  Pd10  1  0.500000  0.253689  0.500000  1
  Pd  Pd11  1  0.253689  0.500000  0.500000  1
  Pd  Pd12  1  0.500000  0.500000  0.253689  1
  Pd  Pd13  1  0.500000  0.746311  0.500000  1
  Pd  Pd14  1  0.746311  0.500000  0.500000  1
  Pd  Pd15  1  0.000000  0.000000  0.697139  1
  Pd  Pd16  1  0.000000  0.302861  0.000000  1
  Pd  Pd17  1  0.302861  0.000000  0.000000  1
  Pd  Pd18  1  0.000000  0.000000  0.302861  1
  Pd  Pd19  1  0.000000  0.697139  0.000000  1
  Pd  Pd20  1  0.697139  0.000000  0.000000  1
  Pd  Pd21  1  0.000000  0.500000  0.736316  1
  Pd  Pd22  1  0.500000  0.263684  0.000000  1
  Pd  Pd23  1  0.263684  0.000000  0.500000  1
  Pd  Pd24  1  0.000000  0.263684  0.500000  1
  Pd  Pd25  1  0.500000  0.000000  0.736316  1
  Pd  Pd26  1  0.263684  0.500000  0.000000  1
  Pd  Pd27  1  0.000000  0.500000  0.263684  1
  Pd  Pd28  1  0.500000  0.736316  0.000000  1
  Pd  Pd29  1  0.000000  0.736316  0.500000  1
  Pd  Pd30  1  0.500000  0.000000  0.263684  1
  Pd  Pd31  1  0.736316  0.000000  0.500000  1
  Pd  Pd32  1  0.736316  0.500000  0.000000  1
