# generated using pymatgen
data_Tb4Dy2RhI10
_symmetry_space_group_name_H-M   'P 1'
_cell_length_a   7.76507207
_cell_length_b   9.74339895
_cell_length_c   9.76602005
_cell_angle_alpha   107.03479008
_cell_angle_beta   104.47798124
_cell_angle_gamma   96.64795930
_symmetry_Int_Tables_number   1
_chemical_formula_structural   Tb4Dy2RhI10
_chemical_formula_sum   'Tb4 Dy2 Rh1 I10'
_cell_volume   669.61996309
_cell_formula_units_Z   1
loop_
 _symmetry_equiv_pos_site_id
 _symmetry_equiv_pos_as_xyz
  1  'x, y, z'
loop_
 _atom_site_type_symbol
 _atom_site_label
 _atom_site_symmetry_multiplicity
 _atom_site_fract_x
 _atom_site_fract_y
 _atom_site_fract_z
 _atom_site_occupancy
  Tb  Tb0  1  0.029951  0.913932  0.714053  1
  Tb  Tb1  1  0.970049  0.086068  0.285947  1
  Tb  Tb2  1  0.115119  0.763584  0.042995  1
  Tb  Tb3  1  0.884881  0.236416  0.957005  1
  Dy  Dy4  1  0.653945  0.834074  0.876447  1
  Dy  Dy5  1  0.346055  0.165926  0.123553  1
  Rh  Rh6  1  0.000000  0.000000  0.000000  1
  I  I7  1  0.647980  0.728610  0.550330  1
  I  I8  1  0.352020  0.271390  0.449670  1
  I  I9  1  0.224803  0.655236  0.745889  1
  I  I10  1  0.775197  0.344764  0.254111  1
  I  I11  1  0.455368  0.091591  0.817755  1
  I  I12  1  0.544632  0.908409  0.182245  1
  I  I13  1  0.253992  0.460070  0.086123  1
  I  I14  1  0.746008  0.539930  0.913877  1
  I  I15  1  0.086333  0.820336  0.372691  1
  I  I16  1  0.913667  0.179664  0.627309  1
