# generated using pymatgen
data_Ho6Si12Pt7Rh
_symmetry_space_group_name_H-M   'P 1'
_cell_length_a   4.24309800
_cell_length_b   8.54979197
_cell_length_c   12.86668615
_cell_angle_alpha   80.05595930
_cell_angle_beta   90.00000000
_cell_angle_gamma   90.00000000
_symmetry_Int_Tables_number   1
_chemical_formula_structural   Ho6Si12Pt7Rh
_chemical_formula_sum   'Ho6 Si12 Pt7 Rh1'
_cell_volume   459.76018076
_cell_formula_units_Z   1
loop_
 _symmetry_equiv_pos_site_id
 _symmetry_equiv_pos_as_xyz
  1  'x, y, z'
loop_
 _atom_site_type_symbol
 _atom_site_label
 _atom_site_symmetry_multiplicity
 _atom_site_fract_x
 _atom_site_fract_y
 _atom_site_fract_z
 _atom_site_occupancy
  Ho  Ho0  1  0.250000  0.765821  0.439458  1
  Ho  Ho1  1  0.250000  0.584896  0.185276  1
  Ho  Ho2  1  0.750000  0.234172  0.560864  1
  Ho  Ho3  1  0.750000  0.415923  0.814726  1
  Ho  Ho4  1  0.750000  0.926470  0.815953  1
  Ho  Ho5  1  0.250000  0.072213  0.183510  1
  Si  Si6  1  0.750000  0.588216  0.571011  1
  Si  Si7  1  0.750000  0.132530  0.007511  1
  Si  Si8  1  0.750000  0.872271  0.574104  1
  Si  Si9  1  0.250000  0.696146  0.713339  1
  Si  Si10  1  0.750000  0.304244  0.282315  1
  Si  Si11  1  0.750000  0.806850  0.276423  1
  Si  Si12  1  0.250000  0.871281  0.995041  1
  Si  Si13  1  0.250000  0.193716  0.724230  1
  Si  Si14  1  0.250000  0.378039  0.003208  1
  Si  Si15  1  0.250000  0.127176  0.426909  1
  Si  Si16  1  0.750000  0.616564  0.000386  1
  Si  Si17  1  0.250000  0.411928  0.429621  1
  Pt  Pt18  1  0.250000  0.971498  0.623306  1
  Pt  Pt19  1  0.750000  0.850230  0.087722  1
  Pt  Pt20  1  0.750000  0.029941  0.375805  1
  Pt  Pt21  1  0.250000  0.648697  0.899549  1
  Pt  Pt22  1  0.250000  0.149015  0.911960  1
  Pt  Pt23  1  0.750000  0.532474  0.375033  1
  Pt  Pt24  1  0.250000  0.466991  0.623294  1
  Rh  Rh25  1  0.750000  0.352699  0.099449  1
