# generated using pymatgen
data_HfSc3GaFe6Si
_symmetry_space_group_name_H-M   'P 1'
_cell_length_a   4.99928850
_cell_length_b   4.99928835
_cell_length_c   7.97262925
_cell_angle_alpha   89.99361180
_cell_angle_beta   90.00638777
_cell_angle_gamma   119.98118668
_symmetry_Int_Tables_number   1
_chemical_formula_structural   HfSc3GaFe6Si
_chemical_formula_sum   'Hf1 Sc3 Ga1 Fe6 Si1'
_cell_volume   172.59606279
_cell_formula_units_Z   1
loop_
 _symmetry_equiv_pos_site_id
 _symmetry_equiv_pos_as_xyz
  1  'x, y, z'
loop_
 _atom_site_type_symbol
 _atom_site_label
 _atom_site_symmetry_multiplicity
 _atom_site_fract_x
 _atom_site_fract_y
 _atom_site_fract_z
 _atom_site_occupancy
  Hf  Hf0  1  0.666642  0.333358  0.933839  1
  Sc  Sc1  1  0.666634  0.333366  0.562134  1
  Sc  Sc2  1  0.333264  0.666736  0.436548  1
  Sc  Sc3  1  0.333299  0.666701  0.066469  1
  Ga  Ga4  1  0.000148  0.999852  0.500524  1
  Fe  Fe5  1  0.172759  0.345394  0.756681  1
  Fe  Fe6  1  0.172530  0.827470  0.756644  1
  Fe  Fe7  1  0.654606  0.827241  0.756681  1
  Fe  Fe8  1  0.827573  0.655008  0.243535  1
  Fe  Fe9  1  0.827421  0.172579  0.243580  1
  Fe  Fe10  1  0.344992  0.172427  0.243535  1
  Si  Si11  1  0.000134  0.999866  0.999830  1
