# generated using pymatgen
data_SrTb6Al3Co2
_symmetry_space_group_name_H-M   'P 1'
_cell_length_a   9.88632800
_cell_length_b   9.88632783
_cell_length_c   3.66153600
_cell_angle_alpha   90.00000000
_cell_angle_beta   90.00000000
_cell_angle_gamma   120.00000057
_symmetry_Int_Tables_number   1
_chemical_formula_structural   SrTb6Al3Co2
_chemical_formula_sum   'Sr1 Tb6 Al3 Co2'
_cell_volume   309.93024538
_cell_formula_units_Z   1
loop_
 _symmetry_equiv_pos_site_id
 _symmetry_equiv_pos_as_xyz
  1  'x, y, z'
loop_
 _atom_site_type_symbol
 _atom_site_label
 _atom_site_symmetry_multiplicity
 _atom_site_fract_x
 _atom_site_fract_y
 _atom_site_fract_z
 _atom_site_occupancy
  Sr  Sr0  1  0.000000  0.000000  0.000000  1
  Tb  Tb1  1  0.213576  0.427153  0.500000  1
  Tb  Tb2  1  0.786424  0.213576  0.500000  1
  Tb  Tb3  1  0.427153  0.213576  0.500000  1
  Tb  Tb4  1  0.572847  0.786424  0.500000  1
  Tb  Tb5  1  0.213576  0.786424  0.500000  1
  Tb  Tb6  1  0.786424  0.572847  0.500000  1
  Al  Al7  1  0.500000  0.000000  0.000000  1
  Al  Al8  1  0.500000  0.500000  0.000000  1
  Al  Al9  1  0.000000  0.500000  0.000000  1
  Co  Co10  1  0.333333  0.666667  0.000000  1
  Co  Co11  1  0.666667  0.333333  0.000000  1
