# generated using pymatgen
data_Zn(IrCl4)3
_symmetry_space_group_name_H-M   'P 1'
_cell_length_a   11.82213556
_cell_length_b   11.28526698
_cell_length_c   6.22159625
_cell_angle_alpha   79.20429359
_cell_angle_beta   69.66764099
_cell_angle_gamma   31.42927468
_symmetry_Int_Tables_number   1
_chemical_formula_structural   Zn(IrCl4)3
_chemical_formula_sum   'Zn1 Ir3 Cl12'
_cell_volume   395.61560616
_cell_formula_units_Z   1
loop_
 _symmetry_equiv_pos_site_id
 _symmetry_equiv_pos_as_xyz
  1  'x, y, z'
loop_
 _atom_site_type_symbol
 _atom_site_label
 _atom_site_symmetry_multiplicity
 _atom_site_fract_x
 _atom_site_fract_y
 _atom_site_fract_z
 _atom_site_occupancy
  Zn  Zn0  1  0.417195  0.417195  0.582805  1
  Ir  Ir1  1  0.832704  0.832704  0.667296  1
  Ir  Ir2  1  0.666549  0.666549  0.833451  1
  Ir  Ir3  1  0.584437  0.584437  0.415563  1
  Cl  Cl4  1  0.722916  0.287600  0.270535  1
  Cl  Cl5  1  0.878099  0.445294  0.087862  1
  Cl  Cl6  1  0.373621  0.803849  0.159329  1
  Cl  Cl7  1  0.445294  0.878099  0.588744  1
  Cl  Cl8  1  0.145109  0.672082  0.366617  1
  Cl  Cl9  1  0.287600  0.722916  0.718949  1
  Cl  Cl10  1  0.533898  0.964638  0.966533  1
  Cl  Cl11  1  0.964638  0.533898  0.534930  1
  Cl  Cl12  1  0.070787  0.601222  0.889177  1
  Cl  Cl13  1  0.803849  0.373621  0.663201  1
  Cl  Cl14  1  0.672082  0.145109  0.816194  1
  Cl  Cl15  1  0.601222  0.070787  0.438813  1
