# generated using pymatgen
data_Rb4Li2EuErAs4
_symmetry_space_group_name_H-M   'P 1'
_cell_length_a   10.67164866
_cell_length_b   10.67164972
_cell_length_c   6.97344900
_cell_angle_alpha   90.00000000
_cell_angle_beta   90.00000000
_cell_angle_gamma   97.75821084
_symmetry_Int_Tables_number   1
_chemical_formula_structural   Rb4Li2EuErAs4
_chemical_formula_sum   'Rb8 Li4 Eu2 Er2 As8'
_cell_volume   786.89559886
_cell_formula_units_Z   2
loop_
 _symmetry_equiv_pos_site_id
 _symmetry_equiv_pos_as_xyz
  1  'x, y, z'
loop_
 _atom_site_type_symbol
 _atom_site_label
 _atom_site_symmetry_multiplicity
 _atom_site_fract_x
 _atom_site_fract_y
 _atom_site_fract_z
 _atom_site_occupancy
  Rb  Rb0  1  0.567511  0.932489  0.750000  1
  Rb  Rb1  1  0.932489  0.567511  0.250000  1
  Rb  Rb2  1  0.430032  0.069968  0.250000  1
  Rb  Rb3  1  0.069968  0.430032  0.750000  1
  Rb  Rb4  1  0.676716  0.320704  0.789418  1
  Rb  Rb5  1  0.823284  0.179296  0.289418  1
  Rb  Rb6  1  0.320704  0.676716  0.210582  1
  Rb  Rb7  1  0.179296  0.823284  0.710582  1
  Li  Li8  1  0.613358  0.613358  0.000000  1
  Li  Li9  1  0.886642  0.886642  0.500000  1
  Li  Li10  1  0.376373  0.376373  0.000000  1
  Li  Li11  1  0.123627  0.123627  0.500000  1
  Eu  Eu12  1  0.870004  0.870004  0.000000  1
  Eu  Eu13  1  0.629996  0.629996  0.500000  1
  Er  Er14  1  0.132863  0.132863  0.000000  1
  Er  Er15  1  0.367137  0.367137  0.500000  1
  As  As16  1  0.339913  0.160087  0.750000  1
  As  As17  1  0.160087  0.339913  0.250000  1
  As  As18  1  0.652933  0.847067  0.250000  1
  As  As19  1  0.847067  0.652933  0.750000  1
  As  As20  1  0.919880  0.096255  0.755897  1
  As  As21  1  0.580120  0.403745  0.255897  1
  As  As22  1  0.096255  0.919880  0.244103  1
  As  As23  1  0.403745  0.580120  0.744103  1
