# generated using pymatgen
data_HfSc7H16
_symmetry_space_group_name_H-M   'P 1'
_cell_length_a   6.72606598
_cell_length_b   6.72606609
_cell_length_c   6.72606500
_cell_angle_alpha   60.00000042
_cell_angle_beta   59.99999990
_cell_angle_gamma   60.00000046
_symmetry_Int_Tables_number   1
_chemical_formula_structural   HfSc7H16
_chemical_formula_sum   'Hf1 Sc7 H16'
_cell_volume   215.16336019
_cell_formula_units_Z   1
loop_
 _symmetry_equiv_pos_site_id
 _symmetry_equiv_pos_as_xyz
  1  'x, y, z'
loop_
 _atom_site_type_symbol
 _atom_site_label
 _atom_site_symmetry_multiplicity
 _atom_site_fract_x
 _atom_site_fract_y
 _atom_site_fract_z
 _atom_site_occupancy
  Hf  Hf0  1  0.000000  0.000000  0.000000  1
  Sc  Sc1  1  0.000000  0.000000  0.500000  1
  Sc  Sc2  1  0.500000  0.000000  0.500000  1
  Sc  Sc3  1  0.000000  0.500000  0.500000  1
  Sc  Sc4  1  0.500000  0.500000  0.000000  1
  Sc  Sc5  1  0.000000  0.500000  0.000000  1
  Sc  Sc6  1  0.500000  0.000000  0.000000  1
  Sc  Sc7  1  0.500000  0.500000  0.500000  1
  H  H8  1  0.876913  0.876913  0.369262  1
  H  H9  1  0.876913  0.369262  0.876913  1
  H  H10  1  0.369262  0.876913  0.876913  1
  H  H11  1  0.876913  0.876913  0.876913  1
  H  H12  1  0.123087  0.123087  0.630738  1
  H  H13  1  0.123087  0.630738  0.123087  1
  H  H14  1  0.630738  0.123087  0.123087  1
  H  H15  1  0.123087  0.123087  0.123087  1
  H  H16  1  0.625360  0.625360  0.123917  1
  H  H17  1  0.625360  0.123917  0.625360  1
  H  H18  1  0.123917  0.625360  0.625360  1
  H  H19  1  0.625360  0.625360  0.625360  1
  H  H20  1  0.374640  0.374640  0.876083  1
  H  H21  1  0.374640  0.876083  0.374640  1
  H  H22  1  0.876083  0.374640  0.374640  1
  H  H23  1  0.374640  0.374640  0.374640  1
