# generated using pymatgen
data_DyBi3(SO6)2
_symmetry_space_group_name_H-M   'P 1'
_cell_length_a   4.23731060
_cell_length_b   7.42795335
_cell_length_c   8.20187300
_cell_angle_alpha   106.19814514
_cell_angle_beta   89.46662757
_cell_angle_gamma   106.61583358
_symmetry_Int_Tables_number   1
_chemical_formula_structural   DyBi3(SO6)2
_chemical_formula_sum   'Dy1 Bi3 S2 O12'
_cell_volume   236.85343902
_cell_formula_units_Z   1
loop_
 _symmetry_equiv_pos_site_id
 _symmetry_equiv_pos_as_xyz
  1  'x, y, z'
loop_
 _atom_site_type_symbol
 _atom_site_label
 _atom_site_symmetry_multiplicity
 _atom_site_fract_x
 _atom_site_fract_y
 _atom_site_fract_z
 _atom_site_occupancy
  Dy  Dy0  1  0.663800  0.320592  0.578753  1
  Bi  Bi1  1  0.326642  0.653332  0.418329  1
  Bi  Bi2  1  0.320161  0.652376  0.905809  1
  Bi  Bi3  1  0.666350  0.333384  0.084176  1
  S  S4  1  0.952315  0.009270  0.747520  1
  S  S5  1  0.057626  0.005057  0.256951  1
  O  O6  1  0.771283  0.496865  0.869329  1
  O  O7  1  0.228750  0.493722  0.122249  1
  O  O8  1  0.246394  0.476345  0.618055  1
  O  O9  1  0.724389  0.495401  0.379408  1
  O  O10  1  0.746126  0.018552  0.604462  1
  O  O11  1  0.281196  0.028018  0.406410  1
  O  O12  1  0.755563  0.015853  0.899153  1
  O  O13  1  0.252740  0.998140  0.104334  1
  O  O14  1  0.251738  0.182753  0.785891  1
  O  O15  1  0.786458  0.818990  0.223749  1
  O  O16  1  0.034312  0.820456  0.698524  1
  O  O17  1  0.934155  0.180893  0.296896  1
