# generated using pymatgen
data_Lu(Ti3Sb2)2
_symmetry_space_group_name_H-M   'P 1'
_cell_length_a   8.25789988
_cell_length_b   8.25790083
_cell_length_c   8.25789948
_cell_angle_alpha   40.64031979
_cell_angle_beta   40.64030862
_cell_angle_gamma   40.64031836
_symmetry_Int_Tables_number   1
_chemical_formula_structural   Lu(Ti3Sb2)2
_chemical_formula_sum   'Lu1 Ti6 Sb4'
_cell_volume   215.50533746
_cell_formula_units_Z   1
loop_
 _symmetry_equiv_pos_site_id
 _symmetry_equiv_pos_as_xyz
  1  'x, y, z'
loop_
 _atom_site_type_symbol
 _atom_site_label
 _atom_site_symmetry_multiplicity
 _atom_site_fract_x
 _atom_site_fract_y
 _atom_site_fract_z
 _atom_site_occupancy
  Lu  Lu0  1  0.000000  0.000000  0.000000  1
  Ti  Ti1  1  0.599183  0.599183  0.114916  1
  Ti  Ti2  1  0.885085  0.400817  0.400816  1
  Ti  Ti3  1  0.400817  0.885085  0.400816  1
  Ti  Ti4  1  0.599183  0.114915  0.599184  1
  Ti  Ti5  1  0.114915  0.599183  0.599184  1
  Ti  Ti6  1  0.400817  0.400817  0.885084  1
  Sb  Sb7  1  0.128346  0.128346  0.128346  1
  Sb  Sb8  1  0.332249  0.332249  0.332249  1
  Sb  Sb9  1  0.667751  0.667751  0.667751  1
  Sb  Sb10  1  0.871654  0.871654  0.871654  1
