# generated using pymatgen
data_Y3In2HgPd3
_symmetry_space_group_name_H-M   'P 1'
_cell_length_a   7.73660191
_cell_length_b   7.73660246
_cell_length_c   3.79551400
_cell_angle_alpha   90.00000000
_cell_angle_beta   90.00000000
_cell_angle_gamma   118.69210419
_symmetry_Int_Tables_number   1
_chemical_formula_structural   Y3In2HgPd3
_chemical_formula_sum   'Y3 In2 Hg1 Pd3'
_cell_volume   199.28557290
_cell_formula_units_Z   1
loop_
 _symmetry_equiv_pos_site_id
 _symmetry_equiv_pos_as_xyz
  1  'x, y, z'
loop_
 _atom_site_type_symbol
 _atom_site_label
 _atom_site_symmetry_multiplicity
 _atom_site_fract_x
 _atom_site_fract_y
 _atom_site_fract_z
 _atom_site_occupancy
  Y  Y0  1  0.410639  0.410639  0.500000  1
  Y  Y1  1  0.600679  0.996856  0.500000  1
  Y  Y2  1  0.996856  0.600679  0.500000  1
  In  In3  1  0.264918  0.005253  0.000000  1
  In  In4  1  0.005253  0.264918  0.000000  1
  Hg  Hg5  1  0.730463  0.730463  0.000000  1
  Pd  Pd6  1  0.664134  0.321294  0.000000  1
  Pd  Pd7  1  0.321294  0.664134  0.000000  1
  Pd  Pd8  1  0.005764  0.005764  0.500000  1
