# generated using pymatgen
data_AlBi6(SbO9)2
_symmetry_space_group_name_H-M   'P 1'
_cell_length_a   9.22251600
_cell_length_b   9.22251588
_cell_length_c   5.23988300
_cell_angle_alpha   90.00000000
_cell_angle_beta   90.00000000
_cell_angle_gamma   120.00000044
_symmetry_Int_Tables_number   1
_chemical_formula_structural   AlBi6(SbO9)2
_chemical_formula_sum   'Al1 Bi6 Sb2 O18'
_cell_volume   385.96777691
_cell_formula_units_Z   1
loop_
 _symmetry_equiv_pos_site_id
 _symmetry_equiv_pos_as_xyz
  1  'x, y, z'
loop_
 _atom_site_type_symbol
 _atom_site_label
 _atom_site_symmetry_multiplicity
 _atom_site_fract_x
 _atom_site_fract_y
 _atom_site_fract_z
 _atom_site_occupancy
  Al  Al0  1  0.000000  0.000000  0.500000  1
  Bi  Bi1  1  0.000000  0.367670  0.500000  1
  Bi  Bi2  1  0.279115  0.279115  0.000000  1
  Bi  Bi3  1  0.000000  0.720885  0.000000  1
  Bi  Bi4  1  0.632330  0.632330  0.500000  1
  Bi  Bi5  1  0.367670  0.000000  0.500000  1
  Bi  Bi6  1  0.720885  0.000000  0.000000  1
  Sb  Sb7  1  0.333333  0.666667  0.001324  1
  Sb  Sb8  1  0.666667  0.333333  0.998676  1
  O  O9  1  0.083568  0.199930  0.709078  1
  O  O10  1  0.228642  0.456798  0.221050  1
  O  O11  1  0.127949  0.599529  0.790266  1
  O  O12  1  0.400471  0.528420  0.790266  1
  O  O13  1  0.228157  0.771358  0.221050  1
  O  O14  1  0.116363  0.916432  0.709078  1
  O  O15  1  0.543202  0.771843  0.221050  1
  O  O16  1  0.199930  0.083568  0.290922  1
  O  O17  1  0.471580  0.872051  0.790266  1
  O  O18  1  0.800070  0.883637  0.709078  1
  O  O19  1  0.456798  0.228642  0.778950  1
  O  O20  1  0.599529  0.127949  0.209734  1
  O  O21  1  0.528420  0.400471  0.209734  1
  O  O22  1  0.771358  0.228157  0.778950  1
  O  O23  1  0.916432  0.116363  0.290922  1
  O  O24  1  0.771843  0.543202  0.778950  1
  O  O25  1  0.872051  0.471580  0.209734  1
  O  O26  1  0.883637  0.800070  0.290922  1
