# generated using pymatgen
data_Eu16In3HgRh4
_symmetry_space_group_name_H-M   'P 1'
_cell_length_a   10.28200184
_cell_length_b   10.28200286
_cell_length_c   10.28200271
_cell_angle_alpha   60.25361405
_cell_angle_beta   60.25361073
_cell_angle_gamma   60.25361412
_symmetry_Int_Tables_number   1
_chemical_formula_structural   Eu16In3HgRh4
_chemical_formula_sum   'Eu16 In3 Hg1 Rh4'
_cell_volume   773.04392534
_cell_formula_units_Z   1
loop_
 _symmetry_equiv_pos_site_id
 _symmetry_equiv_pos_as_xyz
  1  'x, y, z'
loop_
 _atom_site_type_symbol
 _atom_site_label
 _atom_site_symmetry_multiplicity
 _atom_site_fract_x
 _atom_site_fract_y
 _atom_site_fract_z
 _atom_site_occupancy
  Eu  Eu0  1  0.594048  0.594048  0.594048  1
  Eu  Eu1  1  0.594632  0.594632  0.214948  1
  Eu  Eu2  1  0.594632  0.214948  0.594632  1
  Eu  Eu3  1  0.214948  0.594632  0.594632  1
  Eu  Eu4  1  0.056472  0.443586  0.443586  1
  Eu  Eu5  1  0.442053  0.057054  0.057054  1
  Eu  Eu6  1  0.443586  0.056472  0.443586  1
  Eu  Eu7  1  0.057054  0.442053  0.057054  1
  Eu  Eu8  1  0.443586  0.443586  0.056472  1
  Eu  Eu9  1  0.057054  0.057054  0.442053  1
  Eu  Eu10  1  0.195628  0.804568  0.804568  1
  Eu  Eu11  1  0.804309  0.195208  0.195208  1
  Eu  Eu12  1  0.804568  0.195628  0.804568  1
  Eu  Eu13  1  0.195208  0.804309  0.195208  1
  Eu  Eu14  1  0.804568  0.804568  0.195628  1
  Eu  Eu15  1  0.195208  0.195208  0.804309  1
  In  In16  1  0.826557  0.826557  0.516403  1
  In  In17  1  0.826557  0.516403  0.826557  1
  In  In18  1  0.516403  0.826557  0.826557  1
  Hg  Hg19  1  0.832693  0.832693  0.832693  1
  Rh  Rh20  1  0.388156  0.388156  0.388156  1
  Rh  Rh21  1  0.387186  0.387186  0.837711  1
  Rh  Rh22  1  0.387186  0.837711  0.387186  1
  Rh  Rh23  1  0.837711  0.387186  0.387186  1
