# generated using pymatgen
data_La3GaPd3Au2
_symmetry_space_group_name_H-M   'P 1'
_cell_length_a   7.53509100
_cell_length_b   7.77114990
_cell_length_c   3.98269200
_cell_angle_alpha   90.00000000
_cell_angle_beta   90.00000000
_cell_angle_gamma   119.00014978
_symmetry_Int_Tables_number   1
_chemical_formula_structural   La3GaPd3Au2
_chemical_formula_sum   'La3 Ga1 Pd3 Au2'
_cell_volume   203.97133527
_cell_formula_units_Z   1
loop_
 _symmetry_equiv_pos_site_id
 _symmetry_equiv_pos_as_xyz
  1  'x, y, z'
loop_
 _atom_site_type_symbol
 _atom_site_label
 _atom_site_symmetry_multiplicity
 _atom_site_fract_x
 _atom_site_fract_y
 _atom_site_fract_z
 _atom_site_occupancy
  La  La0  1  0.992697  0.598333  0.000000  1
  La  La1  1  0.394364  0.401667  0.000000  1
  La  La2  1  0.612808  0.000000  0.000000  1
  Ga  Ga3  1  0.254741  0.000000  0.500000  1
  Pd  Pd4  1  0.641568  0.314198  0.500000  1
  Pd  Pd5  1  0.034452  0.000000  0.000000  1
  Pd  Pd6  1  0.327369  0.685802  0.500000  1
  Au  Au7  1  0.739326  0.736649  0.500000  1
  Au  Au8  1  0.002676  0.263351  0.500000  1
