# generated using pymatgen
data_CaYb12(YSb4)3
_symmetry_space_group_name_H-M   'P 1'
_cell_length_a   9.42150167
_cell_length_b   9.42150375
_cell_length_c   9.42149630
_cell_angle_alpha   90.23866700
_cell_angle_beta   90.23875183
_cell_angle_gamma   89.76136817
_symmetry_Int_Tables_number   1
_chemical_formula_structural   CaYb12(YSb4)3
_chemical_formula_sum   'Ca1 Yb12 Y3 Sb12'
_cell_volume   836.27470849
_cell_formula_units_Z   1
loop_
 _symmetry_equiv_pos_site_id
 _symmetry_equiv_pos_as_xyz
  1  'x, y, z'
loop_
 _atom_site_type_symbol
 _atom_site_label
 _atom_site_symmetry_multiplicity
 _atom_site_fract_x
 _atom_site_fract_y
 _atom_site_fract_z
 _atom_site_occupancy
  Ca  Ca0  1  0.073098  0.573098  0.926901  1
  Yb  Yb1  1  0.824889  0.324889  0.175111  1
  Yb  Yb2  1  0.931233  0.926971  0.931022  1
  Yb  Yb3  1  0.826789  0.674050  0.325825  1
  Yb  Yb4  1  0.176855  0.822398  0.322338  1
  Yb  Yb5  1  0.174049  0.174175  0.173211  1
  Yb  Yb6  1  0.324941  0.824941  0.675059  1
  Yb  Yb7  1  0.068978  0.431233  0.573029  1
  Yb  Yb8  1  0.322398  0.177662  0.823145  1
  Yb  Yb9  1  0.674175  0.326789  0.825951  1
  Yb  Yb10  1  0.677663  0.676855  0.677602  1
  Yb  Yb11  1  0.568946  0.068946  0.431053  1
  Yb  Yb12  1  0.426970  0.568978  0.068767  1
  Y  Y13  1  0.929419  0.072526  0.572636  1
  Y  Y14  1  0.427364  0.429420  0.427475  1
  Y  Y15  1  0.572525  0.927363  0.070580  1
  Sb  Sb16  1  0.746184  0.369022  0.499956  1
  Sb  Sb17  1  0.869022  0.000043  0.253815  1
  Sb  Sb18  1  0.999072  0.757265  0.625271  1
  Sb  Sb19  1  0.245890  0.129030  0.499060  1
  Sb  Sb20  1  0.131011  0.498052  0.251536  1
  Sb  Sb21  1  0.998052  0.248464  0.868989  1
  Sb  Sb22  1  0.257266  0.874728  0.000928  1
  Sb  Sb23  1  0.374728  0.499072  0.742734  1
  Sb  Sb24  1  0.500044  0.246185  0.130978  1
  Sb  Sb25  1  0.748464  0.631011  0.001948  1
  Sb  Sb26  1  0.629030  0.000941  0.754111  1
  Sb  Sb27  1  0.500941  0.745890  0.370970  1
