# generated using pymatgen
data_Lu2GaPt4Rh
_symmetry_space_group_name_H-M   'P 1'
_cell_length_a   5.71085013
_cell_length_b   5.71085071
_cell_length_c   4.17726100
_cell_angle_alpha   90.00000000
_cell_angle_beta   90.00000000
_cell_angle_gamma   96.24201152
_symmetry_Int_Tables_number   1
_chemical_formula_structural   Lu2GaPt4Rh
_chemical_formula_sum   'Lu2 Ga1 Pt4 Rh1'
_cell_volume   135.42873041
_cell_formula_units_Z   1
loop_
 _symmetry_equiv_pos_site_id
 _symmetry_equiv_pos_as_xyz
  1  'x, y, z'
loop_
 _atom_site_type_symbol
 _atom_site_label
 _atom_site_symmetry_multiplicity
 _atom_site_fract_x
 _atom_site_fract_y
 _atom_site_fract_z
 _atom_site_occupancy
  Lu  Lu0  1  0.720716  0.276465  0.500000  1
  Lu  Lu1  1  0.276465  0.720716  0.500000  1
  Ga  Ga2  1  0.006727  0.006727  0.000000  1
  Pt  Pt3  1  0.498550  0.498550  0.000000  1
  Pt  Pt4  1  0.998804  0.497681  0.000000  1
  Pt  Pt5  1  0.497681  0.998804  0.000000  1
  Pt  Pt6  1  0.785973  0.785973  0.500000  1
  Rh  Rh7  1  0.215085  0.215085  0.500000  1
