# generated using pymatgen
data_Hf2Rh5Pb
_symmetry_space_group_name_H-M   'P 1'
_cell_length_a   4.14330100
_cell_length_b   5.68981700
_cell_length_c   11.26046300
_cell_angle_alpha   90.00000000
_cell_angle_beta   90.00000000
_cell_angle_gamma   90.00000000
_symmetry_Int_Tables_number   1
_chemical_formula_structural   Hf2Rh5Pb
_chemical_formula_sum   'Hf4 Rh10 Pb2'
_cell_volume   265.46118654
_cell_formula_units_Z   2
loop_
 _symmetry_equiv_pos_site_id
 _symmetry_equiv_pos_as_xyz
  1  'x, y, z'
loop_
 _atom_site_type_symbol
 _atom_site_label
 _atom_site_symmetry_multiplicity
 _atom_site_fract_x
 _atom_site_fract_y
 _atom_site_fract_z
 _atom_site_occupancy
  Hf  Hf0  1  0.500000  0.182593  0.642599  1
  Hf  Hf1  1  0.500000  0.817407  0.357401  1
  Hf  Hf2  1  0.500000  0.682593  0.857401  1
  Hf  Hf3  1  0.500000  0.317407  0.142599  1
  Rh  Rh4  1  0.500000  0.213801  0.880644  1
  Rh  Rh5  1  0.500000  0.786199  0.119356  1
  Rh  Rh6  1  0.500000  0.713801  0.619356  1
  Rh  Rh7  1  0.500000  0.286199  0.380644  1
  Rh  Rh8  1  0.000000  0.445096  0.750456  1
  Rh  Rh9  1  0.000000  0.554904  0.249544  1
  Rh  Rh10  1  0.000000  0.000000  0.500000  1
  Rh  Rh11  1  0.000000  0.500000  0.000000  1
  Rh  Rh12  1  0.000000  0.054904  0.250456  1
  Rh  Rh13  1  0.000000  0.945096  0.749544  1
  Pb  Pb14  1  0.000000  0.500000  0.500000  1
  Pb  Pb15  1  0.000000  0.000000  0.000000  1
