# generated using pymatgen
data_Tb3ZrCo7NiP6
_symmetry_space_group_name_H-M   'P 1'
_cell_length_a   3.74321100
_cell_length_b   10.72403200
_cell_length_c   12.46331900
_cell_angle_alpha   90.00000000
_cell_angle_beta   90.00000000
_cell_angle_gamma   90.00000000
_symmetry_Int_Tables_number   1
_chemical_formula_structural   Tb3ZrCo7NiP6
_chemical_formula_sum   'Tb6 Zr2 Co14 Ni2 P12'
_cell_volume   500.30647159
_cell_formula_units_Z   2
loop_
 _symmetry_equiv_pos_site_id
 _symmetry_equiv_pos_as_xyz
  1  'x, y, z'
loop_
 _atom_site_type_symbol
 _atom_site_label
 _atom_site_symmetry_multiplicity
 _atom_site_fract_x
 _atom_site_fract_y
 _atom_site_fract_z
 _atom_site_occupancy
  Tb  Tb0  1  0.000000  0.500000  0.527976  1
  Tb  Tb1  1  0.500000  0.000000  0.472024  1
  Tb  Tb2  1  0.500000  0.820353  0.204356  1
  Tb  Tb3  1  0.500000  0.179647  0.204356  1
  Tb  Tb4  1  0.000000  0.679647  0.795644  1
  Tb  Tb5  1  0.000000  0.320353  0.795644  1
  Zr  Zr6  1  0.500000  0.500000  0.158207  1
  Zr  Zr7  1  0.000000  0.000000  0.841793  1
  Co  Co8  1  0.000000  0.500000  0.986534  1
  Co  Co9  1  0.500000  0.000000  0.013466  1
  Co  Co10  1  0.500000  0.332179  0.993020  1
  Co  Co11  1  0.500000  0.667821  0.993020  1
  Co  Co12  1  0.000000  0.167821  0.006980  1
  Co  Co13  1  0.000000  0.832179  0.006980  1
  Co  Co14  1  0.500000  0.295665  0.433789  1
  Co  Co15  1  0.500000  0.704335  0.433789  1
  Co  Co16  1  0.000000  0.204335  0.566211  1
  Co  Co17  1  0.000000  0.795665  0.566211  1
  Co  Co18  1  0.500000  0.877731  0.701898  1
  Co  Co19  1  0.500000  0.122269  0.701898  1
  Co  Co20  1  0.000000  0.622269  0.298102  1
  Co  Co21  1  0.000000  0.377731  0.298102  1
  Ni  Ni22  1  0.500000  0.500000  0.703173  1
  Ni  Ni23  1  0.000000  0.000000  0.296827  1
  P  P24  1  0.500000  0.500000  0.884779  1
  P  P25  1  0.000000  0.000000  0.115221  1
  P  P26  1  0.500000  0.500000  0.362738  1
  P  P27  1  0.000000  0.000000  0.637262  1
  P  P28  1  0.500000  0.308615  0.614975  1
  P  P29  1  0.500000  0.691385  0.614975  1
  P  P30  1  0.000000  0.191385  0.385025  1
  P  P31  1  0.000000  0.808615  0.385025  1
  P  P32  1  0.500000  0.838362  0.894819  1
  P  P33  1  0.500000  0.161638  0.894819  1
  P  P34  1  0.000000  0.661638  0.105181  1
  P  P35  1  0.000000  0.338362  0.105181  1
