# generated using pymatgen
data_DyEr4(In2Co)2
_symmetry_space_group_name_H-M   'P 1'
_cell_length_a   3.54453400
_cell_length_b   7.91431300
_cell_length_c   17.93297600
_cell_angle_alpha   90.00000000
_cell_angle_beta   90.00000000
_cell_angle_gamma   90.00000000
_symmetry_Int_Tables_number   1
_chemical_formula_structural   DyEr4(In2Co)2
_chemical_formula_sum   'Dy2 Er8 In8 Co4'
_cell_volume   503.06573306
_cell_formula_units_Z   2
loop_
 _symmetry_equiv_pos_site_id
 _symmetry_equiv_pos_as_xyz
  1  'x, y, z'
loop_
 _atom_site_type_symbol
 _atom_site_label
 _atom_site_symmetry_multiplicity
 _atom_site_fract_x
 _atom_site_fract_y
 _atom_site_fract_z
 _atom_site_occupancy
  Dy  Dy0  1  0.500000  0.500000  0.000000  1
  Dy  Dy1  1  0.500000  0.000000  0.500000  1
  Er  Er2  1  0.500000  0.383442  0.590966  1
  Er  Er3  1  0.500000  0.883442  0.909034  1
  Er  Er4  1  0.500000  0.116558  0.090966  1
  Er  Er5  1  0.500000  0.753023  0.721430  1
  Er  Er6  1  0.500000  0.253023  0.778570  1
  Er  Er7  1  0.500000  0.746977  0.221430  1
  Er  Er8  1  0.500000  0.246977  0.278570  1
  Er  Er9  1  0.500000  0.616558  0.409034  1
  In  In10  1  0.000000  0.796728  0.068928  1
  In  In11  1  0.000000  0.929826  0.347339  1
  In  In12  1  0.000000  0.070174  0.652661  1
  In  In13  1  0.000000  0.570174  0.847339  1
  In  In14  1  0.000000  0.703272  0.568928  1
  In  In15  1  0.000000  0.203272  0.931072  1
  In  In16  1  0.000000  0.296728  0.431072  1
  In  In17  1  0.000000  0.429826  0.152661  1
  Co  Co18  1  0.000000  0.977786  0.803950  1
  Co  Co19  1  0.000000  0.522214  0.303950  1
  Co  Co20  1  0.000000  0.477786  0.696050  1
  Co  Co21  1  0.000000  0.022214  0.196050  1
