# generated using pymatgen
data_Hf2Ni3AsP2
_symmetry_space_group_name_H-M   'P 1'
_cell_length_a   3.61454300
_cell_length_b   10.19537200
_cell_length_c   12.43299400
_cell_angle_alpha   90.00000000
_cell_angle_beta   90.00000000
_cell_angle_gamma   90.00000000
_symmetry_Int_Tables_number   1
_chemical_formula_structural   Hf2Ni3AsP2
_chemical_formula_sum   'Hf8 Ni12 As4 P8'
_cell_volume   458.17585217
_cell_formula_units_Z   4
loop_
 _symmetry_equiv_pos_site_id
 _symmetry_equiv_pos_as_xyz
  1  'x, y, z'
loop_
 _atom_site_type_symbol
 _atom_site_label
 _atom_site_symmetry_multiplicity
 _atom_site_fract_x
 _atom_site_fract_y
 _atom_site_fract_z
 _atom_site_occupancy
  Hf  Hf0  1  0.250000  0.324038  0.997998  1
  Hf  Hf1  1  0.250000  0.175962  0.497998  1
  Hf  Hf2  1  0.750000  0.675962  0.002002  1
  Hf  Hf3  1  0.750000  0.824038  0.502002  1
  Hf  Hf4  1  0.250000  0.427283  0.704734  1
  Hf  Hf5  1  0.250000  0.072717  0.204734  1
  Hf  Hf6  1  0.750000  0.572717  0.295266  1
  Hf  Hf7  1  0.750000  0.927283  0.795266  1
  Ni  Ni8  1  0.250000  0.907309  0.982692  1
  Ni  Ni9  1  0.250000  0.592691  0.482692  1
  Ni  Ni10  1  0.750000  0.092691  0.017308  1
  Ni  Ni11  1  0.750000  0.407309  0.517308  1
  Ni  Ni12  1  0.250000  0.143472  0.716903  1
  Ni  Ni13  1  0.250000  0.356528  0.216903  1
  Ni  Ni14  1  0.750000  0.856528  0.283097  1
  Ni  Ni15  1  0.750000  0.643472  0.783097  1
  Ni  Ni16  1  0.250000  0.782388  0.162733  1
  Ni  Ni17  1  0.250000  0.717612  0.662733  1
  Ni  Ni18  1  0.750000  0.217612  0.837267  1
  Ni  Ni19  1  0.750000  0.282388  0.337267  1
  As  As20  1  0.250000  0.552903  0.124975  1
  As  As21  1  0.250000  0.947097  0.624975  1
  As  As22  1  0.750000  0.447097  0.875025  1
  As  As23  1  0.750000  0.052903  0.375025  1
  P  P24  1  0.250000  0.100122  0.896279  1
  P  P25  1  0.250000  0.399878  0.396279  1
  P  P26  1  0.750000  0.899878  0.103721  1
  P  P27  1  0.750000  0.600122  0.603721  1
  P  P28  1  0.250000  0.742466  0.854837  1
  P  P29  1  0.250000  0.757534  0.354837  1
  P  P30  1  0.750000  0.257534  0.145163  1
  P  P31  1  0.750000  0.242466  0.645163  1
