# generated using pymatgen
data_Sr6TaNb3(NiO9)2
_symmetry_space_group_name_H-M   'P 1'
_cell_length_a   5.71374906
_cell_length_b   9.90256543
_cell_length_c   7.02724503
_cell_angle_alpha   90.13381256
_cell_angle_beta   89.99230065
_cell_angle_gamma   89.99697007
_symmetry_Int_Tables_number   1
_chemical_formula_structural   Sr6TaNb3(NiO9)2
_chemical_formula_sum   'Sr6 Ta1 Nb3 Ni2 O18'
_cell_volume   397.60587329
_cell_formula_units_Z   1
loop_
 _symmetry_equiv_pos_site_id
 _symmetry_equiv_pos_as_xyz
  1  'x, y, z'
loop_
 _atom_site_type_symbol
 _atom_site_label
 _atom_site_symmetry_multiplicity
 _atom_site_fract_x
 _atom_site_fract_y
 _atom_site_fract_z
 _atom_site_occupancy
  Sr  Sr0  1  0.000000  0.999854  0.000433  1
  Sr  Sr1  1  0.500003  0.500141  0.000538  1
  Sr  Sr2  1  0.499931  0.167799  0.334289  1
  Sr  Sr3  1  0.999926  0.667021  0.334306  1
  Sr  Sr4  1  0.000075  0.332721  0.664355  1
  Sr  Sr5  1  0.500065  0.832450  0.665840  1
  Ta  Ta6  1  0.999869  0.334565  0.179125  1
  Nb  Nb7  1  0.499865  0.834472  0.181395  1
  Nb  Nb8  1  0.500138  0.165425  0.819042  1
  Nb  Nb9  1  0.000132  0.665469  0.818733  1
  Ni  Ni10  1  0.500005  0.499424  0.499044  1
  Ni  Ni11  1  0.000002  0.000562  0.499381  1
  O  O12  1  0.499998  0.000242  0.000052  1
  O  O13  1  0.000000  0.498813  0.000981  1
  O  O14  1  0.248404  0.250579  0.001109  1
  O  O15  1  0.750053  0.749927  0.000029  1
  O  O16  1  0.751590  0.250575  0.001103  1
  O  O17  1  0.249948  0.749926  0.000028  1
  O  O18  1  0.999875  0.172399  0.332940  1
  O  O19  1  0.499876  0.671563  0.333833  1
  O  O20  1  0.500121  0.328413  0.666957  1
  O  O21  1  0.000124  0.828375  0.666325  1
  O  O22  1  0.752767  0.418369  0.325736  1
  O  O23  1  0.251410  0.918788  0.326490  1
  O  O24  1  0.252570  0.081186  0.673460  1
  O  O25  1  0.752360  0.580980  0.673259  1
  O  O26  1  0.748374  0.081350  0.674030  1
  O  O27  1  0.248573  0.581138  0.673823  1
  O  O28  1  0.246304  0.418522  0.326302  1
  O  O29  1  0.747644  0.918953  0.327065  1
