# generated using pymatgen
data_YbTh2(InPt)3
_symmetry_space_group_name_H-M   'P 1'
_cell_length_a   7.69466136
_cell_length_b   7.69466072
_cell_length_c   4.09728100
_cell_angle_alpha   90.00000000
_cell_angle_beta   90.00000000
_cell_angle_gamma   120.42271751
_symmetry_Int_Tables_number   1
_chemical_formula_structural   YbTh2(InPt)3
_chemical_formula_sum   'Yb1 Th2 In3 Pt3'
_cell_volume   209.18938844
_cell_formula_units_Z   1
loop_
 _symmetry_equiv_pos_site_id
 _symmetry_equiv_pos_as_xyz
  1  'x, y, z'
loop_
 _atom_site_type_symbol
 _atom_site_label
 _atom_site_symmetry_multiplicity
 _atom_site_fract_x
 _atom_site_fract_y
 _atom_site_fract_z
 _atom_site_occupancy
  Yb  Yb0  1  0.591245  0.591245  0.000000  1
  Th  Th1  1  0.410564  0.999119  0.000000  1
  Th  Th2  1  0.999119  0.410564  0.000000  1
  In  In3  1  0.746638  0.984010  0.500000  1
  In  In4  1  0.984010  0.746638  0.500000  1
  In  In5  1  0.266433  0.266433  0.500000  1
  Pt  Pt6  1  0.319138  0.668277  0.500000  1
  Pt  Pt7  1  0.668277  0.319138  0.500000  1
  Pt  Pt8  1  0.014575  0.014575  0.000000  1
