# generated using pymatgen
data_Tb5Er3(LuSn3)2
_symmetry_space_group_name_H-M   'P 1'
_cell_length_a   8.92801908
_cell_length_b   8.92801981
_cell_length_c   6.48642600
_cell_angle_alpha   89.99874109
_cell_angle_beta   89.99874497
_cell_angle_gamma   119.91505066
_symmetry_Int_Tables_number   1
_chemical_formula_structural   Tb5Er3(LuSn3)2
_chemical_formula_sum   'Tb5 Er3 Lu2 Sn6'
_cell_volume   448.14388742
_cell_formula_units_Z   1
loop_
 _symmetry_equiv_pos_site_id
 _symmetry_equiv_pos_as_xyz
  1  'x, y, z'
loop_
 _atom_site_type_symbol
 _atom_site_label
 _atom_site_symmetry_multiplicity
 _atom_site_fract_x
 _atom_site_fract_y
 _atom_site_fract_z
 _atom_site_occupancy
  Tb  Tb0  1  0.238816  0.999836  0.749655  1
  Tb  Tb1  1  0.999836  0.238816  0.749655  1
  Tb  Tb2  1  0.241064  0.241064  0.250382  1
  Tb  Tb3  1  0.761221  0.999641  0.250342  1
  Tb  Tb4  1  0.999641  0.761221  0.250342  1
  Er  Er5  1  0.666688  0.332991  0.999840  1
  Er  Er6  1  0.332991  0.666688  0.999840  1
  Er  Er7  1  0.760123  0.760123  0.749670  1
  Lu  Lu8  1  0.332991  0.666738  0.500170  1
  Lu  Lu9  1  0.666738  0.332991  0.500170  1
  Sn  Sn10  1  0.397498  0.397498  0.748244  1
  Sn  Sn11  1  0.603698  0.998872  0.748279  1
  Sn  Sn12  1  0.998872  0.603698  0.748279  1
  Sn  Sn13  1  0.603405  0.603405  0.251757  1
  Sn  Sn14  1  0.396570  0.999849  0.251687  1
  Sn  Sn15  1  0.999849  0.396570  0.251687  1
