# generated using pymatgen
data_Ca(ZrTe2)8
_symmetry_space_group_name_H-M   'P 1'
_cell_length_a   7.96237800
_cell_length_b   7.96237733
_cell_length_c   15.05975100
_cell_angle_alpha   90.00000000
_cell_angle_beta   90.00000000
_cell_angle_gamma   119.99998618
_symmetry_Int_Tables_number   1
_chemical_formula_structural   Ca(ZrTe2)8
_chemical_formula_sum   'Ca1 Zr8 Te16'
_cell_volume   826.86389509
_cell_formula_units_Z   1
loop_
 _symmetry_equiv_pos_site_id
 _symmetry_equiv_pos_as_xyz
  1  'x, y, z'
loop_
 _atom_site_type_symbol
 _atom_site_label
 _atom_site_symmetry_multiplicity
 _atom_site_fract_x
 _atom_site_fract_y
 _atom_site_fract_z
 _atom_site_occupancy
  Ca  Ca0  1  0.000000  0.000000  0.000000  1
  Zr  Zr1  1  0.502596  0.497404  0.736986  1
  Zr  Zr2  1  0.497404  0.502596  0.263014  1
  Zr  Zr3  1  0.502596  0.005192  0.736986  1
  Zr  Zr4  1  0.497404  0.994808  0.263014  1
  Zr  Zr5  1  0.994808  0.497404  0.736986  1
  Zr  Zr6  1  0.005192  0.502596  0.263014  1
  Zr  Zr7  1  0.000000  0.000000  0.737492  1
  Zr  Zr8  1  0.000000  0.000000  0.262508  1
  Te  Te9  1  0.831575  0.663152  0.141051  1
  Te  Te10  1  0.833872  0.667745  0.618089  1
  Te  Te11  1  0.831575  0.168425  0.141051  1
  Te  Te12  1  0.833872  0.166128  0.618089  1
  Te  Te13  1  0.333333  0.666667  0.140522  1
  Te  Te14  1  0.333333  0.666667  0.620467  1
  Te  Te15  1  0.336848  0.168425  0.141051  1
  Te  Te16  1  0.332255  0.166128  0.618089  1
  Te  Te17  1  0.663152  0.831575  0.858949  1
  Te  Te18  1  0.667745  0.833872  0.381911  1
  Te  Te19  1  0.666667  0.333333  0.859478  1
  Te  Te20  1  0.666667  0.333333  0.379533  1
  Te  Te21  1  0.168425  0.831575  0.858949  1
  Te  Te22  1  0.166128  0.833872  0.381911  1
  Te  Te23  1  0.168425  0.336848  0.858949  1
  Te  Te24  1  0.166128  0.332255  0.381911  1
