# generated using pymatgen
data_EuAl2ZnSi
_symmetry_space_group_name_H-M   'P 1'
_cell_length_a   4.23843903
_cell_length_b   4.23843960
_cell_length_c   6.17492606
_cell_angle_alpha   69.92818963
_cell_angle_beta   69.92819149
_cell_angle_gamma   89.99998992
_symmetry_Int_Tables_number   1
_chemical_formula_structural   EuAl2ZnSi
_chemical_formula_sum   'Eu1 Al2 Zn1 Si1'
_cell_volume   96.98683888
_cell_formula_units_Z   1
loop_
 _symmetry_equiv_pos_site_id
 _symmetry_equiv_pos_as_xyz
  1  'x, y, z'
loop_
 _atom_site_type_symbol
 _atom_site_label
 _atom_site_symmetry_multiplicity
 _atom_site_fract_x
 _atom_site_fract_y
 _atom_site_fract_z
 _atom_site_occupancy
  Eu  Eu0  1  0.995623  0.995623  0.008754  1
  Al  Al1  1  0.749695  0.249695  0.500609  1
  Al  Al2  1  0.249695  0.749695  0.500609  1
  Zn  Zn3  1  0.615247  0.615247  0.769505  1
  Si  Si4  1  0.389739  0.389739  0.220523  1
