# generated using pymatgen
data_Rb6Li4TaVAs6
_symmetry_space_group_name_H-M   'P 1'
_cell_length_a   10.26820464
_cell_length_b   10.26820294
_cell_length_c   15.96565800
_cell_angle_alpha   90.00000000
_cell_angle_beta   90.00000000
_cell_angle_gamma   142.91760967
_symmetry_Int_Tables_number   1
_chemical_formula_structural   Rb6Li4TaVAs6
_chemical_formula_sum   'Rb12 Li8 Ta2 V2 As12'
_cell_volume   1015.00064281
_cell_formula_units_Z   2
loop_
 _symmetry_equiv_pos_site_id
 _symmetry_equiv_pos_as_xyz
  1  'x, y, z'
loop_
 _atom_site_type_symbol
 _atom_site_label
 _atom_site_symmetry_multiplicity
 _atom_site_fract_x
 _atom_site_fract_y
 _atom_site_fract_z
 _atom_site_occupancy
  Rb  Rb0  1  0.106169  0.448720  0.672056  1
  Rb  Rb1  1  0.716614  0.713359  0.680391  1
  Rb  Rb2  1  0.213359  0.216614  0.819609  1
  Rb  Rb3  1  0.783386  0.786641  0.180391  1
  Rb  Rb4  1  0.948720  0.606169  0.827944  1
  Rb  Rb5  1  0.551280  0.893831  0.327944  1
  Rb  Rb6  1  0.393831  0.051280  0.172056  1
  Rb  Rb7  1  0.055995  0.394211  0.168823  1
  Rb  Rb8  1  0.894211  0.555995  0.331177  1
  Rb  Rb9  1  0.444005  0.105789  0.668823  1
  Rb  Rb10  1  0.605789  0.944006  0.831177  1
  Rb  Rb11  1  0.286641  0.283386  0.319609  1
  Li  Li12  1  0.915958  0.084042  0.000000  1
  Li  Li13  1  0.584042  0.415958  0.500000  1
  Li  Li14  1  0.082080  0.917920  0.000000  1
  Li  Li15  1  0.417920  0.582080  0.500000  1
  Li  Li16  1  0.750881  0.249119  0.000000  1
  Li  Li17  1  0.749119  0.250881  0.500000  1
  Li  Li18  1  0.251921  0.748079  0.000000  1
  Li  Li19  1  0.248079  0.751921  0.500000  1
  Ta  Ta20  1  0.917059  0.082941  0.500000  1
  Ta  Ta21  1  0.582941  0.417059  0.000000  1
  V  V22  1  0.085224  0.914776  0.500000  1
  V  V23  1  0.414776  0.585224  0.000000  1
  As  As24  1  0.884164  0.566023  0.086717  1
  As  As25  1  0.433977  0.115836  0.913283  1
  As  As26  1  0.615836  0.933977  0.586717  1
  As  As27  1  0.936059  0.616941  0.585162  1
  As  As28  1  0.116941  0.436059  0.914838  1
  As  As29  1  0.563941  0.883059  0.085162  1
  As  As30  1  0.383059  0.063941  0.414838  1
  As  As31  1  0.218314  0.219154  0.583891  1
  As  As32  1  0.719154  0.718314  0.916109  1
  As  As33  1  0.281686  0.280846  0.083891  1
  As  As34  1  0.066023  0.384164  0.413283  1
  As  As35  1  0.780846  0.781686  0.416109  1
