# generated using pymatgen
data_Y2HoMgIr8
_symmetry_space_group_name_H-M   'P 1'
_cell_length_a   5.32595100
_cell_length_b   5.32595037
_cell_length_c   8.66123400
_cell_angle_alpha   90.00000000
_cell_angle_beta   90.00000000
_cell_angle_gamma   119.99998530
_symmetry_Int_Tables_number   1
_chemical_formula_structural   Y2HoMgIr8
_chemical_formula_sum   'Y2 Ho1 Mg1 Ir8'
_cell_volume   212.76723485
_cell_formula_units_Z   1
loop_
 _symmetry_equiv_pos_site_id
 _symmetry_equiv_pos_as_xyz
  1  'x, y, z'
loop_
 _atom_site_type_symbol
 _atom_site_label
 _atom_site_symmetry_multiplicity
 _atom_site_fract_x
 _atom_site_fract_y
 _atom_site_fract_z
 _atom_site_occupancy
  Y  Y0  1  0.333333  0.666667  0.078346  1
  Y  Y1  1  0.666667  0.333333  0.559186  1
  Ho  Ho2  1  0.666667  0.333333  0.930369  1
  Mg  Mg3  1  0.333333  0.666667  0.438322  1
  Ir  Ir4  1  0.000000  0.000000  0.997368  1
  Ir  Ir5  1  0.000000  0.000000  0.497788  1
  Ir  Ir6  1  0.830453  0.660907  0.250905  1
  Ir  Ir7  1  0.170582  0.829418  0.748635  1
  Ir  Ir8  1  0.658836  0.829418  0.748635  1
  Ir  Ir9  1  0.339093  0.169547  0.250905  1
  Ir  Ir10  1  0.830453  0.169547  0.250905  1
  Ir  Ir11  1  0.170582  0.341164  0.748635  1
