# generated using pymatgen
data_ErSi(PRh2)3
_symmetry_space_group_name_H-M   'P 1'
_cell_length_a   7.05688700
_cell_length_b   7.05688776
_cell_length_c   3.73625400
_cell_angle_alpha   90.00000000
_cell_angle_beta   90.00000000
_cell_angle_gamma   120.00000114
_symmetry_Int_Tables_number   1
_chemical_formula_structural   ErSi(PRh2)3
_chemical_formula_sum   'Er1 Si1 P3 Rh6'
_cell_volume   161.13630211
_cell_formula_units_Z   1
loop_
 _symmetry_equiv_pos_site_id
 _symmetry_equiv_pos_as_xyz
  1  'x, y, z'
loop_
 _atom_site_type_symbol
 _atom_site_label
 _atom_site_symmetry_multiplicity
 _atom_site_fract_x
 _atom_site_fract_y
 _atom_site_fract_z
 _atom_site_occupancy
  Er  Er0  1  0.000000  0.000000  0.000000  1
  Si  Si1  1  0.666667  0.333333  0.000000  1
  P  P2  1  0.197375  0.373397  0.500000  1
  P  P3  1  0.176021  0.802625  0.500000  1
  P  P4  1  0.626603  0.823979  0.500000  1
  Rh  Rh5  1  0.496994  0.928824  0.000000  1
  Rh  Rh6  1  0.431830  0.503006  0.000000  1
  Rh  Rh7  1  0.071176  0.568170  0.000000  1
  Rh  Rh8  1  0.784992  0.607538  0.500000  1
  Rh  Rh9  1  0.822547  0.215008  0.500000  1
  Rh  Rh10  1  0.392462  0.177453  0.500000  1
