# generated using pymatgen
data_Pr3Th2Sn3Hg
_symmetry_space_group_name_H-M   'P 1'
_cell_length_a   9.67651300
_cell_length_b   9.67651232
_cell_length_c   6.70247400
_cell_angle_alpha   90.00000000
_cell_angle_beta   90.00000000
_cell_angle_gamma   120.00000576
_symmetry_Int_Tables_number   1
_chemical_formula_structural   Pr3Th2Sn3Hg
_chemical_formula_sum   'Pr6 Th4 Sn6 Hg2'
_cell_volume   543.50492347
_cell_formula_units_Z   2
loop_
 _symmetry_equiv_pos_site_id
 _symmetry_equiv_pos_as_xyz
  1  'x, y, z'
loop_
 _atom_site_type_symbol
 _atom_site_label
 _atom_site_symmetry_multiplicity
 _atom_site_fract_x
 _atom_site_fract_y
 _atom_site_fract_z
 _atom_site_occupancy
  Pr  Pr0  1  0.289051  0.000000  0.750000  1
  Pr  Pr1  1  0.710949  0.000000  0.250000  1
  Pr  Pr2  1  0.000000  0.289051  0.750000  1
  Pr  Pr3  1  0.000000  0.710949  0.250000  1
  Pr  Pr4  1  0.710949  0.710949  0.750000  1
  Pr  Pr5  1  0.289051  0.289051  0.250000  1
  Th  Th6  1  0.333333  0.666667  0.500000  1
  Th  Th7  1  0.666667  0.333333  0.500000  1
  Th  Th8  1  0.666667  0.333333  0.000000  1
  Th  Th9  1  0.333333  0.666667  0.000000  1
  Sn  Sn10  1  0.628946  0.000000  0.750000  1
  Sn  Sn11  1  0.371054  0.000000  0.250000  1
  Sn  Sn12  1  0.000000  0.628946  0.750000  1
  Sn  Sn13  1  0.000000  0.371054  0.250000  1
  Sn  Sn14  1  0.371054  0.371054  0.750000  1
  Sn  Sn15  1  0.628946  0.628946  0.250000  1
  Hg  Hg16  1  0.000000  0.000000  0.500000  1
  Hg  Hg17  1  0.000000  0.000000  0.000000  1
