# generated using pymatgen
data_Dy2RuWC3
_symmetry_space_group_name_H-M   'P 1'
_cell_length_a   6.05909707
_cell_length_b   6.05909696
_cell_length_c   5.69797604
_cell_angle_alpha   67.53226815
_cell_angle_beta   67.53227013
_cell_angle_gamma   32.19009176
_symmetry_Int_Tables_number   1
_chemical_formula_structural   Dy2RuWC3
_chemical_formula_sum   'Dy2 Ru1 W1 C3'
_cell_volume   102.24590396
_cell_formula_units_Z   1
loop_
 _symmetry_equiv_pos_site_id
 _symmetry_equiv_pos_as_xyz
  1  'x, y, z'
loop_
 _atom_site_type_symbol
 _atom_site_label
 _atom_site_symmetry_multiplicity
 _atom_site_fract_x
 _atom_site_fract_y
 _atom_site_fract_z
 _atom_site_occupancy
  Dy  Dy0  1  0.391479  0.391479  0.817273  1
  Dy  Dy1  1  0.608121  0.608121  0.168451  1
  Ru  Ru2  1  0.157909  0.157909  0.682786  1
  W  W3  1  0.840903  0.840903  0.324823  1
  C  C4  1  0.753692  0.753692  0.730318  1
  C  C5  1  0.247521  0.247521  0.269998  1
  C  C6  1  0.000375  0.000375  0.006352  1
