# generated using pymatgen
data_Dy3Ho3Al24Ru5Pt3
_symmetry_space_group_name_H-M   'P 1'
_cell_length_a   8.83771014
_cell_length_b   8.83299040
_cell_length_c   9.50215701
_cell_angle_alpha   90.21364395
_cell_angle_beta   89.99245475
_cell_angle_gamma   119.81319019
_symmetry_Int_Tables_number   1
_chemical_formula_structural   Dy3Ho3Al24Ru5Pt3
_chemical_formula_sum   'Dy3 Ho3 Al24 Ru5 Pt3'
_cell_volume   643.59242144
_cell_formula_units_Z   1
loop_
 _symmetry_equiv_pos_site_id
 _symmetry_equiv_pos_as_xyz
  1  'x, y, z'
loop_
 _atom_site_type_symbol
 _atom_site_label
 _atom_site_symmetry_multiplicity
 _atom_site_fract_x
 _atom_site_fract_y
 _atom_site_fract_z
 _atom_site_occupancy
  Dy  Dy0  1  0.190132  0.385981  0.251548  1
  Dy  Dy1  1  0.809785  0.613938  0.748441  1
  Dy  Dy2  1  0.614357  0.808702  0.250878  1
  Ho  Ho3  1  0.385968  0.191436  0.749121  1
  Ho  Ho4  1  0.192195  0.805421  0.250689  1
  Ho  Ho5  1  0.807726  0.194560  0.749321  1
  Al  Al6  1  0.327751  0.663576  0.027326  1
  Al  Al7  1  0.672114  0.336357  0.972578  1
  Al  Al8  1  0.669120  0.330354  0.524503  1
  Al  Al9  1  0.330738  0.669589  0.475584  1
  Al  Al10  1  0.157772  0.324557  0.577089  1
  Al  Al11  1  0.842281  0.675415  0.422961  1
  Al  Al12  1  0.675931  0.842339  0.577395  1
  Al  Al13  1  0.842164  0.675432  0.077142  1
  Al  Al14  1  0.324072  0.157662  0.422707  1
  Al  Al15  1  0.157886  0.324547  0.922802  1
  Al  Al16  1  0.162626  0.835940  0.576304  1
  Al  Al17  1  0.322076  0.161629  0.078679  1
  Al  Al18  1  0.837432  0.164156  0.423742  1
  Al  Al19  1  0.677934  0.838375  0.921229  1
  Al  Al20  1  0.842094  0.167489  0.076896  1
  Al  Al21  1  0.157944  0.832575  0.923056  1
  Al  Al22  1  0.562217  0.125360  0.253599  1
  Al  Al23  1  0.437742  0.874759  0.746404  1
  Al  Al24  1  0.877685  0.439442  0.249598  1
  Al  Al25  1  0.122344  0.560570  0.750398  1
  Al  Al26  1  0.563860  0.436593  0.249389  1
  Al  Al27  1  0.436088  0.563252  0.750601  1
  Al  Al28  1  0.997846  0.999881  0.250151  1
  Al  Al29  1  0.002305  0.000197  0.749846  1
  Ru  Ru30  1  0.999966  0.499978  0.999979  1
  Ru  Ru31  1  0.499973  0.000072  0.500082  1
  Ru  Ru32  1  0.999964  0.499977  0.500024  1
  Ru  Ru33  1  0.000006  0.000004  0.999988  1
  Ru  Ru34  1  0.000003  0.000003  0.500014  1
  Pt  Pt35  1  0.499967  0.000031  0.999945  1
  Pt  Pt36  1  0.499963  0.499918  0.999941  1
  Pt  Pt37  1  0.499974  0.499934  0.500051  1
