# generated using pymatgen
data_Dy3HoPtAu
_symmetry_space_group_name_H-M   'P 1'
_cell_length_a   4.86821900
_cell_length_b   7.13431600
_cell_length_c   8.88131700
_cell_angle_alpha   90.00000000
_cell_angle_beta   90.00000000
_cell_angle_gamma   90.00000000
_symmetry_Int_Tables_number   1
_chemical_formula_structural   Dy3HoPtAu
_chemical_formula_sum   'Dy6 Ho2 Pt2 Au2'
_cell_volume   308.46068607
_cell_formula_units_Z   2
loop_
 _symmetry_equiv_pos_site_id
 _symmetry_equiv_pos_as_xyz
  1  'x, y, z'
loop_
 _atom_site_type_symbol
 _atom_site_label
 _atom_site_symmetry_multiplicity
 _atom_site_fract_x
 _atom_site_fract_y
 _atom_site_fract_z
 _atom_site_occupancy
  Dy  Dy0  1  0.750000  0.855760  0.089451  1
  Dy  Dy1  1  0.750000  0.355760  0.410549  1
  Dy  Dy2  1  0.250000  0.005565  0.330078  1
  Dy  Dy3  1  0.250000  0.505565  0.169922  1
  Dy  Dy4  1  0.750000  0.984684  0.671210  1
  Dy  Dy5  1  0.750000  0.484684  0.828790  1
  Ho  Ho6  1  0.250000  0.149297  0.926078  1
  Ho  Ho7  1  0.250000  0.649297  0.573922  1
  Pt  Pt8  1  0.750000  0.760392  0.409129  1
  Pt  Pt9  1  0.750000  0.260392  0.090871  1
  Au  Au10  1  0.250000  0.244301  0.600006  1
  Au  Au11  1  0.250000  0.744301  0.899994  1
