# generated using pymatgen
data_Ho5In4PdPt
_symmetry_space_group_name_H-M   'P 1'
_cell_length_a   3.60676300
_cell_length_b   8.15226135
_cell_length_c   18.23579071
_cell_angle_alpha   90.11828851
_cell_angle_beta   90.00000000
_cell_angle_gamma   90.00000000
_symmetry_Int_Tables_number   1
_chemical_formula_structural   Ho5In4PdPt
_chemical_formula_sum   'Ho10 In8 Pd2 Pt2'
_cell_volume   536.19081890
_cell_formula_units_Z   2
loop_
 _symmetry_equiv_pos_site_id
 _symmetry_equiv_pos_as_xyz
  1  'x, y, z'
loop_
 _atom_site_type_symbol
 _atom_site_label
 _atom_site_symmetry_multiplicity
 _atom_site_fract_x
 _atom_site_fract_y
 _atom_site_fract_z
 _atom_site_occupancy
  Ho  Ho0  1  0.000000  0.118024  0.415453  1
  Ho  Ho1  1  0.000000  0.881976  0.584547  1
  Ho  Ho2  1  0.000000  0.382892  0.914848  1
  Ho  Ho3  1  0.000000  0.617108  0.085152  1
  Ho  Ho4  1  0.000000  0.245666  0.219347  1
  Ho  Ho5  1  0.000000  0.754334  0.780653  1
  Ho  Ho6  1  0.000000  0.259553  0.720318  1
  Ho  Ho7  1  0.000000  0.740447  0.279682  1
  Ho  Ho8  1  0.000000  0.000000  0.000000  1
  Ho  Ho9  1  0.000000  0.500000  0.500000  1
  In  In10  1  0.500000  0.422975  0.350873  1
  In  In11  1  0.500000  0.577025  0.649127  1
  In  In12  1  0.500000  0.075621  0.850435  1
  In  In13  1  0.500000  0.924379  0.149565  1
  In  In14  1  0.500000  0.292285  0.066589  1
  In  In15  1  0.500000  0.707715  0.933411  1
  In  In16  1  0.500000  0.207105  0.566830  1
  In  In17  1  0.500000  0.792895  0.433170  1
  Pd  Pd18  1  0.500000  0.024484  0.303383  1
  Pd  Pd19  1  0.500000  0.975516  0.696617  1
  Pt  Pt20  1  0.500000  0.475189  0.803186  1
  Pt  Pt21  1  0.500000  0.524811  0.196814  1
