# generated using pymatgen
data_Be3FeSi3Ni5
_symmetry_space_group_name_H-M   'P 1'
_cell_length_a   3.81052600
_cell_length_b   5.43306300
_cell_length_c   11.46396000
_cell_angle_alpha   89.99977904
_cell_angle_beta   89.99857356
_cell_angle_gamma   89.99949129
_symmetry_Int_Tables_number   1
_chemical_formula_structural   Be3FeSi3Ni5
_chemical_formula_sum   'Be6 Fe2 Si6 Ni10'
_cell_volume   237.33638999
_cell_formula_units_Z   2
loop_
 _symmetry_equiv_pos_site_id
 _symmetry_equiv_pos_as_xyz
  1  'x, y, z'
loop_
 _atom_site_type_symbol
 _atom_site_label
 _atom_site_symmetry_multiplicity
 _atom_site_fract_x
 _atom_site_fract_y
 _atom_site_fract_z
 _atom_site_occupancy
  Be  Be0  1  0.000090  0.000014  0.995948  1
  Be  Be1  1  0.499692  0.500028  0.169006  1
  Be  Be2  1  0.999625  0.999995  0.333321  1
  Be  Be3  1  0.500011  0.500009  0.497654  1
  Be  Be4  1  0.000291  0.000041  0.670728  1
  Be  Be5  1  0.500316  0.499928  0.833330  1
  Fe  Fe6  1  0.000287  0.248425  0.833342  1
  Fe  Fe7  1  0.000286  0.751566  0.833336  1
  Si  Si8  1  0.000083  0.500022  0.994279  1
  Si  Si9  1  0.499709  0.000001  0.168665  1
  Si  Si10  1  0.999633  0.499986  0.333334  1
  Si  Si11  1  0.500016  0.000004  0.498002  1
  Si  Si12  1  0.000274  0.500012  0.672393  1
  Si  Si13  1  0.500299  0.999992  0.833332  1
  Ni  Ni14  1  0.500079  0.249667  0.001198  1
  Ni  Ni15  1  0.500079  0.750340  0.001207  1
  Ni  Ni16  1  0.999723  0.251269  0.162293  1
  Ni  Ni17  1  0.999726  0.748732  0.162280  1
  Ni  Ni18  1  0.499617  0.250355  0.333327  1
  Ni  Ni19  1  0.499617  0.749624  0.333331  1
  Ni  Ni20  1  0.000019  0.251254  0.504375  1
  Ni  Ni21  1  0.000017  0.748741  0.504375  1
  Ni  Ni22  1  0.500262  0.249677  0.665476  1
  Ni  Ni23  1  0.500245  0.750324  0.665466  1
