# generated using pymatgen
data_Tb2CoB8Ru7
_symmetry_space_group_name_H-M   'P 1'
_cell_length_a   9.16605306
_cell_length_b   7.44312290
_cell_length_c   7.44579943
_cell_angle_alpha   89.96716580
_cell_angle_beta   113.90172536
_cell_angle_gamma   114.31081037
_symmetry_Int_Tables_number   1
_chemical_formula_structural   Tb2CoB8Ru7
_chemical_formula_sum   'Tb4 Co2 B16 Ru14'
_cell_volume   414.72770288
_cell_formula_units_Z   2
loop_
 _symmetry_equiv_pos_site_id
 _symmetry_equiv_pos_as_xyz
  1  'x, y, z'
loop_
 _atom_site_type_symbol
 _atom_site_label
 _atom_site_symmetry_multiplicity
 _atom_site_fract_x
 _atom_site_fract_y
 _atom_site_fract_z
 _atom_site_occupancy
  Tb  Tb0  1  0.748162  0.875455  0.124063  1
  Tb  Tb1  1  0.247989  0.625217  0.372228  1
  Tb  Tb2  1  0.750743  0.372969  0.631148  1
  Tb  Tb3  1  0.250444  0.118912  0.877129  1
  Co  Co4  1  0.875108  0.548429  0.038802  1
  Co  Co5  1  0.372425  0.834166  0.047466  1
  B  B6  1  0.914380  0.293740  0.065573  1
  B  B7  1  0.417734  0.575778  0.128315  1
  B  B8  1  0.085317  0.210755  0.151973  1
  B  B9  1  0.579573  0.147486  0.203579  1
  B  B10  1  0.404023  0.052715  0.279378  1
  B  B11  1  0.918155  0.628952  0.342906  1
  B  B12  1  0.587656  0.648701  0.375452  1
  B  B13  1  0.088515  0.878438  0.442505  1
  B  B14  1  0.911021  0.123956  0.560742  1
  B  B15  1  0.416168  0.348501  0.624727  1
  B  B16  1  0.086940  0.375900  0.656720  1
  B  B17  1  0.586675  0.935420  0.709530  1
  B  B18  1  0.415767  0.850447  0.794041  1
  B  B19  1  0.909388  0.784095  0.850527  1
  B  B20  1  0.592682  0.440006  0.877332  1
  B  B21  1  0.085116  0.708601  0.938908  1
  Ru  Ru22  1  0.116416  0.939113  0.165639  1
  Ru  Ru23  1  0.631379  0.464118  0.177067  1
  Ru  Ru24  1  0.373319  0.331039  0.317205  1
  Ru  Ru25  1  0.872845  0.323699  0.333500  1
  Ru  Ru26  1  0.621055  0.956447  0.438449  1
  Ru  Ru27  1  0.128456  0.181612  0.462958  1
  Ru  Ru28  1  0.873838  0.820669  0.539820  1
  Ru  Ru29  1  0.373684  0.037659  0.550934  1
  Ru  Ru30  1  0.130758  0.682023  0.673272  1
  Ru  Ru31  1  0.624043  0.665110  0.675909  1
  Ru  Ru32  1  0.375458  0.541314  0.825953  1
  Ru  Ru33  1  0.873526  0.053295  0.831867  1
  Ru  Ru34  1  0.630150  0.171869  0.948060  1
  Ru  Ru35  1  0.131093  0.453394  0.966318  1
