# generated using pymatgen
data_Tm3Lu(GaCo)4
_symmetry_space_group_name_H-M   'P 1'
_cell_length_a   4.32745900
_cell_length_b   6.91391066
_cell_length_c   6.89978704
_cell_angle_alpha   89.92697133
_cell_angle_beta   90.00000000
_cell_angle_gamma   90.00000000
_symmetry_Int_Tables_number   1
_chemical_formula_structural   Tm3Lu(GaCo)4
_chemical_formula_sum   'Tm3 Lu1 Ga4 Co4'
_cell_volume   206.43914852
_cell_formula_units_Z   1
loop_
 _symmetry_equiv_pos_site_id
 _symmetry_equiv_pos_as_xyz
  1  'x, y, z'
loop_
 _atom_site_type_symbol
 _atom_site_label
 _atom_site_symmetry_multiplicity
 _atom_site_fract_x
 _atom_site_fract_y
 _atom_site_fract_z
 _atom_site_occupancy
  Tm  Tm0  1  0.250000  0.196226  0.517737  1
  Tm  Tm1  1  0.250000  0.302859  0.017601  1
  Tm  Tm2  1  0.750000  0.697371  0.982015  1
  Lu  Lu3  1  0.750000  0.801997  0.481904  1
  Ga  Ga4  1  0.250000  0.894977  0.198618  1
  Ga  Ga5  1  0.750000  0.395922  0.302521  1
  Ga  Ga6  1  0.250000  0.605229  0.697035  1
  Ga  Ga7  1  0.750000  0.104452  0.801906  1
  Co  Co8  1  0.250000  0.937635  0.841714  1
  Co  Co9  1  0.250000  0.563055  0.342259  1
  Co  Co10  1  0.750000  0.061788  0.159368  1
  Co  Co11  1  0.750000  0.438490  0.657322  1
