# generated using pymatgen
data_Co(WO3)2
_symmetry_space_group_name_H-M   'P 1'
_cell_length_a   4.68912435
_cell_length_b   10.71013862
_cell_length_c   9.38030847
_cell_angle_alpha   64.02727419
_cell_angle_beta   89.98289927
_cell_angle_gamma   89.98983548
_symmetry_Int_Tables_number   1
_chemical_formula_structural   Co(WO3)2
_chemical_formula_sum   'Co4 W8 O24'
_cell_volume   423.51119968
_cell_formula_units_Z   4
loop_
 _symmetry_equiv_pos_site_id
 _symmetry_equiv_pos_as_xyz
  1  'x, y, z'
loop_
 _atom_site_type_symbol
 _atom_site_label
 _atom_site_symmetry_multiplicity
 _atom_site_fract_x
 _atom_site_fract_y
 _atom_site_fract_z
 _atom_site_occupancy
  Co  Co0  1  0.000140  0.333494  0.333186  1
  Co  Co1  1  0.499772  0.833343  0.833290  1
  Co  Co2  1  0.000098  0.333196  0.833382  1
  Co  Co3  1  0.499860  0.833280  0.333497  1
  W  W4  1  0.999858  0.997643  0.501406  1
  W  W5  1  0.998832  0.997616  0.000978  1
  W  W6  1  0.000168  0.669063  0.165185  1
  W  W7  1  0.000996  0.669018  0.665761  1
  W  W8  1  0.499463  0.168925  0.165563  1
  W  W9  1  0.499308  0.169288  0.665289  1
  W  W10  1  0.500527  0.497351  0.001263  1
  W  W11  1  0.500774  0.497707  0.501157  1
  O  O12  1  0.192110  0.833434  0.679293  1
  O  O13  1  0.190871  0.833507  0.178627  1
  O  O14  1  0.308454  0.333454  0.179010  1
  O  O15  1  0.308011  0.333538  0.678875  1
  O  O16  1  0.691935  0.333071  0.987732  1
  O  O17  1  0.691928  0.333268  0.487667  1
  O  O18  1  0.807585  0.833238  0.987421  1
  O  O19  1  0.809201  0.833200  0.488099  1
  O  O20  1  0.206027  0.159056  0.024232  1
  O  O21  1  0.207192  0.159434  0.523405  1
  O  O22  1  0.208627  0.507306  0.849605  1
  O  O23  1  0.207683  0.507862  0.349653  1
  O  O24  1  0.292737  0.007358  0.349957  1
  O  O25  1  0.291115  0.007981  0.849124  1
  O  O26  1  0.293186  0.659058  0.023806  1
  O  O27  1  0.293933  0.659089  0.524168  1
  O  O28  1  0.706265  0.007552  0.142744  1
  O  O29  1  0.706640  0.007598  0.642740  1
  O  O30  1  0.708351  0.658828  0.817253  1
  O  O31  1  0.707478  0.659233  0.316840  1
  O  O32  1  0.792614  0.158998  0.316939  1
  O  O33  1  0.791081  0.159198  0.817252  1
  O  O34  1  0.793069  0.507383  0.142949  1
  O  O35  1  0.794111  0.507430  0.642649  1
