# generated using pymatgen
data_Sc3UTc3Ge2
_symmetry_space_group_name_H-M   'P 1'
_cell_length_a   6.86071800
_cell_length_b   6.86071843
_cell_length_c   3.99939500
_cell_angle_alpha   90.00000000
_cell_angle_beta   90.00000000
_cell_angle_gamma   120.00000755
_symmetry_Int_Tables_number   1
_chemical_formula_structural   Sc3UTc3Ge2
_chemical_formula_sum   'Sc3 U1 Tc3 Ge2'
_cell_volume   163.02869897
_cell_formula_units_Z   1
loop_
 _symmetry_equiv_pos_site_id
 _symmetry_equiv_pos_as_xyz
  1  'x, y, z'
loop_
 _atom_site_type_symbol
 _atom_site_label
 _atom_site_symmetry_multiplicity
 _atom_site_fract_x
 _atom_site_fract_y
 _atom_site_fract_z
 _atom_site_occupancy
  Sc  Sc0  1  0.459138  0.459138  0.000000  1
  Sc  Sc1  1  0.540862  0.000000  0.000000  1
  Sc  Sc2  1  0.000000  0.540862  0.000000  1
  U  U3  1  0.000000  0.000000  0.000000  1
  Tc  Tc4  1  0.000000  0.237814  0.500000  1
  Tc  Tc5  1  0.762186  0.762186  0.500000  1
  Tc  Tc6  1  0.237814  0.000000  0.500000  1
  Ge  Ge7  1  0.666667  0.333333  0.500000  1
  Ge  Ge8  1  0.333333  0.666667  0.500000  1
