# generated using pymatgen
data_KLiPdF6
_symmetry_space_group_name_H-M   'P 1'
_cell_length_a   5.34416300
_cell_length_b   5.34416232
_cell_length_c   11.06518800
_cell_angle_alpha   90.00000000
_cell_angle_beta   90.00000000
_cell_angle_gamma   119.99998564
_symmetry_Int_Tables_number   1
_chemical_formula_structural   KLiPdF6
_chemical_formula_sum   'K2 Li2 Pd2 F12'
_cell_volume   273.68363417
_cell_formula_units_Z   2
loop_
 _symmetry_equiv_pos_site_id
 _symmetry_equiv_pos_as_xyz
  1  'x, y, z'
loop_
 _atom_site_type_symbol
 _atom_site_label
 _atom_site_symmetry_multiplicity
 _atom_site_fract_x
 _atom_site_fract_y
 _atom_site_fract_z
 _atom_site_occupancy
  K  K0  1  0.000000  0.000000  0.500000  1
  K  K1  1  0.000000  0.000000  0.000000  1
  Li  Li2  1  0.333333  0.666667  0.750000  1
  Li  Li3  1  0.666667  0.333333  0.250000  1
  Pd  Pd4  1  0.666667  0.333333  0.750000  1
  Pd  Pd5  1  0.333333  0.666667  0.250000  1
  F  F6  1  0.642144  0.016883  0.652660  1
  F  F7  1  0.357856  0.983117  0.347340  1
  F  F8  1  0.983117  0.625261  0.652660  1
  F  F9  1  0.642144  0.625261  0.847340  1
  F  F10  1  0.016883  0.374739  0.347340  1
  F  F11  1  0.357856  0.374739  0.152660  1
  F  F12  1  0.374739  0.357856  0.652660  1
  F  F13  1  0.983117  0.357856  0.847340  1
  F  F14  1  0.625261  0.642144  0.347340  1
  F  F15  1  0.016883  0.642144  0.152660  1
  F  F16  1  0.374739  0.016883  0.847340  1
  F  F17  1  0.625261  0.983117  0.152660  1
