# generated using pymatgen
data_SrSb12RuRh3
_symmetry_space_group_name_H-M   'P 1'
_cell_length_a   8.17779408
_cell_length_b   8.17779321
_cell_length_c   8.17779294
_cell_angle_alpha   109.41492618
_cell_angle_beta   109.41493316
_cell_angle_gamma   109.41492600
_symmetry_Int_Tables_number   1
_chemical_formula_structural   SrSb12RuRh3
_chemical_formula_sum   'Sr1 Sb12 Ru1 Rh3'
_cell_volume   421.87944416
_cell_formula_units_Z   1
loop_
 _symmetry_equiv_pos_site_id
 _symmetry_equiv_pos_as_xyz
  1  'x, y, z'
loop_
 _atom_site_type_symbol
 _atom_site_label
 _atom_site_symmetry_multiplicity
 _atom_site_fract_x
 _atom_site_fract_y
 _atom_site_fract_z
 _atom_site_occupancy
  Sr  Sr0  1  0.000000  0.000000  0.000000  1
  Sb  Sb1  1  0.159074  0.498895  0.343062  1
  Sb  Sb2  1  0.501105  0.656938  0.840926  1
  Sb  Sb3  1  0.341908  0.842976  0.184824  1
  Sb  Sb4  1  0.815176  0.658092  0.157024  1
  Sb  Sb5  1  0.656938  0.840926  0.501105  1
  Sb  Sb6  1  0.184824  0.341908  0.842976  1
  Sb  Sb7  1  0.658092  0.157024  0.815176  1
  Sb  Sb8  1  0.343062  0.159074  0.498895  1
  Sb  Sb9  1  0.498895  0.343062  0.159074  1
  Sb  Sb10  1  0.840926  0.501105  0.656938  1
  Sb  Sb11  1  0.842976  0.184824  0.341908  1
  Sb  Sb12  1  0.157024  0.815176  0.658092  1
  Ru  Ru13  1  0.500000  0.500000  0.500000  1
  Rh  Rh14  1  0.500000  0.000000  0.000000  1
  Rh  Rh15  1  0.000000  0.500000  0.000000  1
  Rh  Rh16  1  0.000000  0.000000  0.500000  1
