# generated using pymatgen
data_HfSc2Mn8Nb
_symmetry_space_group_name_H-M   'P 1'
_cell_length_a   4.85029700
_cell_length_b   4.85029639
_cell_length_c   8.12618200
_cell_angle_alpha   90.00000000
_cell_angle_beta   90.00000000
_cell_angle_gamma   119.99999735
_symmetry_Int_Tables_number   1
_chemical_formula_structural   HfSc2Mn8Nb
_chemical_formula_sum   'Hf1 Sc2 Mn8 Nb1'
_cell_volume   165.55938285
_cell_formula_units_Z   1
loop_
 _symmetry_equiv_pos_site_id
 _symmetry_equiv_pos_as_xyz
  1  'x, y, z'
loop_
 _atom_site_type_symbol
 _atom_site_label
 _atom_site_symmetry_multiplicity
 _atom_site_fract_x
 _atom_site_fract_y
 _atom_site_fract_z
 _atom_site_occupancy
  Hf  Hf0  1  0.333333  0.666667  0.063871  1
  Sc  Sc1  1  0.666667  0.333333  0.935538  1
  Sc  Sc2  1  0.333333  0.666667  0.438505  1
  Mn  Mn3  1  0.000000  0.000000  0.998442  1
  Mn  Mn4  1  0.000000  0.000000  0.500021  1
  Mn  Mn5  1  0.829106  0.658211  0.252394  1
  Mn  Mn6  1  0.170648  0.829352  0.747114  1
  Mn  Mn7  1  0.658705  0.829352  0.747114  1
  Mn  Mn8  1  0.341789  0.170894  0.252394  1
  Mn  Mn9  1  0.829106  0.170894  0.252394  1
  Mn  Mn10  1  0.170648  0.341295  0.747114  1
  Nb  Nb11  1  0.666667  0.333333  0.565102  1
