# generated using pymatgen
data_ErHfMn6Co6P7
_symmetry_space_group_name_H-M   'P 1'
_cell_length_a   9.02235400
_cell_length_b   9.02235370
_cell_length_c   3.59172000
_cell_angle_alpha   90.00000000
_cell_angle_beta   90.00000000
_cell_angle_gamma   120.00000646
_symmetry_Int_Tables_number   1
_chemical_formula_structural   ErHfMn6Co6P7
_chemical_formula_sum   'Er1 Hf1 Mn6 Co6 P7'
_cell_volume   253.20529780
_cell_formula_units_Z   1
loop_
 _symmetry_equiv_pos_site_id
 _symmetry_equiv_pos_as_xyz
  1  'x, y, z'
loop_
 _atom_site_type_symbol
 _atom_site_label
 _atom_site_symmetry_multiplicity
 _atom_site_fract_x
 _atom_site_fract_y
 _atom_site_fract_z
 _atom_site_occupancy
  Er  Er0  1  0.000000  0.000000  0.500000  1
  Hf  Hf1  1  0.333333  0.666667  0.000000  1
  Mn  Mn2  1  0.544706  0.052905  0.000000  1
  Mn  Mn3  1  0.947095  0.491801  0.000000  1
  Mn  Mn4  1  0.508199  0.455294  0.000000  1
  Mn  Mn5  1  0.789386  0.226946  0.500000  1
  Mn  Mn6  1  0.773054  0.562439  0.500000  1
  Mn  Mn7  1  0.437561  0.210614  0.500000  1
  Co  Co8  1  0.037909  0.273158  0.000000  1
  Co  Co9  1  0.726842  0.764752  0.000000  1
  Co  Co10  1  0.235248  0.962091  0.000000  1
  Co  Co11  1  0.610327  0.889617  0.500000  1
  Co  Co12  1  0.110383  0.720710  0.500000  1
  Co  Co13  1  0.279290  0.389673  0.500000  1
  P  P14  1  0.779470  0.033431  0.000000  1
  P  P15  1  0.966569  0.746040  0.000000  1
  P  P16  1  0.253960  0.220530  0.000000  1
  P  P17  1  0.379078  0.922802  0.500000  1
  P  P18  1  0.077198  0.456277  0.500000  1
  P  P19  1  0.543723  0.620922  0.500000  1
  P  P20  1  0.666667  0.333333  0.000000  1
