# generated using pymatgen
data_SrPr2BiPt4F28
_symmetry_space_group_name_H-M   'P 1'
_cell_length_a   5.70999058
_cell_length_b   9.30861374
_cell_length_c   12.42143164
_cell_angle_alpha   61.82713883
_cell_angle_beta   90.20763677
_cell_angle_gamma   89.99680151
_symmetry_Int_Tables_number   1
_chemical_formula_structural   SrPr2BiPt4F28
_chemical_formula_sum   'Sr1 Pr2 Bi1 Pt4 F28'
_cell_volume   582.00141408
_cell_formula_units_Z   1
loop_
 _symmetry_equiv_pos_site_id
 _symmetry_equiv_pos_as_xyz
  1  'x, y, z'
loop_
 _atom_site_type_symbol
 _atom_site_label
 _atom_site_symmetry_multiplicity
 _atom_site_fract_x
 _atom_site_fract_y
 _atom_site_fract_z
 _atom_site_occupancy
  Sr  Sr0  1  0.262884  0.190246  0.735019  1
  Pr  Pr1  1  0.238606  0.188619  0.235486  1
  Pr  Pr2  1  0.738416  0.810783  0.265109  1
  Bi  Bi3  1  0.773553  0.824719  0.760579  1
  Pt  Pt4  1  0.755031  0.273927  0.959345  1
  Pt  Pt5  1  0.256999  0.729627  0.541809  1
  Pt  Pt6  1  0.240374  0.724607  0.043801  1
  Pt  Pt7  1  0.742766  0.274110  0.454834  1
  F  F8  1  0.426553  0.704910  0.920225  1
  F  F9  1  0.922883  0.295846  0.579369  1
  F  F10  1  0.570986  0.291090  0.086659  1
  F  F11  1  0.068257  0.710611  0.415629  1
  F  F12  1  0.452473  0.283658  0.532733  1
  F  F13  1  0.946314  0.718715  0.961172  1
  F  F14  1  0.549086  0.720639  0.459812  1
  F  F15  1  0.050744  0.280249  0.040171  1
  F  F16  1  0.763330  0.509283  0.865572  1
  F  F17  1  0.264069  0.494265  0.636366  1
  F  F18  1  0.230199  0.484958  0.137828  1
  F  F19  1  0.735246  0.513088  0.359042  1
  F  F20  1  0.757062  0.034489  0.050587  1
  F  F21  1  0.257631  0.968963  0.449386  1
  F  F22  1  0.243457  0.960574  0.956356  1
  F  F23  1  0.741381  0.033881  0.547558  1
  F  F24  1  0.968324  0.731293  0.625930  1
  F  F25  1  0.466690  0.272756  0.877146  1
  F  F26  1  0.032443  0.270365  0.369388  1
  F  F27  1  0.527277  0.725942  0.131785  1
  F  F28  1  0.055703  0.740458  0.172018  1
  F  F29  1  0.561131  0.256337  0.325991  1
  F  F30  1  0.931924  0.260278  0.831506  1
  F  F31  1  0.441511  0.744252  0.669056  1
  F  F32  1  0.407154  0.967694  0.230988  1
  F  F33  1  0.907005  0.031343  0.268967  1
  F  F34  1  0.618942  0.022970  0.774131  1
  F  F35  1  0.093595  0.954452  0.728648  1
