# generated using pymatgen
data_Er4Al18Os2Pt3Rh
_symmetry_space_group_name_H-M   'P 1'
_cell_length_a   7.56515375
_cell_length_b   7.56515384
_cell_length_c   9.44694900
_cell_angle_alpha   90.00155045
_cell_angle_beta   90.00155198
_cell_angle_gamma   119.21552311
_symmetry_Int_Tables_number   1
_chemical_formula_structural   Er4Al18Os2Pt3Rh
_chemical_formula_sum   'Er4 Al18 Os2 Pt3 Rh1'
_cell_volume   471.88567064
_cell_formula_units_Z   1
loop_
 _symmetry_equiv_pos_site_id
 _symmetry_equiv_pos_as_xyz
  1  'x, y, z'
loop_
 _atom_site_type_symbol
 _atom_site_label
 _atom_site_symmetry_multiplicity
 _atom_site_fract_x
 _atom_site_fract_y
 _atom_site_fract_z
 _atom_site_occupancy
  Er  Er0  1  0.994754  0.676780  0.750476  1
  Er  Er1  1  0.007182  0.324993  0.249782  1
  Er  Er2  1  0.675007  0.992818  0.750218  1
  Er  Er3  1  0.323220  0.005246  0.249524  1
  Al  Al4  1  0.128248  0.129190  0.750331  1
  Al  Al5  1  0.870810  0.871752  0.249669  1
  Al  Al6  1  0.999764  0.332369  0.577164  1
  Al  Al7  1  0.998735  0.668024  0.422730  1
  Al  Al8  1  0.996649  0.664329  0.076131  1
  Al  Al9  1  0.335671  0.003351  0.923869  1
  Al  Al10  1  0.995768  0.331679  0.923901  1
  Al  Al11  1  0.668321  0.004232  0.076099  1
  Al  Al12  1  0.667631  0.000236  0.422836  1
  Al  Al13  1  0.331976  0.001265  0.577270  1
  Al  Al14  1  0.331483  0.328064  0.050505  1
  Al  Al15  1  0.671936  0.668517  0.949495  1
  Al  Al16  1  0.671196  0.671375  0.553976  1
  Al  Al17  1  0.328625  0.328804  0.446024  1
  Al  Al18  1  0.342819  0.547720  0.750442  1
  Al  Al19  1  0.657065  0.447599  0.246669  1
  Al  Al20  1  0.552401  0.342935  0.753331  1
  Al  Al21  1  0.452280  0.657181  0.249558  1
  Os  Os22  1  0.999639  0.000361  0.500000  1
  Os  Os23  1  0.000067  0.999933  0.000000  1
  Pt  Pt24  1  0.671445  0.328555  0.500000  1
  Pt  Pt25  1  0.327714  0.672286  0.500000  1
  Pt  Pt26  1  0.327788  0.672212  0.000000  1
  Rh  Rh27  1  0.671805  0.328195  0.000000  1
