# generated using pymatgen
data_Li3Sm8Sc8Si16Ag
_symmetry_space_group_name_H-M   'P 1'
_cell_length_a   6.97767034
_cell_length_b   7.49748292
_cell_length_c   14.24407900
_cell_angle_alpha   90.00000000
_cell_angle_beta   90.00000000
_cell_angle_gamma   89.92958769
_symmetry_Int_Tables_number   1
_chemical_formula_structural   Li3Sm8Sc8Si16Ag
_chemical_formula_sum   'Li3 Sm8 Sc8 Si16 Ag1'
_cell_volume   745.17792084
_cell_formula_units_Z   1
loop_
 _symmetry_equiv_pos_site_id
 _symmetry_equiv_pos_as_xyz
  1  'x, y, z'
loop_
 _atom_site_type_symbol
 _atom_site_label
 _atom_site_symmetry_multiplicity
 _atom_site_fract_x
 _atom_site_fract_y
 _atom_site_fract_z
 _atom_site_occupancy
  Li  Li0  1  0.841739  0.498939  0.250000  1
  Li  Li1  1  0.341965  0.001342  0.250000  1
  Li  Li2  1  0.657662  0.000148  0.750000  1
  Sm  Sm3  1  0.014538  0.179365  0.100587  1
  Sm  Sm4  1  0.986597  0.818210  0.898914  1
  Sm  Sm5  1  0.485372  0.679188  0.899276  1
  Sm  Sm6  1  0.986597  0.818210  0.601086  1
  Sm  Sm7  1  0.514903  0.319032  0.100198  1
  Sm  Sm8  1  0.014538  0.179365  0.399413  1
  Sm  Sm9  1  0.514903  0.319032  0.399802  1
  Sm  Sm10  1  0.485372  0.679188  0.600724  1
  Sc  Sc11  1  0.328914  0.181441  0.625923  1
  Sc  Sc12  1  0.669084  0.820417  0.374299  1
  Sc  Sc13  1  0.169487  0.680955  0.373740  1
  Sc  Sc14  1  0.669084  0.820417  0.125701  1
  Sc  Sc15  1  0.831800  0.321604  0.625413  1
  Sc  Sc16  1  0.328914  0.181441  0.874077  1
  Sc  Sc17  1  0.831800  0.321604  0.874587  1
  Sc  Sc18  1  0.169487  0.680955  0.126260  1
  Si  Si19  1  0.030546  0.106673  0.750000  1
  Si  Si20  1  0.965067  0.889370  0.250000  1
  Si  Si21  1  0.466024  0.610076  0.250000  1
  Si  Si22  1  0.535770  0.387583  0.750000  1
  Si  Si23  1  0.285704  0.893991  0.750000  1
  Si  Si24  1  0.715705  0.109270  0.250000  1
  Si  Si25  1  0.217008  0.390968  0.250000  1
  Si  Si26  1  0.780283  0.612389  0.750000  1
  Si  Si27  1  0.157658  0.460536  0.532169  1
  Si  Si28  1  0.844732  0.537905  0.464743  1
  Si  Si29  1  0.344848  0.961797  0.465701  1
  Si  Si30  1  0.844732  0.537905  0.035257  1
  Si  Si31  1  0.655533  0.037252  0.535897  1
  Si  Si32  1  0.157658  0.460536  0.967831  1
  Si  Si33  1  0.655533  0.037252  0.964103  1
  Si  Si34  1  0.344848  0.961797  0.034299  1
  Ag  Ag35  1  0.155596  0.503848  0.750000  1
