# generated using pymatgen
data_Tm4Hf2MoO12
_symmetry_space_group_name_H-M   'P 1'
_cell_length_a   6.22805864
_cell_length_b   6.31957237
_cell_length_c   6.50124077
_cell_angle_alpha   100.48171996
_cell_angle_beta   98.39715881
_cell_angle_gamma   99.34139191
_symmetry_Int_Tables_number   1
_chemical_formula_structural   Tm4Hf2MoO12
_chemical_formula_sum   'Tm4 Hf2 Mo1 O12'
_cell_volume   244.17557160
_cell_formula_units_Z   1
loop_
 _symmetry_equiv_pos_site_id
 _symmetry_equiv_pos_as_xyz
  1  'x, y, z'
loop_
 _atom_site_type_symbol
 _atom_site_label
 _atom_site_symmetry_multiplicity
 _atom_site_fract_x
 _atom_site_fract_y
 _atom_site_fract_z
 _atom_site_occupancy
  Tm  Tm0  1  0.387637  0.698956  0.865721  1
  Tm  Tm1  1  0.699418  0.866424  0.390753  1
  Tm  Tm2  1  0.612363  0.301044  0.134279  1
  Tm  Tm3  1  0.300582  0.133576  0.609247  1
  Hf  Hf4  1  0.847526  0.396683  0.669709  1
  Hf  Hf5  1  0.152474  0.603317  0.330291  1
  Mo  Mo6  1  0.000000  0.000000  0.000000  1
  O  O7  1  0.024257  0.680004  0.888322  1
  O  O8  1  0.687406  0.930800  0.058953  1
  O  O9  1  0.923689  0.088784  0.692625  1
  O  O10  1  0.975743  0.319996  0.111678  1
  O  O11  1  0.312594  0.069200  0.941047  1
  O  O12  1  0.076311  0.911216  0.307375  1
  O  O13  1  0.587475  0.187953  0.432300  1
  O  O14  1  0.173102  0.430477  0.574768  1
  O  O15  1  0.415812  0.583599  0.178035  1
  O  O16  1  0.412525  0.812047  0.567700  1
  O  O17  1  0.826898  0.569523  0.425232  1
  O  O18  1  0.584188  0.416401  0.821965  1
