# generated using pymatgen
data_Dy5Ho2Lu3(In2Pt)4
_symmetry_space_group_name_H-M   'P 1'
_cell_length_a   3.61518500
_cell_length_b   8.14142219
_cell_length_c   18.14805507
_cell_angle_alpha   89.91869261
_cell_angle_beta   90.00000000
_cell_angle_gamma   90.00000000
_symmetry_Int_Tables_number   1
_chemical_formula_structural   Dy5Ho2Lu3(In2Pt)4
_chemical_formula_sum   'Dy5 Ho2 Lu3 In8 Pt4'
_cell_volume   534.14658283
_cell_formula_units_Z   1
loop_
 _symmetry_equiv_pos_site_id
 _symmetry_equiv_pos_as_xyz
  1  'x, y, z'
loop_
 _atom_site_type_symbol
 _atom_site_label
 _atom_site_symmetry_multiplicity
 _atom_site_fract_x
 _atom_site_fract_y
 _atom_site_fract_z
 _atom_site_occupancy
  Dy  Dy0  1  0.000000  0.757831  0.780420  1
  Dy  Dy1  1  0.000000  0.257574  0.718975  1
  Dy  Dy2  1  0.000000  0.742002  0.281262  1
  Dy  Dy3  1  0.000000  0.999510  0.999568  1
  Dy  Dy4  1  0.000000  0.500231  0.500150  1
  Ho  Ho5  1  0.000000  0.617137  0.084794  1
  Ho  Ho6  1  0.000000  0.243214  0.219999  1
  Lu  Lu7  1  0.000000  0.116901  0.414198  1
  Lu  Lu8  1  0.000000  0.883203  0.585923  1
  Lu  Lu9  1  0.000000  0.383186  0.913695  1
  In  In10  1  0.500000  0.419917  0.351706  1
  In  In11  1  0.500000  0.579654  0.648822  1
  In  In12  1  0.500000  0.079231  0.850834  1
  In  In13  1  0.500000  0.923609  0.149687  1
  In  In14  1  0.500000  0.293582  0.065012  1
  In  In15  1  0.500000  0.704214  0.933605  1
  In  In16  1  0.500000  0.203128  0.564558  1
  In  In17  1  0.500000  0.797164  0.435680  1
  Pt  Pt18  1  0.500000  0.027018  0.305256  1
  Pt  Pt19  1  0.500000  0.973759  0.694724  1
  Pt  Pt20  1  0.500000  0.473058  0.804699  1
  Pt  Pt21  1  0.500000  0.524878  0.196429  1
