# generated using pymatgen
data_Ba20RhAu15
_symmetry_space_group_name_H-M   'P 1'
_cell_length_a   8.78305858
_cell_length_b   8.79213150
_cell_length_c   17.28894725
_cell_angle_alpha   89.71759070
_cell_angle_beta   89.87944361
_cell_angle_gamma   89.54286501
_symmetry_Int_Tables_number   1
_chemical_formula_structural   Ba20RhAu15
_chemical_formula_sum   'Ba20 Rh1 Au15'
_cell_volume   1335.02217424
_cell_formula_units_Z   1
loop_
 _symmetry_equiv_pos_site_id
 _symmetry_equiv_pos_as_xyz
  1  'x, y, z'
loop_
 _atom_site_type_symbol
 _atom_site_label
 _atom_site_symmetry_multiplicity
 _atom_site_fract_x
 _atom_site_fract_y
 _atom_site_fract_z
 _atom_site_occupancy
  Ba  Ba0  1  0.684202  0.673481  0.997649  1
  Ba  Ba1  1  0.991684  0.361782  0.045507  1
  Ba  Ba2  1  0.012606  0.860310  0.122400  1
  Ba  Ba3  1  0.483924  0.361772  0.119811  1
  Ba  Ba4  1  0.497783  0.866079  0.195923  1
  Ba  Ba5  1  0.814951  0.183177  0.248955  1
  Ba  Ba6  1  0.134649  0.505067  0.298104  1
  Ba  Ba7  1  0.641011  0.515858  0.374054  1
  Ba  Ba8  1  0.142156  0.984040  0.374419  1
  Ba  Ba9  1  0.634815  0.994546  0.449486  1
  Ba  Ba10  1  0.316332  0.316870  0.499766  1
  Ba  Ba11  1  0.994105  0.634048  0.552228  1
  Ba  Ba12  1  0.984014  0.140074  0.625895  1
  Ba  Ba13  1  0.515015  0.641112  0.626312  1
  Ba  Ba14  1  0.504694  0.133470  0.699884  1
  Ba  Ba15  1  0.178989  0.811706  0.754408  1
  Ba  Ba16  1  0.862250  0.486794  0.808311  1
  Ba  Ba17  1  0.374582  0.474291  0.877182  1
  Ba  Ba18  1  0.850723  0.027702  0.877615  1
  Ba  Ba19  1  0.378200  0.014954  0.949002  1
  Rh  Rh20  1  0.668368  0.313148  0.952504  1
  Au  Au21  1  0.306706  0.669049  0.051475  1
  Au  Au22  1  0.708921  0.073609  0.060487  1
  Au  Au23  1  0.790258  0.565080  0.187761  1
  Au  Au24  1  0.193015  0.161378  0.195299  1
  Au  Au25  1  0.838008  0.806479  0.303282  1
  Au  Au26  1  0.434918  0.208232  0.311276  1
  Au  Au27  1  0.935558  0.290430  0.436615  1
  Au  Au28  1  0.336809  0.692453  0.447199  1
  Au  Au29  1  0.692846  0.337691  0.553044  1
  Au  Au30  1  0.290026  0.934249  0.563621  1
  Au  Au31  1  0.209864  0.432551  0.688248  1
  Au  Au32  1  0.804515  0.837001  0.697636  1
  Au  Au33  1  0.162667  0.191437  0.803479  1
  Au  Au34  1  0.564305  0.791132  0.812924  1
  Au  Au35  1  0.066524  0.708940  0.938241  1
