# generated using pymatgen
data_Yb5Y3Cu3Si12Pd
_symmetry_space_group_name_H-M   'P 1'
_cell_length_a   8.13571839
_cell_length_b   8.13571788
_cell_length_c   8.13754612
_cell_angle_alpha   90.01716748
_cell_angle_beta   89.98283098
_cell_angle_gamma   120.35617215
_symmetry_Int_Tables_number   1
_chemical_formula_structural   Yb5Y3Cu3Si12Pd
_chemical_formula_sum   'Yb5 Y3 Cu3 Si12 Pd1'
_cell_volume   464.77841105
_cell_formula_units_Z   1
loop_
 _symmetry_equiv_pos_site_id
 _symmetry_equiv_pos_as_xyz
  1  'x, y, z'
loop_
 _atom_site_type_symbol
 _atom_site_label
 _atom_site_symmetry_multiplicity
 _atom_site_fract_x
 _atom_site_fract_y
 _atom_site_fract_z
 _atom_site_occupancy
  Yb  Yb0  1  0.500155  0.000308  0.251308  1
  Yb  Yb1  1  0.499743  0.999464  0.748599  1
  Yb  Yb2  1  0.999692  0.499845  0.251308  1
  Yb  Yb3  1  0.000536  0.500257  0.748599  1
  Yb  Yb4  1  0.500015  0.499985  0.251766  1
  Y  Y5  1  0.499476  0.500524  0.748462  1
  Y  Y6  1  0.999555  0.000445  0.249971  1
  Y  Y7  1  0.000218  0.999782  0.750236  1
  Cu  Cu8  1  0.332704  0.667296  0.002054  1
  Cu  Cu9  1  0.667373  0.332627  0.996731  1
  Cu  Cu10  1  0.667132  0.332868  0.502890  1
  Si  Si11  1  0.168259  0.335127  0.998550  1
  Si  Si12  1  0.832128  0.665644  0.998776  1
  Si  Si13  1  0.664873  0.831741  0.998550  1
  Si  Si14  1  0.832594  0.666040  0.501328  1
  Si  Si15  1  0.334356  0.167872  0.998776  1
  Si  Si16  1  0.164820  0.328661  0.502083  1
  Si  Si17  1  0.167142  0.832858  0.998401  1
  Si  Si18  1  0.333960  0.167406  0.501328  1
  Si  Si19  1  0.833128  0.166872  0.999461  1
  Si  Si20  1  0.671339  0.835180  0.502083  1
  Si  Si21  1  0.833389  0.166611  0.501139  1
  Si  Si22  1  0.164463  0.835537  0.499085  1
  Pd  Pd23  1  0.332953  0.667047  0.498513  1
