# generated using pymatgen
data_Sr12Zn12TeIr7O48
_symmetry_space_group_name_H-M   'P 1'
_cell_length_a   11.22320052
_cell_length_b   11.22319959
_cell_length_c   11.22320033
_cell_angle_alpha   109.42081268
_cell_angle_beta   109.42081433
_cell_angle_gamma   109.42081790
_symmetry_Int_Tables_number   1
_chemical_formula_structural   Sr12Zn12TeIr7O48
_chemical_formula_sum   'Sr12 Zn12 Te1 Ir7 O48'
_cell_volume   1090.27507443
_cell_formula_units_Z   1
loop_
 _symmetry_equiv_pos_site_id
 _symmetry_equiv_pos_as_xyz
  1  'x, y, z'
loop_
 _atom_site_type_symbol
 _atom_site_label
 _atom_site_symmetry_multiplicity
 _atom_site_fract_x
 _atom_site_fract_y
 _atom_site_fract_z
 _atom_site_occupancy
  Sr  Sr0  1  0.374993  0.749877  0.124961  1
  Sr  Sr1  1  0.248214  0.374119  0.122587  1
  Sr  Sr2  1  0.875038  0.625006  0.250122  1
  Sr  Sr3  1  0.374119  0.122587  0.248214  1
  Sr  Sr4  1  0.122588  0.248214  0.374119  1
  Sr  Sr5  1  0.749877  0.124961  0.374993  1
  Sr  Sr6  1  0.877414  0.751786  0.625882  1
  Sr  Sr7  1  0.250122  0.875038  0.625006  1
  Sr  Sr8  1  0.124961  0.374993  0.749877  1
  Sr  Sr9  1  0.625882  0.877414  0.751786  1
  Sr  Sr10  1  0.625006  0.250122  0.875038  1
  Sr  Sr11  1  0.751786  0.625882  0.877414  1
  Zn  Zn12  1  0.750019  0.875029  0.125156  1
  Zn  Zn13  1  0.874844  0.249981  0.124972  1
  Zn  Zn14  1  0.625564  0.375143  0.250144  1
  Zn  Zn15  1  0.124971  0.874845  0.249981  1
  Zn  Zn16  1  0.624858  0.749855  0.374437  1
  Zn  Zn17  1  0.250144  0.625563  0.375143  1
  Zn  Zn18  1  0.375143  0.250144  0.625563  1
  Zn  Zn19  1  0.749856  0.374436  0.624858  1
  Zn  Zn20  1  0.875029  0.125156  0.750018  1
  Zn  Zn21  1  0.374437  0.624858  0.749855  1
  Zn  Zn22  1  0.125156  0.750018  0.875029  1
  Zn  Zn23  1  0.249981  0.124972  0.874844  1
  Te  Te24  1  0.500000  0.500000  0.500000  1
  Ir  Ir25  1  0.000000  0.000000  0.000000  1
  Ir  Ir26  1  0.500000  0.000000  0.000000  1
  Ir  Ir27  1  0.000000  0.500000  0.000000  1
  Ir  Ir28  1  0.500000  0.500000  0.000000  1
  Ir  Ir29  1  0.000000  0.000000  0.500000  1
  Ir  Ir30  1  0.500000  0.000000  0.500000  1
  Ir  Ir31  1  0.000000  0.500000  0.500000  1
  O  O32  1  0.329003  0.907415  0.017724  1
  O  O33  1  0.188668  0.110100  0.017773  1
  O  O34  1  0.688669  0.670861  0.078624  1
  O  O35  1  0.889687  0.407694  0.078536  1
  O  O36  1  0.982274  0.670997  0.092585  1
  O  O37  1  0.610319  0.421440  0.092435  1
  O  O38  1  0.592306  0.921464  0.110313  1
  O  O39  1  0.017773  0.188668  0.110100  1
  O  O40  1  0.188604  0.578295  0.170769  1
  O  O41  1  0.482067  0.592306  0.170519  1
  O  O42  1  0.578295  0.170769  0.188604  1
  O  O43  1  0.110100  0.017773  0.188668  1
  O  O44  1  0.329138  0.921376  0.311330  1
  O  O45  1  0.480941  0.388720  0.310929  1
  O  O46  1  0.907414  0.017725  0.329002  1
  O  O47  1  0.921376  0.311330  0.329138  1
  O  O48  1  0.578560  0.907565  0.389681  1
  O  O49  1  0.310929  0.480941  0.388720  1
  O  O50  1  0.829482  0.517933  0.407693  1
  O  O51  1  0.078535  0.889687  0.407694  1
  O  O52  1  0.829231  0.811396  0.421704  1
  O  O53  1  0.092435  0.610319  0.421440  1
  O  O54  1  0.592307  0.170519  0.482066  1
  O  O55  1  0.388720  0.310929  0.480941  1
  O  O56  1  0.611280  0.689070  0.519059  1
  O  O57  1  0.407693  0.829481  0.517934  1
  O  O58  1  0.170769  0.188603  0.578295  1
  O  O59  1  0.907565  0.389681  0.578560  1
  O  O60  1  0.921465  0.110313  0.592306  1
  O  O61  1  0.170518  0.482067  0.592307  1
  O  O62  1  0.689070  0.519059  0.611280  1
  O  O63  1  0.421440  0.092435  0.610319  1
  O  O64  1  0.092585  0.982274  0.670997  1
  O  O65  1  0.078624  0.688669  0.670861  1
  O  O66  1  0.519059  0.611280  0.689071  1
  O  O67  1  0.670861  0.078624  0.688669  1
  O  O68  1  0.889900  0.982227  0.811332  1
  O  O69  1  0.421704  0.829232  0.811396  1
  O  O70  1  0.517933  0.407694  0.829481  1
  O  O71  1  0.811396  0.421705  0.829231  1
  O  O72  1  0.982227  0.811332  0.889900  1
  O  O73  1  0.407694  0.078536  0.889687  1
  O  O74  1  0.017725  0.329002  0.907415  1
  O  O75  1  0.389681  0.578560  0.907565  1
  O  O76  1  0.110313  0.592306  0.921464  1
  O  O77  1  0.311330  0.329138  0.921376  1
  O  O78  1  0.670997  0.092585  0.982274  1
  O  O79  1  0.811332  0.889900  0.982227  1
