# generated using pymatgen
data_Er4Th6IrRu5
_symmetry_space_group_name_H-M   'P 1'
_cell_length_a   6.47370200
_cell_length_b   8.29001255
_cell_length_c   8.28161100
_cell_angle_alpha   119.96880032
_cell_angle_beta   90.00052648
_cell_angle_gamma   89.99961001
_symmetry_Int_Tables_number   1
_chemical_formula_structural   Er4Th6IrRu5
_chemical_formula_sum   'Er4 Th6 Ir1 Ru5'
_cell_volume   385.02577369
_cell_formula_units_Z   1
loop_
 _symmetry_equiv_pos_site_id
 _symmetry_equiv_pos_as_xyz
  1  'x, y, z'
loop_
 _atom_site_type_symbol
 _atom_site_label
 _atom_site_symmetry_multiplicity
 _atom_site_fract_x
 _atom_site_fract_y
 _atom_site_fract_z
 _atom_site_occupancy
  Er  Er0  1  0.500463  0.332186  0.665236  1
  Er  Er1  1  0.500460  0.667802  0.332979  1
  Er  Er2  1  0.999544  0.667807  0.332984  1
  Er  Er3  1  0.999551  0.332191  0.665233  1
  Th  Th4  1  0.750006  0.253221  0.999711  1
  Th  Th5  1  0.749989  0.746746  0.746444  1
  Th  Th6  1  0.749995  0.000004  0.253317  1
  Th  Th7  1  0.250009  0.742069  0.994224  1
  Th  Th8  1  0.250002  0.257974  0.252194  1
  Th  Th9  1  0.249999  0.999977  0.747776  1
  Ir  Ir10  1  0.249990  0.999999  0.383817  1
  Ru  Ru11  1  0.750007  0.626240  0.001737  1
  Ru  Ru12  1  0.749996  0.373765  0.375495  1
  Ru  Ru13  1  0.750012  0.999991  0.626021  1
  Ru  Ru14  1  0.249981  0.376404  0.999605  1
  Ru  Ru15  1  0.250000  0.623625  0.623227  1
