# generated using pymatgen
data_Na8Sr4TiGeP8
_symmetry_space_group_name_H-M   'P 1'
_cell_length_a   9.38796791
_cell_length_b   9.40657509
_cell_length_c   7.37147193
_cell_angle_alpha   89.63736001
_cell_angle_beta   89.55089917
_cell_angle_gamma   120.09076913
_symmetry_Int_Tables_number   1
_chemical_formula_structural   Na8Sr4TiGeP8
_chemical_formula_sum   'Na8 Sr4 Ti1 Ge1 P8'
_cell_volume   563.17859862
_cell_formula_units_Z   1
loop_
 _symmetry_equiv_pos_site_id
 _symmetry_equiv_pos_as_xyz
  1  'x, y, z'
loop_
 _atom_site_type_symbol
 _atom_site_label
 _atom_site_symmetry_multiplicity
 _atom_site_fract_x
 _atom_site_fract_y
 _atom_site_fract_z
 _atom_site_occupancy
  Na  Na0  1  0.470045  0.936213  0.385725  1
  Na  Na1  1  0.941992  0.472834  0.893024  1
  Na  Na2  1  0.870508  0.735247  0.199086  1
  Na  Na3  1  0.276200  0.128775  0.230631  1
  Na  Na4  1  0.855212  0.132889  0.219719  1
  Na  Na5  1  0.135106  0.291477  0.735192  1
  Na  Na6  1  0.718943  0.863016  0.701928  1
  Na  Na7  1  0.139045  0.846943  0.722227  1
  Sr  Sr8  1  0.047588  0.527756  0.390761  1
  Sr  Sr9  1  0.480161  0.529684  0.386370  1
  Sr  Sr10  1  0.532706  0.057874  0.888842  1
  Sr  Sr11  1  0.535886  0.477120  0.887496  1
  Ti  Ti12  1  0.328416  0.663942  0.998842  1
  Ge  Ge13  1  0.660554  0.325800  0.505466  1
  P  P14  1  0.662828  0.337500  0.180259  1
  P  P15  1  0.337167  0.663493  0.672021  1
  P  P16  1  0.196846  0.386746  0.113024  1
  P  P17  1  0.614325  0.806236  0.093161  1
  P  P18  1  0.196579  0.808109  0.102055  1
  P  P19  1  0.806889  0.614446  0.595087  1
  P  P20  1  0.382788  0.194808  0.614294  1
  P  P21  1  0.809230  0.198106  0.603858  1
