# generated using pymatgen
data_Sm10InBi5S2
_symmetry_space_group_name_H-M   'P 1'
_cell_length_a   9.43062600
_cell_length_b   9.38478645
_cell_length_c   6.73156300
_cell_angle_alpha   90.00000000
_cell_angle_beta   90.00000000
_cell_angle_gamma   120.16171542
_symmetry_Int_Tables_number   1
_chemical_formula_structural   Sm10InBi5S2
_chemical_formula_sum   'Sm10 In1 Bi5 S2'
_cell_volume   515.11174093
_cell_formula_units_Z   1
loop_
 _symmetry_equiv_pos_site_id
 _symmetry_equiv_pos_as_xyz
  1  'x, y, z'
loop_
 _atom_site_type_symbol
 _atom_site_label
 _atom_site_symmetry_multiplicity
 _atom_site_fract_x
 _atom_site_fract_y
 _atom_site_fract_z
 _atom_site_occupancy
  Sm  Sm0  1  0.246435  0.000000  0.750000  1
  Sm  Sm1  1  0.756191  0.000000  0.250000  1
  Sm  Sm2  1  0.994630  0.240673  0.750000  1
  Sm  Sm3  1  0.999261  0.755210  0.250000  1
  Sm  Sm4  1  0.753956  0.759327  0.750000  1
  Sm  Sm5  1  0.244053  0.244790  0.250000  1
  Sm  Sm6  1  0.336146  0.670835  0.500610  1
  Sm  Sm7  1  0.665312  0.329165  0.500610  1
  Sm  Sm8  1  0.665312  0.329165  0.999390  1
  Sm  Sm9  1  0.336146  0.670835  0.999390  1
  In  In10  1  0.603180  0.000000  0.750000  1
  Bi  Bi11  1  0.396470  0.000000  0.250000  1
  Bi  Bi12  1  0.998980  0.604545  0.750000  1
  Bi  Bi13  1  0.000556  0.395244  0.250000  1
  Bi  Bi14  1  0.394434  0.395455  0.750000  1
  Bi  Bi15  1  0.605313  0.604756  0.250000  1
  S  S16  1  0.001812  0.000000  0.499769  1
  S  S17  1  0.001812  0.000000  0.000231  1
