# generated using pymatgen
data_Nd2SiPt8
_symmetry_space_group_name_H-M   'P 1'
_cell_length_a   4.31574200
_cell_length_b   9.25140390
_cell_length_c   9.25140369
_cell_angle_alpha   145.84733258
_cell_angle_beta   90.00000000
_cell_angle_gamma   90.00000000
_symmetry_Int_Tables_number   1
_chemical_formula_structural   Nd2SiPt8
_chemical_formula_sum   'Nd2 Si1 Pt8'
_cell_volume   207.36864973
_cell_formula_units_Z   1
loop_
 _symmetry_equiv_pos_site_id
 _symmetry_equiv_pos_as_xyz
  1  'x, y, z'
loop_
 _atom_site_type_symbol
 _atom_site_label
 _atom_site_symmetry_multiplicity
 _atom_site_fract_x
 _atom_site_fract_y
 _atom_site_fract_z
 _atom_site_occupancy
  Nd  Nd0  1  0.500000  0.616895  0.372330  1
  Nd  Nd1  1  0.500000  0.372330  0.616895  1
  Si  Si2  1  0.000000  0.224862  0.224862  1
  Pt  Pt3  1  0.000000  0.885539  0.108468  1
  Pt  Pt4  1  0.500000  0.789412  0.193191  1
  Pt  Pt5  1  0.000000  0.987854  0.489309  1
  Pt  Pt6  1  0.000000  0.641974  0.641974  1
  Pt  Pt7  1  0.500000  0.193191  0.789412  1
  Pt  Pt8  1  0.000000  0.108468  0.885539  1
  Pt  Pt9  1  0.000000  0.489309  0.987854  1
  Pt  Pt10  1  0.500000  0.003749  0.003749  1
