# generated using pymatgen
data_Dy2Lu8(BiSb)3
_symmetry_space_group_name_H-M   'P 1'
_cell_length_a   8.05075795
_cell_length_b   9.29695346
_cell_length_c   11.73745300
_cell_angle_alpha   89.89253207
_cell_angle_beta   89.82178035
_cell_angle_gamma   90.09212047
_symmetry_Int_Tables_number   1
_chemical_formula_structural   Dy2Lu8(BiSb)3
_chemical_formula_sum   'Dy4 Lu16 Bi6 Sb6'
_cell_volume   878.51233174
_cell_formula_units_Z   2
loop_
 _symmetry_equiv_pos_site_id
 _symmetry_equiv_pos_as_xyz
  1  'x, y, z'
loop_
 _atom_site_type_symbol
 _atom_site_label
 _atom_site_symmetry_multiplicity
 _atom_site_fract_x
 _atom_site_fract_y
 _atom_site_fract_z
 _atom_site_occupancy
  Dy  Dy0  1  0.181578  0.246882  0.781876  1
  Dy  Dy1  1  0.818422  0.753118  0.218124  1
  Dy  Dy2  1  0.313004  0.754279  0.283510  1
  Dy  Dy3  1  0.686996  0.245721  0.716490  1
  Lu  Lu4  1  0.027270  0.244930  0.510406  1
  Lu  Lu5  1  0.972730  0.755070  0.489594  1
  Lu  Lu6  1  0.473573  0.750123  0.010877  1
  Lu  Lu7  1  0.526427  0.249877  0.989123  1
  Lu  Lu8  1  0.350072  0.246524  0.285521  1
  Lu  Lu9  1  0.649928  0.753476  0.714479  1
  Lu  Lu10  1  0.142095  0.753909  0.783083  1
  Lu  Lu11  1  0.857905  0.246091  0.216917  1
  Lu  Lu12  1  0.187153  0.064821  0.061853  1
  Lu  Lu13  1  0.812847  0.935179  0.938147  1
  Lu  Lu14  1  0.307262  0.936370  0.557641  1
  Lu  Lu15  1  0.810959  0.566008  0.940849  1
  Lu  Lu16  1  0.692738  0.063630  0.442359  1
  Lu  Lu17  1  0.189041  0.433992  0.059151  1
  Lu  Lu18  1  0.690934  0.433907  0.440950  1
  Lu  Lu19  1  0.309066  0.566093  0.559050  1
  Bi  Bi20  1  0.433335  0.994923  0.825726  1
  Bi  Bi21  1  0.934202  0.504517  0.673021  1
  Bi  Bi22  1  0.566665  0.005077  0.174274  1
  Bi  Bi23  1  0.065798  0.495483  0.326979  1
  Bi  Bi24  1  0.566137  0.494941  0.175301  1
  Bi  Bi25  1  0.433863  0.505059  0.824699  1
  Sb  Sb26  1  0.405759  0.250737  0.540654  1
  Sb  Sb27  1  0.594241  0.749263  0.459346  1
  Sb  Sb28  1  0.096505  0.749614  0.039718  1
  Sb  Sb29  1  0.903495  0.250386  0.960282  1
  Sb  Sb30  1  0.065543  0.005494  0.327405  1
  Sb  Sb31  1  0.934457  0.994506  0.672595  1
