# generated using pymatgen
data_YbY3(Si5Pt3)2
_symmetry_space_group_name_H-M   'P 1'
_cell_length_a   8.18843668
_cell_length_b   8.17121125
_cell_length_c   8.17121105
_cell_angle_alpha   136.72328356
_cell_angle_beta   104.16593161
_cell_angle_gamma   91.52686488
_symmetry_Int_Tables_number   1
_chemical_formula_structural   YbY3(Si5Pt3)2
_chemical_formula_sum   'Yb1 Y3 Si10 Pt6'
_cell_volume   345.71517111
_cell_formula_units_Z   1
loop_
 _symmetry_equiv_pos_site_id
 _symmetry_equiv_pos_as_xyz
  1  'x, y, z'
loop_
 _atom_site_type_symbol
 _atom_site_label
 _atom_site_symmetry_multiplicity
 _atom_site_fract_x
 _atom_site_fract_y
 _atom_site_fract_z
 _atom_site_occupancy
  Yb  Yb0  1  0.896407  0.129180  0.767226  1
  Y  Y1  1  0.641724  0.371970  0.269754  1
  Y  Y2  1  0.358577  0.628436  0.730141  1
  Y  Y3  1  0.100985  0.870898  0.230087  1
  Si  Si4  1  0.270619  0.520195  0.247781  1
  Si  Si5  1  0.730194  0.478949  0.751546  1
  Si  Si6  1  0.730194  0.978647  0.251245  1
  Si  Si7  1  0.270619  0.022838  0.750424  1
  Si  Si8  1  0.460409  0.111332  0.349077  1
  Si  Si9  1  0.539175  0.887913  0.651262  1
  Si  Si10  1  0.763858  0.611297  0.152561  1
  Si  Si11  1  0.237219  0.388492  0.848727  1
  Si  Si12  1  0.999001  0.247848  0.247140  1
  Si  Si13  1  0.999001  0.751861  0.751152  1
  Pt  Pt14  1  0.252779  0.137554  0.115224  1
  Pt  Pt15  1  0.747609  0.862152  0.885457  1
  Pt  Pt16  1  0.024033  0.637273  0.386761  1
  Pt  Pt17  1  0.977481  0.362959  0.614522  1
  Pt  Pt18  1  0.500059  0.249978  0.749830  1
  Pt  Pt19  1  0.500059  0.750229  0.250081  1
