# generated using pymatgen
data_Cs2TiCr(CuSe2)4
_symmetry_space_group_name_H-M   'P 1'
_cell_length_a   10.35270786
_cell_length_b   10.34338481
_cell_length_c   7.78077600
_cell_angle_alpha   90.00000000
_cell_angle_beta   90.00000000
_cell_angle_gamma   147.98573002
_symmetry_Int_Tables_number   1
_chemical_formula_structural   Cs2TiCr(CuSe2)4
_chemical_formula_sum   'Cs2 Ti1 Cr1 Cu4 Se8'
_cell_volume   441.69482728
_cell_formula_units_Z   1
loop_
 _symmetry_equiv_pos_site_id
 _symmetry_equiv_pos_as_xyz
  1  'x, y, z'
loop_
 _atom_site_type_symbol
 _atom_site_label
 _atom_site_symmetry_multiplicity
 _atom_site_fract_x
 _atom_site_fract_y
 _atom_site_fract_z
 _atom_site_occupancy
  Cs  Cs0  1  0.173662  0.539237  0.750000  1
  Cs  Cs1  1  0.545641  0.168924  0.250000  1
  Ti  Ti2  1  0.500080  0.708040  0.250000  1
  Cr  Cr3  1  0.704029  0.501738  0.750000  1
  Cu  Cu4  1  0.618012  0.618544  0.502686  1
  Cu  Cu5  1  0.004013  0.207756  0.250000  1
  Cu  Cu6  1  0.203355  0.999625  0.750000  1
  Cu  Cu7  1  0.618012  0.618544  0.997314  1
  Se  Se8  1  0.750159  0.954500  0.997904  1
  Se  Se9  1  0.371574  0.359704  0.750000  1
  Se  Se10  1  0.356651  0.360263  0.250000  1
  Se  Se11  1  0.937275  0.732325  0.509976  1
  Se  Se12  1  0.566101  0.178395  0.750000  1
  Se  Se13  1  0.937275  0.732325  0.990024  1
  Se  Se14  1  0.155802  0.557380  0.250000  1
  Se  Se15  1  0.750159  0.954500  0.502096  1
