# generated using pymatgen
data_Sm6PtI10
_symmetry_space_group_name_H-M   'P 1'
_cell_length_a   7.90005829
_cell_length_b   9.91062530
_cell_length_c   9.94199836
_cell_angle_alpha   107.48333929
_cell_angle_beta   97.08712773
_cell_angle_gamma   105.06490299
_symmetry_Int_Tables_number   1
_chemical_formula_structural   Sm6PtI10
_chemical_formula_sum   'Sm6 Pt1 I10'
_cell_volume   699.56719024
_cell_formula_units_Z   1
loop_
 _symmetry_equiv_pos_site_id
 _symmetry_equiv_pos_as_xyz
  1  'x, y, z'
loop_
 _atom_site_type_symbol
 _atom_site_label
 _atom_site_symmetry_multiplicity
 _atom_site_fract_x
 _atom_site_fract_y
 _atom_site_fract_z
 _atom_site_occupancy
  Sm  Sm0  1  0.883654  0.959401  0.243958  1
  Sm  Sm1  1  0.116346  0.040599  0.756042  1
  Sm  Sm2  1  0.352796  0.127684  0.168619  1
  Sm  Sm3  1  0.647204  0.872316  0.831381  1
  Sm  Sm4  1  0.970683  0.290036  0.087988  1
  Sm  Sm5  1  0.029317  0.709964  0.912012  1
  Pt  Pt6  1  0.000000  0.000000  0.000000  1
  I  I7  1  0.356928  0.454649  0.272884  1
  I  I8  1  0.643072  0.545351  0.727116  1
  I  I9  1  0.914033  0.629499  0.180540  1
  I  I10  1  0.085967  0.370501  0.819460  1
  I  I11  1  0.453370  0.816542  0.091744  1
  I  I12  1  0.546630  0.183458  0.908256  1
  I  I13  1  0.261520  0.088089  0.461858  1
  I  I14  1  0.738480  0.911911  0.538142  1
  I  I15  1  0.783474  0.260539  0.349309  1
  I  I16  1  0.216526  0.739461  0.650691  1
