# generated using pymatgen
data_Ho6NbCo14(P4Ru)3
_symmetry_space_group_name_H-M   'P 1'
_cell_length_a   3.74509600
_cell_length_b   10.60606900
_cell_length_c   12.36501800
_cell_angle_alpha   90.00000000
_cell_angle_beta   90.00000000
_cell_angle_gamma   90.00000000
_symmetry_Int_Tables_number   1
_chemical_formula_structural   Ho6NbCo14(P4Ru)3
_chemical_formula_sum   'Ho6 Nb1 Co14 P12 Ru3'
_cell_volume   491.14774653
_cell_formula_units_Z   1
loop_
 _symmetry_equiv_pos_site_id
 _symmetry_equiv_pos_as_xyz
  1  'x, y, z'
loop_
 _atom_site_type_symbol
 _atom_site_label
 _atom_site_symmetry_multiplicity
 _atom_site_fract_x
 _atom_site_fract_y
 _atom_site_fract_z
 _atom_site_occupancy
  Ho  Ho0  1  0.000000  0.500000  0.527925  1
  Ho  Ho1  1  0.500000  0.000000  0.476369  1
  Ho  Ho2  1  0.500000  0.818421  0.200880  1
  Ho  Ho3  1  0.500000  0.181579  0.200880  1
  Ho  Ho4  1  0.000000  0.680636  0.795676  1
  Ho  Ho5  1  0.000000  0.319364  0.795676  1
  Nb  Nb6  1  0.000000  0.000000  0.846105  1
  Co  Co7  1  0.000000  0.500000  0.985342  1
  Co  Co8  1  0.500000  0.000000  0.015356  1
  Co  Co9  1  0.000000  0.202834  0.571329  1
  Co  Co10  1  0.000000  0.797166  0.571329  1
  Co  Co11  1  0.500000  0.877333  0.708694  1
  Co  Co12  1  0.500000  0.122667  0.708694  1
  Co  Co13  1  0.000000  0.620194  0.287513  1
  Co  Co14  1  0.000000  0.379806  0.287513  1
  Co  Co15  1  0.500000  0.335313  0.991178  1
  Co  Co16  1  0.500000  0.664687  0.991178  1
  Co  Co17  1  0.000000  0.169949  0.010614  1
  Co  Co18  1  0.000000  0.830051  0.010614  1
  Co  Co19  1  0.500000  0.500000  0.703355  1
  Co  Co20  1  0.000000  0.000000  0.297005  1
  P  P21  1  0.500000  0.309724  0.619803  1
  P  P22  1  0.500000  0.690276  0.619803  1
  P  P23  1  0.000000  0.184656  0.380962  1
  P  P24  1  0.000000  0.815344  0.380962  1
  P  P25  1  0.500000  0.500000  0.881446  1
  P  P26  1  0.000000  0.000000  0.118019  1
  P  P27  1  0.500000  0.840257  0.896373  1
  P  P28  1  0.500000  0.159743  0.896373  1
  P  P29  1  0.000000  0.651674  0.107009  1
  P  P30  1  0.000000  0.348326  0.107009  1
  P  P31  1  0.500000  0.500000  0.345591  1
  P  P32  1  0.000000  0.000000  0.646273  1
  Ru  Ru33  1  0.500000  0.296484  0.429518  1
  Ru  Ru34  1  0.500000  0.703516  0.429518  1
  Ru  Ru35  1  0.500000  0.500000  0.158118  1
