# generated using pymatgen
data_DyEr5(Lu2In3)2
_symmetry_space_group_name_H-M   'P 1'
_cell_length_a   9.03407868
_cell_length_b   9.03407819
_cell_length_c   9.04222802
_cell_angle_alpha   96.48463938
_cell_angle_beta   96.48462392
_cell_angle_gamma   140.70747598
_symmetry_Int_Tables_number   1
_chemical_formula_structural   DyEr5(Lu2In3)2
_chemical_formula_sum   'Dy1 Er5 Lu4 In6'
_cell_volume   440.19092753
_cell_formula_units_Z   1
loop_
 _symmetry_equiv_pos_site_id
 _symmetry_equiv_pos_as_xyz
  1  'x, y, z'
loop_
 _atom_site_type_symbol
 _atom_site_label
 _atom_site_symmetry_multiplicity
 _atom_site_fract_x
 _atom_site_fract_y
 _atom_site_fract_z
 _atom_site_occupancy
  Dy  Dy0  1  0.081647  0.781249  0.862897  1
  Er  Er1  1  0.717890  0.418972  0.136862  1
  Er  Er2  1  0.282432  0.580462  0.862894  1
  Er  Er3  1  0.581632  0.718050  0.299681  1
  Er  Er4  1  0.217736  0.081717  0.299453  1
  Er  Er5  1  0.917836  0.217942  0.135778  1
  Lu  Lu6  1  0.750215  0.249949  0.500130  1
  Lu  Lu7  1  0.250181  0.749915  0.500130  1
  Lu  Lu8  1  0.782442  0.918985  0.701428  1
  Lu  Lu9  1  0.418018  0.282887  0.700905  1
  In  In10  1  0.838448  0.661908  0.500356  1
  In  In11  1  0.339889  0.839084  0.178973  1
  In  In12  1  0.749438  0.749707  0.999056  1
  In  In13  1  0.660919  0.160922  0.821841  1
  In  In14  1  0.161928  0.338632  0.500559  1
  In  In15  1  0.249349  0.249619  0.999056  1
