# generated using pymatgen
data_In2Cu5Se7
_symmetry_space_group_name_H-M   'P 1'
_cell_length_a   7.00580512
_cell_length_b   7.00580466
_cell_length_c   9.05984631
_cell_angle_alpha   82.02295488
_cell_angle_beta   82.02295584
_cell_angle_gamma   47.69849053
_symmetry_Int_Tables_number   1
_chemical_formula_structural   In2Cu5Se7
_chemical_formula_sum   'In2 Cu5 Se7'
_cell_volume   325.07523737
_cell_formula_units_Z   1
loop_
 _symmetry_equiv_pos_site_id
 _symmetry_equiv_pos_as_xyz
  1  'x, y, z'
loop_
 _atom_site_type_symbol
 _atom_site_label
 _atom_site_symmetry_multiplicity
 _atom_site_fract_x
 _atom_site_fract_y
 _atom_site_fract_z
 _atom_site_occupancy
  In  In0  1  0.149792  0.700276  0.222140  1
  In  In1  1  0.299724  0.850208  0.777860  1
  Cu  Cu2  1  0.732252  0.267748  0.500000  1
  Cu  Cu3  1  0.886299  0.403358  0.073218  1
  Cu  Cu4  1  0.596642  0.113701  0.926782  1
  Cu  Cu5  1  0.446547  0.979616  0.357609  1
  Cu  Cu6  1  0.020384  0.553453  0.642391  1
  Se  Se7  1  0.356306  0.346665  0.445127  1
  Se  Se8  1  0.653335  0.643694  0.554873  1
  Se  Se9  1  0.514660  0.485340  0.000000  1
  Se  Se10  1  0.048005  0.114655  0.291908  1
  Se  Se11  1  0.885345  0.951995  0.708092  1
  Se  Se12  1  0.738179  0.809870  0.137992  1
  Se  Se13  1  0.190130  0.261821  0.862008  1
