# generated using pymatgen
data_Nb2InS4
_symmetry_space_group_name_H-M   'P 1'
_cell_length_a   8.65729709
_cell_length_b   8.65729681
_cell_length_c   8.65729675
_cell_angle_alpha   157.37577189
_cell_angle_beta   140.72521010
_cell_angle_gamma   45.79989547
_symmetry_Int_Tables_number   1
_chemical_formula_structural   Nb2InS4
_chemical_formula_sum   'Nb2 In1 S4'
_cell_volume   157.60687677
_cell_formula_units_Z   1
loop_
 _symmetry_equiv_pos_site_id
 _symmetry_equiv_pos_as_xyz
  1  'x, y, z'
loop_
 _atom_site_type_symbol
 _atom_site_label
 _atom_site_symmetry_multiplicity
 _atom_site_fract_x
 _atom_site_fract_y
 _atom_site_fract_z
 _atom_site_occupancy
  Nb  Nb0  1  0.747624  0.750642  0.996982  1
  Nb  Nb1  1  0.246341  0.249358  0.996982  1
  In  In2  1  0.507773  0.500000  0.007773  1
  S  S3  1  0.484833  0.152161  0.332671  1
  S  S4  1  0.983538  0.651293  0.332245  1
  S  S5  1  0.680952  0.348707  0.332245  1
  S  S6  1  0.180510  0.847839  0.332671  1
