# generated using pymatgen
data_CaY3Er4(B6Os)4
_symmetry_space_group_name_H-M   'P 1'
_cell_length_a   3.64100200
_cell_length_b   9.13594635
_cell_length_c   11.53397023
_cell_angle_alpha   89.90182738
_cell_angle_beta   90.00000000
_cell_angle_gamma   90.00000000
_symmetry_Int_Tables_number   1
_chemical_formula_structural   CaY3Er4(B6Os)4
_chemical_formula_sum   'Ca1 Y3 Er4 B24 Os4'
_cell_volume   383.66541043
_cell_formula_units_Z   1
loop_
 _symmetry_equiv_pos_site_id
 _symmetry_equiv_pos_as_xyz
  1  'x, y, z'
loop_
 _atom_site_type_symbol
 _atom_site_label
 _atom_site_symmetry_multiplicity
 _atom_site_fract_x
 _atom_site_fract_y
 _atom_site_fract_z
 _atom_site_occupancy
  Ca  Ca0  1  0.000000  0.322237  0.413598  1
  Y  Y1  1  0.000000  0.676607  0.585235  1
  Y  Y2  1  0.000000  0.822037  0.086752  1
  Y  Y3  1  0.000000  0.178502  0.914350  1
  Er  Er4  1  0.000000  0.944347  0.372026  1
  Er  Er5  1  0.000000  0.057428  0.627253  1
  Er  Er6  1  0.000000  0.443399  0.128697  1
  Er  Er7  1  0.000000  0.555905  0.872663  1
  B  B8  1  0.500000  0.554129  0.432290  1
  B  B9  1  0.500000  0.445929  0.567701  1
  B  B10  1  0.500000  0.053494  0.066962  1
  B  B11  1  0.500000  0.945757  0.932347  1
  B  B12  1  0.500000  0.748683  0.419017  1
  B  B13  1  0.500000  0.251687  0.581238  1
  B  B14  1  0.500000  0.248285  0.080866  1
  B  B15  1  0.500000  0.751173  0.919277  1
  B  B16  1  0.500000  0.791779  0.266533  1
  B  B17  1  0.500000  0.209168  0.733739  1
  B  B18  1  0.500000  0.290519  0.233176  1
  B  B19  1  0.500000  0.708854  0.766677  1
  B  B20  1  0.500000  0.631700  0.185958  1
  B  B21  1  0.500000  0.368646  0.814871  1
  B  B22  1  0.500000  0.131149  0.313888  1
  B  B23  1  0.500000  0.868656  0.685344  1
  B  B24  1  0.500000  0.983453  0.212583  1
  B  B25  1  0.500000  0.016630  0.786709  1
  B  B26  1  0.500000  0.483768  0.287132  1
  B  B27  1  0.500000  0.516478  0.713225  1
  B  B28  1  0.500000  0.606446  0.029552  1
  B  B29  1  0.500000  0.393674  0.970917  1
  B  B30  1  0.500000  0.103500  0.471262  1
  B  B31  1  0.500000  0.895228  0.528933  1
  Os  Os32  1  0.000000  0.639948  0.320125  1
  Os  Os33  1  0.000000  0.361856  0.680518  1
  Os  Os34  1  0.000000  0.136790  0.177656  1
  Os  Os35  1  0.000000  0.862157  0.820932  1
