# generated using pymatgen
data_Dy4Ti4Mn7(Fe3P4)3
_symmetry_space_group_name_H-M   'P 1'
_cell_length_a   3.65563000
_cell_length_b   10.58939358
_cell_length_c   12.31507437
_cell_angle_alpha   89.83779678
_cell_angle_beta   90.00000000
_cell_angle_gamma   90.00000000
_symmetry_Int_Tables_number   1
_chemical_formula_structural   Dy4Ti4Mn7(Fe3P4)3
_chemical_formula_sum   'Dy4 Ti4 Mn7 Fe9 P12'
_cell_volume   476.72576186
_cell_formula_units_Z   1
loop_
 _symmetry_equiv_pos_site_id
 _symmetry_equiv_pos_as_xyz
  1  'x, y, z'
loop_
 _atom_site_type_symbol
 _atom_site_label
 _atom_site_symmetry_multiplicity
 _atom_site_fract_x
 _atom_site_fract_y
 _atom_site_fract_z
 _atom_site_occupancy
  Dy  Dy0  1  0.250000  0.581965  0.710346  1
  Dy  Dy1  1  0.250000  0.915026  0.212377  1
  Dy  Dy2  1  0.750000  0.419911  0.288361  1
  Dy  Dy3  1  0.750000  0.081977  0.789090  1
  Ti  Ti4  1  0.250000  0.699284  0.990922  1
  Ti  Ti5  1  0.250000  0.800334  0.488854  1
  Ti  Ti6  1  0.750000  0.298944  0.010631  1
  Ti  Ti7  1  0.750000  0.200658  0.510448  1
  Mn  Mn8  1  0.250000  0.411286  0.492024  1
  Mn  Mn9  1  0.250000  0.091204  0.993753  1
  Mn  Mn10  1  0.750000  0.593411  0.505526  1
  Mn  Mn11  1  0.750000  0.906981  0.008152  1
  Mn  Mn12  1  0.250000  0.215988  0.176306  1
  Mn  Mn13  1  0.250000  0.283936  0.675908  1
  Mn  Mn14  1  0.750000  0.783636  0.823928  1
  Fe  Fe15  1  0.750000  0.717296  0.326402  1
  Fe  Fe16  1  0.250000  0.873968  0.700809  1
  Fe  Fe17  1  0.250000  0.625434  0.199669  1
  Fe  Fe18  1  0.750000  0.125570  0.299425  1
  Fe  Fe19  1  0.750000  0.373563  0.798730  1
  Fe  Fe20  1  0.250000  0.462611  0.931790  1
  Fe  Fe21  1  0.250000  0.037914  0.432145  1
  Fe  Fe22  1  0.750000  0.536649  0.066708  1
  Fe  Fe23  1  0.750000  0.962466  0.567474  1
  P  P24  1  0.250000  0.430693  0.111849  1
  P  P25  1  0.250000  0.069771  0.611865  1
  P  P26  1  0.750000  0.569758  0.887744  1
  P  P27  1  0.750000  0.928708  0.387839  1
  P  P28  1  0.250000  0.266614  0.866542  1
  P  P29  1  0.250000  0.234218  0.366341  1
  P  P30  1  0.750000  0.729654  0.137908  1
  P  P31  1  0.750000  0.767475  0.633646  1
  P  P32  1  0.250000  0.596039  0.381185  1
  P  P33  1  0.250000  0.908136  0.885595  1
  P  P34  1  0.750000  0.409057  0.614051  1
  P  P35  1  0.750000  0.089864  0.115654  1
