# generated using pymatgen
data_Np2RhIF24
_symmetry_space_group_name_H-M   'P 1'
_cell_length_a   5.39224893
_cell_length_b   9.26947200
_cell_length_c   10.10759800
_cell_angle_alpha   90.00000000
_cell_angle_beta   90.24655675
_cell_angle_gamma   90.00000000
_symmetry_Int_Tables_number   1
_chemical_formula_structural   Np2RhIF24
_chemical_formula_sum   'Np2 Rh1 I1 F24'
_cell_volume   505.20642985
_cell_formula_units_Z   1
loop_
 _symmetry_equiv_pos_site_id
 _symmetry_equiv_pos_as_xyz
  1  'x, y, z'
loop_
 _atom_site_type_symbol
 _atom_site_label
 _atom_site_symmetry_multiplicity
 _atom_site_fract_x
 _atom_site_fract_y
 _atom_site_fract_z
 _atom_site_occupancy
  Np  Np0  1  0.916001  0.750000  0.630179  1
  Np  Np1  1  0.084882  0.250000  0.368634  1
  Rh  Rh2  1  0.580425  0.750000  0.129925  1
  I  I3  1  0.418836  0.250000  0.871668  1
  F  F4  1  0.219077  0.750000  0.516119  1
  F  F5  1  0.782222  0.250000  0.484084  1
  F  F6  1  0.705739  0.250000  0.982951  1
  F  F7  1  0.300219  0.750000  0.019040  1
  F  F8  1  0.612031  0.750000  0.743888  1
  F  F9  1  0.388664  0.250000  0.254143  1
  F  F10  1  0.133030  0.250000  0.758579  1
  F  F11  1  0.860917  0.750000  0.240971  1
  F  F12  1  0.763052  0.596191  0.516745  1
  F  F13  1  0.237601  0.402876  0.483767  1
  F  F14  1  0.269750  0.395702  0.978470  1
  F  F15  1  0.237601  0.097124  0.483767  1
  F  F16  1  0.726695  0.607000  0.024134  1
  F  F17  1  0.763052  0.903809  0.516745  1
  F  F18  1  0.726695  0.893000  0.024134  1
  F  F19  1  0.269750  0.104298  0.978470  1
  F  F20  1  0.067674  0.596560  0.744425  1
  F  F21  1  0.932660  0.402199  0.253862  1
  F  F22  1  0.566961  0.395006  0.763378  1
  F  F23  1  0.932660  0.097801  0.253862  1
  F  F24  1  0.434587  0.606538  0.235129  1
  F  F25  1  0.067674  0.903440  0.744425  1
  F  F26  1  0.434587  0.893462  0.235129  1
  F  F27  1  0.566961  0.104994  0.763378  1
