# generated using pymatgen
data_Tb3DyEr(ReO6)2
_symmetry_space_group_name_H-M   'P 1'
_cell_length_a   6.85394412
_cell_length_b   6.85394380
_cell_length_c   7.55817218
_cell_angle_alpha   73.74459978
_cell_angle_beta   73.74459957
_cell_angle_gamma   49.01673310
_symmetry_Int_Tables_number   1
_chemical_formula_structural   Tb3DyEr(ReO6)2
_chemical_formula_sum   'Tb3 Dy1 Er1 Re2 O12'
_cell_volume   255.03420404
_cell_formula_units_Z   1
loop_
 _symmetry_equiv_pos_site_id
 _symmetry_equiv_pos_as_xyz
  1  'x, y, z'
loop_
 _atom_site_type_symbol
 _atom_site_label
 _atom_site_symmetry_multiplicity
 _atom_site_fract_x
 _atom_site_fract_y
 _atom_site_fract_z
 _atom_site_occupancy
  Tb  Tb0  1  0.696529  0.696529  0.642088  1
  Tb  Tb1  1  0.303442  0.303442  0.358336  1
  Tb  Tb2  1  0.685003  0.685003  0.175955  1
  Dy  Dy3  1  0.314982  0.314982  0.823653  1
  Er  Er4  1  0.999953  0.999953  0.500192  1
  Re  Re5  1  0.786224  0.213835  0.999840  1
  Re  Re6  1  0.213835  0.786224  0.999840  1
  O  O7  1  0.001481  0.001481  0.206702  1
  O  O8  1  0.998528  0.998528  0.793281  1
  O  O9  1  0.582338  0.087870  0.084164  1
  O  O10  1  0.416613  0.913714  0.914979  1
  O  O11  1  0.913714  0.416613  0.914979  1
  O  O12  1  0.087870  0.582338  0.084164  1
  O  O13  1  0.498907  0.498907  0.175825  1
  O  O14  1  0.500638  0.500638  0.823838  1
  O  O15  1  0.402581  0.901809  0.427654  1
  O  O16  1  0.596705  0.098847  0.573427  1
  O  O17  1  0.098847  0.596705  0.573427  1
  O  O18  1  0.901809  0.402581  0.427654  1
