# generated using pymatgen
data_Hf13Sc3Ni4(Ir2N)2
_symmetry_space_group_name_H-M   'P 1'
_cell_length_a   8.60024412
_cell_length_b   8.60548547
_cell_length_c   8.61165692
_cell_angle_alpha   119.96719833
_cell_angle_beta   120.03623015
_cell_angle_gamma   90.01754289
_symmetry_Int_Tables_number   1
_chemical_formula_structural   Hf13Sc3Ni4(Ir2N)2
_chemical_formula_sum   'Hf13 Sc3 Ni4 Ir4 N2'
_cell_volume   450.57662799
_cell_formula_units_Z   1
loop_
 _symmetry_equiv_pos_site_id
 _symmetry_equiv_pos_as_xyz
  1  'x, y, z'
loop_
 _atom_site_type_symbol
 _atom_site_label
 _atom_site_symmetry_multiplicity
 _atom_site_fract_x
 _atom_site_fract_y
 _atom_site_fract_z
 _atom_site_occupancy
  Hf  Hf0  1  0.310703  0.177143  0.743417  1
  Hf  Hf1  1  0.931574  0.174917  0.362833  1
  Hf  Hf2  1  0.310522  0.568108  0.135241  1
  Hf  Hf3  1  0.058056  0.807490  0.248289  1
  Hf  Hf4  1  0.688190  0.438093  0.250140  1
  Hf  Hf5  1  0.058545  0.437329  0.245299  1
  Hf  Hf6  1  0.694323  0.814138  0.256113  1
  Hf  Hf7  1  0.057200  0.813981  0.618461  1
  Hf  Hf8  1  0.696486  0.439291  0.880889  1
  Hf  Hf9  1  0.483221  0.008620  0.022897  1
  Hf  Hf10  1  0.486870  0.462244  0.478104  1
  Hf  Hf11  1  0.487424  0.016458  0.473075  1
  Hf  Hf12  1  0.042250  0.013294  0.025735  1
  Sc  Sc13  1  0.939889  0.191118  0.749644  1
  Sc  Sc14  1  0.317391  0.566953  0.750417  1
  Sc  Sc15  1  0.934866  0.565925  0.755790  1
  Ni  Ni16  1  0.272166  0.228401  0.454577  1
  Ni  Ni17  1  0.275931  0.818158  0.047268  1
  Ni  Ni18  1  0.282004  0.230427  0.053043  1
  Ni  Ni19  1  0.676049  0.227370  0.444922  1
  Ir  Ir20  1  0.706137  0.784713  0.573746  1
  Ir  Ir21  1  0.707601  0.132365  0.924469  1
  Ir  Ir22  1  0.709389  0.792703  0.920708  1
  Ir  Ir23  1  0.371853  0.791486  0.581418  1
  N  N24  1  0.001232  0.502001  0.006464  1
  N  N25  1  0.000132  0.997277  0.497039  1
