# generated using pymatgen
data_U2SiRu3
_symmetry_space_group_name_H-M   'P 1'
_cell_length_a   5.51642300
_cell_length_b   5.51644025
_cell_length_c   7.58728100
_cell_angle_alpha   90.00074923
_cell_angle_beta   90.00119898
_cell_angle_gamma   120.00024704
_symmetry_Int_Tables_number   1
_chemical_formula_structural   U2SiRu3
_chemical_formula_sum   'U4 Si2 Ru6'
_cell_volume   199.95496763
_cell_formula_units_Z   2
loop_
 _symmetry_equiv_pos_site_id
 _symmetry_equiv_pos_as_xyz
  1  'x, y, z'
loop_
 _atom_site_type_symbol
 _atom_site_label
 _atom_site_symmetry_multiplicity
 _atom_site_fract_x
 _atom_site_fract_y
 _atom_site_fract_z
 _atom_site_occupancy
  U  U0  1  0.333334  0.666669  0.428484  1
  U  U1  1  0.666666  0.333331  0.571516  1
  U  U2  1  0.666668  0.333334  0.928602  1
  U  U3  1  0.333332  0.666666  0.071398  1
  Si  Si4  1  0.000000  0.000000  0.500000  1
  Si  Si5  1  0.000000  0.000000  0.000000  1
  Ru  Ru6  1  0.831476  0.168524  0.249969  1
  Ru  Ru7  1  0.831477  0.662952  0.249968  1
  Ru  Ru8  1  0.337047  0.168523  0.249969  1
  Ru  Ru9  1  0.168524  0.831476  0.750031  1
  Ru  Ru10  1  0.168523  0.337048  0.750032  1
  Ru  Ru11  1  0.662953  0.831477  0.750031  1
