# generated using pymatgen
data_Tb7Dy(PI6)2
_symmetry_space_group_name_H-M   'P 1'
_cell_length_a   4.21352800
_cell_length_b   13.88366010
_cell_length_c   14.68502411
_cell_angle_alpha   89.98620592
_cell_angle_beta   90.00000000
_cell_angle_gamma   90.00000000
_symmetry_Int_Tables_number   1
_chemical_formula_structural   Tb7Dy(PI6)2
_chemical_formula_sum   'Tb7 Dy1 P2 I12'
_cell_volume   859.06199892
_cell_formula_units_Z   1
loop_
 _symmetry_equiv_pos_site_id
 _symmetry_equiv_pos_as_xyz
  1  'x, y, z'
loop_
 _atom_site_type_symbol
 _atom_site_label
 _atom_site_symmetry_multiplicity
 _atom_site_fract_x
 _atom_site_fract_y
 _atom_site_fract_z
 _atom_site_occupancy
  Tb  Tb0  1  0.500000  0.886981  0.649723  1
  Tb  Tb1  1  0.500000  0.613163  0.149903  1
  Tb  Tb2  1  0.500000  0.386840  0.850106  1
  Tb  Tb3  1  0.000000  0.106915  0.571625  1
  Tb  Tb4  1  0.000000  0.893013  0.428475  1
  Tb  Tb5  1  0.000000  0.606978  0.928414  1
  Tb  Tb6  1  0.000000  0.393030  0.071592  1
  Dy  Dy7  1  0.500000  0.112954  0.350376  1
  P  P8  1  0.500000  0.000337  0.499547  1
  P  P9  1  0.500000  0.499997  0.000004  1
  I  I10  1  0.500000  0.246638  0.161264  1
  I  I11  1  0.500000  0.753174  0.838980  1
  I  I12  1  0.500000  0.746875  0.338996  1
  I  I13  1  0.500000  0.253152  0.660951  1
  I  I14  1  0.000000  0.259077  0.414865  1
  I  I15  1  0.000000  0.740232  0.584701  1
  I  I16  1  0.000000  0.759803  0.084684  1
  I  I17  1  0.000000  0.240213  0.915328  1
  I  I18  1  0.000000  0.999936  0.240666  1
  I  I19  1  0.000000  0.000692  0.759789  1
  I  I20  1  0.000000  0.499289  0.259798  1
  I  I21  1  0.000000  0.500713  0.740212  1
