# generated using pymatgen
data_Ta3Be3BW3
_symmetry_space_group_name_H-M   'P 1'
_cell_length_a   6.30807413
_cell_length_b   6.30807471
_cell_length_c   3.27317500
_cell_angle_alpha   90.00000000
_cell_angle_beta   90.00000000
_cell_angle_gamma   89.90474721
_symmetry_Int_Tables_number   1
_chemical_formula_structural   Ta3Be3BW3
_chemical_formula_sum   'Ta3 Be3 B1 W3'
_cell_volume   130.24535439
_cell_formula_units_Z   1
loop_
 _symmetry_equiv_pos_site_id
 _symmetry_equiv_pos_as_xyz
  1  'x, y, z'
loop_
 _atom_site_type_symbol
 _atom_site_label
 _atom_site_symmetry_multiplicity
 _atom_site_fract_x
 _atom_site_fract_y
 _atom_site_fract_z
 _atom_site_occupancy
  Ta  Ta0  1  0.314386  0.814386  0.500000  1
  Ta  Ta1  1  0.176037  0.328877  0.500000  1
  Ta  Ta2  1  0.828877  0.676037  0.500000  1
  Be  Be3  1  0.883316  0.383316  0.000000  1
  Be  Be4  1  0.617196  0.887233  0.000000  1
  Be  Be5  1  0.387233  0.117196  0.000000  1
  B  B6  1  0.114385  0.614385  0.000000  1
  W  W7  1  0.499232  0.499287  0.000000  1
  W  W8  1  0.999287  0.999232  0.000000  1
  W  W9  1  0.680051  0.180051  0.500000  1
