# generated using pymatgen
data_Dy2Sc3GaSi3
_symmetry_space_group_name_H-M   'P 1'
_cell_length_a   7.13909397
_cell_length_b   7.41514811
_cell_length_c   14.14929212
_cell_angle_alpha   89.99778005
_cell_angle_beta   89.86153090
_cell_angle_gamma   90.14682384
_symmetry_Int_Tables_number   1
_chemical_formula_structural   Dy2Sc3GaSi3
_chemical_formula_sum   'Dy8 Sc12 Ga4 Si12'
_cell_volume   749.02264322
_cell_formula_units_Z   4
loop_
 _symmetry_equiv_pos_site_id
 _symmetry_equiv_pos_as_xyz
  1  'x, y, z'
loop_
 _atom_site_type_symbol
 _atom_site_label
 _atom_site_symmetry_multiplicity
 _atom_site_fract_x
 _atom_site_fract_y
 _atom_site_fract_z
 _atom_site_occupancy
  Dy  Dy0  1  0.013663  0.174597  0.097104  1
  Dy  Dy1  1  0.987996  0.825041  0.901780  1
  Dy  Dy2  1  0.486929  0.676737  0.901480  1
  Dy  Dy3  1  0.987636  0.827655  0.600232  1
  Dy  Dy4  1  0.510937  0.321615  0.097297  1
  Dy  Dy5  1  0.009860  0.174551  0.400659  1
  Dy  Dy6  1  0.511236  0.324599  0.400530  1
  Dy  Dy7  1  0.490152  0.675794  0.600588  1
  Sc  Sc8  1  0.162415  0.500913  0.751339  1
  Sc  Sc9  1  0.836906  0.498327  0.250073  1
  Sc  Sc10  1  0.336492  0.001907  0.248454  1
  Sc  Sc11  1  0.663063  0.998571  0.750007  1
  Sc  Sc12  1  0.333190  0.174870  0.627642  1
  Sc  Sc13  1  0.669297  0.825981  0.373764  1
  Sc  Sc14  1  0.170194  0.674094  0.373064  1
  Sc  Sc15  1  0.668783  0.825817  0.125478  1
  Sc  Sc16  1  0.828890  0.324391  0.626679  1
  Sc  Sc17  1  0.330460  0.175777  0.874638  1
  Sc  Sc18  1  0.829211  0.323234  0.874274  1
  Sc  Sc19  1  0.173008  0.675652  0.124540  1
  Ga  Ga20  1  0.161416  0.461500  0.539782  1
  Ga  Ga21  1  0.839503  0.538022  0.461272  1
  Ga  Ga22  1  0.339795  0.961843  0.461433  1
  Ga  Ga23  1  0.840080  0.537994  0.038759  1
  Si  Si24  1  0.033106  0.116755  0.751159  1
  Si  Si25  1  0.966916  0.883563  0.249264  1
  Si  Si26  1  0.467276  0.614943  0.248501  1
  Si  Si27  1  0.533032  0.384775  0.751108  1
  Si  Si28  1  0.285897  0.872208  0.751040  1
  Si  Si29  1  0.715022  0.127404  0.248694  1
  Si  Si30  1  0.214069  0.372559  0.248834  1
  Si  Si31  1  0.786758  0.628293  0.751411  1
  Si  Si32  1  0.657914  0.036376  0.539341  1
  Si  Si33  1  0.157937  0.463593  0.960708  1
  Si  Si34  1  0.656561  0.035923  0.961189  1
  Si  Si35  1  0.344399  0.964123  0.037885  1
