# generated using pymatgen
data_Er3Ni12B2Ir
_symmetry_space_group_name_H-M   'P 1'
_cell_length_a   4.91818200
_cell_length_b   4.97601979
_cell_length_c   10.95657200
_cell_angle_alpha   90.00000000
_cell_angle_beta   90.00000000
_cell_angle_gamma   119.61624332
_symmetry_Int_Tables_number   1
_chemical_formula_structural   Er3Ni12B2Ir
_chemical_formula_sum   'Er3 Ni12 B2 Ir1'
_cell_volume   233.10869841
_cell_formula_units_Z   1
loop_
 _symmetry_equiv_pos_site_id
 _symmetry_equiv_pos_as_xyz
  1  'x, y, z'
loop_
 _atom_site_type_symbol
 _atom_site_label
 _atom_site_symmetry_multiplicity
 _atom_site_fract_x
 _atom_site_fract_y
 _atom_site_fract_z
 _atom_site_occupancy
  Er  Er0  1  0.500000  0.000000  0.000000  1
  Er  Er1  1  0.500000  0.000000  0.671069  1
  Er  Er2  1  0.500000  0.000000  0.328931  1
  Ni  Ni3  1  0.500000  0.500000  0.500000  1
  Ni  Ni4  1  0.000000  0.500000  0.500000  1
  Ni  Ni5  1  0.830184  0.660368  0.684847  1
  Ni  Ni6  1  0.169816  0.339632  0.684847  1
  Ni  Ni7  1  0.169816  0.339632  0.315153  1
  Ni  Ni8  1  0.830184  0.660368  0.315153  1
  Ni  Ni9  1  0.000000  0.000000  0.866921  1
  Ni  Ni10  1  0.500000  0.500000  0.869441  1
  Ni  Ni11  1  0.000000  0.500000  0.869441  1
  Ni  Ni12  1  0.000000  0.000000  0.133079  1
  Ni  Ni13  1  0.500000  0.500000  0.130559  1
  Ni  Ni14  1  0.000000  0.500000  0.130559  1
  B  B15  1  0.836101  0.672201  0.000000  1
  B  B16  1  0.163899  0.327799  0.000000  1
  Ir  Ir17  1  0.000000  0.000000  0.500000  1
