# generated using pymatgen
data_CeSm2(RhPb)3
_symmetry_space_group_name_H-M   'P 1'
_cell_length_a   7.73504597
_cell_length_b   7.83331580
_cell_length_c   3.96351100
_cell_angle_alpha   90.00000000
_cell_angle_beta   90.00000000
_cell_angle_gamma   120.42115285
_symmetry_Int_Tables_number   1
_chemical_formula_structural   CeSm2(RhPb)3
_chemical_formula_sum   'Ce1 Sm2 Rh3 Pb3'
_cell_volume   207.09064497
_cell_formula_units_Z   1
loop_
 _symmetry_equiv_pos_site_id
 _symmetry_equiv_pos_as_xyz
  1  'x, y, z'
loop_
 _atom_site_type_symbol
 _atom_site_label
 _atom_site_symmetry_multiplicity
 _atom_site_fract_x
 _atom_site_fract_y
 _atom_site_fract_z
 _atom_site_occupancy
  Ce  Ce0  1  0.000000  0.588118  0.500000  1
  Sm  Sm1  1  0.406084  0.406015  0.500000  1
  Sm  Sm2  1  0.593916  0.999931  0.500000  1
  Rh  Rh3  1  0.000000  0.994040  0.500000  1
  Rh  Rh4  1  0.684960  0.348715  0.000000  1
  Rh  Rh5  1  0.315040  0.663756  0.000000  1
  Pb  Pb6  1  0.732922  0.738939  0.000000  1
  Pb  Pb7  1  0.267078  0.006018  0.000000  1
  Pb  Pb8  1  0.000000  0.254467  0.000000  1
