# generated using pymatgen
data_Th6Sn6IrRh5
_symmetry_space_group_name_H-M   'P 1'
_cell_length_a   7.58126200
_cell_length_b   7.58126208
_cell_length_c   8.27173600
_cell_angle_alpha   90.00000000
_cell_angle_beta   90.00000000
_cell_angle_gamma   120.00000082
_symmetry_Int_Tables_number   1
_chemical_formula_structural   Th6Sn6IrRh5
_chemical_formula_sum   'Th6 Sn6 Ir1 Rh5'
_cell_volume   411.72791124
_cell_formula_units_Z   1
loop_
 _symmetry_equiv_pos_site_id
 _symmetry_equiv_pos_as_xyz
  1  'x, y, z'
loop_
 _atom_site_type_symbol
 _atom_site_label
 _atom_site_symmetry_multiplicity
 _atom_site_fract_x
 _atom_site_fract_y
 _atom_site_fract_z
 _atom_site_occupancy
  Th  Th0  1  0.587040  0.000128  0.750496  1
  Th  Th1  1  0.413089  0.412960  0.750496  1
  Th  Th2  1  0.999872  0.586911  0.750496  1
  Th  Th3  1  0.588217  0.002690  0.249387  1
  Th  Th4  1  0.414472  0.411783  0.249387  1
  Th  Th5  1  0.997310  0.585528  0.249387  1
  Sn  Sn6  1  0.249215  0.997801  0.000005  1
  Sn  Sn7  1  0.749507  0.750159  0.499728  1
  Sn  Sn8  1  0.000651  0.250493  0.499728  1
  Sn  Sn9  1  0.002199  0.251414  0.000005  1
  Sn  Sn10  1  0.748586  0.750785  0.000005  1
  Sn  Sn11  1  0.249841  0.999349  0.499728  1
  Ir  Ir12  1  0.666667  0.333333  0.998461  1
  Rh  Rh13  1  0.666667  0.333333  0.502889  1
  Rh  Rh14  1  0.333333  0.666667  0.001846  1
  Rh  Rh15  1  0.333333  0.666667  0.498235  1
  Rh  Rh16  1  0.000000  0.000000  0.750654  1
  Rh  Rh17  1  0.000000  0.000000  0.249067  1
