# generated using pymatgen
data_Y8Ga12CoAg3
_symmetry_space_group_name_H-M   'P 1'
_cell_length_a   7.13922900
_cell_length_b   8.94091616
_cell_length_c   8.94091600
_cell_angle_alpha   120.00000680
_cell_angle_beta   90.00000000
_cell_angle_gamma   90.00000000
_symmetry_Int_Tables_number   1
_chemical_formula_structural   Y8Ga12CoAg3
_chemical_formula_sum   'Y8 Ga12 Co1 Ag3'
_cell_volume   494.24917380
_cell_formula_units_Z   1
loop_
 _symmetry_equiv_pos_site_id
 _symmetry_equiv_pos_as_xyz
  1  'x, y, z'
loop_
 _atom_site_type_symbol
 _atom_site_label
 _atom_site_symmetry_multiplicity
 _atom_site_fract_x
 _atom_site_fract_y
 _atom_site_fract_z
 _atom_site_occupancy
  Y  Y0  1  0.739489  0.000000  0.000000  1
  Y  Y1  1  0.254126  0.000000  0.000000  1
  Y  Y2  1  0.748989  0.488686  0.511314  1
  Y  Y3  1  0.256791  0.521193  0.478807  1
  Y  Y4  1  0.748989  0.022627  0.511314  1
  Y  Y5  1  0.256791  0.957616  0.478807  1
  Y  Y6  1  0.748989  0.488686  0.977373  1
  Y  Y7  1  0.256791  0.521193  0.042384  1
  Ga  Ga8  1  0.966864  0.836860  0.163140  1
  Ga  Ga9  1  0.037864  0.165272  0.834728  1
  Ga  Ga10  1  0.966864  0.326281  0.163140  1
  Ga  Ga11  1  0.466360  0.164642  0.835358  1
  Ga  Ga12  1  0.037864  0.669455  0.834728  1
  Ga  Ga13  1  0.536666  0.825561  0.174439  1
  Ga  Ga14  1  0.966864  0.836860  0.673719  1
  Ga  Ga15  1  0.466360  0.670715  0.835358  1
  Ga  Ga16  1  0.037864  0.165272  0.330545  1
  Ga  Ga17  1  0.536666  0.348879  0.174439  1
  Ga  Ga18  1  0.466360  0.164642  0.329285  1
  Ga  Ga19  1  0.536666  0.825561  0.651121  1
  Co  Co20  1  0.513531  0.666667  0.333333  1
  Ag  Ag21  1  0.943679  0.666667  0.333333  1
  Ag  Ag22  1  0.042295  0.333333  0.666667  1
  Ag  Ag23  1  0.466286  0.333333  0.666667  1
