# generated using pymatgen
data_Tb7P6
_symmetry_space_group_name_H-M   'P 1'
_cell_length_a   6.94117161
_cell_length_b   6.93958223
_cell_length_c   10.59788426
_cell_angle_alpha   90.05225858
_cell_angle_beta   40.22061570
_cell_angle_gamma   80.48210088
_symmetry_Int_Tables_number   1
_chemical_formula_structural   Tb7P6
_chemical_formula_sum   'Tb7 P6'
_cell_volume   318.55281417
_cell_formula_units_Z   1
loop_
 _symmetry_equiv_pos_site_id
 _symmetry_equiv_pos_as_xyz
  1  'x, y, z'
loop_
 _atom_site_type_symbol
 _atom_site_label
 _atom_site_symmetry_multiplicity
 _atom_site_fract_x
 _atom_site_fract_y
 _atom_site_fract_z
 _atom_site_occupancy
  Tb  Tb0  1  0.504742  0.617659  0.503601  1
  Tb  Tb1  1  0.217333  0.326827  0.942454  1
  Tb  Tb2  1  0.096732  0.179448  0.647279  1
  Tb  Tb3  1  0.946496  0.031850  0.357994  1
  Tb  Tb4  1  0.654150  0.764724  0.793986  1
  Tb  Tb5  1  0.800726  0.897949  0.075873  1
  Tb  Tb6  1  0.385275  0.469757  0.208742  1
  P  P7  1  0.945402  0.539151  0.859619  1
  P  P8  1  0.374534  0.970033  0.717767  1
  P  P9  1  0.225913  0.827432  0.433975  1
  P  P10  1  0.087421  0.683080  0.148078  1
  P  P11  1  0.657590  0.257217  0.290984  1
  P  P12  1  0.514217  0.113453  0.003992  1
