# generated using pymatgen
data_TbY7Hf12Si15Sn
_symmetry_space_group_name_H-M   'P 1'
_cell_length_a   7.30672608
_cell_length_b   7.33390667
_cell_length_c   13.43590912
_cell_angle_alpha   89.75532647
_cell_angle_beta   90.01148192
_cell_angle_gamma   89.85708133
_symmetry_Int_Tables_number   1
_chemical_formula_structural   TbY7Hf12Si15Sn
_chemical_formula_sum   'Tb1 Y7 Hf12 Si15 Sn1'
_cell_volume   719.97918699
_cell_formula_units_Z   1
loop_
 _symmetry_equiv_pos_site_id
 _symmetry_equiv_pos_as_xyz
  1  'x, y, z'
loop_
 _atom_site_type_symbol
 _atom_site_label
 _atom_site_symmetry_multiplicity
 _atom_site_fract_x
 _atom_site_fract_y
 _atom_site_fract_z
 _atom_site_occupancy
  Tb  Tb0  1  0.661879  0.997663  0.283457  1
  Y  Y1  1  0.988848  0.344912  0.212550  1
  Y  Y2  1  0.004373  0.655942  0.716181  1
  Y  Y3  1  0.148985  0.504940  0.470489  1
  Y  Y4  1  0.505492  0.842531  0.032835  1
  Y  Y5  1  0.844528  0.503882  0.964119  1
  Y  Y6  1  0.498084  0.153731  0.538850  1
  Y  Y7  1  0.343811  0.995927  0.784920  1
  Hf  Hf8  1  0.174207  0.174966  0.999160  1
  Hf  Hf9  1  0.825604  0.826755  0.501101  1
  Hf  Hf10  1  0.326321  0.681185  0.248152  1
  Hf  Hf11  1  0.674892  0.325120  0.750239  1
  Hf  Hf12  1  0.142567  0.987492  0.373990  1
  Hf  Hf13  1  0.851861  0.003993  0.873824  1
  Hf  Hf14  1  0.503832  0.649999  0.624696  1
  Hf  Hf15  1  0.350945  0.495156  0.875744  1
  Hf  Hf16  1  0.496225  0.351489  0.118547  1
  Hf  Hf17  1  0.660161  0.514778  0.379611  1
  Hf  Hf18  1  0.994559  0.149244  0.626757  1
  Hf  Hf19  1  0.002949  0.849284  0.124029  1
  Si  Si20  1  0.637099  0.704838  0.816827  1
  Si  Si21  1  0.204719  0.864398  0.568013  1
  Si  Si22  1  0.137612  0.794833  0.932432  1
  Si  Si23  1  0.795544  0.136519  0.065395  1
  Si  Si24  1  0.862224  0.204440  0.433518  1
  Si  Si25  1  0.295477  0.363218  0.683600  1
  Si  Si26  1  0.703000  0.636674  0.182633  1
  Si  Si27  1  0.294455  0.042183  0.180826  1
  Si  Si28  1  0.705790  0.949825  0.686429  1
  Si  Si29  1  0.450312  0.796655  0.435642  1
  Si  Si30  1  0.204476  0.549075  0.064373  1
  Si  Si31  1  0.549046  0.203983  0.933829  1
  Si  Si32  1  0.793406  0.450533  0.566666  1
  Si  Si33  1  0.049152  0.294606  0.814549  1
  Si  Si34  1  0.952957  0.702757  0.313044  1
  Sn  Sn35  1  0.364607  0.296474  0.322971  1
