# generated using pymatgen
data_TmLu3(B6Rh)2
_symmetry_space_group_name_H-M   'P 1'
_cell_length_a   3.59453800
_cell_length_b   9.07705804
_cell_length_c   11.39812805
_cell_angle_alpha   90.01063947
_cell_angle_beta   90.00000000
_cell_angle_gamma   90.00000000
_symmetry_Int_Tables_number   1
_chemical_formula_structural   TmLu3(B6Rh)2
_chemical_formula_sum   'Tm2 Lu6 B24 Rh4'
_cell_volume   371.89617846
_cell_formula_units_Z   2
loop_
 _symmetry_equiv_pos_site_id
 _symmetry_equiv_pos_as_xyz
  1  'x, y, z'
loop_
 _atom_site_type_symbol
 _atom_site_label
 _atom_site_symmetry_multiplicity
 _atom_site_fract_x
 _atom_site_fract_y
 _atom_site_fract_z
 _atom_site_occupancy
  Tm  Tm0  1  0.500000  0.321671  0.413515  1
  Tm  Tm1  1  0.500000  0.678329  0.586485  1
  Lu  Lu2  1  0.500000  0.178651  0.913725  1
  Lu  Lu3  1  0.500000  0.821349  0.086275  1
  Lu  Lu4  1  0.500000  0.444537  0.126439  1
  Lu  Lu5  1  0.500000  0.555463  0.873561  1
  Lu  Lu6  1  0.500000  0.055512  0.626747  1
  Lu  Lu7  1  0.500000  0.944488  0.373253  1
  B  B8  1  0.000000  0.107689  0.470727  1
  B  B9  1  0.000000  0.892311  0.529273  1
  B  B10  1  0.000000  0.391443  0.970498  1
  B  B11  1  0.000000  0.608557  0.029502  1
  B  B12  1  0.000000  0.132622  0.316429  1
  B  B13  1  0.000000  0.867378  0.683571  1
  B  B14  1  0.000000  0.367061  0.816769  1
  B  B15  1  0.000000  0.632939  0.183231  1
  B  B16  1  0.000000  0.053864  0.064733  1
  B  B17  1  0.000000  0.946136  0.935267  1
  B  B18  1  0.000000  0.446023  0.565164  1
  B  B19  1  0.000000  0.553977  0.434836  1
  B  B20  1  0.000000  0.482175  0.286387  1
  B  B21  1  0.000000  0.517825  0.713613  1
  B  B22  1  0.000000  0.018127  0.786869  1
  B  B23  1  0.000000  0.981873  0.213131  1
  B  B24  1  0.000000  0.250322  0.078707  1
  B  B25  1  0.000000  0.749678  0.921293  1
  B  B26  1  0.000000  0.249397  0.579190  1
  B  B27  1  0.000000  0.750603  0.420810  1
  B  B28  1  0.000000  0.295199  0.235914  1
  B  B29  1  0.000000  0.704801  0.764086  1
  B  B30  1  0.000000  0.204591  0.736557  1
  B  B31  1  0.000000  0.795409  0.263443  1
  Rh  Rh32  1  0.500000  0.139809  0.178678  1
  Rh  Rh33  1  0.500000  0.860191  0.821322  1
  Rh  Rh34  1  0.500000  0.359600  0.679285  1
  Rh  Rh35  1  0.500000  0.640400  0.320715  1
