# generated using pymatgen
data_Th3ScGa2Ir3
_symmetry_space_group_name_H-M   'P 1'
_cell_length_a   7.38021425
_cell_length_b   7.38021461
_cell_length_c   4.17409300
_cell_angle_alpha   90.00000000
_cell_angle_beta   90.00000000
_cell_angle_gamma   121.27001133
_symmetry_Int_Tables_number   1
_chemical_formula_structural   Th3ScGa2Ir3
_chemical_formula_sum   'Th3 Sc1 Ga2 Ir3'
_cell_volume   194.32530094
_cell_formula_units_Z   1
loop_
 _symmetry_equiv_pos_site_id
 _symmetry_equiv_pos_as_xyz
  1  'x, y, z'
loop_
 _atom_site_type_symbol
 _atom_site_label
 _atom_site_symmetry_multiplicity
 _atom_site_fract_x
 _atom_site_fract_y
 _atom_site_fract_z
 _atom_site_occupancy
  Th  Th0  1  0.399576  0.399576  0.500000  1
  Th  Th1  1  0.581025  0.007433  0.500000  1
  Th  Th2  1  0.007433  0.581025  0.500000  1
  Sc  Sc3  1  0.768889  0.768889  0.000000  1
  Ga  Ga4  1  0.237999  0.997336  0.000000  1
  Ga  Ga5  1  0.997336  0.237999  0.000000  1
  Ir  Ir6  1  0.668976  0.336455  0.000000  1
  Ir  Ir7  1  0.336455  0.668976  0.000000  1
  Ir  Ir8  1  0.002313  0.002313  0.500000  1
