# generated using pymatgen
data_Rb2CdSn11O24
_symmetry_space_group_name_H-M   'P 1'
_cell_length_a   7.77158541
_cell_length_b   7.84768100
_cell_length_c   9.65689400
_cell_angle_alpha   101.98859044
_cell_angle_beta   102.08627333
_cell_angle_gamma   87.43811511
_symmetry_Int_Tables_number   1
_chemical_formula_structural   Rb2CdSn11O24
_chemical_formula_sum   'Rb2 Cd1 Sn11 O24'
_cell_volume   563.34667038
_cell_formula_units_Z   1
loop_
 _symmetry_equiv_pos_site_id
 _symmetry_equiv_pos_as_xyz
  1  'x, y, z'
loop_
 _atom_site_type_symbol
 _atom_site_label
 _atom_site_symmetry_multiplicity
 _atom_site_fract_x
 _atom_site_fract_y
 _atom_site_fract_z
 _atom_site_occupancy
  Rb  Rb0  1  0.999963  0.000572  0.215726  1
  Rb  Rb1  1  0.012452  0.009082  0.789726  1
  Cd  Cd2  1  0.494263  0.189038  0.947464  1
  Sn  Sn3  1  0.483275  0.183243  0.612557  1
  Sn  Sn4  1  0.483738  0.181238  0.275854  1
  Sn  Sn5  1  0.181962  0.515030  0.114646  1
  Sn  Sn6  1  0.186305  0.519000  0.451151  1
  Sn  Sn7  1  0.182318  0.517113  0.784221  1
  Sn  Sn8  1  0.813055  0.483703  0.217009  1
  Sn  Sn9  1  0.814131  0.480780  0.548408  1
  Sn  Sn10  1  0.809655  0.491933  0.881974  1
  Sn  Sn11  1  0.515436  0.821949  0.723536  1
  Sn  Sn12  1  0.509507  0.819361  0.054269  1
  Sn  Sn13  1  0.521037  0.817377  0.390105  1
  O  O14  1  0.350237  0.038856  0.081127  1
  O  O15  1  0.363658  0.050338  0.401902  1
  O  O16  1  0.355977  0.040450  0.717815  1
  O  O17  1  0.289903  0.376501  0.277826  1
  O  O18  1  0.281095  0.386418  0.944117  1
  O  O19  1  0.295450  0.382058  0.612565  1
  O  O20  1  0.049693  0.638820  0.280404  1
  O  O21  1  0.050217  0.639528  0.614812  1
  O  O22  1  0.041163  0.647422  0.949565  1
  O  O23  1  0.617964  0.295175  0.484719  1
  O  O24  1  0.633236  0.298277  0.805043  1
  O  O25  1  0.635647  0.291751  0.172563  1
  O  O26  1  0.379307  0.702024  0.183806  1
  O  O27  1  0.384830  0.700623  0.511972  1
  O  O28  1  0.369908  0.709138  0.844888  1
  O  O29  1  0.944484  0.364459  0.050424  1
  O  O30  1  0.954289  0.364479  0.386982  1
  O  O31  1  0.949567  0.366178  0.718182  1
  O  O32  1  0.704270  0.624372  0.715602  1
  O  O33  1  0.694836  0.615919  0.055127  1
  O  O34  1  0.709083  0.622888  0.390049  1
  O  O35  1  0.650167  0.923360  0.931292  1
  O  O36  1  0.643426  0.943783  0.265570  1
  O  O37  1  0.644497  0.947757  0.597006  1
