# generated using pymatgen
data_Lu7Sc3(Ga2Te)2
_symmetry_space_group_name_H-M   'P 1'
_cell_length_a   8.45063918
_cell_length_b   8.43096979
_cell_length_c   6.15253305
_cell_angle_alpha   89.93290712
_cell_angle_beta   90.03346307
_cell_angle_gamma   119.92302657
_symmetry_Int_Tables_number   1
_chemical_formula_structural   Lu7Sc3(Ga2Te)2
_chemical_formula_sum   'Lu7 Sc3 Ga4 Te2'
_cell_volume   379.91611336
_cell_formula_units_Z   1
loop_
 _symmetry_equiv_pos_site_id
 _symmetry_equiv_pos_as_xyz
  1  'x, y, z'
loop_
 _atom_site_type_symbol
 _atom_site_label
 _atom_site_symmetry_multiplicity
 _atom_site_fract_x
 _atom_site_fract_y
 _atom_site_fract_z
 _atom_site_occupancy
  Lu  Lu0  1  0.314906  0.657454  0.000000  1
  Lu  Lu1  1  0.232469  0.999420  0.250852  1
  Lu  Lu2  1  0.232469  0.233049  0.749148  1
  Lu  Lu3  1  0.013407  0.763243  0.748503  1
  Lu  Lu4  1  0.013407  0.250164  0.251497  1
  Lu  Lu5  1  0.765153  0.748695  0.250046  1
  Lu  Lu6  1  0.765153  0.016458  0.749954  1
  Sc  Sc7  1  0.672393  0.336195  0.500000  1
  Sc  Sc8  1  0.672103  0.336051  0.000000  1
  Sc  Sc9  1  0.315293  0.657647  0.500000  1
  Ga  Ga10  1  0.994185  0.398051  0.746361  1
  Ga  Ga11  1  0.994185  0.596135  0.253639  1
  Ga  Ga12  1  0.401689  0.396634  0.251866  1
  Ga  Ga13  1  0.401689  0.005056  0.748134  1
  Te  Te14  1  0.605748  0.998353  0.252724  1
  Te  Te15  1  0.605748  0.607395  0.747276  1
