# generated using pymatgen
data_PrNd(ThSe3)2
_symmetry_space_group_name_H-M   'P 1'
_cell_length_a   11.47855900
_cell_length_b   4.15327200
_cell_length_c   11.20064700
_cell_angle_alpha   90.00000000
_cell_angle_beta   90.00000000
_cell_angle_gamma   90.00000000
_symmetry_Int_Tables_number   1
_chemical_formula_structural   PrNd(ThSe3)2
_chemical_formula_sum   'Pr2 Nd2 Th4 Se12'
_cell_volume   533.97491499
_cell_formula_units_Z   2
loop_
 _symmetry_equiv_pos_site_id
 _symmetry_equiv_pos_as_xyz
  1  'x, y, z'
loop_
 _atom_site_type_symbol
 _atom_site_label
 _atom_site_symmetry_multiplicity
 _atom_site_fract_x
 _atom_site_fract_y
 _atom_site_fract_z
 _atom_site_occupancy
  Pr  Pr0  1  0.304039  0.250000  0.506197  1
  Pr  Pr1  1  0.804039  0.250000  0.993803  1
  Nd  Nd2  1  0.482677  0.250000  0.186328  1
  Nd  Nd3  1  0.982677  0.250000  0.313672  1
  Th  Th4  1  0.516622  0.750000  0.815100  1
  Th  Th5  1  0.016622  0.750000  0.684900  1
  Th  Th6  1  0.692859  0.750000  0.497432  1
  Th  Th7  1  0.192859  0.750000  0.002568  1
  Se  Se8  1  0.551907  0.250000  0.627628  1
  Se  Se9  1  0.051907  0.250000  0.872372  1
  Se  Se10  1  0.454790  0.750000  0.377323  1
  Se  Se11  1  0.954790  0.750000  0.122677  1
  Se  Se12  1  0.621478  0.750000  0.055077  1
  Se  Se13  1  0.121478  0.750000  0.444923  1
  Se  Se14  1  0.378044  0.250000  0.942789  1
  Se  Se15  1  0.878044  0.250000  0.557211  1
  Se  Se16  1  0.722640  0.250000  0.302341  1
  Se  Se17  1  0.222640  0.250000  0.197659  1
  Se  Se18  1  0.274946  0.750000  0.709908  1
  Se  Se19  1  0.774946  0.750000  0.790092  1
