# generated using pymatgen
data_Y3Mg3SnHg2
_symmetry_space_group_name_H-M   'P 1'
_cell_length_a   7.64424700
_cell_length_b   7.64424667
_cell_length_c   4.42527900
_cell_angle_alpha   90.00000000
_cell_angle_beta   90.00000000
_cell_angle_gamma   119.99999711
_symmetry_Int_Tables_number   1
_chemical_formula_structural   Y3Mg3SnHg2
_chemical_formula_sum   'Y3 Mg3 Sn1 Hg2'
_cell_volume   223.94465699
_cell_formula_units_Z   1
loop_
 _symmetry_equiv_pos_site_id
 _symmetry_equiv_pos_as_xyz
  1  'x, y, z'
loop_
 _atom_site_type_symbol
 _atom_site_label
 _atom_site_symmetry_multiplicity
 _atom_site_fract_x
 _atom_site_fract_y
 _atom_site_fract_z
 _atom_site_occupancy
  Y  Y0  1  0.415946  0.992827  0.000000  1
  Y  Y1  1  0.007173  0.423120  0.000000  1
  Y  Y2  1  0.576879  0.584054  0.000000  1
  Mg  Mg3  1  0.751049  0.993355  0.500000  1
  Mg  Mg4  1  0.242306  0.248952  0.500000  1
  Mg  Mg5  1  0.006645  0.757694  0.500000  1
  Sn  Sn6  1  0.666666  0.333333  0.500000  1
  Hg  Hg7  1  0.000000  0.000000  0.000000  1
  Hg  Hg8  1  0.333334  0.666667  0.500000  1
