# generated using pymatgen
data_TmTiF7
_symmetry_space_group_name_H-M   'P 1'
_cell_length_a   5.51411300
_cell_length_b   5.86197876
_cell_length_c   8.00203494
_cell_angle_alpha   102.47940858
_cell_angle_beta   90.00000000
_cell_angle_gamma   90.00000000
_symmetry_Int_Tables_number   1
_chemical_formula_structural   TmTiF7
_chemical_formula_sum   'Tm2 Ti2 F14'
_cell_volume   252.54363733
_cell_formula_units_Z   2
loop_
 _symmetry_equiv_pos_site_id
 _symmetry_equiv_pos_as_xyz
  1  'x, y, z'
loop_
 _atom_site_type_symbol
 _atom_site_label
 _atom_site_symmetry_multiplicity
 _atom_site_fract_x
 _atom_site_fract_y
 _atom_site_fract_z
 _atom_site_occupancy
  Tm  Tm0  1  0.697729  0.656744  0.687559  1
  Tm  Tm1  1  0.197729  0.343256  0.312441  1
  Ti  Ti2  1  0.709201  0.812382  0.224110  1
  Ti  Ti3  1  0.209201  0.187618  0.775890  1
  F  F4  1  0.887937  0.450383  0.477236  1
  F  F5  1  0.387937  0.549617  0.522764  1
  F  F6  1  0.422662  0.932813  0.770614  1
  F  F7  1  0.922662  0.067187  0.229386  1
  F  F8  1  0.951152  0.967155  0.761090  1
  F  F9  1  0.451152  0.032845  0.238910  1
  F  F10  1  0.002785  0.447031  0.789055  1
  F  F11  1  0.502785  0.552969  0.210945  1
  F  F12  1  0.701976  0.757686  0.983683  1
  F  F13  1  0.201976  0.242314  0.016317  1
  F  F14  1  0.709490  0.864076  0.464362  1
  F  F15  1  0.209490  0.135924  0.535638  1
  F  F16  1  0.493428  0.375056  0.784026  1
  F  F17  1  0.993428  0.624944  0.215974  1
