# generated using pymatgen
data_Er16Cd3InRu4
_symmetry_space_group_name_H-M   'P 1'
_cell_length_a   9.58034664
_cell_length_b   9.58034551
_cell_length_c   9.58034623
_cell_angle_alpha   59.71975301
_cell_angle_beta   59.71976248
_cell_angle_gamma   59.71975542
_symmetry_Int_Tables_number   1
_chemical_formula_structural   Er16Cd3InRu4
_chemical_formula_sum   'Er16 Cd3 In1 Ru4'
_cell_volume   617.81083302
_cell_formula_units_Z   1
loop_
 _symmetry_equiv_pos_site_id
 _symmetry_equiv_pos_as_xyz
  1  'x, y, z'
loop_
 _atom_site_type_symbol
 _atom_site_label
 _atom_site_symmetry_multiplicity
 _atom_site_fract_x
 _atom_site_fract_y
 _atom_site_fract_z
 _atom_site_occupancy
  Er  Er0  1  0.347031  0.347031  0.347031  1
  Er  Er1  1  0.348419  0.348419  0.957688  1
  Er  Er2  1  0.348419  0.957688  0.348419  1
  Er  Er3  1  0.957688  0.348419  0.348419  1
  Er  Er4  1  0.810534  0.188845  0.188845  1
  Er  Er5  1  0.191142  0.809067  0.809067  1
  Er  Er6  1  0.188845  0.810534  0.188845  1
  Er  Er7  1  0.809067  0.191142  0.809067  1
  Er  Er8  1  0.188845  0.188845  0.810534  1
  Er  Er9  1  0.809067  0.809067  0.191142  1
  Er  Er10  1  0.939747  0.561714  0.561714  1
  Er  Er11  1  0.559455  0.941470  0.941470  1
  Er  Er12  1  0.561714  0.939747  0.561714  1
  Er  Er13  1  0.941470  0.559455  0.941470  1
  Er  Er14  1  0.561714  0.561714  0.939747  1
  Er  Er15  1  0.941470  0.941470  0.559455  1
  Cd  Cd16  1  0.579055  0.579055  0.257468  1
  Cd  Cd17  1  0.579055  0.257468  0.579055  1
  Cd  Cd18  1  0.257468  0.579055  0.579055  1
  In  In19  1  0.581053  0.581053  0.581053  1
  Ru  Ru20  1  0.139097  0.139097  0.139097  1
  Ru  Ru21  1  0.139685  0.139685  0.580275  1
  Ru  Ru22  1  0.139685  0.580275  0.139685  1
  Ru  Ru23  1  0.580275  0.139685  0.139685  1
