# generated using pymatgen
data_Rb2MnCuSe4
_symmetry_space_group_name_H-M   'P 1'
_cell_length_a   13.96952258
_cell_length_b   12.48695417
_cell_length_c   7.48334866
_cell_angle_alpha   84.84962765
_cell_angle_beta   62.90621252
_cell_angle_gamma   32.24415086
_symmetry_Int_Tables_number   1
_chemical_formula_structural   Rb2MnCuSe4
_chemical_formula_sum   'Rb4 Mn2 Cu2 Se8'
_cell_volume   485.48764286
_cell_formula_units_Z   2
loop_
 _symmetry_equiv_pos_site_id
 _symmetry_equiv_pos_as_xyz
  1  'x, y, z'
loop_
 _atom_site_type_symbol
 _atom_site_label
 _atom_site_symmetry_multiplicity
 _atom_site_fract_x
 _atom_site_fract_y
 _atom_site_fract_z
 _atom_site_occupancy
  Rb  Rb0  1  0.570745  0.570745  0.929255  1
  Rb  Rb1  1  0.929255  0.929255  0.570745  1
  Rb  Rb2  1  0.320745  0.320745  0.679255  1
  Rb  Rb3  1  0.679255  0.679255  0.320745  1
  Mn  Mn4  1  0.750000  0.750000  0.750000  1
  Mn  Mn5  1  0.500000  0.500000  0.500000  1
  Cu  Cu6  1  0.000000  0.000000  0.000000  1
  Cu  Cu7  1  0.250000  0.250000  0.250000  1
  Se  Se8  1  0.227020  0.880563  0.583311  1
  Se  Se9  1  0.309106  0.583311  0.880563  1
  Se  Se10  1  0.583311  0.309106  0.227020  1
  Se  Se11  1  0.880563  0.227020  0.309106  1
  Se  Se12  1  0.369437  0.022980  0.940894  1
  Se  Se13  1  0.940894  0.666689  0.369437  1
  Se  Se14  1  0.666689  0.940894  0.022980  1
  Se  Se15  1  0.022980  0.369437  0.666689  1
