# generated using pymatgen
data_Sr2GaSi4Pt3
_symmetry_space_group_name_H-M   'P 1'
_cell_length_a   8.50929698
_cell_length_b   8.50929789
_cell_length_c   8.48075687
_cell_angle_alpha   138.20673704
_cell_angle_beta   106.27561891
_cell_angle_gamma   88.71807239
_symmetry_Int_Tables_number   1
_chemical_formula_structural   Sr2GaSi4Pt3
_chemical_formula_sum   'Sr4 Ga2 Si8 Pt6'
_cell_volume   375.76858647
_cell_formula_units_Z   2
loop_
 _symmetry_equiv_pos_site_id
 _symmetry_equiv_pos_as_xyz
  1  'x, y, z'
loop_
 _atom_site_type_symbol
 _atom_site_label
 _atom_site_symmetry_multiplicity
 _atom_site_fract_x
 _atom_site_fract_y
 _atom_site_fract_z
 _atom_site_occupancy
  Sr  Sr0  1  0.633777  0.370468  0.266091  1
  Sr  Sr1  1  0.366223  0.629532  0.733909  1
  Sr  Sr2  1  0.104377  0.867686  0.233909  1
  Sr  Sr3  1  0.895623  0.132314  0.766091  1
  Ga  Ga4  1  0.270570  0.520570  0.250000  1
  Ga  Ga5  1  0.729430  0.479430  0.750000  1
  Si  Si6  1  0.730755  0.980755  0.250000  1
  Si  Si7  1  0.269245  0.019245  0.750000  1
  Si  Si8  1  0.461764  0.107195  0.351361  1
  Si  Si9  1  0.538236  0.892805  0.648639  1
  Si  Si10  1  0.755834  0.610403  0.148639  1
  Si  Si11  1  0.244166  0.389597  0.851361  1
  Si  Si12  1  0.004877  0.254877  0.250000  1
  Si  Si13  1  0.995123  0.745123  0.750000  1
  Pt  Pt14  1  0.243853  0.120355  0.103199  1
  Pt  Pt15  1  0.756147  0.879645  0.896801  1
  Pt  Pt16  1  0.017156  0.640654  0.396801  1
  Pt  Pt17  1  0.982844  0.359346  0.603199  1
  Pt  Pt18  1  0.494072  0.244072  0.750000  1
  Pt  Pt19  1  0.505928  0.755928  0.250000  1
