# generated using pymatgen
data_LiLaPr7CdIr2
_symmetry_space_group_name_H-M   'P 1'
_cell_length_a   10.08280331
_cell_length_b   10.08280303
_cell_length_c   10.07492800
_cell_angle_alpha   60.02583310
_cell_angle_beta   60.02583401
_cell_angle_gamma   60.16756427
_symmetry_Int_Tables_number   1
_chemical_formula_structural   LiLaPr7CdIr2
_chemical_formula_sum   'Li2 La2 Pr14 Cd2 Ir4'
_cell_volume   725.44817466
_cell_formula_units_Z   2
loop_
 _symmetry_equiv_pos_site_id
 _symmetry_equiv_pos_as_xyz
  1  'x, y, z'
loop_
 _atom_site_type_symbol
 _atom_site_label
 _atom_site_symmetry_multiplicity
 _atom_site_fract_x
 _atom_site_fract_y
 _atom_site_fract_z
 _atom_site_occupancy
  Li  Li0  1  0.572019  0.572019  0.576056  1
  Li  Li1  1  0.572019  0.572019  0.279905  1
  La  La2  1  0.346610  0.346610  0.347908  1
  La  La3  1  0.346610  0.346610  0.958871  1
  Pr  Pr4  1  0.346737  0.958329  0.347467  1
  Pr  Pr5  1  0.958329  0.346737  0.347467  1
  Pr  Pr6  1  0.812863  0.188114  0.189040  1
  Pr  Pr7  1  0.188114  0.812863  0.809982  1
  Pr  Pr8  1  0.188114  0.812863  0.189040  1
  Pr  Pr9  1  0.812863  0.188114  0.809982  1
  Pr  Pr10  1  0.191495  0.191495  0.808505  1
  Pr  Pr11  1  0.815787  0.815787  0.184213  1
  Pr  Pr12  1  0.937750  0.561993  0.563136  1
  Pr  Pr13  1  0.561993  0.937750  0.937120  1
  Pr  Pr14  1  0.561993  0.937750  0.563136  1
  Pr  Pr15  1  0.937750  0.561993  0.937120  1
  Pr  Pr16  1  0.563472  0.563472  0.936528  1
  Pr  Pr17  1  0.938549  0.938549  0.561451  1
  Cd  Cd18  1  0.583664  0.256677  0.579829  1
  Cd  Cd19  1  0.256677  0.583664  0.579829  1
  Ir  Ir20  1  0.143278  0.143278  0.139347  1
  Ir  Ir21  1  0.143278  0.143278  0.574097  1
  Ir  Ir22  1  0.145398  0.574634  0.139984  1
  Ir  Ir23  1  0.574634  0.145398  0.139984  1
