# generated using pymatgen
data_Ac2Zn3Ga4Pt
_symmetry_space_group_name_H-M   'P 1'
_cell_length_a   4.39819300
_cell_length_b   4.39819300
_cell_length_c   10.75969500
_cell_angle_alpha   90.00000000
_cell_angle_beta   90.00000000
_cell_angle_gamma   90.00000000
_symmetry_Int_Tables_number   1
_chemical_formula_structural   Ac2Zn3Ga4Pt
_chemical_formula_sum   'Ac2 Zn3 Ga4 Pt1'
_cell_volume   208.13663397
_cell_formula_units_Z   1
loop_
 _symmetry_equiv_pos_site_id
 _symmetry_equiv_pos_as_xyz
  1  'x, y, z'
loop_
 _atom_site_type_symbol
 _atom_site_label
 _atom_site_symmetry_multiplicity
 _atom_site_fract_x
 _atom_site_fract_y
 _atom_site_fract_z
 _atom_site_occupancy
  Ac  Ac0  1  0.000000  0.500000  0.249426  1
  Ac  Ac1  1  0.500000  0.000000  0.742839  1
  Zn  Zn2  1  0.000000  0.000000  0.998264  1
  Zn  Zn3  1  0.500000  0.500000  0.998264  1
  Zn  Zn4  1  0.000000  0.500000  0.633078  1
  Ga  Ga5  1  0.000000  0.000000  0.500623  1
  Ga  Ga6  1  0.500000  0.500000  0.500623  1
  Ga  Ga7  1  0.000000  0.500000  0.868557  1
  Ga  Ga8  1  0.500000  0.000000  0.135274  1
  Pt  Pt9  1  0.500000  0.000000  0.373053  1
