# generated using pymatgen
data_CsDy(NbCl3)6
_symmetry_space_group_name_H-M   'P 1'
_cell_length_a   10.31160013
_cell_length_b   10.31160031
_cell_length_c   10.31159987
_cell_angle_alpha   55.46067724
_cell_angle_beta   55.46067464
_cell_angle_gamma   55.46067689
_symmetry_Int_Tables_number   1
_chemical_formula_structural   CsDy(NbCl3)6
_chemical_formula_sum   'Cs1 Dy1 Nb6 Cl18'
_cell_volume   693.56296496
_cell_formula_units_Z   1
loop_
 _symmetry_equiv_pos_site_id
 _symmetry_equiv_pos_as_xyz
  1  'x, y, z'
loop_
 _atom_site_type_symbol
 _atom_site_label
 _atom_site_symmetry_multiplicity
 _atom_site_fract_x
 _atom_site_fract_y
 _atom_site_fract_z
 _atom_site_occupancy
  Cs  Cs0  1  0.222770  0.222770  0.222770  1
  Dy  Dy1  1  0.498191  0.498191  0.498191  1
  Nb  Nb2  1  0.804081  0.148617  0.910097  1
  Nb  Nb3  1  0.910097  0.804081  0.148617  1
  Nb  Nb4  1  0.148617  0.910097  0.804081  1
  Nb  Nb5  1  0.197447  0.852019  0.088110  1
  Nb  Nb6  1  0.088110  0.197447  0.852019  1
  Nb  Nb7  1  0.852019  0.088110  0.197447  1
  Cl  Cl8  1  0.869340  0.408132  0.725690  1
  Cl  Cl9  1  0.725690  0.869340  0.408132  1
  Cl  Cl10  1  0.408132  0.725690  0.869340  1
  Cl  Cl11  1  0.128741  0.592970  0.277640  1
  Cl  Cl12  1  0.277640  0.128741  0.592970  1
  Cl  Cl13  1  0.592970  0.277640  0.128741  1
  Cl  Cl14  1  0.545888  0.340049  0.793124  1
  Cl  Cl15  1  0.793124  0.545888  0.340049  1
  Cl  Cl16  1  0.340049  0.793124  0.545888  1
  Cl  Cl17  1  0.453617  0.663222  0.205878  1
  Cl  Cl18  1  0.205878  0.453617  0.663222  1
  Cl  Cl19  1  0.663222  0.205878  0.453617  1
  Cl  Cl20  1  0.665179  0.942186  0.067051  1
  Cl  Cl21  1  0.067051  0.665179  0.942186  1
  Cl  Cl22  1  0.942186  0.067051  0.665179  1
  Cl  Cl23  1  0.340355  0.056036  0.924712  1
  Cl  Cl24  1  0.924712  0.340355  0.056036  1
  Cl  Cl25  1  0.056036  0.924712  0.340355  1
