# generated using pymatgen
data_Na5P12Ir9Rh10
_symmetry_space_group_name_H-M   'P 1'
_cell_length_a   12.61768900
_cell_length_b   12.61768993
_cell_length_c   3.93695500
_cell_angle_alpha   90.00000000
_cell_angle_beta   90.00000000
_cell_angle_gamma   120.00000017
_symmetry_Int_Tables_number   1
_chemical_formula_structural   Na5P12Ir9Rh10
_chemical_formula_sum   'Na5 P12 Ir9 Rh10'
_cell_volume   542.81363885
_cell_formula_units_Z   1
loop_
 _symmetry_equiv_pos_site_id
 _symmetry_equiv_pos_as_xyz
  1  'x, y, z'
loop_
 _atom_site_type_symbol
 _atom_site_label
 _atom_site_symmetry_multiplicity
 _atom_site_fract_x
 _atom_site_fract_y
 _atom_site_fract_z
 _atom_site_occupancy
  Na  Na0  1  0.181196  0.181196  0.500000  1
  Na  Na1  1  0.818804  0.000000  0.500000  1
  Na  Na2  1  0.000000  0.818804  0.500000  1
  Na  Na3  1  0.333333  0.666667  0.000000  1
  Na  Na4  1  0.666667  0.333333  0.000000  1
  P  P5  1  0.820023  0.820023  0.000000  1
  P  P6  1  0.179977  0.000000  0.000000  1
  P  P7  1  0.000000  0.179977  0.000000  1
  P  P8  1  0.171859  0.484151  0.500000  1
  P  P9  1  0.515849  0.687707  0.500000  1
  P  P10  1  0.312293  0.828141  0.500000  1
  P  P11  1  0.687707  0.515849  0.500000  1
  P  P12  1  0.828141  0.312293  0.500000  1
  P  P13  1  0.484151  0.171859  0.500000  1
  P  P14  1  0.367438  0.367438  0.000000  1
  P  P15  1  0.632562  0.000000  0.000000  1
  P  P16  1  0.000000  0.632562  0.000000  1
  Ir  Ir17  1  0.713524  0.713524  0.500000  1
  Ir  Ir18  1  0.286476  0.000000  0.500000  1
  Ir  Ir19  1  0.000000  0.286476  0.500000  1
  Ir  Ir20  1  0.360033  0.488264  0.500000  1
  Ir  Ir21  1  0.511736  0.871770  0.500000  1
  Ir  Ir22  1  0.128230  0.639967  0.500000  1
  Ir  Ir23  1  0.871770  0.511736  0.500000  1
  Ir  Ir24  1  0.639967  0.128230  0.500000  1
  Ir  Ir25  1  0.488264  0.360033  0.500000  1
  Rh  Rh26  1  0.546915  0.546915  0.000000  1
  Rh  Rh27  1  0.453085  0.000000  0.000000  1
  Rh  Rh28  1  0.000000  0.453085  0.000000  1
  Rh  Rh29  1  0.182999  0.376571  0.000000  1
  Rh  Rh30  1  0.623429  0.806428  0.000000  1
  Rh  Rh31  1  0.193572  0.817001  0.000000  1
  Rh  Rh32  1  0.806428  0.623429  0.000000  1
  Rh  Rh33  1  0.817001  0.193572  0.000000  1
  Rh  Rh34  1  0.376571  0.182999  0.000000  1
  Rh  Rh35  1  0.000000  0.000000  0.000000  1
