# generated using pymatgen
data_Dy3Tm(Pd2Pb)2
_symmetry_space_group_name_H-M   'P 1'
_cell_length_a   7.87582432
_cell_length_b   7.87582432
_cell_length_c   3.64314400
_cell_angle_alpha   90.00000000
_cell_angle_beta   90.00000000
_cell_angle_gamma   89.66664938
_symmetry_Int_Tables_number   1
_chemical_formula_structural   Dy3Tm(Pd2Pb)2
_chemical_formula_sum   'Dy3 Tm1 Pd4 Pb2'
_cell_volume   225.97532927
_cell_formula_units_Z   1
loop_
 _symmetry_equiv_pos_site_id
 _symmetry_equiv_pos_as_xyz
  1  'x, y, z'
loop_
 _atom_site_type_symbol
 _atom_site_label
 _atom_site_symmetry_multiplicity
 _atom_site_fract_x
 _atom_site_fract_y
 _atom_site_fract_z
 _atom_site_occupancy
  Dy  Dy0  1  0.329168  0.828650  0.500000  1
  Dy  Dy1  1  0.671350  0.170832  0.500000  1
  Dy  Dy2  1  0.170924  0.329076  0.500000  1
  Tm  Tm3  1  0.829325  0.670675  0.500000  1
  Pd  Pd4  1  0.873445  0.376823  0.000000  1
  Pd  Pd5  1  0.627680  0.872320  0.000000  1
  Pd  Pd6  1  0.375072  0.124928  0.000000  1
  Pd  Pd7  1  0.123177  0.626555  0.000000  1
  Pb  Pb8  1  0.500351  0.500492  0.000000  1
  Pb  Pb9  1  0.999508  0.999649  0.000000  1
