# generated using pymatgen
data_Nd3Er5(CdCo)2
_symmetry_space_group_name_H-M   'P 1'
_cell_length_a   9.60586515
_cell_length_b   9.60586520
_cell_length_c   9.60586400
_cell_angle_alpha   59.99999725
_cell_angle_beta   59.99999707
_cell_angle_gamma   60.00000021
_symmetry_Int_Tables_number   1
_chemical_formula_structural   Nd3Er5(CdCo)2
_chemical_formula_sum   'Nd6 Er10 Cd4 Co4'
_cell_volume   626.75007020
_cell_formula_units_Z   2
loop_
 _symmetry_equiv_pos_site_id
 _symmetry_equiv_pos_as_xyz
  1  'x, y, z'
loop_
 _atom_site_type_symbol
 _atom_site_label
 _atom_site_symmetry_multiplicity
 _atom_site_fract_x
 _atom_site_fract_y
 _atom_site_fract_z
 _atom_site_occupancy
  Nd  Nd0  1  0.941985  0.558015  0.558015  1
  Nd  Nd1  1  0.558015  0.941985  0.941985  1
  Nd  Nd2  1  0.558015  0.941985  0.558015  1
  Nd  Nd3  1  0.941985  0.558015  0.941985  1
  Nd  Nd4  1  0.558015  0.558015  0.941985  1
  Nd  Nd5  1  0.941985  0.941985  0.558015  1
  Er  Er6  1  0.345547  0.345547  0.345547  1
  Er  Er7  1  0.345547  0.345547  0.963358  1
  Er  Er8  1  0.345547  0.963358  0.345547  1
  Er  Er9  1  0.963358  0.345547  0.345547  1
  Er  Er10  1  0.813828  0.186172  0.186172  1
  Er  Er11  1  0.186172  0.813828  0.813828  1
  Er  Er12  1  0.186172  0.813828  0.186172  1
  Er  Er13  1  0.813828  0.186172  0.813828  1
  Er  Er14  1  0.186172  0.186172  0.813828  1
  Er  Er15  1  0.813828  0.813828  0.186172  1
  Cd  Cd16  1  0.579199  0.579199  0.579199  1
  Cd  Cd17  1  0.579199  0.579199  0.262402  1
  Cd  Cd18  1  0.579199  0.262402  0.579199  1
  Cd  Cd19  1  0.262402  0.579199  0.579199  1
  Co  Co20  1  0.141017  0.141017  0.141017  1
  Co  Co21  1  0.141017  0.141017  0.576948  1
  Co  Co22  1  0.141017  0.576948  0.141017  1
  Co  Co23  1  0.576948  0.141017  0.141017  1
