# generated using pymatgen
data_Nd2TmLu(B6Os)2
_symmetry_space_group_name_H-M   'P 1'
_cell_length_a   3.67623100
_cell_length_b   9.18552617
_cell_length_c   11.62330622
_cell_angle_alpha   90.02235142
_cell_angle_beta   90.00000000
_cell_angle_gamma   90.00000000
_symmetry_Int_Tables_number   1
_chemical_formula_structural   Nd2TmLu(B6Os)2
_chemical_formula_sum   'Nd4 Tm2 Lu2 B24 Os4'
_cell_volume   392.49712378
_cell_formula_units_Z   2
loop_
 _symmetry_equiv_pos_site_id
 _symmetry_equiv_pos_as_xyz
  1  'x, y, z'
loop_
 _atom_site_type_symbol
 _atom_site_label
 _atom_site_symmetry_multiplicity
 _atom_site_fract_x
 _atom_site_fract_y
 _atom_site_fract_z
 _atom_site_occupancy
  Nd  Nd0  1  0.000000  0.322153  0.414280  1
  Nd  Nd1  1  0.000000  0.677847  0.585720  1
  Nd  Nd2  1  0.000000  0.821863  0.085607  1
  Nd  Nd3  1  0.000000  0.178137  0.914393  1
  Tm  Tm4  1  0.000000  0.944590  0.372597  1
  Tm  Tm5  1  0.000000  0.055410  0.627403  1
  Lu  Lu6  1  0.000000  0.444743  0.127044  1
  Lu  Lu7  1  0.000000  0.555257  0.872956  1
  B  B8  1  0.500000  0.556332  0.430180  1
  B  B9  1  0.500000  0.443668  0.569820  1
  B  B10  1  0.500000  0.056571  0.069655  1
  B  B11  1  0.500000  0.943429  0.930345  1
  B  B12  1  0.500000  0.750302  0.417210  1
  B  B13  1  0.500000  0.249698  0.582790  1
  B  B14  1  0.500000  0.251063  0.082674  1
  B  B15  1  0.500000  0.748937  0.917326  1
  B  B16  1  0.500000  0.791179  0.266543  1
  B  B17  1  0.500000  0.208821  0.733456  1
  B  B18  1  0.500000  0.292000  0.233173  1
  B  B19  1  0.500000  0.708000  0.766828  1
  B  B20  1  0.500000  0.630003  0.184595  1
  B  B21  1  0.500000  0.369997  0.815405  1
  B  B22  1  0.500000  0.130697  0.314966  1
  B  B23  1  0.500000  0.869303  0.685034  1
  B  B24  1  0.500000  0.985256  0.214408  1
  B  B25  1  0.500000  0.014744  0.785592  1
  B  B26  1  0.500000  0.484759  0.285085  1
  B  B27  1  0.500000  0.515241  0.714915  1
  B  B28  1  0.500000  0.600740  0.027443  1
  B  B29  1  0.500000  0.399260  0.972557  1
  B  B30  1  0.500000  0.101735  0.472317  1
  B  B31  1  0.500000  0.898265  0.527683  1
  Os  Os32  1  0.000000  0.639540  0.318697  1
  Os  Os33  1  0.000000  0.360460  0.681303  1
  Os  Os34  1  0.000000  0.140352  0.180920  1
  Os  Os35  1  0.000000  0.859648  0.819080  1
