# generated using pymatgen
data_TlTcO4
_symmetry_space_group_name_H-M   'P 1'
_cell_length_a   13.24091900
_cell_length_b   5.69080288
_cell_length_c   17.38450900
_cell_angle_alpha   89.39535691
_cell_angle_beta   90.00000000
_cell_angle_gamma   90.00000000
_symmetry_Int_Tables_number   1
_chemical_formula_structural   TlTcO4
_chemical_formula_sum   'Tl12 Tc12 O48'
_cell_volume   1309.87519255
_cell_formula_units_Z   12
loop_
 _symmetry_equiv_pos_site_id
 _symmetry_equiv_pos_as_xyz
  1  'x, y, z'
loop_
 _atom_site_type_symbol
 _atom_site_label
 _atom_site_symmetry_multiplicity
 _atom_site_fract_x
 _atom_site_fract_y
 _atom_site_fract_z
 _atom_site_occupancy
  Tl  Tl0  1  0.371236  0.521940  0.579834  1
  Tl  Tl1  1  0.871236  0.978060  0.420166  1
  Tl  Tl2  1  0.628764  0.478060  0.420166  1
  Tl  Tl3  1  0.128764  0.021940  0.579834  1
  Tl  Tl4  1  0.370052  0.491482  0.253317  1
  Tl  Tl5  1  0.870052  0.008518  0.746683  1
  Tl  Tl6  1  0.629948  0.508518  0.746683  1
  Tl  Tl7  1  0.129948  0.991482  0.253317  1
  Tl  Tl8  1  0.375929  0.507279  0.914504  1
  Tl  Tl9  1  0.875929  0.992721  0.085496  1
  Tl  Tl10  1  0.624071  0.492721  0.085496  1
  Tl  Tl11  1  0.124071  0.007279  0.914504  1
  Tc  Tc12  1  0.115369  0.529964  0.416707  1
  Tc  Tc13  1  0.615369  0.970036  0.583293  1
  Tc  Tc14  1  0.884631  0.470036  0.583293  1
  Tc  Tc15  1  0.384631  0.029964  0.416707  1
  Tc  Tc16  1  0.126417  0.495047  0.082619  1
  Tc  Tc17  1  0.626417  0.004953  0.917381  1
  Tc  Tc18  1  0.873583  0.504953  0.917381  1
  Tc  Tc19  1  0.373583  0.995047  0.082619  1
  Tc  Tc20  1  0.123548  0.514123  0.749511  1
  Tc  Tc21  1  0.623548  0.985877  0.250489  1
  Tc  Tc22  1  0.876452  0.485877  0.250489  1
  Tc  Tc23  1  0.376452  0.014123  0.749511  1
  O  O24  1  0.808735  0.561437  0.506625  1
  O  O25  1  0.308735  0.938563  0.493375  1
  O  O26  1  0.191265  0.438563  0.493375  1
  O  O27  1  0.691265  0.061437  0.506625  1
  O  O28  1  0.822542  0.517307  0.670379  1
  O  O29  1  0.322542  0.982693  0.329621  1
  O  O30  1  0.177458  0.482693  0.329621  1
  O  O31  1  0.677458  0.017307  0.670379  1
  O  O32  1  0.995152  0.634486  0.581652  1
  O  O33  1  0.495152  0.865514  0.418348  1
  O  O34  1  0.004848  0.365514  0.418348  1
  O  O35  1  0.504848  0.134486  0.581652  1
  O  O36  1  0.912271  0.170765  0.575630  1
  O  O37  1  0.412271  0.329235  0.424370  1
  O  O38  1  0.087729  0.829235  0.424370  1
  O  O39  1  0.587729  0.670765  0.575630  1
  O  O40  1  0.703153  0.133351  0.847043  1
  O  O41  1  0.451574  0.778106  0.044485  1
  O  O42  1  0.203153  0.366649  0.152957  1
  O  O43  1  0.796847  0.633351  0.847043  1
  O  O44  1  0.554256  0.783043  0.875901  1
  O  O45  1  0.054256  0.716957  0.124099  1
  O  O46  1  0.445744  0.216957  0.124099  1
  O  O47  1  0.945744  0.283043  0.875901  1
  O  O48  1  0.202286  0.632823  0.678792  1
  O  O49  1  0.702286  0.867177  0.321208  1
  O  O50  1  0.797714  0.367177  0.321208  1
  O  O51  1  0.297714  0.132823  0.678792  1
  O  O52  1  0.040626  0.732889  0.779784  1
  O  O53  1  0.540626  0.767111  0.220216  1
  O  O54  1  0.959374  0.267111  0.220216  1
  O  O55  1  0.459374  0.232889  0.779784  1
  O  O56  1  0.194264  0.418198  0.828500  1
  O  O57  1  0.694264  0.081802  0.171500  1
  O  O58  1  0.805736  0.581802  0.171500  1
  O  O59  1  0.305736  0.918198  0.828500  1
  O  O60  1  0.056802  0.276696  0.712584  1
  O  O61  1  0.556802  0.223304  0.287416  1
  O  O62  1  0.943198  0.723304  0.287416  1
  O  O63  1  0.443198  0.776696  0.712584  1
  O  O64  1  0.800680  0.384822  0.991495  1
  O  O65  1  0.300680  0.115178  0.008505  1
  O  O66  1  0.199320  0.615178  0.008505  1
  O  O67  1  0.699320  0.884822  0.991495  1
  O  O68  1  0.048426  0.278106  0.044485  1
  O  O69  1  0.548426  0.221894  0.955515  1
  O  O70  1  0.951574  0.721894  0.955515  1
  O  O71  1  0.296847  0.866649  0.152957  1
