# generated using pymatgen
data_Y3ErGa4(PdRh)2
_symmetry_space_group_name_H-M   'P 1'
_cell_length_a   4.41711300
_cell_length_b   6.90552959
_cell_length_c   7.68789446
_cell_angle_alpha   89.84102788
_cell_angle_beta   90.00000000
_cell_angle_gamma   90.00000000
_symmetry_Int_Tables_number   1
_chemical_formula_structural   Y3ErGa4(PdRh)2
_chemical_formula_sum   'Y3 Er1 Ga4 Pd2 Rh2'
_cell_volume   234.49913291
_cell_formula_units_Z   1
loop_
 _symmetry_equiv_pos_site_id
 _symmetry_equiv_pos_as_xyz
  1  'x, y, z'
loop_
 _atom_site_type_symbol
 _atom_site_label
 _atom_site_symmetry_multiplicity
 _atom_site_fract_x
 _atom_site_fract_y
 _atom_site_fract_z
 _atom_site_occupancy
  Y  Y0  1  0.250000  0.981522  0.304655  1
  Y  Y1  1  0.750000  0.026766  0.687622  1
  Y  Y2  1  0.750000  0.526130  0.813127  1
  Er  Er3  1  0.250000  0.481235  0.194779  1
  Ga  Ga4  1  0.250000  0.335620  0.568929  1
  Ga  Ga5  1  0.250000  0.835032  0.930805  1
  Ga  Ga6  1  0.750000  0.659166  0.426483  1
  Ga  Ga7  1  0.750000  0.160030  0.072950  1
  Pd  Pd8  1  0.250000  0.225017  0.896469  1
  Pd  Pd9  1  0.250000  0.723245  0.605260  1
  Rh  Rh10  1  0.750000  0.770866  0.105307  1
  Rh  Rh11  1  0.750000  0.275372  0.393615  1
