# generated using pymatgen
data_Tb2Y5Lu13Sn16
_symmetry_space_group_name_H-M   'P 1'
_cell_length_a   7.94064858
_cell_length_b   8.06806247
_cell_length_c   15.24080100
_cell_angle_alpha   90.01558081
_cell_angle_beta   90.22565103
_cell_angle_gamma   89.90459387
_symmetry_Int_Tables_number   1
_chemical_formula_structural   Tb2Y5Lu13Sn16
_chemical_formula_sum   'Tb2 Y5 Lu13 Sn16'
_cell_volume   976.40284402
_cell_formula_units_Z   1
loop_
 _symmetry_equiv_pos_site_id
 _symmetry_equiv_pos_as_xyz
  1  'x, y, z'
loop_
 _atom_site_type_symbol
 _atom_site_label
 _atom_site_symmetry_multiplicity
 _atom_site_fract_x
 _atom_site_fract_y
 _atom_site_fract_z
 _atom_site_occupancy
  Tb  Tb0  1  0.019472  0.179224  0.596395  1
  Tb  Tb1  1  0.480799  0.678888  0.404422  1
  Y  Y2  1  0.979511  0.820724  0.096088  1
  Y  Y3  1  0.479486  0.678354  0.095967  1
  Y  Y4  1  0.980524  0.821166  0.404265  1
  Y  Y5  1  0.518278  0.321601  0.595336  1
  Y  Y6  1  0.020367  0.179284  0.903777  1
  Lu  Lu7  1  0.364892  0.838320  0.876411  1
  Lu  Lu8  1  0.863374  0.662241  0.623958  1
  Lu  Lu9  1  0.635812  0.162228  0.375982  1
  Lu  Lu10  1  0.134072  0.338245  0.123271  1
  Lu  Lu11  1  0.634230  0.161899  0.123219  1
  Lu  Lu12  1  0.135998  0.337962  0.376250  1
  Lu  Lu13  1  0.364215  0.838390  0.624439  1
  Lu  Lu14  1  0.865963  0.661302  0.876661  1
  Lu  Lu15  1  0.522792  0.321286  0.903138  1
  Lu  Lu16  1  0.195854  0.504955  0.750469  1
  Lu  Lu17  1  0.695287  0.995086  0.750547  1
  Lu  Lu18  1  0.804458  0.494745  0.249708  1
  Lu  Lu19  1  0.304509  0.005135  0.249800  1
  Sn  Sn20  1  0.296327  0.039412  0.041631  1
  Sn  Sn21  1  0.797999  0.459295  0.458672  1
  Sn  Sn22  1  0.701441  0.960363  0.541394  1
  Sn  Sn23  1  0.207027  0.537112  0.957785  1
  Sn  Sn24  1  0.702766  0.961080  0.958167  1
  Sn  Sn25  1  0.201374  0.541141  0.541523  1
  Sn  Sn26  1  0.298292  0.040311  0.458617  1
  Sn  Sn27  1  0.795081  0.458747  0.040411  1
  Sn  Sn28  1  0.561527  0.619450  0.750498  1
  Sn  Sn29  1  0.061262  0.879904  0.750217  1
  Sn  Sn30  1  0.438350  0.379538  0.249706  1
  Sn  Sn31  1  0.938755  0.120610  0.249762  1
  Sn  Sn32  1  0.331592  0.151067  0.750983  1
  Sn  Sn33  1  0.828719  0.350755  0.750251  1
  Sn  Sn34  1  0.669917  0.850540  0.250026  1
  Sn  Sn35  1  0.169674  0.649643  0.250257  1
