# generated using pymatgen
data_Nb5Cr4Si10Tc3
_symmetry_space_group_name_H-M   'P 1'
_cell_length_a   9.23506248
_cell_length_b   9.23777106
_cell_length_c   9.23777136
_cell_angle_alpha   149.08895344
_cell_angle_beta   130.79489852
_cell_angle_gamma   59.25104884
_symmetry_Int_Tables_number   1
_chemical_formula_structural   Nb5Cr4Si10Tc3
_chemical_formula_sum   'Nb5 Cr4 Si10 Tc3'
_cell_volume   304.01937722
_cell_formula_units_Z   1
loop_
 _symmetry_equiv_pos_site_id
 _symmetry_equiv_pos_as_xyz
  1  'x, y, z'
loop_
 _atom_site_type_symbol
 _atom_site_label
 _atom_site_symmetry_multiplicity
 _atom_site_fract_x
 _atom_site_fract_y
 _atom_site_fract_z
 _atom_site_occupancy
  Nb  Nb0  1  0.682015  0.437309  0.244706  1
  Nb  Nb1  1  0.020475  0.642340  0.378135  1
  Nb  Nb2  1  0.970493  0.354191  0.616302  1
  Nb  Nb3  1  0.739520  0.856365  0.883155  1
  Nb  Nb4  1  0.261399  0.145151  0.116247  1
  Cr  Cr5  1  0.698599  0.943787  0.253043  1
  Cr  Cr6  1  0.308233  0.557106  0.252892  1
  Cr  Cr7  1  0.308233  0.055341  0.751126  1
  Cr  Cr8  1  0.698599  0.445556  0.754812  1
  Si  Si9  1  0.007208  0.251273  0.254011  1
  Si  Si10  1  0.007208  0.753198  0.755935  1
  Si  Si11  1  0.641528  0.568704  0.072824  1
  Si  Si12  1  0.347671  0.432539  0.915131  1
  Si  Si13  1  0.508342  0.932188  0.576154  1
  Si  Si14  1  0.487663  0.068071  0.419592  1
  Si  Si15  1  0.995753  0.786295  0.209457  1
  Si  Si16  1  0.007083  0.213037  0.794047  1
  Si  Si17  1  0.576545  0.282373  0.294173  1
  Si  Si18  1  0.420620  0.713590  0.707030  1
  Tc  Tc19  1  0.193688  0.938751  0.254936  1
  Tc  Tc20  1  0.799915  0.060239  0.739677  1
  Tc  Tc21  1  0.319211  0.562596  0.756616  1
