# generated using pymatgen
data_Tb3Dy3Al24Os7Ru
_symmetry_space_group_name_H-M   'P 1'
_cell_length_a   8.83476300
_cell_length_b   8.83476258
_cell_length_c   9.57671400
_cell_angle_alpha   90.00000000
_cell_angle_beta   90.00000000
_cell_angle_gamma   119.99999782
_symmetry_Int_Tables_number   1
_chemical_formula_structural   Tb3Dy3Al24Os7Ru
_chemical_formula_sum   'Tb3 Dy3 Al24 Os7 Ru1'
_cell_volume   647.34671102
_cell_formula_units_Z   1
loop_
 _symmetry_equiv_pos_site_id
 _symmetry_equiv_pos_as_xyz
  1  'x, y, z'
loop_
 _atom_site_type_symbol
 _atom_site_label
 _atom_site_symmetry_multiplicity
 _atom_site_fract_x
 _atom_site_fract_y
 _atom_site_fract_z
 _atom_site_occupancy
  Tb  Tb0  1  0.193258  0.806742  0.249425  1
  Tb  Tb1  1  0.193258  0.386515  0.249425  1
  Tb  Tb2  1  0.613485  0.806742  0.249425  1
  Dy  Dy3  1  0.806735  0.193265  0.750619  1
  Dy  Dy4  1  0.806735  0.613470  0.750619  1
  Dy  Dy5  1  0.386530  0.193265  0.750619  1
  Al  Al6  1  0.560885  0.439115  0.249792  1
  Al  Al7  1  0.560885  0.121772  0.249792  1
  Al  Al8  1  0.878228  0.439115  0.249792  1
  Al  Al9  1  0.439304  0.560696  0.750197  1
  Al  Al10  1  0.439304  0.878607  0.750197  1
  Al  Al11  1  0.121393  0.560696  0.750197  1
  Al  Al12  1  0.324680  0.162340  0.423834  1
  Al  Al13  1  0.837660  0.162340  0.423834  1
  Al  Al14  1  0.837660  0.675320  0.423834  1
  Al  Al15  1  0.675455  0.837728  0.576366  1
  Al  Al16  1  0.162272  0.837728  0.576366  1
  Al  Al17  1  0.162272  0.324545  0.576366  1
  Al  Al18  1  0.675388  0.837694  0.923666  1
  Al  Al19  1  0.162306  0.837694  0.923666  1
  Al  Al20  1  0.162306  0.324612  0.923666  1
  Al  Al21  1  0.324755  0.162377  0.076109  1
  Al  Al22  1  0.837623  0.162377  0.076109  1
  Al  Al23  1  0.837623  0.675245  0.076109  1
  Al  Al24  1  0.666667  0.333333  0.515721  1
  Al  Al25  1  0.333333  0.666667  0.484376  1
  Al  Al26  1  0.333333  0.666667  0.015555  1
  Al  Al27  1  0.666667  0.333333  0.984326  1
  Al  Al28  1  0.000000  0.000000  0.248293  1
  Al  Al29  1  0.000000  0.000000  0.751703  1
  Os  Os30  1  0.000000  0.000000  0.500141  1
  Os  Os31  1  0.500128  0.499872  0.500275  1
  Os  Os32  1  0.500128  0.000255  0.500275  1
  Os  Os33  1  0.999745  0.499872  0.500275  1
  Os  Os34  1  0.500124  0.499876  0.999722  1
  Os  Os35  1  0.500124  0.000248  0.999722  1
  Os  Os36  1  0.999752  0.499876  0.999722  1
  Ru  Ru37  1  0.000000  0.000000  0.999870  1
