# generated using pymatgen
data_Y16Ho4Ir11Pd
_symmetry_space_group_name_H-M   'P 1'
_cell_length_a   10.95837284
_cell_length_b   10.95837284
_cell_length_c   6.37516031
_cell_angle_alpha   89.97477140
_cell_angle_beta   89.97477140
_cell_angle_gamma   89.74290156
_symmetry_Int_Tables_number   1
_chemical_formula_structural   Y16Ho4Ir11Pd
_chemical_formula_sum   'Y16 Ho4 Ir11 Pd1'
_cell_volume   765.55923393
_cell_formula_units_Z   1
loop_
 _symmetry_equiv_pos_site_id
 _symmetry_equiv_pos_as_xyz
  1  'x, y, z'
loop_
 _atom_site_type_symbol
 _atom_site_label
 _atom_site_symmetry_multiplicity
 _atom_site_fract_x
 _atom_site_fract_y
 _atom_site_fract_z
 _atom_site_occupancy
  Y  Y0  1  0.290385  0.088090  0.378209  1
  Y  Y1  1  0.291661  0.911293  0.876760  1
  Y  Y2  1  0.706045  0.086448  0.871516  1
  Y  Y3  1  0.707173  0.907103  0.379473  1
  Y  Y4  1  0.587978  0.790603  0.878563  1
  Y  Y5  1  0.582842  0.209975  0.378573  1
  Y  Y6  1  0.411198  0.790813  0.378114  1
  Y  Y7  1  0.411270  0.209067  0.877895  1
  Y  Y8  1  0.209397  0.412022  0.621437  1
  Y  Y9  1  0.209187  0.588802  0.121886  1
  Y  Y10  1  0.790025  0.417158  0.121427  1
  Y  Y11  1  0.790933  0.588730  0.622105  1
  Y  Y12  1  0.911910  0.709615  0.121791  1
  Y  Y13  1  0.913552  0.293955  0.628484  1
  Y  Y14  1  0.088707  0.708339  0.623240  1
  Y  Y15  1  0.092897  0.292827  0.120527  1
  Ho  Ho16  1  0.001910  0.997694  0.500843  1
  Ho  Ho17  1  0.002306  0.998090  0.999157  1
  Ho  Ho18  1  0.499680  0.499855  0.999678  1
  Ho  Ho19  1  0.500145  0.500320  0.500322  1
  Ir  Ir20  1  0.847934  0.849625  0.750047  1
  Ir  Ir21  1  0.150375  0.152066  0.749953  1
  Ir  Ir22  1  0.152483  0.847517  0.250000  1
  Ir  Ir23  1  0.653802  0.346198  0.750000  1
  Ir  Ir24  1  0.652435  0.651727  0.249411  1
  Ir  Ir25  1  0.348273  0.347565  0.250589  1
  Ir  Ir26  1  0.347751  0.652249  0.750000  1
  Ir  Ir27  1  0.501059  0.000386  0.125492  1
  Ir  Ir28  1  0.500548  0.000430  0.622943  1
  Ir  Ir29  1  0.999570  0.499452  0.877057  1
  Ir  Ir30  1  0.999614  0.498941  0.374508  1
  Pd  Pd31  1  0.846952  0.153048  0.250000  1
