# generated using pymatgen
data_Dy2Mn14(SiC)3
_symmetry_space_group_name_H-M   'P 1'
_cell_length_a   6.43550137
_cell_length_b   6.43550017
_cell_length_c   6.43550015
_cell_angle_alpha   82.70622688
_cell_angle_beta   82.70622039
_cell_angle_gamma   82.70621067
_symmetry_Int_Tables_number   1
_chemical_formula_structural   Dy2Mn14(SiC)3
_chemical_formula_sum   'Dy2 Mn14 Si3 C3'
_cell_volume   260.56526298
_cell_formula_units_Z   1
loop_
 _symmetry_equiv_pos_site_id
 _symmetry_equiv_pos_as_xyz
  1  'x, y, z'
loop_
 _atom_site_type_symbol
 _atom_site_label
 _atom_site_symmetry_multiplicity
 _atom_site_fract_x
 _atom_site_fract_y
 _atom_site_fract_z
 _atom_site_occupancy
  Dy  Dy0  1  0.651238  0.651238  0.651238  1
  Dy  Dy1  1  0.348762  0.348762  0.348762  1
  Mn  Mn2  1  0.723897  0.276103  0.000000  1
  Mn  Mn3  1  0.000000  0.723897  0.276103  1
  Mn  Mn4  1  0.276103  0.000000  0.723897  1
  Mn  Mn5  1  0.000000  0.276601  0.723399  1
  Mn  Mn6  1  0.723399  0.000000  0.276601  1
  Mn  Mn7  1  0.276601  0.723399  0.000000  1
  Mn  Mn8  1  0.344767  0.343075  0.860375  1
  Mn  Mn9  1  0.860375  0.344767  0.343075  1
  Mn  Mn10  1  0.343075  0.860375  0.344767  1
  Mn  Mn11  1  0.656925  0.655233  0.139625  1
  Mn  Mn12  1  0.139625  0.656925  0.655233  1
  Mn  Mn13  1  0.655233  0.139625  0.656925  1
  Mn  Mn14  1  0.905986  0.905986  0.905986  1
  Mn  Mn15  1  0.094014  0.094014  0.094014  1
  Si  Si16  1  0.999353  0.000647  0.500000  1
  Si  Si17  1  0.500000  0.999353  0.000647  1
  Si  Si18  1  0.000647  0.500000  0.999353  1
  C  C19  1  0.500050  0.499950  0.000000  1
  C  C20  1  0.000000  0.500050  0.499950  1
  C  C21  1  0.499950  0.000000  0.500050  1
