# generated using pymatgen
data_HoTh2In3IrPt2
_symmetry_space_group_name_H-M   'P 1'
_cell_length_a   7.69708167
_cell_length_b   7.67990144
_cell_length_c   4.02268900
_cell_angle_alpha   90.00000000
_cell_angle_beta   90.00000000
_cell_angle_gamma   119.82119894
_symmetry_Int_Tables_number   1
_chemical_formula_structural   HoTh2In3IrPt2
_chemical_formula_sum   'Ho1 Th2 In3 Ir1 Pt2'
_cell_volume   206.30440009
_cell_formula_units_Z   1
loop_
 _symmetry_equiv_pos_site_id
 _symmetry_equiv_pos_as_xyz
  1  'x, y, z'
loop_
 _atom_site_type_symbol
 _atom_site_label
 _atom_site_symmetry_multiplicity
 _atom_site_fract_x
 _atom_site_fract_y
 _atom_site_fract_z
 _atom_site_occupancy
  Ho  Ho0  1  0.004128  0.409506  0.000000  1
  Th  Th1  1  0.582869  0.592099  0.000000  1
  Th  Th2  1  0.409247  0.993943  0.000000  1
  In  In3  1  0.000812  0.734512  0.500000  1
  In  In4  1  0.241004  0.255609  0.500000  1
  In  In5  1  0.757692  0.012125  0.500000  1
  Ir  Ir6  1  0.348266  0.678533  0.500000  1
  Pt  Pt7  1  0.000115  0.991837  0.000000  1
  Pt  Pt8  1  0.655867  0.331835  0.500000  1
