# generated using pymatgen
data_SeS8Br3
_symmetry_space_group_name_H-M   'P 1'
_cell_length_a   8.41494706
_cell_length_b   9.78749001
_cell_length_c   12.30259134
_cell_angle_alpha   105.77611454
_cell_angle_beta   108.12017131
_cell_angle_gamma   103.51083134
_symmetry_Int_Tables_number   1
_chemical_formula_structural   SeS8Br3
_chemical_formula_sum   'Se2 S16 Br6'
_cell_volume   868.84063782
_cell_formula_units_Z   2
loop_
 _symmetry_equiv_pos_site_id
 _symmetry_equiv_pos_as_xyz
  1  'x, y, z'
loop_
 _atom_site_type_symbol
 _atom_site_label
 _atom_site_symmetry_multiplicity
 _atom_site_fract_x
 _atom_site_fract_y
 _atom_site_fract_z
 _atom_site_occupancy
  Se  Se0  1  0.173376  0.939035  0.126777  1
  Se  Se1  1  0.826624  0.060966  0.873223  1
  S  S2  1  0.719391  0.450051  0.097311  1
  S  S3  1  0.896923  0.336642  0.135211  1
  S  S4  1  0.152131  0.481224  0.184629  1
  S  S5  1  0.670783  0.530452  0.251839  1
  S  S6  1  0.833239  0.754012  0.353539  1
  S  S7  1  0.277705  0.570803  0.373601  1
  S  S8  1  0.262942  0.782893  0.440183  1
  S  S9  1  0.946659  0.235462  0.505545  1
  S  S10  1  0.053342  0.764538  0.494455  1
  S  S11  1  0.737059  0.217107  0.559818  1
  S  S12  1  0.722296  0.429198  0.626399  1
  S  S13  1  0.166761  0.245988  0.646461  1
  S  S14  1  0.329216  0.469548  0.748161  1
  S  S15  1  0.847869  0.518775  0.815371  1
  S  S16  1  0.103078  0.663358  0.864789  1
  S  S17  1  0.280608  0.549949  0.902689  1
  Br  Br18  1  0.836279  0.874783  0.035365  1
  Br  Br19  1  0.479581  0.932727  0.187608  1
  Br  Br20  1  0.225938  0.134951  0.309380  1
  Br  Br21  1  0.774061  0.865049  0.690620  1
  Br  Br22  1  0.520418  0.067273  0.812392  1
  Br  Br23  1  0.163721  0.125217  0.964635  1
