# generated using pymatgen
data_Ho6ErSn23Ir6
_symmetry_space_group_name_H-M   'P 1'
_cell_length_a   9.84780800
_cell_length_b   9.84746674
_cell_length_c   10.11286200
_cell_angle_alpha   89.99999946
_cell_angle_beta   89.99884610
_cell_angle_gamma   119.99885805
_symmetry_Int_Tables_number   1
_chemical_formula_structural   Ho6ErSn23Ir6
_chemical_formula_sum   'Ho6 Er1 Sn23 Ir6'
_cell_volume   849.32479984
_cell_formula_units_Z   1
loop_
 _symmetry_equiv_pos_site_id
 _symmetry_equiv_pos_as_xyz
  1  'x, y, z'
loop_
 _atom_site_type_symbol
 _atom_site_label
 _atom_site_symmetry_multiplicity
 _atom_site_fract_x
 _atom_site_fract_y
 _atom_site_fract_z
 _atom_site_occupancy
  Ho  Ho0  1  0.480742  0.519256  0.306844  1
  Ho  Ho1  1  0.519256  0.480743  0.693157  1
  Ho  Ho2  1  0.480742  0.961487  0.306844  1
  Ho  Ho3  1  0.519256  0.038512  0.693157  1
  Ho  Ho4  1  0.038514  0.519258  0.306864  1
  Ho  Ho5  1  0.000001  0.000001  0.000000  1
  Er  Er6  1  0.961573  0.480786  0.693167  1
  Sn  Sn7  1  0.119636  0.880355  0.284092  1
  Sn  Sn8  1  0.880372  0.119687  0.715903  1
  Sn  Sn9  1  0.119636  0.239280  0.284092  1
  Sn  Sn10  1  0.880372  0.760687  0.715903  1
  Sn  Sn11  1  0.760724  0.880361  0.284092  1
  Sn  Sn12  1  0.239277  0.119639  0.715907  1
  Sn  Sn13  1  0.777266  0.222783  0.456966  1
  Sn  Sn14  1  0.222711  0.777192  0.543087  1
  Sn  Sn15  1  0.777266  0.554483  0.456966  1
  Sn  Sn16  1  0.222711  0.445519  0.543087  1
  Sn  Sn17  1  0.445512  0.222756  0.456940  1
  Sn  Sn18  1  0.554484  0.777242  0.543064  1
  Sn  Sn19  1  0.352502  0.999994  0.000000  1
  Sn  Sn20  1  0.647496  0.000003  0.999999  1
  Sn  Sn21  1  0.000000  0.352517  0.999985  1
  Sn  Sn22  1  0.000000  0.647483  0.999985  1
  Sn  Sn23  1  0.647496  0.647493  0.999999  1
  Sn  Sn24  1  0.352502  0.352508  0.000000  1
  Sn  Sn25  1  0.333330  0.666665  0.124785  1
  Sn  Sn26  1  0.666734  0.333366  0.875169  1
  Sn  Sn27  1  0.333314  0.666658  0.826421  1
  Sn  Sn28  1  0.666672  0.333335  0.173576  1
  Sn  Sn29  1  0.999998  0.999999  0.499999  1
  Ir  Ir30  1  0.831062  0.168932  0.198582  1
  Ir  Ir31  1  0.168889  0.830990  0.801395  1
  Ir  Ir32  1  0.831062  0.662131  0.198582  1
  Ir  Ir33  1  0.168889  0.337898  0.801395  1
  Ir  Ir34  1  0.337873  0.168937  0.198577  1
  Ir  Ir35  1  0.662129  0.831064  0.801416  1
