# generated using pymatgen
data_Lu16In6NiOs
_symmetry_space_group_name_H-M   'P 1'
_cell_length_a   10.19895900
_cell_length_b   10.19895738
_cell_length_c   6.86134100
_cell_angle_alpha   90.00000000
_cell_angle_beta   90.00000000
_cell_angle_gamma   120.00000202
_symmetry_Int_Tables_number   1
_chemical_formula_structural   Lu16In6NiOs
_chemical_formula_sum   'Lu16 In6 Ni1 Os1'
_cell_volume   618.08933399
_cell_formula_units_Z   1
loop_
 _symmetry_equiv_pos_site_id
 _symmetry_equiv_pos_as_xyz
  1  'x, y, z'
loop_
 _atom_site_type_symbol
 _atom_site_label
 _atom_site_symmetry_multiplicity
 _atom_site_fract_x
 _atom_site_fract_y
 _atom_site_fract_z
 _atom_site_occupancy
  Lu  Lu0  1  0.532670  0.065340  0.522911  1
  Lu  Lu1  1  0.934660  0.467330  0.522911  1
  Lu  Lu2  1  0.532670  0.467330  0.522911  1
  Lu  Lu3  1  0.468265  0.936529  0.024604  1
  Lu  Lu4  1  0.063471  0.531735  0.024604  1
  Lu  Lu5  1  0.468265  0.531735  0.024604  1
  Lu  Lu6  1  0.178317  0.356633  0.730109  1
  Lu  Lu7  1  0.643367  0.821683  0.730109  1
  Lu  Lu8  1  0.178317  0.821683  0.730109  1
  Lu  Lu9  1  0.822544  0.645089  0.229877  1
  Lu  Lu10  1  0.354911  0.177456  0.229877  1
  Lu  Lu11  1  0.822544  0.177456  0.229877  1
  Lu  Lu12  1  0.666667  0.333333  0.899731  1
  Lu  Lu13  1  0.333333  0.666667  0.408949  1
  Lu  Lu14  1  0.000000  0.000000  0.511360  1
  Lu  Lu15  1  0.000000  0.000000  0.006252  1
  In  In16  1  0.838323  0.676648  0.768217  1
  In  In17  1  0.323352  0.161677  0.768217  1
  In  In18  1  0.838323  0.161677  0.768217  1
  In  In19  1  0.163512  0.327023  0.268460  1
  In  In20  1  0.672977  0.836488  0.268460  1
  In  In21  1  0.163512  0.836488  0.268460  1
  Ni  Ni22  1  0.333333  0.666667  0.797817  1
  Os  Os23  1  0.666667  0.333333  0.299043  1
