# generated using pymatgen
data_Ba6TbTm(NiO6)2
_symmetry_space_group_name_H-M   'P 1'
_cell_length_a   7.13363691
_cell_length_b   7.13363830
_cell_length_c   7.13363867
_cell_angle_alpha   93.62321894
_cell_angle_beta   93.62322364
_cell_angle_gamma   93.62321997
_symmetry_Int_Tables_number   1
_chemical_formula_structural   Ba6TbTm(NiO6)2
_chemical_formula_sum   'Ba6 Tb1 Tm1 Ni2 O12'
_cell_volume   360.74881956
_cell_formula_units_Z   1
loop_
 _symmetry_equiv_pos_site_id
 _symmetry_equiv_pos_as_xyz
  1  'x, y, z'
loop_
 _atom_site_type_symbol
 _atom_site_label
 _atom_site_symmetry_multiplicity
 _atom_site_fract_x
 _atom_site_fract_y
 _atom_site_fract_z
 _atom_site_occupancy
  Ba  Ba0  1  0.380641  0.119358  0.750000  1
  Ba  Ba1  1  0.750000  0.380642  0.119359  1
  Ba  Ba2  1  0.249999  0.619824  0.880177  1
  Ba  Ba3  1  0.619823  0.880176  0.250001  1
  Ba  Ba4  1  0.119359  0.750000  0.380642  1
  Ba  Ba5  1  0.880176  0.250000  0.619824  1
  Tb  Tb6  1  0.250001  0.250000  0.250000  1
  Tm  Tm7  1  0.750000  0.750001  0.750000  1
  Ni  Ni8  1  0.501185  0.501185  0.501185  1
  Ni  Ni9  1  0.998815  0.998815  0.998815  1
  O  O10  1  0.782558  0.595230  0.469420  1
  O  O11  1  0.595231  0.469419  0.782558  1
  O  O12  1  0.469419  0.782558  0.595231  1
  O  O13  1  0.030580  0.904770  0.717443  1
  O  O14  1  0.904769  0.717442  0.030580  1
  O  O15  1  0.717443  0.030580  0.904769  1
  O  O16  1  0.217863  0.407889  0.535508  1
  O  O17  1  0.407889  0.535507  0.217863  1
  O  O18  1  0.535507  0.217863  0.407888  1
  O  O19  1  0.964493  0.092111  0.282138  1
  O  O20  1  0.282138  0.964492  0.092110  1
  O  O21  1  0.092110  0.282137  0.964492  1
