# generated using pymatgen
data_Tb10Si16Sn
_symmetry_space_group_name_H-M   'P 1'
_cell_length_a   11.15123925
_cell_length_b   11.09313116
_cell_length_c   11.15118917
_cell_angle_alpha   144.70581278
_cell_angle_beta   135.79155466
_cell_angle_gamma   57.89245780
_symmetry_Int_Tables_number   1
_chemical_formula_structural   Tb10Si16Sn
_chemical_formula_sum   'Tb10 Si16 Sn1'
_cell_volume   550.79272872
_cell_formula_units_Z   1
loop_
 _symmetry_equiv_pos_site_id
 _symmetry_equiv_pos_as_xyz
  1  'x, y, z'
loop_
 _atom_site_type_symbol
 _atom_site_label
 _atom_site_symmetry_multiplicity
 _atom_site_fract_x
 _atom_site_fract_y
 _atom_site_fract_z
 _atom_site_occupancy
  Tb  Tb0  1  0.756439  0.759835  0.517549  1
  Tb  Tb1  1  0.441072  0.971572  0.015626  1
  Tb  Tb2  1  0.848249  0.368830  0.018787  1
  Tb  Tb3  1  0.955946  0.971567  0.530500  1
  Tb  Tb4  1  0.150363  0.164036  0.515936  1
  Tb  Tb5  1  0.350038  0.368816  0.520566  1
  Tb  Tb6  1  0.242284  0.759817  0.003381  1
  Tb  Tb7  1  0.545268  0.558545  0.497463  1
  Tb  Tb8  1  0.061076  0.558542  0.013278  1
  Tb  Tb9  1  0.648109  0.164052  0.013690  1
  Si  Si10  1  0.199054  0.580364  0.381278  1
  Si  Si11  1  0.000151  0.084190  0.084031  1
  Si  Si12  1  0.697696  0.280159  0.582463  1
  Si  Si13  1  0.799798  0.178301  0.378489  1
  Si  Si14  1  0.895484  0.501459  0.605980  1
  Si  Si15  1  0.417745  0.870722  0.452970  1
  Si  Si16  1  0.103854  0.712828  0.608984  1
  Si  Si17  1  0.301273  0.894662  0.593381  1
  Si  Si18  1  0.578626  0.038899  0.460279  1
  Si  Si19  1  0.999401  0.430966  0.431553  1
  Si  Si20  1  0.882850  0.838525  0.955681  1
  Si  Si21  1  0.401377  0.500068  0.098686  1
  Si  Si22  1  0.117662  0.082839  0.965191  1
  Si  Si23  1  0.288377  0.238213  0.949849  1
  Si  Si24  1  0.499389  0.386141  0.886771  1
  Si  Si25  1  0.595675  0.705127  0.109441  1
  Sn  Sn26  1  0.722743  0.692421  0.969695  1
