# generated using pymatgen
data_ScTaB2Ru5W
_symmetry_space_group_name_H-M   'P 1'
_cell_length_a   9.43568861
_cell_length_b   9.43568928
_cell_length_c   3.03464200
_cell_angle_alpha   90.00000000
_cell_angle_beta   90.00000000
_cell_angle_gamma   89.85631252
_symmetry_Int_Tables_number   1
_chemical_formula_structural   ScTaB2Ru5W
_chemical_formula_sum   'Sc2 Ta2 B4 Ru10 W2'
_cell_volume   270.18008215
_cell_formula_units_Z   2
loop_
 _symmetry_equiv_pos_site_id
 _symmetry_equiv_pos_as_xyz
  1  'x, y, z'
loop_
 _atom_site_type_symbol
 _atom_site_label
 _atom_site_symmetry_multiplicity
 _atom_site_fract_x
 _atom_site_fract_y
 _atom_site_fract_z
 _atom_site_occupancy
  Sc  Sc0  1  0.825096  0.674904  0.000000  1
  Sc  Sc1  1  0.174904  0.325096  0.000000  1
  Ta  Ta2  1  0.323389  0.823389  0.000000  1
  Ta  Ta3  1  0.676611  0.176611  0.000000  1
  B  B4  1  0.622340  0.877660  0.000000  1
  B  B5  1  0.377660  0.122340  0.000000  1
  B  B6  1  0.119499  0.619499  0.000000  1
  B  B7  1  0.880501  0.380501  0.000000  1
  Ru  Ru8  1  0.566012  0.717997  0.500000  1
  Ru  Ru9  1  0.433988  0.282003  0.500000  1
  Ru  Ru10  1  0.075889  0.786051  0.500000  1
  Ru  Ru11  1  0.924111  0.213949  0.500000  1
  Ru  Ru12  1  0.286051  0.575889  0.500000  1
  Ru  Ru13  1  0.713949  0.424111  0.500000  1
  Ru  Ru14  1  0.217997  0.066012  0.500000  1
  Ru  Ru15  1  0.782003  0.933988  0.500000  1
  Ru  Ru16  1  0.500000  0.000000  0.500000  1
  Ru  Ru17  1  0.000000  0.500000  0.500000  1
  W  W18  1  0.500000  0.500000  0.000000  1
  W  W19  1  0.000000  0.000000  0.000000  1
