# generated using pymatgen
data_Tm8Nb12Si15Ge
_symmetry_space_group_name_H-M   'P 1'
_cell_length_a   6.84225717
_cell_length_b   7.04116675
_cell_length_c   13.38412803
_cell_angle_alpha   90.04903009
_cell_angle_beta   89.91945187
_cell_angle_gamma   90.03390420
_symmetry_Int_Tables_number   1
_chemical_formula_structural   Tm8Nb12Si15Ge
_chemical_formula_sum   'Tm8 Nb12 Si15 Ge1'
_cell_volume   644.81248930
_cell_formula_units_Z   1
loop_
 _symmetry_equiv_pos_site_id
 _symmetry_equiv_pos_as_xyz
  1  'x, y, z'
loop_
 _atom_site_type_symbol
 _atom_site_label
 _atom_site_symmetry_multiplicity
 _atom_site_fract_x
 _atom_site_fract_y
 _atom_site_fract_z
 _atom_site_occupancy
  Tm  Tm0  1  0.503788  0.328176  0.095668  1
  Tm  Tm1  1  0.002868  0.171542  0.403816  1
  Tm  Tm2  1  0.499532  0.674161  0.596477  1
  Tm  Tm3  1  0.995994  0.827770  0.904853  1
  Tm  Tm4  1  0.495899  0.671718  0.904646  1
  Tm  Tm5  1  0.995886  0.828791  0.595967  1
  Tm  Tm6  1  0.504431  0.326630  0.403330  1
  Tm  Tm7  1  0.003833  0.172436  0.095422  1
  Nb  Nb8  1  0.663170  0.007196  0.750203  1
  Nb  Nb9  1  0.163097  0.491554  0.751923  1
  Nb  Nb10  1  0.336531  0.992778  0.249739  1
  Nb  Nb11  1  0.836781  0.507798  0.249854  1
  Nb  Nb12  1  0.834949  0.324271  0.625446  1
  Nb  Nb13  1  0.336346  0.175211  0.875253  1
  Nb  Nb14  1  0.163548  0.675424  0.124798  1
  Nb  Nb15  1  0.663304  0.825232  0.374548  1
  Nb  Nb16  1  0.161709  0.677965  0.373240  1
  Nb  Nb17  1  0.662674  0.824424  0.124784  1
  Nb  Nb18  1  0.836282  0.324364  0.875247  1
  Nb  Nb19  1  0.338909  0.171473  0.626282  1
  Si  Si20  1  0.795144  0.627590  0.750333  1
  Si  Si21  1  0.293966  0.870995  0.750694  1
  Si  Si22  1  0.205223  0.372458  0.249616  1
  Si  Si23  1  0.705468  0.127897  0.249488  1
  Si  Si24  1  0.540821  0.377701  0.750370  1
  Si  Si25  1  0.040672  0.122176  0.750146  1
  Si  Si26  1  0.458794  0.622475  0.249904  1
  Si  Si27  1  0.958282  0.878462  0.248884  1
  Si  Si28  1  0.664228  0.036356  0.539890  1
  Si  Si29  1  0.163126  0.464199  0.959776  1
  Si  Si30  1  0.336258  0.964429  0.040367  1
  Si  Si31  1  0.832622  0.536620  0.459017  1
  Si  Si32  1  0.336125  0.963707  0.459707  1
  Si  Si33  1  0.836762  0.535755  0.040579  1
  Si  Si34  1  0.663217  0.035619  0.959716  1
  Ge  Ge35  1  0.169764  0.464648  0.540020  1
