# generated using pymatgen
data_Sc3B2RuRh4
_symmetry_space_group_name_H-M   'P 1'
_cell_length_a   9.55303900
_cell_length_b   9.55303900
_cell_length_c   3.07256300
_cell_angle_alpha   90.00000000
_cell_angle_beta   90.00000000
_cell_angle_gamma   90.00000000
_symmetry_Int_Tables_number   1
_chemical_formula_structural   Sc3B2RuRh4
_chemical_formula_sum   'Sc6 B4 Ru2 Rh8'
_cell_volume   280.40380200
_cell_formula_units_Z   2
loop_
 _symmetry_equiv_pos_site_id
 _symmetry_equiv_pos_as_xyz
  1  'x, y, z'
loop_
 _atom_site_type_symbol
 _atom_site_label
 _atom_site_symmetry_multiplicity
 _atom_site_fract_x
 _atom_site_fract_y
 _atom_site_fract_z
 _atom_site_occupancy
  Sc  Sc0  1  0.826416  0.326416  0.000000  1
  Sc  Sc1  1  0.326416  0.173584  0.000000  1
  Sc  Sc2  1  0.673584  0.826416  0.000000  1
  Sc  Sc3  1  0.173584  0.673584  0.000000  1
  Sc  Sc4  1  0.000000  0.000000  0.000000  1
  Sc  Sc5  1  0.500000  0.500000  0.000000  1
  B  B6  1  0.620377  0.120377  0.000000  1
  B  B7  1  0.120377  0.379623  0.000000  1
  B  B8  1  0.879623  0.620377  0.000000  1
  B  B9  1  0.379623  0.879623  0.000000  1
  Ru  Ru10  1  0.500000  0.000000  0.500000  1
  Ru  Ru11  1  0.000000  0.500000  0.500000  1
  Rh  Rh12  1  0.073137  0.221160  0.500000  1
  Rh  Rh13  1  0.221160  0.926863  0.500000  1
  Rh  Rh14  1  0.778840  0.073137  0.500000  1
  Rh  Rh15  1  0.926863  0.778840  0.500000  1
  Rh  Rh16  1  0.426863  0.721160  0.500000  1
  Rh  Rh17  1  0.573137  0.278840  0.500000  1
  Rh  Rh18  1  0.721160  0.573137  0.500000  1
  Rh  Rh19  1  0.278840  0.426863  0.500000  1
