# generated using pymatgen
data_La6Tb2Sc12Si15Ge
_symmetry_space_group_name_H-M   'P 1'
_cell_length_a   7.28049648
_cell_length_b   7.55023119
_cell_length_c   14.27247180
_cell_angle_alpha   89.81965306
_cell_angle_beta   89.68061316
_cell_angle_gamma   90.36681841
_symmetry_Int_Tables_number   1
_chemical_formula_structural   La6Tb2Sc12Si15Ge
_chemical_formula_sum   'La6 Tb2 Sc12 Si15 Ge1'
_cell_volume   784.51741919
_cell_formula_units_Z   1
loop_
 _symmetry_equiv_pos_site_id
 _symmetry_equiv_pos_as_xyz
  1  'x, y, z'
loop_
 _atom_site_type_symbol
 _atom_site_label
 _atom_site_symmetry_multiplicity
 _atom_site_fract_x
 _atom_site_fract_y
 _atom_site_fract_z
 _atom_site_occupancy
  La  La0  1  0.011920  0.171961  0.099314  1
  La  La1  1  0.988155  0.828512  0.900746  1
  La  La2  1  0.489470  0.670216  0.902821  1
  La  La3  1  0.987957  0.827709  0.595425  1
  La  La4  1  0.510913  0.329896  0.097410  1
  La  La5  1  0.010900  0.172275  0.404275  1
  Tb  Tb6  1  0.507458  0.324296  0.401222  1
  Tb  Tb7  1  0.495533  0.676346  0.598232  1
  Sc  Sc8  1  0.161956  0.499329  0.748955  1
  Sc  Sc9  1  0.837535  0.500814  0.252595  1
  Sc  Sc10  1  0.339146  0.996008  0.252989  1
  Sc  Sc11  1  0.660912  0.003840  0.747176  1
  Sc  Sc12  1  0.336076  0.175116  0.626195  1
  Sc  Sc13  1  0.664825  0.822972  0.374133  1
  Sc  Sc14  1  0.167970  0.671961  0.377060  1
  Sc  Sc15  1  0.669109  0.825992  0.127953  1
  Sc  Sc16  1  0.828883  0.328548  0.622060  1
  Sc  Sc17  1  0.330761  0.173673  0.872197  1
  Sc  Sc18  1  0.830166  0.325508  0.873689  1
  Sc  Sc19  1  0.170006  0.674517  0.126571  1
  Si  Si20  1  0.032686  0.129723  0.747913  1
  Si  Si21  1  0.966955  0.871346  0.251654  1
  Si  Si22  1  0.463292  0.623222  0.251610  1
  Si  Si23  1  0.536115  0.376759  0.748404  1
  Si  Si24  1  0.292632  0.879618  0.747649  1
  Si  Si25  1  0.707570  0.119488  0.252299  1
  Si  Si26  1  0.213114  0.382986  0.253387  1
  Si  Si27  1  0.787432  0.616998  0.746654  1
  Si  Si28  1  0.827052  0.536715  0.456905  1
  Si  Si29  1  0.350905  0.962844  0.461419  1
  Si  Si30  1  0.851052  0.538252  0.040303  1
  Si  Si31  1  0.648902  0.037268  0.538216  1
  Si  Si32  1  0.149145  0.462038  0.959815  1
  Si  Si33  1  0.649446  0.037490  0.960576  1
  Si  Si34  1  0.350646  0.962701  0.039541  1
  Ge  Ge35  1  0.173403  0.463061  0.542638  1
