# generated using pymatgen
data_Lu4Sc4Pt3Au
_symmetry_space_group_name_H-M   'P 1'
_cell_length_a   4.59934200
_cell_length_b   6.89898145
_cell_length_c   8.40853924
_cell_angle_alpha   90.41194660
_cell_angle_beta   90.00000000
_cell_angle_gamma   90.00000000
_symmetry_Int_Tables_number   1
_chemical_formula_structural   Lu4Sc4Pt3Au
_chemical_formula_sum   'Lu4 Sc4 Pt3 Au1'
_cell_volume   266.80257170
_cell_formula_units_Z   1
loop_
 _symmetry_equiv_pos_site_id
 _symmetry_equiv_pos_as_xyz
  1  'x, y, z'
loop_
 _atom_site_type_symbol
 _atom_site_label
 _atom_site_symmetry_multiplicity
 _atom_site_fract_x
 _atom_site_fract_y
 _atom_site_fract_z
 _atom_site_occupancy
  Lu  Lu0  1  0.250000  0.514837  0.177850  1
  Lu  Lu1  1  0.750000  0.474503  0.821478  1
  Lu  Lu2  1  0.750000  0.983366  0.671896  1
  Lu  Lu3  1  0.250000  0.016807  0.329639  1
  Sc  Sc4  1  0.250000  0.641904  0.567556  1
  Sc  Sc5  1  0.750000  0.354297  0.426397  1
  Sc  Sc6  1  0.750000  0.861186  0.078897  1
  Sc  Sc7  1  0.250000  0.150088  0.930087  1
  Pt  Pt8  1  0.750000  0.252465  0.100773  1
  Pt  Pt9  1  0.750000  0.746598  0.398272  1
  Pt  Pt10  1  0.250000  0.252406  0.604035  1
  Au  Au11  1  0.250000  0.751541  0.893124  1
