# generated using pymatgen
data_Ac2PrEr(ZnSn)4
_symmetry_space_group_name_H-M   'P 1'
_cell_length_a   4.61095200
_cell_length_b   4.61095324
_cell_length_c   17.27325200
_cell_angle_alpha   90.00000000
_cell_angle_beta   90.00000000
_cell_angle_gamma   119.99999110
_symmetry_Int_Tables_number   1
_chemical_formula_structural   Ac2PrEr(ZnSn)4
_chemical_formula_sum   'Ac2 Pr1 Er1 Zn4 Sn4'
_cell_volume   318.04318864
_cell_formula_units_Z   1
loop_
 _symmetry_equiv_pos_site_id
 _symmetry_equiv_pos_as_xyz
  1  'x, y, z'
loop_
 _atom_site_type_symbol
 _atom_site_label
 _atom_site_symmetry_multiplicity
 _atom_site_fract_x
 _atom_site_fract_y
 _atom_site_fract_z
 _atom_site_occupancy
  Ac  Ac0  1  0.000000  0.000000  0.994847  1
  Ac  Ac1  1  0.000000  0.000000  0.505153  1
  Pr  Pr2  1  0.000000  0.000000  0.250000  1
  Er  Er3  1  0.000000  0.000000  0.750000  1
  Zn  Zn4  1  0.333333  0.666667  0.160311  1
  Zn  Zn5  1  0.666667  0.333333  0.829046  1
  Zn  Zn6  1  0.666667  0.333333  0.670954  1
  Zn  Zn7  1  0.333333  0.666667  0.339689  1
  Sn  Sn8  1  0.333333  0.666667  0.627626  1
  Sn  Sn9  1  0.666667  0.333333  0.380081  1
  Sn  Sn10  1  0.666667  0.333333  0.119919  1
  Sn  Sn11  1  0.333333  0.666667  0.872374  1
