# generated using pymatgen
data_NdHo9In8Pd3Rh
_symmetry_space_group_name_H-M   'P 1'
_cell_length_a   3.62308700
_cell_length_b   8.12410787
_cell_length_c   18.30351791
_cell_angle_alpha   90.25548665
_cell_angle_beta   90.00000000
_cell_angle_gamma   90.00000000
_symmetry_Int_Tables_number   1
_chemical_formula_structural   NdHo9In8Pd3Rh
_chemical_formula_sum   'Nd1 Ho9 In8 Pd3 Rh1'
_cell_volume   538.74678876
_cell_formula_units_Z   1
loop_
 _symmetry_equiv_pos_site_id
 _symmetry_equiv_pos_as_xyz
  1  'x, y, z'
loop_
 _atom_site_type_symbol
 _atom_site_label
 _atom_site_symmetry_multiplicity
 _atom_site_fract_x
 _atom_site_fract_y
 _atom_site_fract_z
 _atom_site_occupancy
  Nd  Nd0  1  0.000000  0.499634  0.500304  1
  Ho  Ho1  1  0.000000  0.999221  0.000250  1
  Ho  Ho2  1  0.000000  0.733296  0.277171  1
  Ho  Ho3  1  0.000000  0.259110  0.719733  1
  Ho  Ho4  1  0.000000  0.760282  0.782585  1
  Ho  Ho5  1  0.000000  0.253106  0.217974  1
  Ho  Ho6  1  0.000000  0.614510  0.086829  1
  Ho  Ho7  1  0.000000  0.382275  0.916937  1
  Ho  Ho8  1  0.000000  0.878762  0.584032  1
  Ho  Ho9  1  0.000000  0.120962  0.414194  1
  In  In10  1  0.500000  0.707108  0.933882  1
  In  In11  1  0.500000  0.291695  0.067564  1
  In  In12  1  0.500000  0.797834  0.430218  1
  In  In13  1  0.500000  0.200346  0.568426  1
  In  In14  1  0.500000  0.580557  0.653491  1
  In  In15  1  0.500000  0.423489  0.347456  1
  In  In16  1  0.500000  0.923599  0.149338  1
  In  In17  1  0.500000  0.079575  0.850849  1
  Pd  Pd18  1  0.500000  0.475475  0.805397  1
  Pd  Pd19  1  0.500000  0.974757  0.696692  1
  Pd  Pd20  1  0.500000  0.022443  0.302177  1
  Rh  Rh21  1  0.500000  0.521964  0.194499  1
