# generated using pymatgen
data_DyYTm2(ReC2)2
_symmetry_space_group_name_H-M   'P 1'
_cell_length_a   5.07088700
_cell_length_b   6.56718600
_cell_length_c   9.79655300
_cell_angle_alpha   90.00000000
_cell_angle_beta   90.00000000
_cell_angle_gamma   90.00000000
_symmetry_Int_Tables_number   1
_chemical_formula_structural   DyYTm2(ReC2)2
_chemical_formula_sum   'Dy2 Y2 Tm4 Re4 C8'
_cell_volume   326.23949939
_cell_formula_units_Z   2
loop_
 _symmetry_equiv_pos_site_id
 _symmetry_equiv_pos_as_xyz
  1  'x, y, z'
loop_
 _atom_site_type_symbol
 _atom_site_label
 _atom_site_symmetry_multiplicity
 _atom_site_fract_x
 _atom_site_fract_y
 _atom_site_fract_z
 _atom_site_occupancy
  Dy  Dy0  1  0.750000  0.533929  0.784599  1
  Dy  Dy1  1  0.250000  0.966071  0.284599  1
  Y  Y2  1  0.250000  0.465741  0.215371  1
  Y  Y3  1  0.750000  0.034259  0.715371  1
  Tm  Tm4  1  0.750000  0.676220  0.442303  1
  Tm  Tm5  1  0.250000  0.823780  0.942303  1
  Tm  Tm6  1  0.750000  0.176031  0.057773  1
  Tm  Tm7  1  0.250000  0.323969  0.557773  1
  Re  Re8  1  0.250000  0.279835  0.866978  1
  Re  Re9  1  0.250000  0.779811  0.633042  1
  Re  Re10  1  0.750000  0.220165  0.366978  1
  Re  Re11  1  0.750000  0.720189  0.133042  1
  C  C12  1  0.250000  0.672992  0.449861  1
  C  C13  1  0.250000  0.547860  0.759728  1
  C  C14  1  0.750000  0.452161  0.240289  1
  C  C15  1  0.750000  0.827008  0.949861  1
  C  C16  1  0.250000  0.047839  0.740289  1
  C  C17  1  0.250000  0.172174  0.050057  1
  C  C18  1  0.750000  0.327826  0.550057  1
  C  C19  1  0.750000  0.952140  0.259728  1
