# generated using pymatgen
data_Sr4Ni3P4Pd
_symmetry_space_group_name_H-M   'P 1'
_cell_length_a   6.28811427
_cell_length_b   6.28811420
_cell_length_c   6.28811439
_cell_angle_alpha   90.16238064
_cell_angle_beta   89.83762285
_cell_angle_gamma   89.83763003
_symmetry_Int_Tables_number   1
_chemical_formula_structural   Sr4Ni3P4Pd
_chemical_formula_sum   'Sr4 Ni3 P4 Pd1'
_cell_volume   248.63143550
_cell_formula_units_Z   1
loop_
 _symmetry_equiv_pos_site_id
 _symmetry_equiv_pos_as_xyz
  1  'x, y, z'
loop_
 _atom_site_type_symbol
 _atom_site_label
 _atom_site_symmetry_multiplicity
 _atom_site_fract_x
 _atom_site_fract_y
 _atom_site_fract_z
 _atom_site_occupancy
  Sr  Sr0  1  0.611341  0.388659  0.888659  1
  Sr  Sr1  1  0.390132  0.888344  0.612875  1
  Sr  Sr2  1  0.111656  0.112875  0.109868  1
  Sr  Sr3  1  0.887125  0.609868  0.388344  1
  Ni  Ni4  1  0.591895  0.898498  0.096843  1
  Ni  Ni5  1  0.101502  0.596843  0.908105  1
  Ni  Ni6  1  0.403157  0.408105  0.398498  1
  P  P7  1  0.183423  0.346948  0.669577  1
  P  P8  1  0.653052  0.169577  0.316577  1
  P  P9  1  0.331400  0.668600  0.168600  1
  P  P10  1  0.830423  0.816577  0.846948  1
  Pd  Pd11  1  0.904895  0.095105  0.595105  1
