# generated using pymatgen
data_CeErGe2As5Rh12
_symmetry_space_group_name_H-M   'P 1'
_cell_length_a   10.00121867
_cell_length_b   9.98806802
_cell_length_c   3.93899538
_cell_angle_alpha   89.91934074
_cell_angle_beta   89.99469772
_cell_angle_gamma   120.08520546
_symmetry_Int_Tables_number   1
_chemical_formula_structural   CeErGe2As5Rh12
_chemical_formula_sum   'Ce1 Er1 Ge2 As5 Rh12'
_cell_volume   340.46806471
_cell_formula_units_Z   1
loop_
 _symmetry_equiv_pos_site_id
 _symmetry_equiv_pos_as_xyz
  1  'x, y, z'
loop_
 _atom_site_type_symbol
 _atom_site_label
 _atom_site_symmetry_multiplicity
 _atom_site_fract_x
 _atom_site_fract_y
 _atom_site_fract_z
 _atom_site_occupancy
  Ce  Ce0  1  0.665751  0.332017  0.752172  1
  Er  Er1  1  0.333241  0.668367  0.253297  1
  Ge  Ge2  1  0.000393  0.999805  0.520534  1
  Ge  Ge3  1  0.289846  0.883417  0.753502  1
  As  As4  1  0.117744  0.407340  0.753751  1
  As  As5  1  0.593693  0.711379  0.753408  1
  As  As6  1  0.712649  0.111577  0.254184  1
  As  As7  1  0.888131  0.600946  0.253952  1
  As  As8  1  0.398937  0.285202  0.253922  1
  Rh  Rh9  1  0.065479  0.618640  0.755100  1
  Rh  Rh10  1  0.380061  0.448380  0.755131  1
  Rh  Rh11  1  0.555347  0.933771  0.755503  1
  Rh  Rh12  1  0.932777  0.381550  0.253992  1
  Rh  Rh13  1  0.617288  0.549719  0.253756  1
  Rh  Rh14  1  0.447556  0.064316  0.253725  1
  Rh  Rh15  1  0.267271  0.118645  0.755777  1
  Rh  Rh16  1  0.884874  0.152023  0.755486  1
  Rh  Rh17  1  0.847250  0.730361  0.755027  1
  Rh  Rh18  1  0.734764  0.878790  0.252824  1
  Rh  Rh19  1  0.120413  0.855473  0.254406  1
  Rh  Rh20  1  0.146533  0.268285  0.254177  1
