# generated using pymatgen
data_DyTm3Lu2FeBi2
_symmetry_space_group_name_H-M   'P 1'
_cell_length_a   8.21160927
_cell_length_b   8.20042607
_cell_length_c   4.14444000
_cell_angle_alpha   90.00000000
_cell_angle_beta   90.00000000
_cell_angle_gamma   120.07448067
_symmetry_Int_Tables_number   1
_chemical_formula_structural   DyTm3Lu2FeBi2
_chemical_formula_sum   'Dy1 Tm3 Lu2 Fe1 Bi2'
_cell_volume   241.50979414
_cell_formula_units_Z   1
loop_
 _symmetry_equiv_pos_site_id
 _symmetry_equiv_pos_as_xyz
  1  'x, y, z'
loop_
 _atom_site_type_symbol
 _atom_site_label
 _atom_site_symmetry_multiplicity
 _atom_site_fract_x
 _atom_site_fract_y
 _atom_site_fract_z
 _atom_site_occupancy
  Dy  Dy0  1  0.611263  0.000180  0.000000  1
  Tm  Tm1  1  0.771014  0.770351  0.500000  1
  Tm  Tm2  1  0.999995  0.613108  0.000000  1
  Tm  Tm3  1  0.385901  0.386133  0.000000  1
  Lu  Lu4  1  0.229559  0.000160  0.500000  1
  Lu  Lu5  1  0.000889  0.229534  0.500000  1
  Fe  Fe6  1  0.003260  0.001154  0.000000  1
  Bi  Bi7  1  0.331507  0.665326  0.500000  1
  Bi  Bi8  1  0.666613  0.334054  0.500000  1
