# generated using pymatgen
data_CaYb6ThBi6
_symmetry_space_group_name_H-M   'P 1'
_cell_length_a   8.32051477
_cell_length_b   8.41627276
_cell_length_c   8.41627200
_cell_angle_alpha   109.70054689
_cell_angle_beta   109.24090165
_cell_angle_gamma   109.24090710
_symmetry_Int_Tables_number   1
_chemical_formula_structural   CaYb6ThBi6
_chemical_formula_sum   'Ca1 Yb6 Th1 Bi6'
_cell_volume   454.98224757
_cell_formula_units_Z   1
loop_
 _symmetry_equiv_pos_site_id
 _symmetry_equiv_pos_as_xyz
  1  'x, y, z'
loop_
 _atom_site_type_symbol
 _atom_site_label
 _atom_site_symmetry_multiplicity
 _atom_site_fract_x
 _atom_site_fract_y
 _atom_site_fract_z
 _atom_site_occupancy
  Ca  Ca0  1  0.646102  0.500000  0.000000  1
  Yb  Yb1  1  0.500124  0.999910  0.648978  1
  Yb  Yb2  1  0.358370  0.354256  0.360238  1
  Yb  Yb3  1  0.504115  0.005981  0.145744  1
  Yb  Yb4  1  0.000215  0.649069  0.500090  1
  Yb  Yb5  1  0.851146  0.851022  0.850931  1
  Yb  Yb6  1  0.998133  0.139762  0.494019  1
  Th  Th7  1  0.145745  0.500000  0.000000  1
  Bi  Bi8  1  0.371097  0.624220  0.753718  1
  Bi  Bi9  1  0.879198  0.251093  0.125805  1
  Bi  Bi10  1  0.617379  0.746282  0.370503  1
  Bi  Bi11  1  0.128105  0.874711  0.248907  1
  Bi  Bi12  1  0.246877  0.129497  0.875780  1
  Bi  Bi13  1  0.753394  0.374195  0.625289  1
