# generated using pymatgen
data_Li2Mg2Ni2As6Ir5
_symmetry_space_group_name_H-M   'P 1'
_cell_length_a   6.99301842
_cell_length_b   6.93912811
_cell_length_c   6.93293937
_cell_angle_alpha   108.64787409
_cell_angle_beta   109.82753263
_cell_angle_gamma   109.63322895
_symmetry_Int_Tables_number   1
_chemical_formula_structural   Li2Mg2Ni2As6Ir5
_chemical_formula_sum   'Li2 Mg2 Ni2 As6 Ir5'
_cell_volume   259.92593735
_cell_formula_units_Z   1
loop_
 _symmetry_equiv_pos_site_id
 _symmetry_equiv_pos_as_xyz
  1  'x, y, z'
loop_
 _atom_site_type_symbol
 _atom_site_label
 _atom_site_symmetry_multiplicity
 _atom_site_fract_x
 _atom_site_fract_y
 _atom_site_fract_z
 _atom_site_occupancy
  Li  Li0  1  0.999800  0.991580  0.499710  1
  Li  Li1  1  0.500500  0.003447  0.997261  1
  Mg  Mg2  1  0.000233  0.499365  0.006710  1
  Mg  Mg3  1  0.499201  0.502402  0.496828  1
  Ni  Ni4  1  0.246065  0.498438  0.751051  1
  Ni  Ni5  1  0.753212  0.252373  0.505207  1
  As  As6  1  0.684981  0.696290  0.003328  1
  As  As7  1  0.310490  0.305414  0.986506  1
  As  As8  1  0.008333  0.688642  0.690788  1
  As  As9  1  0.991768  0.302214  0.322943  1
  As  As10  1  0.689520  0.003642  0.684555  1
  As  As11  1  0.315412  0.003239  0.310864  1
  Ir  Ir12  1  0.000350  0.002170  0.999062  1
  Ir  Ir13  1  0.505195  0.259091  0.744720  1
  Ir  Ir14  1  0.494846  0.750042  0.243075  1
  Ir  Ir15  1  0.746090  0.495185  0.253428  1
  Ir  Ir16  1  0.254005  0.746468  0.503964  1
