# generated using pymatgen
data_Al3V12Ga2Ni3N4
_symmetry_space_group_name_H-M   'P 1'
_cell_length_a   6.53087904
_cell_length_b   6.53087944
_cell_length_c   6.53087877
_cell_angle_alpha   90.29370443
_cell_angle_beta   90.29370626
_cell_angle_gamma   90.29370934
_symmetry_Int_Tables_number   1
_chemical_formula_structural   Al3V12Ga2Ni3N4
_chemical_formula_sum   'Al3 V12 Ga2 Ni3 N4'
_cell_volume   278.54652964
_cell_formula_units_Z   1
loop_
 _symmetry_equiv_pos_site_id
 _symmetry_equiv_pos_as_xyz
  1  'x, y, z'
loop_
 _atom_site_type_symbol
 _atom_site_label
 _atom_site_symmetry_multiplicity
 _atom_site_fract_x
 _atom_site_fract_y
 _atom_site_fract_z
 _atom_site_occupancy
  Al  Al0  1  0.570319  0.415931  0.935345  1
  Al  Al1  1  0.415931  0.935345  0.570319  1
  Al  Al2  1  0.935345  0.570319  0.415931  1
  V  V3  1  0.790629  0.962335  0.375254  1
  V  V4  1  0.709968  0.041428  0.873171  1
  V  V5  1  0.209813  0.459615  0.124665  1
  V  V6  1  0.288639  0.538542  0.626301  1
  V  V7  1  0.962335  0.375254  0.790629  1
  V  V8  1  0.041428  0.873171  0.709968  1
  V  V9  1  0.459615  0.124665  0.209813  1
  V  V10  1  0.538542  0.626301  0.288639  1
  V  V11  1  0.375254  0.790629  0.962335  1
  V  V12  1  0.873171  0.709968  0.041428  1
  V  V13  1  0.124665  0.209813  0.459615  1
  V  V14  1  0.626301  0.288639  0.538542  1
  Ga  Ga15  1  0.677306  0.677306  0.677306  1
  Ga  Ga16  1  0.073809  0.073809  0.073809  1
  Ni  Ni17  1  0.176743  0.822676  0.321667  1
  Ni  Ni18  1  0.321667  0.176743  0.822676  1
  Ni  Ni19  1  0.822676  0.321667  0.176743  1
  N  N20  1  0.879347  0.125079  0.625791  1
  N  N21  1  0.625791  0.879347  0.125079  1
  N  N22  1  0.125079  0.625791  0.879347  1
  N  N23  1  0.375629  0.375629  0.375629  1
