# generated using pymatgen
data_Sc2InB2OsRh4
_symmetry_space_group_name_H-M   'P 1'
_cell_length_a   9.60156400
_cell_length_b   9.60156400
_cell_length_c   3.08166700
_cell_angle_alpha   90.00000000
_cell_angle_beta   90.00000000
_cell_angle_gamma   90.00000000
_symmetry_Int_Tables_number   1
_chemical_formula_structural   Sc2InB2OsRh4
_chemical_formula_sum   'Sc4 In2 B4 Os2 Rh8'
_cell_volume   284.09897702
_cell_formula_units_Z   2
loop_
 _symmetry_equiv_pos_site_id
 _symmetry_equiv_pos_as_xyz
  1  'x, y, z'
loop_
 _atom_site_type_symbol
 _atom_site_label
 _atom_site_symmetry_multiplicity
 _atom_site_fract_x
 _atom_site_fract_y
 _atom_site_fract_z
 _atom_site_occupancy
  Sc  Sc0  1  0.825670  0.325670  0.000000  1
  Sc  Sc1  1  0.325670  0.174330  0.000000  1
  Sc  Sc2  1  0.674330  0.825670  0.000000  1
  Sc  Sc3  1  0.174330  0.674330  0.000000  1
  In  In4  1  0.000000  0.000000  0.000000  1
  In  In5  1  0.500000  0.500000  0.000000  1
  B  B6  1  0.619888  0.119888  0.000000  1
  B  B7  1  0.119888  0.380112  0.000000  1
  B  B8  1  0.880112  0.619888  0.000000  1
  B  B9  1  0.380112  0.880112  0.000000  1
  Os  Os10  1  0.500000  0.000000  0.500000  1
  Os  Os11  1  0.000000  0.500000  0.500000  1
  Rh  Rh12  1  0.072764  0.223085  0.500000  1
  Rh  Rh13  1  0.223085  0.927236  0.500000  1
  Rh  Rh14  1  0.776915  0.072764  0.500000  1
  Rh  Rh15  1  0.927236  0.776915  0.500000  1
  Rh  Rh16  1  0.427236  0.723085  0.500000  1
  Rh  Rh17  1  0.572764  0.276915  0.500000  1
  Rh  Rh18  1  0.723085  0.572764  0.500000  1
  Rh  Rh19  1  0.276915  0.427236  0.500000  1
