# generated using pymatgen
data_Tm12In2Fe2Ru
_symmetry_space_group_name_H-M   'P 1'
_cell_length_a   8.24548365
_cell_length_b   8.24548355
_cell_length_c   8.24548427
_cell_angle_alpha   108.66281185
_cell_angle_beta   108.66281751
_cell_angle_gamma   111.10042117
_symmetry_Int_Tables_number   1
_chemical_formula_structural   Tm12In2Fe2Ru
_chemical_formula_sum   'Tm12 In2 Fe2 Ru1'
_cell_volume   431.28290991
_cell_formula_units_Z   1
loop_
 _symmetry_equiv_pos_site_id
 _symmetry_equiv_pos_as_xyz
  1  'x, y, z'
loop_
 _atom_site_type_symbol
 _atom_site_label
 _atom_site_symmetry_multiplicity
 _atom_site_fract_x
 _atom_site_fract_y
 _atom_site_fract_z
 _atom_site_occupancy
  Tm  Tm0  1  0.192615  0.431031  0.238415  1
  Tm  Tm1  1  0.807385  0.568969  0.761585  1
  Tm  Tm2  1  0.192615  0.954201  0.761585  1
  Tm  Tm3  1  0.954201  0.192615  0.761585  1
  Tm  Tm4  1  0.807385  0.045799  0.238415  1
  Tm  Tm5  1  0.045799  0.807385  0.238415  1
  Tm  Tm6  1  0.431031  0.192615  0.238415  1
  Tm  Tm7  1  0.568969  0.807385  0.761585  1
  Tm  Tm8  1  0.307471  0.307471  0.614942  1
  Tm  Tm9  1  0.692529  0.692529  0.385058  1
  Tm  Tm10  1  0.692529  0.307471  0.000000  1
  Tm  Tm11  1  0.307471  0.692529  0.000000  1
  In  In12  1  0.000000  0.500000  0.500000  1
  In  In13  1  0.500000  0.000000  0.500000  1
  Fe  Fe14  1  0.385120  0.385120  0.000000  1
  Fe  Fe15  1  0.614880  0.614880  0.000000  1
  Ru  Ru16  1  0.000000  0.000000  0.000000  1
