# generated using pymatgen
data_Tb2Er4PtI10
_symmetry_space_group_name_H-M   'P 1'
_cell_length_a   7.70840818
_cell_length_b   9.71110765
_cell_length_c   9.78032507
_cell_angle_alpha   107.32045288
_cell_angle_beta   97.06771921
_cell_angle_gamma   104.72721559
_symmetry_Int_Tables_number   1
_chemical_formula_structural   Tb2Er4PtI10
_chemical_formula_sum   'Tb2 Er4 Pt1 I10'
_cell_volume   660.12361823
_cell_formula_units_Z   1
loop_
 _symmetry_equiv_pos_site_id
 _symmetry_equiv_pos_as_xyz
  1  'x, y, z'
loop_
 _atom_site_type_symbol
 _atom_site_label
 _atom_site_symmetry_multiplicity
 _atom_site_fract_x
 _atom_site_fract_y
 _atom_site_fract_z
 _atom_site_occupancy
  Tb  Tb0  1  0.885062  0.959526  0.241684  1
  Tb  Tb1  1  0.114938  0.040474  0.758316  1
  Er  Er2  1  0.347904  0.125862  0.165668  1
  Er  Er3  1  0.652096  0.874138  0.834332  1
  Er  Er4  1  0.972121  0.286228  0.086697  1
  Er  Er5  1  0.027879  0.713772  0.913303  1
  Pt  Pt6  1  0.000000  0.000000  0.000000  1
  I  I7  1  0.355697  0.453233  0.272546  1
  I  I8  1  0.644303  0.546767  0.727454  1
  I  I9  1  0.914759  0.626092  0.178505  1
  I  I10  1  0.085241  0.373908  0.821495  1
  I  I11  1  0.452423  0.817153  0.091212  1
  I  I12  1  0.547577  0.182847  0.908788  1
  I  I13  1  0.261705  0.088312  0.462432  1
  I  I14  1  0.738295  0.911688  0.537568  1
  I  I15  1  0.779798  0.260597  0.347369  1
  I  I16  1  0.220202  0.739403  0.652631  1
