# generated using pymatgen
data_Er3TcB7
_symmetry_space_group_name_H-M   'P 1'
_cell_length_a   8.02667558
_cell_length_b   8.02667607
_cell_length_c   9.31349800
_cell_angle_alpha   90.00000000
_cell_angle_beta   90.00000000
_cell_angle_gamma   154.68816261
_symmetry_Int_Tables_number   1
_chemical_formula_structural   Er3TcB7
_chemical_formula_sum   'Er6 Tc2 B14'
_cell_volume   256.54628953
_cell_formula_units_Z   2
loop_
 _symmetry_equiv_pos_site_id
 _symmetry_equiv_pos_as_xyz
  1  'x, y, z'
loop_
 _atom_site_type_symbol
 _atom_site_label
 _atom_site_symmetry_multiplicity
 _atom_site_fract_x
 _atom_site_fract_y
 _atom_site_fract_z
 _atom_site_occupancy
  Er  Er0  1  0.895129  0.104871  0.440430  1
  Er  Er1  1  0.104871  0.895129  0.559570  1
  Er  Er2  1  0.895129  0.104871  0.059570  1
  Er  Er3  1  0.104871  0.895129  0.940430  1
  Er  Er4  1  0.242295  0.757705  0.250000  1
  Er  Er5  1  0.757705  0.242295  0.750000  1
  Tc  Tc6  1  0.052701  0.947299  0.250000  1
  Tc  Tc7  1  0.947299  0.052701  0.750000  1
  B  B8  1  0.727239  0.272761  0.466652  1
  B  B9  1  0.272761  0.727239  0.533348  1
  B  B10  1  0.727239  0.272761  0.033348  1
  B  B11  1  0.272761  0.727239  0.966652  1
  B  B12  1  0.632186  0.367814  0.150953  1
  B  B13  1  0.367814  0.632186  0.849047  1
  B  B14  1  0.632186  0.367814  0.349047  1
  B  B15  1  0.367814  0.632186  0.650953  1
  B  B16  1  0.520434  0.479566  0.095316  1
  B  B17  1  0.479566  0.520434  0.904684  1
  B  B18  1  0.520434  0.479566  0.404684  1
  B  B19  1  0.479566  0.520434  0.595316  1
  B  B20  1  0.455952  0.544048  0.250000  1
  B  B21  1  0.544048  0.455952  0.750000  1
