# generated using pymatgen
data_Tb2Dy3Lu5Bi6
_symmetry_space_group_name_H-M   'P 1'
_cell_length_a   8.20209700
_cell_length_b   9.42564609
_cell_length_c   11.98689012
_cell_angle_alpha   90.01623956
_cell_angle_beta   90.00000000
_cell_angle_gamma   90.00000000
_symmetry_Int_Tables_number   1
_chemical_formula_structural   Tb2Dy3Lu5Bi6
_chemical_formula_sum   'Tb4 Dy6 Lu10 Bi12'
_cell_volume   926.70719982
_cell_formula_units_Z   2
loop_
 _symmetry_equiv_pos_site_id
 _symmetry_equiv_pos_as_xyz
  1  'x, y, z'
loop_
 _atom_site_type_symbol
 _atom_site_label
 _atom_site_symmetry_multiplicity
 _atom_site_fract_x
 _atom_site_fract_y
 _atom_site_fract_z
 _atom_site_occupancy
  Tb  Tb0  1  0.313864  0.249918  0.217997  1
  Tb  Tb1  1  0.813864  0.250082  0.282003  1
  Tb  Tb2  1  0.686440  0.750268  0.781884  1
  Tb  Tb3  1  0.186440  0.749732  0.718116  1
  Dy  Dy4  1  0.352935  0.749788  0.217248  1
  Dy  Dy5  1  0.852935  0.750212  0.282752  1
  Dy  Dy6  1  0.647797  0.250465  0.782952  1
  Dy  Dy7  1  0.147797  0.249535  0.717048  1
  Dy  Dy8  1  0.691937  0.564532  0.059002  1
  Dy  Dy9  1  0.191937  0.935468  0.440998  1
  Lu  Lu10  1  0.307528  0.066959  0.940818  1
  Lu  Lu11  1  0.807528  0.433041  0.559182  1
  Lu  Lu12  1  0.308085  0.432842  0.941060  1
  Lu  Lu13  1  0.808085  0.067158  0.558940  1
  Lu  Lu14  1  0.692220  0.933245  0.059232  1
  Lu  Lu15  1  0.192220  0.566755  0.440768  1
  Lu  Lu16  1  0.477466  0.250286  0.488849  1
  Lu  Lu17  1  0.977466  0.249714  0.011151  1
  Lu  Lu18  1  0.523671  0.749538  0.511547  1
  Lu  Lu19  1  0.023671  0.750462  0.988453  1
  Bi  Bi20  1  0.402943  0.750933  0.957745  1
  Bi  Bi21  1  0.902943  0.749067  0.542255  1
  Bi  Bi22  1  0.595456  0.246924  0.041430  1
  Bi  Bi23  1  0.095456  0.253076  0.458570  1
  Bi  Bi24  1  0.565606  0.995368  0.327365  1
  Bi  Bi25  1  0.065606  0.504632  0.172635  1
  Bi  Bi26  1  0.434553  0.495098  0.672465  1
  Bi  Bi27  1  0.934553  0.004902  0.827535  1
  Bi  Bi28  1  0.434423  0.004668  0.672764  1
  Bi  Bi29  1  0.934423  0.495332  0.827236  1
  Bi  Bi30  1  0.565077  0.504509  0.327498  1
  Bi  Bi31  1  0.065077  0.995491  0.172502  1
