# generated using pymatgen
data_Dy2Al20TcRh3
_symmetry_space_group_name_H-M   'P 1'
_cell_length_a   6.85810484
_cell_length_b   6.86208775
_cell_length_c   9.17318022
_cell_angle_alpha   90.29822538
_cell_angle_beta   90.30506321
_cell_angle_gamma   97.15875698
_symmetry_Int_Tables_number   1
_chemical_formula_structural   Dy2Al20TcRh3
_chemical_formula_sum   'Dy2 Al20 Tc1 Rh3'
_cell_volume   428.31947735
_cell_formula_units_Z   1
loop_
 _symmetry_equiv_pos_site_id
 _symmetry_equiv_pos_as_xyz
  1  'x, y, z'
loop_
 _atom_site_type_symbol
 _atom_site_label
 _atom_site_symmetry_multiplicity
 _atom_site_fract_x
 _atom_site_fract_y
 _atom_site_fract_z
 _atom_site_occupancy
  Dy  Dy0  1  0.868498  0.125900  0.749454  1
  Dy  Dy1  1  0.131502  0.874100  0.250546  1
  Al  Al2  1  0.620821  0.375356  0.548535  1
  Al  Al3  1  0.379179  0.624644  0.451465  1
  Al  Al4  1  0.378132  0.622403  0.050525  1
  Al  Al5  1  0.621868  0.377597  0.949475  1
  Al  Al6  1  0.223565  0.221781  0.498638  1
  Al  Al7  1  0.776435  0.778219  0.501362  1
  Al  Al8  1  0.775947  0.776093  0.000171  1
  Al  Al9  1  0.224053  0.223907  0.999829  1
  Al  Al10  1  0.845353  0.156400  0.102958  1
  Al  Al11  1  0.154647  0.843600  0.897042  1
  Al  Al12  1  0.155857  0.846084  0.600876  1
  Al  Al13  1  0.844143  0.153916  0.399124  1
  Al  Al14  1  0.857506  0.588898  0.749778  1
  Al  Al15  1  0.142494  0.411102  0.250222  1
  Al  Al16  1  0.411789  0.142028  0.749012  1
  Al  Al17  1  0.588211  0.857972  0.250988  1
  Al  Al18  1  0.224503  0.480153  0.750143  1
  Al  Al19  1  0.775497  0.519847  0.249857  1
  Al  Al20  1  0.519107  0.776743  0.745870  1
  Al  Al21  1  0.480893  0.223257  0.254130  1
  Tc  Tc22  1  0.500000  0.000000  0.500000  1
  Rh  Rh23  1  0.000000  0.500000  0.500000  1
  Rh  Rh24  1  0.000000  0.500000  0.000000  1
  Rh  Rh25  1  0.500000  0.000000  0.000000  1
