# generated using pymatgen
data_Nd6Ag7Ir
_symmetry_space_group_name_H-M   'P 1'
_cell_length_a   8.42381200
_cell_length_b   8.42381186
_cell_length_c   8.42381180
_cell_angle_alpha   114.30542251
_cell_angle_beta   114.30542198
_cell_angle_gamma   114.30543290
_symmetry_Int_Tables_number   1
_chemical_formula_structural   Nd6Ag7Ir
_chemical_formula_sum   'Nd6 Ag7 Ir1'
_cell_volume   354.79486980
_cell_formula_units_Z   1
loop_
 _symmetry_equiv_pos_site_id
 _symmetry_equiv_pos_as_xyz
  1  'x, y, z'
loop_
 _atom_site_type_symbol
 _atom_site_label
 _atom_site_symmetry_multiplicity
 _atom_site_fract_x
 _atom_site_fract_y
 _atom_site_fract_z
 _atom_site_occupancy
  Nd  Nd0  1  0.740668  0.625848  0.988292  1
  Nd  Nd1  1  0.988292  0.740668  0.625848  1
  Nd  Nd2  1  0.625848  0.988292  0.740668  1
  Nd  Nd3  1  0.259332  0.374152  0.011708  1
  Nd  Nd4  1  0.011708  0.259332  0.374152  1
  Nd  Nd5  1  0.374152  0.011708  0.259332  1
  Ag  Ag6  1  0.572666  0.234520  0.069952  1
  Ag  Ag7  1  0.069952  0.572666  0.234520  1
  Ag  Ag8  1  0.234520  0.069952  0.572666  1
  Ag  Ag9  1  0.427334  0.765480  0.930048  1
  Ag  Ag10  1  0.930048  0.427334  0.765480  1
  Ag  Ag11  1  0.765480  0.930048  0.427334  1
  Ag  Ag12  1  0.500000  0.500000  0.500000  1
  Ir  Ir13  1  0.000000  0.000000  0.000000  1
