# generated using pymatgen
data_Tb4Co(PIr)7
_symmetry_space_group_name_H-M   'P 1'
_cell_length_a   3.91363300
_cell_length_b   12.67971536
_cell_length_c   13.01950157
_cell_angle_alpha   99.23020869
_cell_angle_beta   90.00000000
_cell_angle_gamma   90.00000000
_symmetry_Int_Tables_number   1
_chemical_formula_structural   Tb4Co(PIr)7
_chemical_formula_sum   'Tb8 Co2 P14 Ir14'
_cell_volume   637.71101593
_cell_formula_units_Z   2
loop_
 _symmetry_equiv_pos_site_id
 _symmetry_equiv_pos_as_xyz
  1  'x, y, z'
loop_
 _atom_site_type_symbol
 _atom_site_label
 _atom_site_symmetry_multiplicity
 _atom_site_fract_x
 _atom_site_fract_y
 _atom_site_fract_z
 _atom_site_occupancy
  Tb  Tb0  1  0.750000  0.209390  0.559693  1
  Tb  Tb1  1  0.250000  0.790610  0.440307  1
  Tb  Tb2  1  0.750000  0.519900  0.708150  1
  Tb  Tb3  1  0.250000  0.480100  0.291850  1
  Tb  Tb4  1  0.750000  0.281245  0.901917  1
  Tb  Tb5  1  0.250000  0.718755  0.098083  1
  Tb  Tb6  1  0.750000  0.106596  0.210044  1
  Tb  Tb7  1  0.250000  0.893404  0.789956  1
  Co  Co8  1  0.750000  0.345414  0.140486  1
  Co  Co9  1  0.250000  0.654586  0.859514  1
  P  P10  1  0.750000  0.735384  0.914986  1
  P  P11  1  0.250000  0.264616  0.085014  1
  P  P12  1  0.750000  0.906712  0.591266  1
  P  P13  1  0.250000  0.093288  0.408734  1
  P  P14  1  0.750000  0.522372  0.129773  1
  P  P15  1  0.250000  0.477628  0.870227  1
  P  P16  1  0.750000  0.841816  0.280569  1
  P  P17  1  0.250000  0.158184  0.719431  1
  P  P18  1  0.750000  0.607468  0.434744  1
  P  P19  1  0.250000  0.392532  0.565256  1
  P  P20  1  0.750000  0.317025  0.302228  1
  P  P21  1  0.250000  0.682975  0.697772  1
  P  P22  1  0.750000  0.052697  0.901355  1
  P  P23  1  0.250000  0.947303  0.098645  1
  Ir  Ir24  1  0.750000  0.729950  0.612193  1
  Ir  Ir25  1  0.250000  0.270050  0.387807  1
  Ir  Ir26  1  0.750000  0.910944  0.999023  1
  Ir  Ir27  1  0.250000  0.089056  0.000977  1
  Ir  Ir28  1  0.750000  0.421107  0.473696  1
  Ir  Ir29  1  0.250000  0.578893  0.526304  1
  Ir  Ir30  1  0.750000  0.062243  0.729268  1
  Ir  Ir31  1  0.250000  0.937757  0.270732  1
  Ir  Ir32  1  0.750000  0.555569  0.953220  1
  Ir  Ir33  1  0.250000  0.444431  0.046780  1
  Ir  Ir34  1  0.750000  0.661588  0.268649  1
  Ir  Ir35  1  0.250000  0.338412  0.731351  1
  Ir  Ir36  1  0.750000  0.990048  0.422957  1
  Ir  Ir37  1  0.250000  0.009952  0.577043  1
