# generated using pymatgen
data_CoNiMoP4W
_symmetry_space_group_name_H-M   'P 1'
_cell_length_a   3.32546800
_cell_length_b   3.32546820
_cell_length_c   11.21233000
_cell_angle_alpha   90.00000000
_cell_angle_beta   90.00000000
_cell_angle_gamma   119.99999800
_symmetry_Int_Tables_number   1
_chemical_formula_structural   CoNiMoP4W
_chemical_formula_sum   'Co1 Ni1 Mo1 P4 W1'
_cell_volume   107.38214733
_cell_formula_units_Z   1
loop_
 _symmetry_equiv_pos_site_id
 _symmetry_equiv_pos_as_xyz
  1  'x, y, z'
loop_
 _atom_site_type_symbol
 _atom_site_label
 _atom_site_symmetry_multiplicity
 _atom_site_fract_x
 _atom_site_fract_y
 _atom_site_fract_z
 _atom_site_occupancy
  Co  Co0  1  0.000000  0.000000  0.500286  1
  Ni  Ni1  1  0.000000  0.000000  0.999547  1
  Mo  Mo2  1  0.000000  0.000000  0.748110  1
  P  P3  1  0.333333  0.666667  0.113426  1
  P  P4  1  0.666667  0.333333  0.886103  1
  P  P5  1  0.666667  0.333333  0.606490  1
  P  P6  1  0.333333  0.666667  0.393608  1
  W  W7  1  0.000000  0.000000  0.252430  1
