# generated using pymatgen
data_Er12Si12Ir3Ru
_symmetry_space_group_name_H-M   'P 1'
_cell_length_a   4.20566100
_cell_length_b   10.59411848
_cell_length_c   12.20159717
_cell_angle_alpha   90.00766119
_cell_angle_beta   90.00000000
_cell_angle_gamma   90.00000000
_symmetry_Int_Tables_number   1
_chemical_formula_structural   Er12Si12Ir3Ru
_chemical_formula_sum   'Er12 Si12 Ir3 Ru1'
_cell_volume   543.64546253
_cell_formula_units_Z   1
loop_
 _symmetry_equiv_pos_site_id
 _symmetry_equiv_pos_as_xyz
  1  'x, y, z'
loop_
 _atom_site_type_symbol
 _atom_site_label
 _atom_site_symmetry_multiplicity
 _atom_site_fract_x
 _atom_site_fract_y
 _atom_site_fract_z
 _atom_site_occupancy
  Er  Er0  1  0.250000  0.878602  0.019763  1
  Er  Er1  1  0.250000  0.620435  0.520744  1
  Er  Er2  1  0.750000  0.120177  0.979991  1
  Er  Er3  1  0.750000  0.379043  0.480127  1
  Er  Er4  1  0.250000  0.920126  0.603869  1
  Er  Er5  1  0.250000  0.580449  0.104569  1
  Er  Er6  1  0.750000  0.079873  0.395755  1
  Er  Er7  1  0.750000  0.420132  0.896711  1
  Er  Er8  1  0.250000  0.660287  0.799401  1
  Er  Er9  1  0.250000  0.839963  0.300237  1
  Er  Er10  1  0.750000  0.340962  0.199298  1
  Er  Er11  1  0.750000  0.159131  0.699717  1
  Si  Si12  1  0.250000  0.011652  0.821568  1
  Si  Si13  1  0.250000  0.488030  0.321882  1
  Si  Si14  1  0.750000  0.988454  0.178290  1
  Si  Si15  1  0.750000  0.510739  0.679452  1
  Si  Si16  1  0.250000  0.248733  0.840625  1
  Si  Si17  1  0.250000  0.251891  0.340706  1
  Si  Si18  1  0.750000  0.752705  0.158626  1
  Si  Si19  1  0.750000  0.748730  0.658598  1
  Si  Si20  1  0.250000  0.199402  0.543259  1
  Si  Si21  1  0.250000  0.300116  0.043635  1
  Si  Si22  1  0.750000  0.801231  0.456417  1
  Si  Si23  1  0.750000  0.698237  0.955976  1
  Ir  Ir24  1  0.250000  0.109693  0.179359  1
  Ir  Ir25  1  0.750000  0.610539  0.320667  1
  Ir  Ir26  1  0.750000  0.890005  0.820940  1
  Ru  Ru27  1  0.250000  0.390660  0.679819  1
