# generated using pymatgen
data_NaTb6RhBr12
_symmetry_space_group_name_H-M   'P 1'
_cell_length_a   9.31738724
_cell_length_b   9.31738732
_cell_length_c   9.31738801
_cell_angle_alpha   107.11410683
_cell_angle_beta   107.11411119
_cell_angle_gamma   107.11411273
_symmetry_Int_Tables_number   1
_chemical_formula_structural   NaTb6RhBr12
_chemical_formula_sum   'Na1 Tb6 Rh1 Br12'
_cell_volume   671.53255021
_cell_formula_units_Z   1
loop_
 _symmetry_equiv_pos_site_id
 _symmetry_equiv_pos_as_xyz
  1  'x, y, z'
loop_
 _atom_site_type_symbol
 _atom_site_label
 _atom_site_symmetry_multiplicity
 _atom_site_fract_x
 _atom_site_fract_y
 _atom_site_fract_z
 _atom_site_occupancy
  Na  Na0  1  0.500000  0.500000  0.500000  1
  Tb  Tb1  1  0.316788  0.107731  0.028379  1
  Tb  Tb2  1  0.028379  0.316788  0.107731  1
  Tb  Tb3  1  0.107731  0.028379  0.316788  1
  Tb  Tb4  1  0.683212  0.892269  0.971621  1
  Tb  Tb5  1  0.971621  0.683212  0.892269  1
  Tb  Tb6  1  0.892269  0.971621  0.683212  1
  Rh  Rh7  1  0.000000  0.000000  0.000000  1
  Br  Br8  1  0.682484  0.219009  0.073626  1
  Br  Br9  1  0.073626  0.682484  0.219009  1
  Br  Br10  1  0.219009  0.073626  0.682484  1
  Br  Br11  1  0.317516  0.780991  0.926374  1
  Br  Br12  1  0.926374  0.317516  0.780991  1
  Br  Br13  1  0.780991  0.926374  0.317516  1
  Br  Br14  1  0.448348  0.147751  0.367933  1
  Br  Br15  1  0.367933  0.448348  0.147751  1
  Br  Br16  1  0.147751  0.367933  0.448348  1
  Br  Br17  1  0.551652  0.852249  0.632067  1
  Br  Br18  1  0.632067  0.551652  0.852249  1
  Br  Br19  1  0.852249  0.632067  0.551652  1
