# generated using pymatgen
data_Ba5Sc4OsO15
_symmetry_space_group_name_H-M   'P 1'
_cell_length_a   5.92645704
_cell_length_b   7.26852163
_cell_length_c   9.39502221
_cell_angle_alpha   105.04214189
_cell_angle_beta   71.60853912
_cell_angle_gamma   90.00108254
_symmetry_Int_Tables_number   1
_chemical_formula_structural   Ba5Sc4OsO15
_chemical_formula_sum   'Ba5 Sc4 Os1 O15'
_cell_volume   369.39265980
_cell_formula_units_Z   1
loop_
 _symmetry_equiv_pos_site_id
 _symmetry_equiv_pos_as_xyz
  1  'x, y, z'
loop_
 _atom_site_type_symbol
 _atom_site_label
 _atom_site_symmetry_multiplicity
 _atom_site_fract_x
 _atom_site_fract_y
 _atom_site_fract_z
 _atom_site_occupancy
  Ba  Ba0  1  0.599985  0.600010  0.799990  1
  Ba  Ba1  1  0.209790  0.204215  0.580487  1
  Ba  Ba2  1  0.990276  0.995660  0.019491  1
  Ba  Ba3  1  0.394896  0.406482  0.210202  1
  Ba  Ba4  1  0.805143  0.793450  0.389838  1
  Sc  Sc5  1  0.997600  0.519565  0.004888  1
  Sc  Sc6  1  0.202357  0.680397  0.595162  1
  Sc  Sc7  1  0.392581  0.896041  0.214889  1
  Sc  Sc8  1  0.807454  0.303971  0.385150  1
  Os  Os9  1  0.600078  0.100075  0.800016  1
  O  O10  1  0.100036  0.600117  0.800044  1
  O  O11  1  0.100005  0.100023  0.300059  1
  O  O12  1  0.600026  0.099996  0.300003  1
  O  O13  1  0.692931  0.179752  0.615054  1
  O  O14  1  0.507130  0.020349  0.984833  1
  O  O15  1  0.906725  0.392166  0.187099  1
  O  O16  1  0.293389  0.807853  0.412969  1
  O  O17  1  0.501584  0.500108  0.504726  1
  O  O18  1  0.698364  0.699794  0.095314  1
  O  O19  1  0.993345  0.500208  0.504926  1
  O  O20  1  0.206563  0.699818  0.095195  1
  O  O21  1  0.868192  0.918324  0.716380  1
  O  O22  1  0.331677  0.281664  0.883494  1
  O  O23  1  0.416384  0.917801  0.715686  1
  O  O24  1  0.783487  0.282160  0.884111  1
