# generated using pymatgen
data_Tb3Zr4UF28
_symmetry_space_group_name_H-M   'P 1'
_cell_length_a   5.80505221
_cell_length_b   9.22821716
_cell_length_c   12.38060785
_cell_angle_alpha   62.09302693
_cell_angle_beta   89.92861662
_cell_angle_gamma   89.95904337
_symmetry_Int_Tables_number   1
_chemical_formula_structural   Tb3Zr4UF28
_chemical_formula_sum   'Tb3 Zr4 U1 F28'
_cell_volume   586.10399316
_cell_formula_units_Z   1
loop_
 _symmetry_equiv_pos_site_id
 _symmetry_equiv_pos_as_xyz
  1  'x, y, z'
loop_
 _atom_site_type_symbol
 _atom_site_label
 _atom_site_symmetry_multiplicity
 _atom_site_fract_x
 _atom_site_fract_y
 _atom_site_fract_z
 _atom_site_occupancy
  Tb  Tb0  1  0.743714  0.817873  0.265906  1
  Tb  Tb1  1  0.243417  0.185119  0.233596  1
  Tb  Tb2  1  0.257048  0.190909  0.733631  1
  Zr  Zr3  1  0.743884  0.279046  0.451918  1
  Zr  Zr4  1  0.245172  0.725136  0.049861  1
  Zr  Zr5  1  0.254757  0.726041  0.539974  1
  Zr  Zr6  1  0.755203  0.270490  0.957313  1
  U  U7  1  0.757825  0.816967  0.765950  1
  F  F8  1  0.461450  0.711118  0.925036  1
  F  F9  1  0.965033  0.287092  0.577331  1
  F  F10  1  0.532285  0.285980  0.079089  1
  F  F11  1  0.031088  0.711124  0.418534  1
  F  F12  1  0.457527  0.280735  0.549856  1
  F  F13  1  0.956932  0.715812  0.956425  1
  F  F14  1  0.546221  0.719366  0.447955  1
  F  F15  1  0.043422  0.278745  0.051410  1
  F  F16  1  0.765438  0.519061  0.859688  1
  F  F17  1  0.265933  0.475393  0.639397  1
  F  F18  1  0.234671  0.474677  0.143120  1
  F  F19  1  0.732904  0.527030  0.357127  1
  F  F20  1  0.759299  0.021221  0.059921  1
  F  F21  1  0.259679  0.975484  0.440039  1
  F  F22  1  0.239650  0.973485  0.941839  1
  F  F23  1  0.739044  0.028874  0.554910  1
  F  F24  1  0.984942  0.731639  0.644237  1
  F  F25  1  0.486449  0.264782  0.851715  1
  F  F26  1  0.011798  0.265270  0.349811  1
  F  F27  1  0.515284  0.734888  0.151925  1
  F  F28  1  0.032388  0.747102  0.174197  1
  F  F29  1  0.531539  0.253912  0.328374  1
  F  F30  1  0.966268  0.251293  0.829760  1
  F  F31  1  0.460716  0.739818  0.670351  1
  F  F32  1  0.430612  0.975535  0.235499  1
  F  F33  1  0.932576  0.026385  0.264479  1
  F  F34  1  0.571374  0.035028  0.766396  1
  F  F35  1  0.084458  0.977564  0.733432  1
