# generated using pymatgen
data_Dy2Y6Re3TcB24
_symmetry_space_group_name_H-M   'P 1'
_cell_length_a   3.68899000
_cell_length_b   9.19067929
_cell_length_c   11.57911302
_cell_angle_alpha   90.03328069
_cell_angle_beta   90.00000000
_cell_angle_gamma   90.00000000
_symmetry_Int_Tables_number   1
_chemical_formula_structural   Dy2Y6Re3TcB24
_chemical_formula_sum   'Dy2 Y6 Re3 Tc1 B24'
_cell_volume   392.58193295
_cell_formula_units_Z   1
loop_
 _symmetry_equiv_pos_site_id
 _symmetry_equiv_pos_as_xyz
  1  'x, y, z'
loop_
 _atom_site_type_symbol
 _atom_site_label
 _atom_site_symmetry_multiplicity
 _atom_site_fract_x
 _atom_site_fract_y
 _atom_site_fract_z
 _atom_site_occupancy
  Dy  Dy0  1  0.000000  0.443384  0.130776  1
  Dy  Dy1  1  0.000000  0.557217  0.870197  1
  Y  Y2  1  0.000000  0.323888  0.413942  1
  Y  Y3  1  0.000000  0.676394  0.585752  1
  Y  Y4  1  0.000000  0.823544  0.085839  1
  Y  Y5  1  0.000000  0.176730  0.914161  1
  Y  Y6  1  0.000000  0.941826  0.369716  1
  Y  Y7  1  0.000000  0.057113  0.629702  1
  Re  Re8  1  0.000000  0.361448  0.679115  1
  Re  Re9  1  0.000000  0.138688  0.179195  1
  Re  Re10  1  0.000000  0.861312  0.820887  1
  Tc  Tc11  1  0.000000  0.638547  0.320684  1
  B  B12  1  0.500000  0.553431  0.432603  1
  B  B13  1  0.500000  0.446742  0.567144  1
  B  B14  1  0.500000  0.053434  0.067208  1
  B  B15  1  0.500000  0.946815  0.932723  1
  B  B16  1  0.500000  0.748299  0.418215  1
  B  B17  1  0.500000  0.251292  0.581587  1
  B  B18  1  0.500000  0.249025  0.081828  1
  B  B19  1  0.500000  0.751330  0.918298  1
  B  B20  1  0.500000  0.791196  0.265305  1
  B  B21  1  0.500000  0.208446  0.734464  1
  B  B22  1  0.500000  0.291580  0.234640  1
  B  B23  1  0.500000  0.708372  0.765624  1
  B  B24  1  0.500000  0.630835  0.185965  1
  B  B25  1  0.500000  0.369386  0.814158  1
  B  B26  1  0.500000  0.130563  0.314201  1
  B  B27  1  0.500000  0.869157  0.685777  1
  B  B28  1  0.500000  0.982246  0.211664  1
  B  B29  1  0.500000  0.017717  0.788153  1
  B  B30  1  0.500000  0.482646  0.288285  1
  B  B31  1  0.500000  0.517679  0.711971  1
  B  B32  1  0.500000  0.600251  0.028227  1
  B  B33  1  0.500000  0.400096  0.972262  1
  B  B34  1  0.500000  0.099878  0.471746  1
  B  B35  1  0.500000  0.899490  0.527982  1
