# generated using pymatgen
data_K3Pr(NbS4)2
_symmetry_space_group_name_H-M   'P 1'
_cell_length_a   9.05592618
_cell_length_b   10.44839349
_cell_length_c   11.24633476
_cell_angle_alpha   107.37862917
_cell_angle_beta   102.20174480
_cell_angle_gamma   114.31798450
_symmetry_Int_Tables_number   1
_chemical_formula_structural   K3Pr(NbS4)2
_chemical_formula_sum   'K6 Pr2 Nb4 S16'
_cell_volume   854.31853098
_cell_formula_units_Z   2
loop_
 _symmetry_equiv_pos_site_id
 _symmetry_equiv_pos_as_xyz
  1  'x, y, z'
loop_
 _atom_site_type_symbol
 _atom_site_label
 _atom_site_symmetry_multiplicity
 _atom_site_fract_x
 _atom_site_fract_y
 _atom_site_fract_z
 _atom_site_occupancy
  K  K0  1  0.500002  0.500000  0.000001  1
  K  K1  1  0.000004  0.500000  0.999995  1
  K  K2  1  0.255488  0.005496  0.010868  1
  K  K3  1  0.488513  0.738531  0.477018  1
  K  K4  1  0.511486  0.261463  0.522979  1
  K  K5  1  0.744515  0.994510  0.989131  1
  Pr  Pr6  1  0.991321  0.241318  0.482683  1
  Pr  Pr7  1  0.008681  0.758681  0.517316  1
  Nb  Nb8  1  0.006156  0.903534  0.250456  1
  Nb  Nb9  1  0.744265  0.346925  0.250473  1
  Nb  Nb10  1  0.255739  0.653076  0.749535  1
  Nb  Nb11  1  0.993834  0.096463  0.749539  1
  S  S12  1  0.878927  0.754186  0.023856  1
  S  S13  1  0.644952  0.269697  0.023892  1
  S  S14  1  0.139047  0.161647  0.289596  1
  S  S15  1  0.650496  0.127945  0.289617  1
  S  S16  1  0.806238  0.865866  0.350259  1
  S  S17  1  0.043982  0.484379  0.350243  1
  S  S18  1  0.208464  0.852958  0.353795  1
  S  S19  1  0.645319  0.500853  0.353786  1
  S  S20  1  0.354682  0.499150  0.646214  1
  S  S21  1  0.791531  0.147042  0.646204  1
  S  S22  1  0.956021  0.515622  0.649758  1
  S  S23  1  0.193758  0.134132  0.649740  1
  S  S24  1  0.349502  0.872054  0.710386  1
  S  S25  1  0.860953  0.838353  0.710404  1
  S  S26  1  0.355054  0.730306  0.976116  1
  S  S27  1  0.121072  0.245811  0.976139  1
