# generated using pymatgen
data_Y5Pa3Re2(B12Mo)2
_symmetry_space_group_name_H-M   'P 1'
_cell_length_a   3.72801500
_cell_length_b   9.21283490
_cell_length_c   11.56807501
_cell_angle_alpha   89.83140993
_cell_angle_beta   90.00000000
_cell_angle_gamma   90.00000000
_symmetry_Int_Tables_number   1
_chemical_formula_structural   Y5Pa3Re2(B12Mo)2
_chemical_formula_sum   'Y5 Pa3 Re2 B24 Mo2'
_cell_volume   397.31060324
_cell_formula_units_Z   1
loop_
 _symmetry_equiv_pos_site_id
 _symmetry_equiv_pos_as_xyz
  1  'x, y, z'
loop_
 _atom_site_type_symbol
 _atom_site_label
 _atom_site_symmetry_multiplicity
 _atom_site_fract_x
 _atom_site_fract_y
 _atom_site_fract_z
 _atom_site_occupancy
  Y  Y0  1  0.000000  0.677361  0.586930  1
  Y  Y1  1  0.000000  0.445545  0.124871  1
  Y  Y2  1  0.000000  0.555034  0.872716  1
  Y  Y3  1  0.000000  0.944496  0.374643  1
  Y  Y4  1  0.000000  0.053208  0.626027  1
  Pa  Pa5  1  0.000000  0.824296  0.086550  1
  Pa  Pa6  1  0.000000  0.175918  0.913403  1
  Pa  Pa7  1  0.000000  0.324308  0.413504  1
  Re  Re8  1  0.000000  0.637473  0.320198  1
  Re  Re9  1  0.000000  0.358841  0.678108  1
  B  B10  1  0.500000  0.053050  0.067426  1
  B  B11  1  0.500000  0.947936  0.934133  1
  B  B12  1  0.500000  0.552535  0.431607  1
  B  B13  1  0.500000  0.445316  0.567044  1
  B  B14  1  0.500000  0.247514  0.078798  1
  B  B15  1  0.500000  0.752544  0.921578  1
  B  B16  1  0.500000  0.747385  0.420090  1
  B  B17  1  0.500000  0.252302  0.579768  1
  B  B18  1  0.500000  0.293951  0.234499  1
  B  B19  1  0.500000  0.706288  0.765885  1
  B  B20  1  0.500000  0.792115  0.266878  1
  B  B21  1  0.500000  0.207372  0.733312  1
  B  B22  1  0.500000  0.134523  0.314962  1
  B  B23  1  0.500000  0.866758  0.685600  1
  B  B24  1  0.500000  0.633225  0.186451  1
  B  B25  1  0.500000  0.366742  0.812390  1
  B  B26  1  0.500000  0.483093  0.287396  1
  B  B27  1  0.500000  0.516626  0.712411  1
  B  B28  1  0.500000  0.982544  0.213515  1
  B  B29  1  0.500000  0.018264  0.787048  1
  B  B30  1  0.500000  0.113300  0.469003  1
  B  B31  1  0.500000  0.887062  0.531039  1
  B  B32  1  0.500000  0.615868  0.032579  1
  B  B33  1  0.500000  0.384160  0.966651  1
  Mo  Mo34  1  0.000000  0.139143  0.178539  1
  Mo  Mo35  1  0.000000  0.863902  0.824444  1
