# generated using pymatgen
data_Y5ErMn16(CoP6)2
_symmetry_space_group_name_H-M   'P 1'
_cell_length_a   3.64494300
_cell_length_b   10.85765803
_cell_length_c   12.63429703
_cell_angle_alpha   90.00784353
_cell_angle_beta   90.00000000
_cell_angle_gamma   90.00000000
_symmetry_Int_Tables_number   1
_chemical_formula_structural   Y5ErMn16(CoP6)2
_chemical_formula_sum   'Y5 Er1 Mn16 Co2 P12'
_cell_volume   500.00918110
_cell_formula_units_Z   1
loop_
 _symmetry_equiv_pos_site_id
 _symmetry_equiv_pos_as_xyz
  1  'x, y, z'
loop_
 _atom_site_type_symbol
 _atom_site_label
 _atom_site_symmetry_multiplicity
 _atom_site_fract_x
 _atom_site_fract_y
 _atom_site_fract_z
 _atom_site_occupancy
  Y  Y0  1  0.000000  0.500016  0.532052  1
  Y  Y1  1  0.500000  0.999941  0.467856  1
  Y  Y2  1  0.500000  0.177234  0.206642  1
  Y  Y3  1  0.000000  0.677348  0.793404  1
  Y  Y4  1  0.000000  0.322651  0.793396  1
  Er  Er5  1  0.500000  0.822875  0.206699  1
  Mn  Mn6  1  0.500000  0.500091  0.166589  1
  Mn  Mn7  1  0.000000  0.000001  0.833460  1
  Mn  Mn8  1  0.000000  0.500245  0.992661  1
  Mn  Mn9  1  0.500000  0.999767  0.007707  1
  Mn  Mn10  1  0.500000  0.332656  0.997405  1
  Mn  Mn11  1  0.500000  0.667587  0.997696  1
  Mn  Mn12  1  0.000000  0.167221  0.002766  1
  Mn  Mn13  1  0.000000  0.832533  0.003048  1
  Mn  Mn14  1  0.500000  0.297999  0.432486  1
  Mn  Mn15  1  0.500000  0.702184  0.432160  1
  Mn  Mn16  1  0.000000  0.201979  0.567474  1
  Mn  Mn17  1  0.000000  0.798002  0.567321  1
  Mn  Mn18  1  0.500000  0.881647  0.702275  1
  Mn  Mn19  1  0.500000  0.118327  0.702304  1
  Mn  Mn20  1  0.000000  0.618798  0.297429  1
  Mn  Mn21  1  0.000000  0.381732  0.297628  1
  Co  Co22  1  0.500000  0.500041  0.705705  1
  Co  Co23  1  0.000000  0.999087  0.293869  1
  P  P24  1  0.500000  0.500031  0.881298  1
  P  P25  1  0.000000  0.999060  0.119239  1
  P  P26  1  0.500000  0.500034  0.359041  1
  P  P27  1  0.000000  0.000001  0.640862  1
  P  P28  1  0.500000  0.317667  0.618794  1
  P  P29  1  0.500000  0.682368  0.618739  1
  P  P30  1  0.000000  0.182204  0.381148  1
  P  P31  1  0.000000  0.817679  0.380247  1
  P  P32  1  0.500000  0.845799  0.884945  1
  P  P33  1  0.500000  0.154188  0.884974  1
  P  P34  1  0.000000  0.655182  0.115624  1
  P  P35  1  0.000000  0.345828  0.115056  1
