# generated using pymatgen
data_Ti7Zn(FeIr)4
_symmetry_space_group_name_H-M   'P 1'
_cell_length_a   6.11806200
_cell_length_b   4.31082800
_cell_length_c   8.58620900
_cell_angle_alpha   90.00000000
_cell_angle_beta   89.99978635
_cell_angle_gamma   90.00000000
_symmetry_Int_Tables_number   1
_chemical_formula_structural   Ti7Zn(FeIr)4
_chemical_formula_sum   'Ti7 Zn1 Fe4 Ir4'
_cell_volume   226.45192895
_cell_formula_units_Z   1
loop_
 _symmetry_equiv_pos_site_id
 _symmetry_equiv_pos_as_xyz
  1  'x, y, z'
loop_
 _atom_site_type_symbol
 _atom_site_label
 _atom_site_symmetry_multiplicity
 _atom_site_fract_x
 _atom_site_fract_y
 _atom_site_fract_z
 _atom_site_occupancy
  Ti  Ti0  1  0.499640  0.749999  0.125134  1
  Ti  Ti1  1  0.999425  0.249999  0.365486  1
  Ti  Ti2  1  0.500100  0.249999  0.375991  1
  Ti  Ti3  1  0.499017  0.749999  0.624868  1
  Ti  Ti4  1  0.000659  0.749999  0.624893  1
  Ti  Ti5  1  0.500401  0.249999  0.874041  1
  Ti  Ti6  1  0.999192  0.249999  0.884535  1
  Zn  Zn7  1  0.001842  0.749999  0.125060  1
  Fe  Fe8  1  0.742462  0.249999  0.125006  1
  Fe  Fe9  1  0.251763  0.749999  0.379956  1
  Fe  Fe10  1  0.752585  0.249999  0.625034  1
  Fe  Fe11  1  0.251905  0.749999  0.869961  1
  Ir  Ir12  1  0.258625  0.249999  0.125043  1
  Ir  Ir13  1  0.747603  0.749999  0.377115  1
  Ir  Ir14  1  0.247164  0.249999  0.624971  1
  Ir  Ir15  1  0.747614  0.749999  0.872906  1
