# generated using pymatgen
data_Pr2Pa(ZnPt)3
_symmetry_space_group_name_H-M   'P 1'
_cell_length_a   7.51906000
_cell_length_b   7.51088709
_cell_length_c   3.88727300
_cell_angle_alpha   90.00000000
_cell_angle_beta   90.00000000
_cell_angle_gamma   120.03600196
_symmetry_Int_Tables_number   1
_chemical_formula_structural   Pr2Pa(ZnPt)3
_chemical_formula_sum   'Pr2 Pa1 Zn3 Pt3'
_cell_volume   190.05215127
_cell_formula_units_Z   1
loop_
 _symmetry_equiv_pos_site_id
 _symmetry_equiv_pos_as_xyz
  1  'x, y, z'
loop_
 _atom_site_type_symbol
 _atom_site_label
 _atom_site_symmetry_multiplicity
 _atom_site_fract_x
 _atom_site_fract_y
 _atom_site_fract_z
 _atom_site_occupancy
  Pr  Pr0  1  0.002854  0.594629  0.000000  1
  Pr  Pr1  1  0.408224  0.405371  0.000000  1
  Pa  Pa2  1  0.592279  0.000000  0.000000  1
  Zn  Zn3  1  0.238981  0.000000  0.500000  1
  Zn  Zn4  1  0.005108  0.253418  0.500000  1
  Zn  Zn5  1  0.751690  0.746582  0.500000  1
  Pt  Pt6  1  0.358307  0.696764  0.500000  1
  Pt  Pt7  1  0.661545  0.303236  0.500000  1
  Pt  Pt8  1  0.981010  0.000000  0.000000  1
