# generated using pymatgen
data_CaZr3(Al3Rh)6
_symmetry_space_group_name_H-M   'P 1'
_cell_length_a   7.48203947
_cell_length_b   7.47809580
_cell_length_c   9.35851400
_cell_angle_alpha   90.00000000
_cell_angle_beta   90.00000000
_cell_angle_gamma   119.60895756
_symmetry_Int_Tables_number   1
_chemical_formula_structural   CaZr3(Al3Rh)6
_chemical_formula_sum   'Ca1 Zr3 Al18 Rh6'
_cell_volume   455.24626291
_cell_formula_units_Z   1
loop_
 _symmetry_equiv_pos_site_id
 _symmetry_equiv_pos_as_xyz
  1  'x, y, z'
loop_
 _atom_site_type_symbol
 _atom_site_label
 _atom_site_symmetry_multiplicity
 _atom_site_fract_x
 _atom_site_fract_y
 _atom_site_fract_z
 _atom_site_occupancy
  Ca  Ca0  1  0.328507  0.006250  0.750000  1
  Zr  Zr1  1  0.995268  0.672522  0.250000  1
  Zr  Zr2  1  0.006752  0.329662  0.750000  1
  Zr  Zr3  1  0.669892  0.993484  0.250000  1
  Al  Al4  1  0.120398  0.121649  0.250000  1
  Al  Al5  1  0.871504  0.876830  0.750000  1
  Al  Al6  1  0.996956  0.334466  0.077803  1
  Al  Al7  1  0.000335  0.662883  0.926913  1
  Al  Al8  1  0.000335  0.662883  0.573087  1
  Al  Al9  1  0.335222  0.998436  0.420112  1
  Al  Al10  1  0.996956  0.334466  0.422197  1
  Al  Al11  1  0.667631  0.002396  0.573407  1
  Al  Al12  1  0.667631  0.002396  0.926593  1
  Al  Al13  1  0.335222  0.998436  0.079888  1
  Al  Al14  1  0.331543  0.333589  0.553655  1
  Al  Al15  1  0.669258  0.668829  0.440262  1
  Al  Al16  1  0.669258  0.668829  0.059738  1
  Al  Al17  1  0.331543  0.333589  0.946345  1
  Al  Al18  1  0.337438  0.553393  0.250000  1
  Al  Al19  1  0.668766  0.451597  0.750000  1
  Al  Al20  1  0.556009  0.339112  0.250000  1
  Al  Al21  1  0.443956  0.654361  0.750000  1
  Rh  Rh22  1  0.673575  0.328676  0.001766  1
  Rh  Rh23  1  0.328025  0.672486  0.002813  1
  Rh  Rh24  1  0.328025  0.672486  0.497187  1
  Rh  Rh25  1  0.673575  0.328676  0.498234  1
  Rh  Rh26  1  0.998213  0.998809  0.001800  1
  Rh  Rh27  1  0.998213  0.998809  0.498200  1
