# generated using pymatgen
data_HoEr4CoPd2
_symmetry_space_group_name_H-M   'P 1'
_cell_length_a   7.69231400
_cell_length_b   8.25952200
_cell_length_c   11.76165100
_cell_angle_alpha   90.00000000
_cell_angle_beta   90.00000000
_cell_angle_gamma   90.00000000
_symmetry_Int_Tables_number   1
_chemical_formula_structural   HoEr4CoPd2
_chemical_formula_sum   'Ho4 Er16 Co4 Pd8'
_cell_volume   747.27457577
_cell_formula_units_Z   4
loop_
 _symmetry_equiv_pos_site_id
 _symmetry_equiv_pos_as_xyz
  1  'x, y, z'
loop_
 _atom_site_type_symbol
 _atom_site_label
 _atom_site_symmetry_multiplicity
 _atom_site_fract_x
 _atom_site_fract_y
 _atom_site_fract_z
 _atom_site_occupancy
  Ho  Ho0  1  0.631916  0.750000  0.308361  1
  Ho  Ho1  1  0.131916  0.250000  0.191639  1
  Ho  Ho2  1  0.368084  0.250000  0.691639  1
  Ho  Ho3  1  0.868084  0.750000  0.808361  1
  Er  Er4  1  0.162373  0.750000  0.217839  1
  Er  Er5  1  0.662373  0.250000  0.282161  1
  Er  Er6  1  0.837627  0.250000  0.782161  1
  Er  Er7  1  0.337627  0.750000  0.717839  1
  Er  Er8  1  0.458385  0.750000  0.004886  1
  Er  Er9  1  0.958385  0.250000  0.495114  1
  Er  Er10  1  0.541615  0.250000  0.995114  1
  Er  Er11  1  0.041615  0.750000  0.504886  1
  Er  Er12  1  0.828059  0.965650  0.081734  1
  Er  Er13  1  0.328059  0.034350  0.418266  1
  Er  Er14  1  0.171941  0.465650  0.918266  1
  Er  Er15  1  0.671941  0.534350  0.581734  1
  Er  Er16  1  0.171941  0.034350  0.918266  1
  Er  Er17  1  0.671941  0.965650  0.581734  1
  Er  Er18  1  0.828059  0.534350  0.081734  1
  Er  Er19  1  0.328059  0.465650  0.418266  1
  Co  Co20  1  0.432552  0.750000  0.497502  1
  Co  Co21  1  0.932552  0.250000  0.002498  1
  Co  Co22  1  0.567448  0.250000  0.502498  1
  Co  Co23  1  0.067448  0.750000  0.997502  1
  Pd  Pd24  1  0.935212  0.985992  0.332164  1
  Pd  Pd25  1  0.435212  0.014008  0.167836  1
  Pd  Pd26  1  0.064788  0.485992  0.667836  1
  Pd  Pd27  1  0.564788  0.514008  0.832164  1
  Pd  Pd28  1  0.064788  0.014008  0.667836  1
  Pd  Pd29  1  0.564788  0.985992  0.832164  1
  Pd  Pd30  1  0.935212  0.514008  0.332164  1
  Pd  Pd31  1  0.435212  0.485992  0.167836  1
