# generated using pymatgen
data_SrTbTc4Bi2F28
_symmetry_space_group_name_H-M   'P 1'
_cell_length_a   5.64894737
_cell_length_b   9.20017172
_cell_length_c   12.33818500
_cell_angle_alpha   61.92124938
_cell_angle_beta   90.33292703
_cell_angle_gamma   89.91574519
_symmetry_Int_Tables_number   1
_chemical_formula_structural   SrTbTc4Bi2F28
_chemical_formula_sum   'Sr1 Tb1 Tc4 Bi2 F28'
_cell_volume   565.74338739
_cell_formula_units_Z   1
loop_
 _symmetry_equiv_pos_site_id
 _symmetry_equiv_pos_as_xyz
  1  'x, y, z'
loop_
 _atom_site_type_symbol
 _atom_site_label
 _atom_site_symmetry_multiplicity
 _atom_site_fract_x
 _atom_site_fract_y
 _atom_site_fract_z
 _atom_site_occupancy
  Sr  Sr0  1  0.761251  0.189397  0.235806  1
  Tb  Tb1  1  0.240428  0.809102  0.764966  1
  Tc  Tc2  1  0.757431  0.728912  0.036420  1
  Tc  Tc3  1  0.240787  0.279127  0.952235  1
  Tc  Tc4  1  0.253774  0.269914  0.463019  1
  Tc  Tc5  1  0.737734  0.725605  0.548111  1
  Bi  Bi6  1  0.274329  0.824181  0.258644  1
  Bi  Bi7  1  0.737866  0.178047  0.737769  1
  F  F8  1  0.931872  0.705703  0.428791  1
  F  F9  1  0.070550  0.289758  0.589310  1
  F  F10  1  0.424143  0.297820  0.076125  1
  F  F11  1  0.556879  0.713260  0.910795  1
  F  F12  1  0.471648  0.731368  0.122789  1
  F  F13  1  0.529446  0.271385  0.868222  1
  F  F14  1  0.964521  0.270411  0.380699  1
  F  F15  1  0.017643  0.730213  0.643010  1
  F  F16  1  0.947371  0.745084  0.161819  1
  F  F17  1  0.062867  0.258655  0.823371  1
  F  F18  1  0.430479  0.254024  0.336387  1
  F  F19  1  0.539852  0.745320  0.672306  1
  F  F20  1  0.772538  0.493790  0.130309  1
  F  F21  1  0.232719  0.521077  0.855136  1
  F  F22  1  0.269597  0.505450  0.369877  1
  F  F23  1  0.722004  0.487810  0.643375  1
  F  F24  1  0.949788  0.286584  0.029215  1
  F  F25  1  0.048965  0.724359  0.947876  1
  F  F26  1  0.446923  0.722329  0.460289  1
  F  F27  1  0.557004  0.273521  0.544026  1
  F  F28  1  0.739666  0.961257  0.457707  1
  F  F29  1  0.255471  0.028846  0.558606  1
  F  F30  1  0.239688  0.036728  0.048578  1
  F  F31  1  0.760155  0.972390  0.944068  1
  F  F32  1  0.604151  0.950427  0.226382  1
  F  F33  1  0.411412  0.023696  0.769425  1
  F  F34  1  0.125204  0.026709  0.274784  1
  F  F35  1  0.913837  0.967744  0.729753  1
