# generated using pymatgen
data_Sm2Er18HgBi11
_symmetry_space_group_name_H-M   'P 1'
_cell_length_a   8.18657646
_cell_length_b   9.45450700
_cell_length_c   11.96860800
_cell_angle_alpha   90.00000000
_cell_angle_beta   90.35310303
_cell_angle_gamma   90.00000000
_symmetry_Int_Tables_number   1
_chemical_formula_structural   Sm2Er18HgBi11
_chemical_formula_sum   'Sm2 Er18 Hg1 Bi11'
_cell_volume   926.35319974
_cell_formula_units_Z   1
loop_
 _symmetry_equiv_pos_site_id
 _symmetry_equiv_pos_as_xyz
  1  'x, y, z'
loop_
 _atom_site_type_symbol
 _atom_site_label
 _atom_site_symmetry_multiplicity
 _atom_site_fract_x
 _atom_site_fract_y
 _atom_site_fract_z
 _atom_site_occupancy
  Sm  Sm0  1  0.684932  0.750000  0.780254  1
  Sm  Sm1  1  0.186839  0.750000  0.718880  1
  Er  Er2  1  0.351645  0.750000  0.217334  1
  Er  Er3  1  0.850516  0.750000  0.283084  1
  Er  Er4  1  0.645503  0.250000  0.789746  1
  Er  Er5  1  0.147744  0.250000  0.714942  1
  Er  Er6  1  0.692345  0.553749  0.060263  1
  Er  Er7  1  0.192683  0.935273  0.439978  1
  Er  Er8  1  0.313026  0.068684  0.943489  1
  Er  Er9  1  0.808176  0.435312  0.560212  1
  Er  Er10  1  0.313026  0.431316  0.943489  1
  Er  Er11  1  0.808176  0.064688  0.560212  1
  Er  Er12  1  0.692345  0.946251  0.060263  1
  Er  Er13  1  0.192683  0.564727  0.439978  1
  Er  Er14  1  0.476286  0.250000  0.488561  1
  Er  Er15  1  0.967685  0.250000  0.010135  1
  Er  Er16  1  0.523779  0.750000  0.510127  1
  Er  Er17  1  0.021422  0.750000  0.990004  1
  Er  Er18  1  0.320254  0.250000  0.213965  1
  Er  Er19  1  0.810120  0.250000  0.280633  1
  Hg  Hg20  1  0.594647  0.250000  0.041399  1
  Bi  Bi21  1  0.405105  0.750000  0.961074  1
  Bi  Bi22  1  0.904556  0.750000  0.539218  1
  Bi  Bi23  1  0.094443  0.250000  0.455379  1
  Bi  Bi24  1  0.564011  0.996777  0.325212  1
  Bi  Bi25  1  0.064133  0.503156  0.175557  1
  Bi  Bi26  1  0.435527  0.493024  0.672362  1
  Bi  Bi27  1  0.937358  0.006441  0.825559  1
  Bi  Bi28  1  0.435527  0.006976  0.672362  1
  Bi  Bi29  1  0.937358  0.493559  0.825559  1
  Bi  Bi30  1  0.564011  0.503223  0.325212  1
  Bi  Bi31  1  0.064133  0.996844  0.175557  1
