# generated using pymatgen
data_Tb2Pr3P12Ru17Pt2
_symmetry_space_group_name_H-M   'P 1'
_cell_length_a   4.02583100
_cell_length_b   12.62143410
_cell_length_c   12.62148830
_cell_angle_alpha   119.42553572
_cell_angle_beta   90.00000000
_cell_angle_gamma   90.00000000
_symmetry_Int_Tables_number   1
_chemical_formula_structural   Tb2Pr3P12Ru17Pt2
_chemical_formula_sum   'Tb2 Pr3 P12 Ru17 Pt2'
_cell_volume   558.58651067
_cell_formula_units_Z   1
loop_
 _symmetry_equiv_pos_site_id
 _symmetry_equiv_pos_as_xyz
  1  'x, y, z'
loop_
 _atom_site_type_symbol
 _atom_site_label
 _atom_site_symmetry_multiplicity
 _atom_site_fract_x
 _atom_site_fract_y
 _atom_site_fract_z
 _atom_site_occupancy
  Tb  Tb0  1  0.000000  0.335692  0.663267  1
  Tb  Tb1  1  0.000000  0.663263  0.335693  1
  Pr  Pr2  1  0.500000  0.998068  0.182122  1
  Pr  Pr3  1  0.500000  0.182121  0.998073  1
  Pr  Pr4  1  0.500000  0.815085  0.815087  1
  P  P5  1  0.000000  0.001237  0.809836  1
  P  P6  1  0.000000  0.809836  0.001239  1
  P  P7  1  0.000000  0.186592  0.186597  1
  P  P8  1  0.500000  0.305970  0.477697  1
  P  P9  1  0.500000  0.185954  0.701390  1
  P  P10  1  0.500000  0.521498  0.819440  1
  P  P11  1  0.500000  0.819435  0.521498  1
  P  P12  1  0.500000  0.477690  0.305973  1
  P  P13  1  0.500000  0.701386  0.185953  1
  P  P14  1  0.000000  0.999583  0.367131  1
  P  P15  1  0.000000  0.367131  0.999589  1
  P  P16  1  0.000000  0.624058  0.624061  1
  Ru  Ru17  1  0.000000  0.444959  0.444967  1
  Ru  Ru18  1  0.500000  0.002567  0.707955  1
  Ru  Ru19  1  0.500000  0.707956  0.002568  1
  Ru  Ru20  1  0.500000  0.285491  0.285491  1
  Ru  Ru21  1  0.000000  0.194373  0.379871  1
  Ru  Ru22  1  0.000000  0.187525  0.801691  1
  Ru  Ru23  1  0.000000  0.619351  0.815837  1
  Ru  Ru24  1  0.000000  0.815841  0.619361  1
  Ru  Ru25  1  0.000000  0.379866  0.194381  1
  Ru  Ru26  1  0.000000  0.801687  0.187527  1
  Ru  Ru27  1  0.500000  0.129474  0.496392  1
  Ru  Ru28  1  0.500000  0.373051  0.878140  1
  Ru  Ru29  1  0.500000  0.506910  0.630585  1
  Ru  Ru30  1  0.500000  0.630580  0.506912  1
  Ru  Ru31  1  0.500000  0.496386  0.129476  1
  Ru  Ru32  1  0.500000  0.878137  0.373052  1
  Ru  Ru33  1  0.000000  0.997359  0.997361  1
  Pt  Pt34  1  0.000000  0.002054  0.551730  1
  Pt  Pt35  1  0.000000  0.551728  0.002057  1
