# generated using pymatgen
data_Tm8Tc3B24Os
_symmetry_space_group_name_H-M   'P 1'
_cell_length_a   3.63552200
_cell_length_b   9.09067095
_cell_length_c   11.45712119
_cell_angle_alpha   89.94770675
_cell_angle_beta   90.00000000
_cell_angle_gamma   90.00000000
_symmetry_Int_Tables_number   1
_chemical_formula_structural   Tm8Tc3B24Os
_chemical_formula_sum   'Tm8 Tc3 B24 Os1'
_cell_volume   378.65006981
_cell_formula_units_Z   1
loop_
 _symmetry_equiv_pos_site_id
 _symmetry_equiv_pos_as_xyz
  1  'x, y, z'
loop_
 _atom_site_type_symbol
 _atom_site_label
 _atom_site_symmetry_multiplicity
 _atom_site_fract_x
 _atom_site_fract_y
 _atom_site_fract_z
 _atom_site_occupancy
  Tm  Tm0  1  0.000000  0.323456  0.413824  1
  Tm  Tm1  1  0.000000  0.675553  0.584338  1
  Tm  Tm2  1  0.000000  0.822625  0.087417  1
  Tm  Tm3  1  0.000000  0.178319  0.914412  1
  Tm  Tm4  1  0.000000  0.942680  0.370328  1
  Tm  Tm5  1  0.000000  0.058072  0.629801  1
  Tm  Tm6  1  0.000000  0.443019  0.129900  1
  Tm  Tm7  1  0.000000  0.556825  0.869675  1
  Tc  Tc8  1  0.000000  0.638772  0.320258  1
  Tc  Tc9  1  0.000000  0.361394  0.680079  1
  Tc  Tc10  1  0.000000  0.138261  0.178410  1
  B  B11  1  0.500000  0.552906  0.433305  1
  B  B12  1  0.500000  0.446967  0.566449  1
  B  B13  1  0.500000  0.052853  0.066481  1
  B  B14  1  0.500000  0.946460  0.933381  1
  B  B15  1  0.500000  0.749306  0.419425  1
  B  B16  1  0.500000  0.250331  0.580641  1
  B  B17  1  0.500000  0.249891  0.080647  1
  B  B18  1  0.500000  0.750576  0.919107  1
  B  B19  1  0.500000  0.792453  0.265320  1
  B  B20  1  0.500000  0.207779  0.735214  1
  B  B21  1  0.500000  0.292364  0.234999  1
  B  B22  1  0.500000  0.708383  0.765045  1
  B  B23  1  0.500000  0.630867  0.184977  1
  B  B24  1  0.500000  0.369043  0.815598  1
  B  B25  1  0.500000  0.130382  0.314748  1
  B  B26  1  0.500000  0.869124  0.685035  1
  B  B27  1  0.500000  0.981017  0.211913  1
  B  B28  1  0.500000  0.017759  0.788098  1
  B  B29  1  0.500000  0.481246  0.287938  1
  B  B30  1  0.500000  0.518520  0.711872  1
  B  B31  1  0.500000  0.601656  0.028058  1
  B  B32  1  0.500000  0.399510  0.971839  1
  B  B33  1  0.500000  0.101267  0.471873  1
  B  B34  1  0.500000  0.898717  0.528559  1
  Os  Os35  1  0.000000  0.861646  0.821037  1
