# generated using pymatgen
data_Fe2SiPW2
_symmetry_space_group_name_H-M   'P 1'
_cell_length_a   6.05452600
_cell_length_b   3.58879600
_cell_length_c   6.86782000
_cell_angle_alpha   90.00000000
_cell_angle_beta   90.00000000
_cell_angle_gamma   90.00000000
_symmetry_Int_Tables_number   1
_chemical_formula_structural   Fe2SiPW2
_chemical_formula_sum   'Fe4 Si2 P2 W4'
_cell_volume   149.22714317
_cell_formula_units_Z   2
loop_
 _symmetry_equiv_pos_site_id
 _symmetry_equiv_pos_as_xyz
  1  'x, y, z'
loop_
 _atom_site_type_symbol
 _atom_site_label
 _atom_site_symmetry_multiplicity
 _atom_site_fract_x
 _atom_site_fract_y
 _atom_site_fract_z
 _atom_site_occupancy
  Fe  Fe0  1  0.142417  0.250000  0.429442  1
  Fe  Fe1  1  0.642417  0.250000  0.070558  1
  Fe  Fe2  1  0.853989  0.750000  0.553528  1
  Fe  Fe3  1  0.353989  0.750000  0.946472  1
  Si  Si4  1  0.224577  0.750000  0.623324  1
  Si  Si5  1  0.724577  0.750000  0.876676  1
  P  P6  1  0.775830  0.250000  0.378717  1
  P  P7  1  0.275830  0.250000  0.121283  1
  W  W8  1  0.026119  0.250000  0.829067  1
  W  W9  1  0.526119  0.250000  0.670933  1
  W  W10  1  0.977069  0.750000  0.173125  1
  W  W11  1  0.477069  0.750000  0.326875  1
