# generated using pymatgen
data_Lu2(ThTc)3
_symmetry_space_group_name_H-M   'P 1'
_cell_length_a   6.36249100
_cell_length_b   8.23368193
_cell_length_c   8.23215901
_cell_angle_alpha   119.99373954
_cell_angle_beta   90.00000000
_cell_angle_gamma   90.00000000
_symmetry_Int_Tables_number   1
_chemical_formula_structural   Lu2(ThTc)3
_chemical_formula_sum   'Lu4 Th6 Tc6'
_cell_volume   373.50209570
_cell_formula_units_Z   2
loop_
 _symmetry_equiv_pos_site_id
 _symmetry_equiv_pos_as_xyz
  1  'x, y, z'
loop_
 _atom_site_type_symbol
 _atom_site_label
 _atom_site_symmetry_multiplicity
 _atom_site_fract_x
 _atom_site_fract_y
 _atom_site_fract_z
 _atom_site_occupancy
  Lu  Lu0  1  0.499967  0.333273  0.666666  1
  Lu  Lu1  1  0.500040  0.666723  0.333315  1
  Lu  Lu2  1  0.999967  0.666727  0.333334  1
  Lu  Lu3  1  0.000040  0.333277  0.666685  1
  Th  Th4  1  0.749990  0.249530  0.999945  1
  Th  Th5  1  0.749971  0.750434  0.750362  1
  Th  Th6  1  0.750008  0.000040  0.249634  1
  Th  Th7  1  0.249990  0.750470  0.000055  1
  Th  Th8  1  0.249971  0.249566  0.249638  1
  Th  Th9  1  0.250008  0.999960  0.750366  1
  Tc  Tc10  1  0.750009  0.611500  0.000026  1
  Tc  Tc11  1  0.750013  0.388541  0.388537  1
  Tc  Tc12  1  0.750001  0.999984  0.611503  1
  Tc  Tc13  1  0.250009  0.388500  0.999974  1
  Tc  Tc14  1  0.250014  0.611459  0.611463  1
  Tc  Tc15  1  0.250002  0.000016  0.388497  1
