# generated using pymatgen
data_Tb5Th(SiPd5)2
_symmetry_space_group_name_H-M   'P 1'
_cell_length_a   8.29000727
_cell_length_b   8.29000747
_cell_length_c   8.29000855
_cell_angle_alpha   127.47606372
_cell_angle_beta   125.61332116
_cell_angle_gamma   79.00391640
_symmetry_Int_Tables_number   1
_chemical_formula_structural   Tb5Th(SiPd5)2
_chemical_formula_sum   'Tb5 Th1 Si2 Pd10'
_cell_volume   355.56529585
_cell_formula_units_Z   1
loop_
 _symmetry_equiv_pos_site_id
 _symmetry_equiv_pos_as_xyz
  1  'x, y, z'
loop_
 _atom_site_type_symbol
 _atom_site_label
 _atom_site_symmetry_multiplicity
 _atom_site_fract_x
 _atom_site_fract_y
 _atom_site_fract_z
 _atom_site_occupancy
  Tb  Tb0  1  0.224137  0.448300  0.775837  1
  Tb  Tb1  1  0.775863  0.548591  0.227271  1
  Tb  Tb2  1  0.827538  0.051700  0.775837  1
  Tb  Tb3  1  0.178680  0.951409  0.227271  1
  Tb  Tb4  1  0.389528  0.250000  0.139528  1
  Th  Th5  1  0.615004  0.750000  0.865004  1
  Si  Si6  1  0.787182  0.250000  0.537182  1
  Si  Si7  1  0.209363  0.750000  0.459363  1
  Pd  Pd8  1  0.168856  0.402463  0.358720  1
  Pd  Pd9  1  0.831102  0.188415  0.231431  1
  Pd  Pd10  1  0.456257  0.097537  0.766393  1
  Pd  Pd11  1  0.543016  0.311585  0.642688  1
  Pd  Pd12  1  0.997122  0.502850  0.999972  1
  Pd  Pd13  1  0.997122  0.997150  0.494272  1
  Pd  Pd14  1  0.456257  0.689864  0.358720  1
  Pd  Pd15  1  0.543016  0.900329  0.231431  1
  Pd  Pd16  1  0.168856  0.810136  0.766393  1
  Pd  Pd17  1  0.831102  0.599671  0.642688  1
