# generated using pymatgen
data_Tb11Dy5CdCo4Hg3
_symmetry_space_group_name_H-M   'P 1'
_cell_length_a   9.49664215
_cell_length_b   9.48768812
_cell_length_c   9.49814408
_cell_angle_alpha   59.97585174
_cell_angle_beta   60.00633584
_cell_angle_gamma   59.97179598
_symmetry_Int_Tables_number   1
_chemical_formula_structural   Tb11Dy5CdCo4Hg3
_chemical_formula_sum   'Tb11 Dy5 Cd1 Co4 Hg3'
_cell_volume   604.92712581
_cell_formula_units_Z   1
loop_
 _symmetry_equiv_pos_site_id
 _symmetry_equiv_pos_as_xyz
  1  'x, y, z'
loop_
 _atom_site_type_symbol
 _atom_site_label
 _atom_site_symmetry_multiplicity
 _atom_site_fract_x
 _atom_site_fract_y
 _atom_site_fract_z
 _atom_site_occupancy
  Tb  Tb0  1  0.812441  0.186656  0.812477  1
  Tb  Tb1  1  0.438191  0.061691  0.438183  1
  Tb  Tb2  1  0.597922  0.206797  0.597765  1
  Tb  Tb3  1  0.812395  0.811840  0.187816  1
  Tb  Tb4  1  0.208433  0.597461  0.597139  1
  Tb  Tb5  1  0.812446  0.186724  0.188352  1
  Tb  Tb6  1  0.062378  0.437231  0.437727  1
  Tb  Tb7  1  0.187945  0.811841  0.187781  1
  Tb  Tb8  1  0.597144  0.597299  0.208481  1
  Tb  Tb9  1  0.188385  0.186580  0.812516  1
  Tb  Tb10  1  0.062580  0.437167  0.062586  1
  Dy  Dy11  1  0.437786  0.437301  0.062318  1
  Dy  Dy12  1  0.597093  0.597164  0.597180  1
  Dy  Dy13  1  0.187969  0.811760  0.812337  1
  Dy  Dy14  1  0.061754  0.061799  0.438219  1
  Dy  Dy15  1  0.438182  0.061816  0.061818  1
  Cd  Cd16  1  0.829150  0.512335  0.829221  1
  Co  Co17  1  0.391052  0.390568  0.391040  1
  Co  Co18  1  0.827209  0.390639  0.391172  1
  Co  Co19  1  0.391047  0.826885  0.391146  1
  Co  Co20  1  0.391117  0.390676  0.827297  1
  Hg  Hg21  1  0.834195  0.832584  0.499022  1
  Hg  Hg22  1  0.834282  0.832641  0.834184  1
  Hg  Hg23  1  0.498906  0.832545  0.834223  1
