# generated using pymatgen
data_Lu6B14MoOs
_symmetry_space_group_name_H-M   'P 1'
_cell_length_a   7.94980595
_cell_length_b   7.94980459
_cell_length_c   9.25917400
_cell_angle_alpha   90.00000000
_cell_angle_beta   90.00000000
_cell_angle_gamma   154.95365207
_symmetry_Int_Tables_number   1
_chemical_formula_structural   Lu6B14MoOs
_chemical_formula_sum   'Lu6 B14 Mo1 Os1'
_cell_volume   247.73426566
_cell_formula_units_Z   1
loop_
 _symmetry_equiv_pos_site_id
 _symmetry_equiv_pos_as_xyz
  1  'x, y, z'
loop_
 _atom_site_type_symbol
 _atom_site_label
 _atom_site_symmetry_multiplicity
 _atom_site_fract_x
 _atom_site_fract_y
 _atom_site_fract_z
 _atom_site_occupancy
  Lu  Lu0  1  0.255798  0.744202  0.250000  1
  Lu  Lu1  1  0.745152  0.254848  0.750000  1
  Lu  Lu2  1  0.606243  0.393757  0.061482  1
  Lu  Lu3  1  0.392945  0.607055  0.941060  1
  Lu  Lu4  1  0.392945  0.607055  0.558940  1
  Lu  Lu5  1  0.606243  0.393757  0.438518  1
  B  B6  1  0.979800  0.020200  0.095284  1
  B  B7  1  0.018645  0.981355  0.910032  1
  B  B8  1  0.018645  0.981355  0.589968  1
  B  B9  1  0.979800  0.020200  0.404716  1
  B  B10  1  0.772941  0.227059  0.035866  1
  B  B11  1  0.228794  0.771206  0.967789  1
  B  B12  1  0.228794  0.771206  0.532211  1
  B  B13  1  0.772941  0.227059  0.464134  1
  B  B14  1  0.867584  0.132416  0.149737  1
  B  B15  1  0.135122  0.864878  0.853644  1
  B  B16  1  0.135122  0.864878  0.646356  1
  B  B17  1  0.867584  0.132416  0.350263  1
  B  B18  1  0.045629  0.954371  0.250000  1
  B  B19  1  0.950739  0.049261  0.750000  1
  Mo  Mo20  1  0.552155  0.447845  0.750000  1
  Os  Os21  1  0.446381  0.553619  0.250000  1
