# generated using pymatgen
data_Tb7YRe2(TcC4)2
_symmetry_space_group_name_H-M   'P 1'
_cell_length_a   5.13621300
_cell_length_b   6.60039145
_cell_length_c   9.92838068
_cell_angle_alpha   89.95772083
_cell_angle_beta   90.00000000
_cell_angle_gamma   90.00000000
_symmetry_Int_Tables_number   1
_chemical_formula_structural   Tb7YRe2(TcC4)2
_chemical_formula_sum   'Tb7 Y1 Re2 Tc2 C8'
_cell_volume   336.58210415
_cell_formula_units_Z   1
loop_
 _symmetry_equiv_pos_site_id
 _symmetry_equiv_pos_as_xyz
  1  'x, y, z'
loop_
 _atom_site_type_symbol
 _atom_site_label
 _atom_site_symmetry_multiplicity
 _atom_site_fract_x
 _atom_site_fract_y
 _atom_site_fract_z
 _atom_site_occupancy
  Tb  Tb0  1  0.250000  0.678868  0.555723  1
  Tb  Tb1  1  0.750000  0.320118  0.443024  1
  Tb  Tb2  1  0.250000  0.179628  0.943221  1
  Tb  Tb3  1  0.750000  0.467552  0.784167  1
  Tb  Tb4  1  0.250000  0.032264  0.283774  1
  Tb  Tb5  1  0.750000  0.968124  0.715306  1
  Tb  Tb6  1  0.250000  0.531909  0.214774  1
  Y  Y7  1  0.750000  0.821713  0.055948  1
  Re  Re8  1  0.750000  0.779448  0.364184  1
  Re  Re9  1  0.250000  0.720465  0.864859  1
  Tc  Tc10  1  0.750000  0.278732  0.135066  1
  Tc  Tc11  1  0.250000  0.221146  0.635378  1
  C  C12  1  0.750000  0.178742  0.953454  1
  C  C13  1  0.250000  0.820481  0.047740  1
  C  C14  1  0.750000  0.679845  0.547250  1
  C  C15  1  0.250000  0.320795  0.453720  1
  C  C16  1  0.750000  0.044900  0.259366  1
  C  C17  1  0.250000  0.455316  0.759468  1
  C  C18  1  0.750000  0.546668  0.241512  1
  C  C19  1  0.250000  0.953288  0.742066  1
