# generated using pymatgen
data_Ca2Al4Ge2Pt
_symmetry_space_group_name_H-M   'P 1'
_cell_length_a   4.27614069
_cell_length_b   4.27614957
_cell_length_c   10.67728700
_cell_angle_alpha   101.52749711
_cell_angle_beta   101.52724788
_cell_angle_gamma   90.05045381
_symmetry_Int_Tables_number   1
_chemical_formula_structural   Ca2Al4Ge2Pt
_chemical_formula_sum   'Ca2 Al4 Ge2 Pt1'
_cell_volume   187.27243733
_cell_formula_units_Z   1
loop_
 _symmetry_equiv_pos_site_id
 _symmetry_equiv_pos_as_xyz
  1  'x, y, z'
loop_
 _atom_site_type_symbol
 _atom_site_label
 _atom_site_symmetry_multiplicity
 _atom_site_fract_x
 _atom_site_fract_y
 _atom_site_fract_z
 _atom_site_occupancy
  Ca  Ca0  1  0.186264  0.186273  0.373204  1
  Ca  Ca1  1  0.813725  0.813735  0.626795  1
  Al  Al2  1  0.568327  0.068260  0.137054  1
  Al  Al3  1  0.068249  0.568323  0.137055  1
  Al  Al4  1  0.931741  0.431674  0.862946  1
  Al  Al5  1  0.431679  0.931753  0.862945  1
  Ge  Ge6  1  0.653148  0.653132  0.306823  1
  Ge  Ge7  1  0.346867  0.346857  0.693175  1
  Pt  Pt8  1  0.000003  0.999998  0.000000  1
