# generated using pymatgen
data_Li3Ce3Si2Sn
_symmetry_space_group_name_H-M   'P 1'
_cell_length_a   7.11742800
_cell_length_b   7.11742710
_cell_length_c   4.48530700
_cell_angle_alpha   90.00000000
_cell_angle_beta   90.00000000
_cell_angle_gamma   119.99999487
_symmetry_Int_Tables_number   1
_chemical_formula_structural   Li3Ce3Si2Sn
_chemical_formula_sum   'Li3 Ce3 Si2 Sn1'
_cell_volume   196.77455479
_cell_formula_units_Z   1
loop_
 _symmetry_equiv_pos_site_id
 _symmetry_equiv_pos_as_xyz
  1  'x, y, z'
loop_
 _atom_site_type_symbol
 _atom_site_label
 _atom_site_symmetry_multiplicity
 _atom_site_fract_x
 _atom_site_fract_y
 _atom_site_fract_z
 _atom_site_occupancy
  Li  Li0  1  0.235926  0.000000  0.500000  1
  Li  Li1  1  0.764074  0.764074  0.500000  1
  Li  Li2  1  0.000000  0.235926  0.500000  1
  Ce  Ce3  1  0.000000  0.542759  0.000000  1
  Ce  Ce4  1  0.542759  0.000000  0.000000  1
  Ce  Ce5  1  0.457241  0.457241  0.000000  1
  Si  Si6  1  0.333333  0.666667  0.500000  1
  Si  Si7  1  0.666667  0.333333  0.500000  1
  Sn  Sn8  1  0.000000  0.000000  0.000000  1
