# generated using pymatgen
data_EuEr(Si7Ir3)2
_symmetry_space_group_name_H-M   'P 1'
_cell_length_a   8.05834967
_cell_length_b   8.05834967
_cell_length_c   8.05834901
_cell_angle_alpha   56.75508646
_cell_angle_beta   56.75509523
_cell_angle_gamma   56.75509219
_symmetry_Int_Tables_number   1
_chemical_formula_structural   EuEr(Si7Ir3)2
_chemical_formula_sum   'Eu1 Er1 Si14 Ir6'
_cell_volume   342.30033738
_cell_formula_units_Z   1
loop_
 _symmetry_equiv_pos_site_id
 _symmetry_equiv_pos_as_xyz
  1  'x, y, z'
loop_
 _atom_site_type_symbol
 _atom_site_label
 _atom_site_symmetry_multiplicity
 _atom_site_fract_x
 _atom_site_fract_y
 _atom_site_fract_z
 _atom_site_occupancy
  Eu  Eu0  1  0.000000  0.000000  0.000000  1
  Er  Er1  1  0.500000  0.500000  0.500000  1
  Si  Si2  1  0.065674  0.850617  0.672578  1
  Si  Si3  1  0.672578  0.065674  0.850617  1
  Si  Si4  1  0.850617  0.672578  0.065674  1
  Si  Si5  1  0.172881  0.350170  0.564775  1
  Si  Si6  1  0.564775  0.172881  0.350170  1
  Si  Si7  1  0.350170  0.564775  0.172881  1
  Si  Si8  1  0.934326  0.149383  0.327422  1
  Si  Si9  1  0.327422  0.934326  0.149383  1
  Si  Si10  1  0.149383  0.327422  0.934326  1
  Si  Si11  1  0.827119  0.649830  0.435225  1
  Si  Si12  1  0.435225  0.827119  0.649830  1
  Si  Si13  1  0.649830  0.435225  0.827119  1
  Si  Si14  1  0.750372  0.750372  0.750372  1
  Si  Si15  1  0.249628  0.249628  0.249628  1
  Ir  Ir16  1  0.072141  0.747168  0.432994  1
  Ir  Ir17  1  0.432994  0.072141  0.747168  1
  Ir  Ir18  1  0.747168  0.432994  0.072141  1
  Ir  Ir19  1  0.927859  0.252832  0.567006  1
  Ir  Ir20  1  0.567006  0.927859  0.252832  1
  Ir  Ir21  1  0.252832  0.567006  0.927859  1
