# generated using pymatgen
data_Sc4ZnFe(B2Ir5)2
_symmetry_space_group_name_H-M   'P 1'
_cell_length_a   9.43574003
_cell_length_b   9.43608503
_cell_length_c   3.04315500
_cell_angle_alpha   90.00000000
_cell_angle_beta   90.00000000
_cell_angle_gamma   90.00975179
_symmetry_Int_Tables_number   1
_chemical_formula_structural   Sc4ZnFe(B2Ir5)2
_chemical_formula_sum   'Sc4 Zn1 Fe1 B4 Ir10'
_cell_volume   270.95169984
_cell_formula_units_Z   1
loop_
 _symmetry_equiv_pos_site_id
 _symmetry_equiv_pos_as_xyz
  1  'x, y, z'
loop_
 _atom_site_type_symbol
 _atom_site_label
 _atom_site_symmetry_multiplicity
 _atom_site_fract_x
 _atom_site_fract_y
 _atom_site_fract_z
 _atom_site_occupancy
  Sc  Sc0  1  0.322340  0.824141  0.000000  1
  Sc  Sc1  1  0.677661  0.175859  0.000000  1
  Sc  Sc2  1  0.824140  0.677585  0.000000  1
  Sc  Sc3  1  0.175861  0.322415  0.000000  1
  Zn  Zn4  1  0.000000  0.000000  0.000000  1
  Fe  Fe5  1  0.500000  0.500000  0.000000  1
  B  B6  1  0.124042  0.627289  0.000000  1
  B  B7  1  0.875958  0.372711  0.000000  1
  B  B8  1  0.627304  0.875929  0.000000  1
  B  B9  1  0.372697  0.124072  0.000000  1
  Ir  Ir10  1  0.217288  0.070565  0.499998  1
  Ir  Ir11  1  0.782712  0.929435  0.499998  1
  Ir  Ir12  1  0.715319  0.431502  0.499998  1
  Ir  Ir13  1  0.284682  0.568497  0.499998  1
  Ir  Ir14  1  0.431533  0.284682  0.499998  1
  Ir  Ir15  1  0.568467  0.715318  0.499998  1
  Ir  Ir16  1  0.070531  0.782708  0.499998  1
  Ir  Ir17  1  0.929469  0.217292  0.499998  1
  Ir  Ir18  1  0.000000  0.500000  0.499998  1
  Ir  Ir19  1  0.500000  0.000000  0.499998  1
