# generated using pymatgen
data_Zr2B2MoOs5
_symmetry_space_group_name_H-M   'P 1'
_cell_length_a   9.55347500
_cell_length_b   9.55347500
_cell_length_c   3.09487600
_cell_angle_alpha   90.00000000
_cell_angle_beta   90.00000000
_cell_angle_gamma   90.00000000
_symmetry_Int_Tables_number   1
_chemical_formula_structural   Zr2B2MoOs5
_chemical_formula_sum   'Zr4 B4 Mo2 Os10'
_cell_volume   282.46588042
_cell_formula_units_Z   2
loop_
 _symmetry_equiv_pos_site_id
 _symmetry_equiv_pos_as_xyz
  1  'x, y, z'
loop_
 _atom_site_type_symbol
 _atom_site_label
 _atom_site_symmetry_multiplicity
 _atom_site_fract_x
 _atom_site_fract_y
 _atom_site_fract_z
 _atom_site_occupancy
  Zr  Zr0  1  0.677661  0.177661  0.000000  1
  Zr  Zr1  1  0.322339  0.822339  0.000000  1
  Zr  Zr2  1  0.177661  0.322339  0.000000  1
  Zr  Zr3  1  0.822339  0.677661  0.000000  1
  B  B4  1  0.120786  0.620786  0.000000  1
  B  B5  1  0.879214  0.379214  0.000000  1
  B  B6  1  0.620786  0.879214  0.000000  1
  B  B7  1  0.379214  0.120786  0.000000  1
  Mo  Mo8  1  0.000000  0.000000  0.000000  1
  Mo  Mo9  1  0.500000  0.500000  0.000000  1
  Os  Os10  1  0.217310  0.070155  0.500000  1
  Os  Os11  1  0.782690  0.929845  0.500000  1
  Os  Os12  1  0.070155  0.782690  0.500000  1
  Os  Os13  1  0.717310  0.429845  0.500000  1
  Os  Os14  1  0.929845  0.217310  0.500000  1
  Os  Os15  1  0.282690  0.570155  0.500000  1
  Os  Os16  1  0.570155  0.717310  0.500000  1
  Os  Os17  1  0.429845  0.282690  0.500000  1
  Os  Os18  1  0.500000  0.000000  0.500000  1
  Os  Os19  1  0.000000  0.500000  0.500000  1
