# generated using pymatgen
data_TcS2BrO9
_symmetry_space_group_name_H-M   'P 1'
_cell_length_a   7.40671685
_cell_length_b   8.12591214
_cell_length_c   8.38414332
_cell_angle_alpha   89.95341844
_cell_angle_beta   101.32110357
_cell_angle_gamma   112.20884104
_symmetry_Int_Tables_number   1
_chemical_formula_structural   TcS2BrO9
_chemical_formula_sum   'Tc2 S4 Br2 O18'
_cell_volume   456.58546265
_cell_formula_units_Z   2
loop_
 _symmetry_equiv_pos_site_id
 _symmetry_equiv_pos_as_xyz
  1  'x, y, z'
loop_
 _atom_site_type_symbol
 _atom_site_label
 _atom_site_symmetry_multiplicity
 _atom_site_fract_x
 _atom_site_fract_y
 _atom_site_fract_z
 _atom_site_occupancy
  Tc  Tc0  1  0.765632  0.304039  0.697078  1
  Tc  Tc1  1  0.234368  0.695961  0.302922  1
  S  S2  1  0.090433  0.727716  0.879868  1
  S  S3  1  0.909567  0.272284  0.120132  1
  S  S4  1  0.665405  0.645613  0.783436  1
  S  S5  1  0.334595  0.354387  0.216564  1
  Br  Br6  1  0.010598  0.183099  0.686183  1
  Br  Br7  1  0.989402  0.816901  0.313817  1
  O  O8  1  0.554446  0.118332  0.649163  1
  O  O9  1  0.445554  0.881668  0.350837  1
  O  O10  1  0.774818  0.410590  0.523338  1
  O  O11  1  0.225182  0.589410  0.476662  1
  O  O12  1  0.163708  0.848958  0.762389  1
  O  O13  1  0.836292  0.151042  0.237611  1
  O  O14  1  0.214941  0.777772  0.045696  1
  O  O15  1  0.785059  0.222228  0.954304  1
  O  O16  1  0.032239  0.536767  0.830268  1
  O  O17  1  0.967761  0.463233  0.169732  1
  O  O18  1  0.882472  0.743144  0.912701  1
  O  O19  1  0.117528  0.256856  0.087299  1
  O  O20  1  0.528758  0.678565  0.864187  1
  O  O21  1  0.471242  0.321435  0.135813  1
  O  O22  1  0.689385  0.703658  0.624363  1
  O  O23  1  0.310615  0.296342  0.375637  1
  O  O24  1  0.633040  0.445924  0.791767  1
  O  O25  1  0.366960  0.554076  0.208233  1
