# generated using pymatgen
data_LiCu5Te6
_symmetry_space_group_name_H-M   'P 1'
_cell_length_a   11.41664747
_cell_length_b   11.41664707
_cell_length_c   8.51172100
_cell_angle_alpha   77.22969880
_cell_angle_beta   77.22969926
_cell_angle_gamma   15.63813579
_symmetry_Int_Tables_number   1
_chemical_formula_structural   LiCu5Te6
_chemical_formula_sum   'Li1 Cu5 Te6'
_cell_volume   291.51648003
_cell_formula_units_Z   1
loop_
 _symmetry_equiv_pos_site_id
 _symmetry_equiv_pos_as_xyz
  1  'x, y, z'
loop_
 _atom_site_type_symbol
 _atom_site_label
 _atom_site_symmetry_multiplicity
 _atom_site_fract_x
 _atom_site_fract_y
 _atom_site_fract_z
 _atom_site_occupancy
  Li  Li0  1  0.644725  0.644725  0.369954  1
  Cu  Cu1  1  0.361791  0.361791  0.644772  1
  Cu  Cu2  1  0.703785  0.703785  0.047630  1
  Cu  Cu3  1  0.296427  0.296427  0.941649  1
  Cu  Cu4  1  0.035816  0.035816  0.361136  1
  Cu  Cu5  1  0.959373  0.959373  0.639398  1
  Te  Te6  1  0.751088  0.751088  0.727039  1
  Te  Te7  1  0.254534  0.254534  0.256252  1
  Te  Te8  1  0.586286  0.586286  0.104620  1
  Te  Te9  1  0.413507  0.413507  0.902994  1
  Te  Te10  1  0.915832  0.915832  0.378533  1
  Te  Te11  1  0.076836  0.076836  0.626023  1
