# generated using pymatgen
data_Tb3PrSm(In2Pd)2
_symmetry_space_group_name_H-M   'P 1'
_cell_length_a   8.24695580
_cell_length_b   18.49958563
_cell_length_c   3.70468000
_cell_angle_alpha   90.00000000
_cell_angle_beta   90.00000000
_cell_angle_gamma   89.76250571
_symmetry_Int_Tables_number   1
_chemical_formula_structural   Tb3PrSm(In2Pd)2
_chemical_formula_sum   'Tb6 Pr2 Sm2 In8 Pd4'
_cell_volume   565.20063052
_cell_formula_units_Z   2
loop_
 _symmetry_equiv_pos_site_id
 _symmetry_equiv_pos_as_xyz
  1  'x, y, z'
loop_
 _atom_site_type_symbol
 _atom_site_label
 _atom_site_symmetry_multiplicity
 _atom_site_fract_x
 _atom_site_fract_y
 _atom_site_fract_z
 _atom_site_occupancy
  Tb  Tb0  1  0.758776  0.783215  0.000000  1
  Tb  Tb1  1  0.241224  0.216785  0.000000  1
  Tb  Tb2  1  0.619709  0.084277  0.000000  1
  Tb  Tb3  1  0.380291  0.915723  0.000000  1
  Tb  Tb4  1  0.878982  0.584258  0.000000  1
  Tb  Tb5  1  0.121018  0.415742  0.000000  1
  Pr  Pr6  1  0.500000  0.500000  0.000000  1
  Pr  Pr7  1  0.000000  0.000000  0.000000  1
  Sm  Sm8  1  0.741258  0.282966  0.000000  1
  Sm  Sm9  1  0.258742  0.717034  0.000000  1
  In  In10  1  0.700158  0.931810  0.500000  1
  In  In11  1  0.299842  0.068190  0.500000  1
  In  In12  1  0.802867  0.432689  0.500000  1
  In  In13  1  0.197133  0.567311  0.500000  1
  In  In14  1  0.584032  0.653315  0.500000  1
  In  In15  1  0.415968  0.346685  0.500000  1
  In  In16  1  0.922457  0.152207  0.500000  1
  In  In17  1  0.077543  0.847793  0.500000  1
  Pd  Pd18  1  0.522127  0.194990  0.500000  1
  Pd  Pd19  1  0.477873  0.805010  0.500000  1
  Pd  Pd20  1  0.967967  0.696247  0.500000  1
  Pd  Pd21  1  0.032033  0.303753  0.500000  1
