# generated using pymatgen
data_Yb5Hf(Si3Ru)8
_symmetry_space_group_name_H-M   'P 1'
_cell_length_a   10.11872244
_cell_length_b   10.11872232
_cell_length_c   8.12781289
_cell_angle_alpha   90.01118990
_cell_angle_beta   90.01118920
_cell_angle_gamma   132.62132064
_symmetry_Int_Tables_number   1
_chemical_formula_structural   Yb5Hf(Si3Ru)8
_chemical_formula_sum   'Yb5 Hf1 Si24 Ru8'
_cell_volume   612.36652872
_cell_formula_units_Z   1
loop_
 _symmetry_equiv_pos_site_id
 _symmetry_equiv_pos_as_xyz
  1  'x, y, z'
loop_
 _atom_site_type_symbol
 _atom_site_label
 _atom_site_symmetry_multiplicity
 _atom_site_fract_x
 _atom_site_fract_y
 _atom_site_fract_z
 _atom_site_occupancy
  Yb  Yb0  1  0.000000  0.000000  0.000000  1
  Yb  Yb1  1  0.001936  0.501659  0.249979  1
  Yb  Yb2  1  0.498341  0.998064  0.750021  1
  Yb  Yb3  1  0.998064  0.498341  0.750021  1
  Yb  Yb4  1  0.501659  0.001936  0.249979  1
  Hf  Hf5  1  0.500000  0.500000  0.500000  1
  Si  Si6  1  0.293878  0.706122  0.000000  1
  Si  Si7  1  0.793449  0.206551  0.500000  1
  Si  Si8  1  0.706122  0.293878  0.000000  1
  Si  Si9  1  0.206551  0.793449  0.500000  1
  Si  Si10  1  0.833769  0.833769  0.331861  1
  Si  Si11  1  0.166231  0.166231  0.668139  1
  Si  Si12  1  0.667119  0.667119  0.832787  1
  Si  Si13  1  0.332881  0.332881  0.167213  1
  Si  Si14  1  0.622378  0.390347  0.229372  1
  Si  Si15  1  0.609653  0.377622  0.770628  1
  Si  Si16  1  0.110655  0.876894  0.728858  1
  Si  Si17  1  0.123106  0.889345  0.271142  1
  Si  Si18  1  0.377622  0.609653  0.770628  1
  Si  Si19  1  0.390347  0.622378  0.229372  1
  Si  Si20  1  0.889345  0.123106  0.271142  1
  Si  Si21  1  0.876894  0.110655  0.728858  1
  Si  Si22  1  0.846238  0.612784  0.005966  1
  Si  Si23  1  0.387216  0.153762  0.994034  1
  Si  Si24  1  0.889045  0.655729  0.503881  1
  Si  Si25  1  0.344271  0.110955  0.496119  1
  Si  Si26  1  0.153762  0.387216  0.994034  1
  Si  Si27  1  0.612784  0.846238  0.005966  1
  Si  Si28  1  0.110955  0.344271  0.496119  1
  Si  Si29  1  0.655729  0.889045  0.503881  1
  Ru  Ru30  1  0.169155  0.830845  0.000000  1
  Ru  Ru31  1  0.666644  0.333356  0.500000  1
  Ru  Ru32  1  0.830845  0.169155  0.000000  1
  Ru  Ru33  1  0.333356  0.666644  0.500000  1
  Ru  Ru34  1  0.624560  0.624560  0.129360  1
  Ru  Ru35  1  0.375440  0.375440  0.870640  1
  Ru  Ru36  1  0.869225  0.869225  0.622802  1
  Ru  Ru37  1  0.130775  0.130775  0.377198  1
