# generated using pymatgen
data_Tm19ScSn16
_symmetry_space_group_name_H-M   'P 1'
_cell_length_a   7.91809917
_cell_length_b   8.03439317
_cell_length_c   15.25280500
_cell_angle_alpha   90.00000000
_cell_angle_beta   90.00000000
_cell_angle_gamma   89.97627339
_symmetry_Int_Tables_number   1
_chemical_formula_structural   Tm19ScSn16
_chemical_formula_sum   'Tm19 Sc1 Sn16'
_cell_volume   970.33947190
_cell_formula_units_Z   1
loop_
 _symmetry_equiv_pos_site_id
 _symmetry_equiv_pos_as_xyz
  1  'x, y, z'
loop_
 _atom_site_type_symbol
 _atom_site_label
 _atom_site_symmetry_multiplicity
 _atom_site_fract_x
 _atom_site_fract_y
 _atom_site_fract_z
 _atom_site_occupancy
  Tm  Tm0  1  0.367825  0.837060  0.876668  1
  Tm  Tm1  1  0.868992  0.661872  0.623437  1
  Tm  Tm2  1  0.631726  0.162676  0.377232  1
  Tm  Tm3  1  0.131649  0.337321  0.122415  1
  Tm  Tm4  1  0.631726  0.162676  0.122768  1
  Tm  Tm5  1  0.131649  0.337321  0.377585  1
  Tm  Tm6  1  0.367825  0.837060  0.623332  1
  Tm  Tm7  1  0.868992  0.661872  0.876563  1
  Tm  Tm8  1  0.522239  0.321387  0.903158  1
  Tm  Tm9  1  0.023087  0.179832  0.596939  1
  Tm  Tm10  1  0.477618  0.679170  0.403653  1
  Tm  Tm11  1  0.977509  0.820878  0.096613  1
  Tm  Tm12  1  0.477618  0.679170  0.096347  1
  Tm  Tm13  1  0.977509  0.820878  0.403387  1
  Tm  Tm14  1  0.522239  0.321387  0.596842  1
  Tm  Tm15  1  0.023087  0.179832  0.903061  1
  Tm  Tm16  1  0.697825  0.996344  0.750000  1
  Tm  Tm17  1  0.801768  0.496092  0.250000  1
  Tm  Tm18  1  0.301671  0.003849  0.250000  1
  Sc  Sc19  1  0.199118  0.504117  0.750000  1
  Sn  Sn20  1  0.292349  0.036006  0.041200  1
  Sn  Sn21  1  0.792511  0.463958  0.458829  1
  Sn  Sn22  1  0.707831  0.963905  0.541514  1
  Sn  Sn23  1  0.207575  0.535399  0.956816  1
  Sn  Sn24  1  0.707831  0.963905  0.958486  1
  Sn  Sn25  1  0.207575  0.535399  0.543184  1
  Sn  Sn26  1  0.292349  0.036006  0.458800  1
  Sn  Sn27  1  0.792511  0.463958  0.041171  1
  Sn  Sn28  1  0.560678  0.616138  0.750000  1
  Sn  Sn29  1  0.065029  0.879529  0.750000  1
  Sn  Sn30  1  0.435307  0.381201  0.250000  1
  Sn  Sn31  1  0.935243  0.118716  0.250000  1
  Sn  Sn32  1  0.330006  0.154217  0.750000  1
  Sn  Sn33  1  0.835524  0.351199  0.750000  1
  Sn  Sn34  1  0.667896  0.850442  0.250000  1
  Sn  Sn35  1  0.168113  0.649231  0.250000  1
