# generated using pymatgen
data_Ho6ScFe7(Co5P6)2
_symmetry_space_group_name_H-M   'P 1'
_cell_length_a   3.71305800
_cell_length_b   10.60470800
_cell_length_c   12.17458200
_cell_angle_alpha   90.00000000
_cell_angle_beta   90.00000000
_cell_angle_gamma   90.00000000
_symmetry_Int_Tables_number   1
_chemical_formula_structural   Ho6ScFe7(Co5P6)2
_chemical_formula_sum   'Ho6 Sc1 Fe7 Co10 P12'
_cell_volume   479.38507318
_cell_formula_units_Z   1
loop_
 _symmetry_equiv_pos_site_id
 _symmetry_equiv_pos_as_xyz
  1  'x, y, z'
loop_
 _atom_site_type_symbol
 _atom_site_label
 _atom_site_symmetry_multiplicity
 _atom_site_fract_x
 _atom_site_fract_y
 _atom_site_fract_z
 _atom_site_occupancy
  Ho  Ho0  1  0.000000  0.500000  0.528648  1
  Ho  Ho1  1  0.500000  0.000000  0.475749  1
  Ho  Ho2  1  0.500000  0.823218  0.206059  1
  Ho  Ho3  1  0.500000  0.176782  0.206059  1
  Ho  Ho4  1  0.000000  0.682970  0.795287  1
  Ho  Ho5  1  0.000000  0.317030  0.795287  1
  Sc  Sc6  1  0.500000  0.500000  0.152185  1
  Fe  Fe7  1  0.000000  0.500000  0.983695  1
  Fe  Fe8  1  0.500000  0.000000  0.009163  1
  Fe  Fe9  1  0.500000  0.295153  0.433985  1
  Fe  Fe10  1  0.500000  0.704847  0.433985  1
  Fe  Fe11  1  0.500000  0.882188  0.707482  1
  Fe  Fe12  1  0.500000  0.117812  0.707482  1
  Fe  Fe13  1  0.000000  0.000000  0.843729  1
  Co  Co14  1  0.000000  0.200138  0.572094  1
  Co  Co15  1  0.000000  0.799862  0.572094  1
  Co  Co16  1  0.000000  0.622510  0.295645  1
  Co  Co17  1  0.000000  0.377490  0.295645  1
  Co  Co18  1  0.500000  0.325205  0.989654  1
  Co  Co19  1  0.500000  0.674795  0.989654  1
  Co  Co20  1  0.000000  0.163394  0.001952  1
  Co  Co21  1  0.000000  0.836606  0.001952  1
  Co  Co22  1  0.500000  0.500000  0.701911  1
  Co  Co23  1  0.000000  0.000000  0.299495  1
  P  P24  1  0.500000  0.307163  0.617677  1
  P  P25  1  0.500000  0.692837  0.617677  1
  P  P26  1  0.000000  0.191665  0.386511  1
  P  P27  1  0.000000  0.808335  0.386511  1
  P  P28  1  0.500000  0.500000  0.884330  1
  P  P29  1  0.000000  0.000000  0.114852  1
  P  P30  1  0.500000  0.852133  0.887508  1
  P  P31  1  0.500000  0.147867  0.887508  1
  P  P32  1  0.000000  0.662508  0.100931  1
  P  P33  1  0.000000  0.337492  0.100931  1
  P  P34  1  0.500000  0.500000  0.357870  1
  P  P35  1  0.000000  0.000000  0.658798  1
