# generated using pymatgen
data_Sm2Y2B4I5
_symmetry_space_group_name_H-M   'P 1'
_cell_length_a   9.70514418
_cell_length_b   9.70514367
_cell_length_c   9.74274064
_cell_angle_alpha   75.38871745
_cell_angle_beta   75.38871863
_cell_angle_gamma   25.61165890
_symmetry_Int_Tables_number   1
_chemical_formula_structural   Sm2Y2B4I5
_chemical_formula_sum   'Sm2 Y2 B4 I5'
_cell_volume   383.17593713
_cell_formula_units_Z   1
loop_
 _symmetry_equiv_pos_site_id
 _symmetry_equiv_pos_as_xyz
  1  'x, y, z'
loop_
 _atom_site_type_symbol
 _atom_site_label
 _atom_site_symmetry_multiplicity
 _atom_site_fract_x
 _atom_site_fract_y
 _atom_site_fract_z
 _atom_site_occupancy
  Sm  Sm0  1  0.132209  0.132209  0.932588  1
  Sm  Sm1  1  0.869453  0.869453  0.066089  1
  Y  Y2  1  0.503599  0.503599  0.754182  1
  Y  Y3  1  0.498204  0.498204  0.244663  1
  B  B4  1  0.315287  0.686375  0.999462  1
  B  B5  1  0.686375  0.315287  0.999462  1
  B  B6  1  0.000703  0.000703  0.098507  1
  B  B7  1  0.000910  0.000910  0.900435  1
  I  I8  1  0.673843  0.673843  0.677301  1
  I  I9  1  0.327998  0.327998  0.321994  1
  I  I10  1  0.329175  0.329175  0.846877  1
  I  I11  1  0.672975  0.672975  0.150609  1
  I  I12  1  0.003571  0.003571  0.498030  1
