# generated using pymatgen
data_Ca6Hf2CrH27
_symmetry_space_group_name_H-M   'P 1'
_cell_length_a   8.64101400
_cell_length_b   8.64101518
_cell_length_c   5.00689300
_cell_angle_alpha   90.00000000
_cell_angle_beta   90.00000000
_cell_angle_gamma   119.99999549
_symmetry_Int_Tables_number   1
_chemical_formula_structural   Ca6Hf2CrH27
_chemical_formula_sum   'Ca6 Hf2 Cr1 H27'
_cell_volume   323.76391178
_cell_formula_units_Z   1
loop_
 _symmetry_equiv_pos_site_id
 _symmetry_equiv_pos_as_xyz
  1  'x, y, z'
loop_
 _atom_site_type_symbol
 _atom_site_label
 _atom_site_symmetry_multiplicity
 _atom_site_fract_x
 _atom_site_fract_y
 _atom_site_fract_z
 _atom_site_occupancy
  Ca  Ca0  1  0.264836  0.009856  0.500000  1
  Ca  Ca1  1  0.990144  0.254980  0.500000  1
  Ca  Ca2  1  0.745020  0.735164  0.500000  1
  Ca  Ca3  1  0.603626  0.999496  0.000000  1
  Ca  Ca4  1  0.000504  0.604130  0.000000  1
  Ca  Ca5  1  0.395870  0.396374  0.000000  1
  Hf  Hf6  1  0.000000  0.000000  0.000000  1
  Hf  Hf7  1  0.333333  0.666667  0.500000  1
  Cr  Cr8  1  0.666667  0.333333  0.500000  1
  H  H9  1  0.827750  0.988038  0.263207  1
  H  H10  1  0.011962  0.839713  0.263207  1
  H  H11  1  0.827750  0.988038  0.736793  1
  H  H12  1  0.011962  0.839713  0.736793  1
  H  H13  1  0.160287  0.172250  0.263207  1
  H  H14  1  0.160287  0.172250  0.736793  1
  H  H15  1  0.242833  0.029498  0.000000  1
  H  H16  1  0.970502  0.213334  0.000000  1
  H  H17  1  0.786666  0.757167  0.000000  1
  H  H18  1  0.161214  0.499751  0.240131  1
  H  H19  1  0.500249  0.661463  0.240131  1
  H  H20  1  0.161214  0.499751  0.759869  1
  H  H21  1  0.532624  0.203095  0.734383  1
  H  H22  1  0.338537  0.838786  0.240131  1
  H  H23  1  0.500249  0.661463  0.759869  1
  H  H24  1  0.670470  0.467376  0.734383  1
  H  H25  1  0.532624  0.203095  0.265617  1
  H  H26  1  0.338537  0.838786  0.759869  1
  H  H27  1  0.670470  0.467376  0.265617  1
  H  H28  1  0.796905  0.329530  0.734383  1
  H  H29  1  0.796905  0.329530  0.265617  1
  H  H30  1  0.317653  0.433988  0.500000  1
  H  H31  1  0.566012  0.883665  0.500000  1
  H  H32  1  0.485233  0.340818  0.500000  1
  H  H33  1  0.116335  0.682347  0.500000  1
  H  H34  1  0.855584  0.514767  0.500000  1
  H  H35  1  0.659182  0.144416  0.500000  1
