# generated using pymatgen
data_Ho4Mn9V(Fe5P6)2
_symmetry_space_group_name_H-M   'P 1'
_cell_length_a   3.63800100
_cell_length_b   10.36759626
_cell_length_c   12.14732921
_cell_angle_alpha   90.20904682
_cell_angle_beta   90.00000000
_cell_angle_gamma   90.00000000
_symmetry_Int_Tables_number   1
_chemical_formula_structural   Ho4Mn9V(Fe5P6)2
_chemical_formula_sum   'Ho4 Mn9 V1 Fe10 P12'
_cell_volume   458.16172073
_cell_formula_units_Z   1
loop_
 _symmetry_equiv_pos_site_id
 _symmetry_equiv_pos_as_xyz
  1  'x, y, z'
loop_
 _atom_site_type_symbol
 _atom_site_label
 _atom_site_symmetry_multiplicity
 _atom_site_fract_x
 _atom_site_fract_y
 _atom_site_fract_z
 _atom_site_occupancy
  Ho  Ho0  1  0.250000  0.584611  0.710645  1
  Ho  Ho1  1  0.250000  0.915673  0.211065  1
  Ho  Ho2  1  0.750000  0.423592  0.289918  1
  Ho  Ho3  1  0.750000  0.075950  0.791642  1
  Mn  Mn4  1  0.250000  0.702951  0.991534  1
  Mn  Mn5  1  0.250000  0.795739  0.490998  1
  Mn  Mn6  1  0.750000  0.209428  0.511399  1
  Mn  Mn7  1  0.250000  0.413211  0.491192  1
  Mn  Mn8  1  0.250000  0.084722  0.990772  1
  Mn  Mn9  1  0.750000  0.596963  0.507742  1
  Mn  Mn10  1  0.750000  0.901469  0.008785  1
  Mn  Mn11  1  0.250000  0.216490  0.178064  1
  Mn  Mn12  1  0.250000  0.282375  0.674658  1
  V  V13  1  0.750000  0.295751  0.010911  1
  Fe  Fe14  1  0.750000  0.776711  0.827112  1
  Fe  Fe15  1  0.750000  0.723181  0.326925  1
  Fe  Fe16  1  0.250000  0.878005  0.695237  1
  Fe  Fe17  1  0.250000  0.621122  0.195156  1
  Fe  Fe18  1  0.750000  0.126407  0.302590  1
  Fe  Fe19  1  0.750000  0.372760  0.799088  1
  Fe  Fe20  1  0.250000  0.463428  0.933087  1
  Fe  Fe21  1  0.250000  0.038699  0.434830  1
  Fe  Fe22  1  0.750000  0.537733  0.062693  1
  Fe  Fe23  1  0.750000  0.963590  0.563711  1
  P  P24  1  0.250000  0.424871  0.111751  1
  P  P25  1  0.250000  0.074894  0.612803  1
  P  P26  1  0.750000  0.574859  0.885437  1
  P  P27  1  0.750000  0.924436  0.386528  1
  P  P28  1  0.250000  0.264450  0.867996  1
  P  P29  1  0.250000  0.236516  0.370210  1
  P  P30  1  0.750000  0.730535  0.138531  1
  P  P31  1  0.750000  0.770277  0.637938  1
  P  P32  1  0.250000  0.604944  0.380655  1
  P  P33  1  0.250000  0.892986  0.880557  1
  P  P34  1  0.750000  0.407929  0.613363  1
  P  P35  1  0.750000  0.092742  0.114479  1
