# generated using pymatgen
data_Y6Al24FeRuRh6
_symmetry_space_group_name_H-M   'P 1'
_cell_length_a   8.81787200
_cell_length_b   8.81787050
_cell_length_c   9.45519100
_cell_angle_alpha   90.00000000
_cell_angle_beta   90.00000000
_cell_angle_gamma   119.99999814
_symmetry_Int_Tables_number   1
_chemical_formula_structural   Y6Al24FeRuRh6
_chemical_formula_sum   'Y6 Al24 Fe1 Ru1 Rh6'
_cell_volume   636.69062143
_cell_formula_units_Z   1
loop_
 _symmetry_equiv_pos_site_id
 _symmetry_equiv_pos_as_xyz
  1  'x, y, z'
loop_
 _atom_site_type_symbol
 _atom_site_label
 _atom_site_symmetry_multiplicity
 _atom_site_fract_x
 _atom_site_fract_y
 _atom_site_fract_z
 _atom_site_occupancy
  Y  Y0  1  0.191695  0.383389  0.250553  1
  Y  Y1  1  0.808305  0.616611  0.749447  1
  Y  Y2  1  0.616611  0.808305  0.250553  1
  Y  Y3  1  0.383389  0.191695  0.749447  1
  Y  Y4  1  0.191695  0.808305  0.250553  1
  Y  Y5  1  0.808305  0.191695  0.749447  1
  Al  Al6  1  0.333333  0.666667  0.026810  1
  Al  Al7  1  0.666667  0.333333  0.973190  1
  Al  Al8  1  0.666667  0.333333  0.528895  1
  Al  Al9  1  0.333333  0.666667  0.471105  1
  Al  Al10  1  0.162833  0.325668  0.575809  1
  Al  Al11  1  0.837167  0.674332  0.424191  1
  Al  Al12  1  0.674332  0.837167  0.575809  1
  Al  Al13  1  0.839921  0.679840  0.074824  1
  Al  Al14  1  0.325668  0.162833  0.424191  1
  Al  Al15  1  0.160079  0.320160  0.925176  1
  Al  Al16  1  0.162833  0.837167  0.575809  1
  Al  Al17  1  0.320160  0.160079  0.074824  1
  Al  Al18  1  0.837167  0.162833  0.424191  1
  Al  Al19  1  0.679840  0.839921  0.925176  1
  Al  Al20  1  0.839921  0.160079  0.074824  1
  Al  Al21  1  0.160079  0.839921  0.925176  1
  Al  Al22  1  0.561955  0.123910  0.249957  1
  Al  Al23  1  0.438045  0.876090  0.750043  1
  Al  Al24  1  0.876090  0.438045  0.249957  1
  Al  Al25  1  0.123910  0.561955  0.750043  1
  Al  Al26  1  0.561955  0.438045  0.249957  1
  Al  Al27  1  0.438045  0.561955  0.750043  1
  Al  Al28  1  0.000000  0.000000  0.244103  1
  Al  Al29  1  0.000000  0.000000  0.755897  1
  Fe  Fe30  1  0.000000  0.000000  0.000000  1
  Ru  Ru31  1  0.000000  0.000000  0.500000  1
  Rh  Rh32  1  0.500000  0.000000  0.000000  1
  Rh  Rh33  1  0.000000  0.500000  0.000000  1
  Rh  Rh34  1  0.500000  0.000000  0.500000  1
  Rh  Rh35  1  0.500000  0.500000  0.000000  1
  Rh  Rh36  1  0.000000  0.500000  0.500000  1
  Rh  Rh37  1  0.500000  0.500000  0.500000  1
