# generated using pymatgen
data_Tm4MnIr6W
_symmetry_space_group_name_H-M   'P 1'
_cell_length_a   5.47258600
_cell_length_b   5.47258593
_cell_length_c   8.27789700
_cell_angle_alpha   90.00000000
_cell_angle_beta   90.00000000
_cell_angle_gamma   119.99998832
_symmetry_Int_Tables_number   1
_chemical_formula_structural   Tm4MnIr6W
_chemical_formula_sum   'Tm4 Mn1 Ir6 W1'
_cell_volume   214.70189911
_cell_formula_units_Z   1
loop_
 _symmetry_equiv_pos_site_id
 _symmetry_equiv_pos_as_xyz
  1  'x, y, z'
loop_
 _atom_site_type_symbol
 _atom_site_label
 _atom_site_symmetry_multiplicity
 _atom_site_fract_x
 _atom_site_fract_y
 _atom_site_fract_z
 _atom_site_occupancy
  Tm  Tm0  1  0.333333  0.666667  0.064387  1
  Tm  Tm1  1  0.666667  0.333333  0.561895  1
  Tm  Tm2  1  0.666667  0.333333  0.935613  1
  Tm  Tm3  1  0.333333  0.666667  0.438105  1
  Mn  Mn4  1  0.000000  0.000000  0.500000  1
  Ir  Ir5  1  0.829632  0.659263  0.250538  1
  Ir  Ir6  1  0.170368  0.829632  0.749462  1
  Ir  Ir7  1  0.659263  0.829632  0.749462  1
  Ir  Ir8  1  0.340737  0.170368  0.250538  1
  Ir  Ir9  1  0.829632  0.170368  0.250538  1
  Ir  Ir10  1  0.170368  0.340737  0.749462  1
  W  W11  1  0.000000  0.000000  0.000000  1
