# generated using pymatgen
data_DyLu4Hf5(Si5Ir2)4
_symmetry_space_group_name_H-M   'P 1'
_cell_length_a   12.44787544
_cell_length_b   12.44775944
_cell_length_c   4.14721000
_cell_angle_alpha   90.00000000
_cell_angle_beta   90.00000000
_cell_angle_gamma   89.90322909
_symmetry_Int_Tables_number   1
_chemical_formula_structural   DyLu4Hf5(Si5Ir2)4
_chemical_formula_sum   'Dy1 Lu4 Hf5 Si20 Ir8'
_cell_volume   642.60163786
_cell_formula_units_Z   1
loop_
 _symmetry_equiv_pos_site_id
 _symmetry_equiv_pos_as_xyz
  1  'x, y, z'
loop_
 _atom_site_type_symbol
 _atom_site_label
 _atom_site_symmetry_multiplicity
 _atom_site_fract_x
 _atom_site_fract_y
 _atom_site_fract_z
 _atom_site_occupancy
  Dy  Dy0  1  0.615400  0.884334  0.500000  1
  Lu  Lu1  1  0.000154  0.000012  0.000000  1
  Lu  Lu2  1  0.884275  0.384549  0.500000  1
  Lu  Lu3  1  0.115642  0.615504  0.500000  1
  Lu  Lu4  1  0.384543  0.115637  0.500000  1
  Hf  Hf5  1  0.499985  0.499897  0.000000  1
  Hf  Hf6  1  0.673854  0.175518  0.500000  1
  Hf  Hf7  1  0.325836  0.824753  0.500000  1
  Hf  Hf8  1  0.175181  0.326265  0.500000  1
  Hf  Hf9  1  0.824967  0.673626  0.500000  1
  Si  Si10  1  0.565653  0.067394  0.000000  1
  Si  Si11  1  0.434108  0.932753  0.000000  1
  Si  Si12  1  0.067080  0.434542  0.000000  1
  Si  Si13  1  0.932946  0.565456  0.000000  1
  Si  Si14  1  0.665442  0.701189  0.000000  1
  Si  Si15  1  0.334307  0.298440  0.000000  1
  Si  Si16  1  0.163970  0.800542  0.000000  1
  Si  Si17  1  0.836252  0.199899  0.000000  1
  Si  Si18  1  0.297975  0.665383  0.000000  1
  Si  Si19  1  0.701579  0.334420  0.000000  1
  Si  Si20  1  0.199428  0.164140  0.000000  1
  Si  Si21  1  0.800864  0.836120  0.000000  1
  Si  Si22  1  0.651222  0.507799  0.500000  1
  Si  Si23  1  0.348745  0.492047  0.500000  1
  Si  Si24  1  0.155014  0.992543  0.500000  1
  Si  Si25  1  0.845428  0.007369  0.500000  1
  Si  Si26  1  0.492151  0.650720  0.500000  1
  Si  Si27  1  0.507985  0.348902  0.500000  1
  Si  Si28  1  0.007385  0.155244  0.500000  1
  Si  Si29  1  0.992740  0.844862  0.500000  1
  Ir  Ir30  1  0.743194  0.520902  0.000000  1
  Ir  Ir31  1  0.256776  0.478856  0.000000  1
  Ir  Ir32  1  0.246339  0.978749  0.000000  1
  Ir  Ir33  1  0.754548  0.022505  0.000000  1
  Ir  Ir34  1  0.477829  0.741937  0.000000  1
  Ir  Ir35  1  0.520977  0.257129  0.000000  1
  Ir  Ir36  1  0.021446  0.246780  0.000000  1
  Ir  Ir37  1  0.978780  0.753287  0.000000  1
