# generated using pymatgen
data_Sr5CdOs3O16
_symmetry_space_group_name_H-M   'P 1'
_cell_length_a   5.82031344
_cell_length_b   5.84607149
_cell_length_c   10.43279145
_cell_angle_alpha   94.13051678
_cell_angle_beta   94.08366766
_cell_angle_gamma   89.87807400
_symmetry_Int_Tables_number   1
_chemical_formula_structural   Sr5CdOs3O16
_chemical_formula_sum   'Sr5 Cd1 Os3 O16'
_cell_volume   353.16324698
_cell_formula_units_Z   1
loop_
 _symmetry_equiv_pos_site_id
 _symmetry_equiv_pos_as_xyz
  1  'x, y, z'
loop_
 _atom_site_type_symbol
 _atom_site_label
 _atom_site_symmetry_multiplicity
 _atom_site_fract_x
 _atom_site_fract_y
 _atom_site_fract_z
 _atom_site_occupancy
  Sr  Sr0  1  0.508718  0.028931  0.204493  1
  Sr  Sr1  1  0.031008  0.498628  0.210220  1
  Sr  Sr2  1  0.999920  0.000078  0.500003  1
  Sr  Sr3  1  0.968934  0.501286  0.789799  1
  Sr  Sr4  1  0.491374  0.971120  0.795517  1
  Cd  Cd5  1  0.500018  0.499984  0.000002  1
  Os  Os6  1  0.000035  0.999973  0.999995  1
  Os  Os7  1  0.559452  0.560181  0.390263  1
  Os  Os8  1  0.440443  0.439891  0.609748  1
  O  O9  1  0.709197  0.158344  0.006731  1
  O  O10  1  0.849493  0.718073  0.028435  1
  O  O11  1  0.060175  0.061312  0.176909  1
  O  O12  1  0.456976  0.457114  0.206245  1
  O  O13  1  0.765123  0.765753  0.326913  1
  O  O14  1  0.309269  0.755451  0.376165  1
  O  O15  1  0.757981  0.311888  0.375837  1
  O  O16  1  0.318686  0.318756  0.438569  1
  O  O17  1  0.681279  0.681275  0.561437  1
  O  O18  1  0.242032  0.688095  0.624139  1
  O  O19  1  0.690705  0.244587  0.623857  1
  O  O20  1  0.234916  0.234248  0.673088  1
  O  O21  1  0.543016  0.542876  0.793752  1
  O  O22  1  0.939839  0.938659  0.823082  1
  O  O23  1  0.150566  0.281865  0.971549  1
  O  O24  1  0.290840  0.841621  0.993263  1
