# generated using pymatgen
data_CaPr(LuSe2)2
_symmetry_space_group_name_H-M   'P 1'
_cell_length_a   13.87688126
_cell_length_b   13.87688114
_cell_length_c   13.87688193
_cell_angle_alpha   16.84864275
_cell_angle_beta   16.84864532
_cell_angle_gamma   16.84864454
_symmetry_Int_Tables_number   1
_chemical_formula_structural   CaPr(LuSe2)2
_chemical_formula_sum   'Ca1 Pr1 Lu2 Se4'
_cell_volume   195.81872051
_cell_formula_units_Z   1
loop_
 _symmetry_equiv_pos_site_id
 _symmetry_equiv_pos_as_xyz
  1  'x, y, z'
loop_
 _atom_site_type_symbol
 _atom_site_label
 _atom_site_symmetry_multiplicity
 _atom_site_fract_x
 _atom_site_fract_y
 _atom_site_fract_z
 _atom_site_occupancy
  Ca  Ca0  1  0.500000  0.500000  0.500000  1
  Pr  Pr1  1  0.000000  0.000000  0.000000  1
  Lu  Lu2  1  0.249023  0.249023  0.249023  1
  Lu  Lu3  1  0.750977  0.750977  0.750977  1
  Se  Se4  1  0.380539  0.380539  0.380539  1
  Se  Se5  1  0.123918  0.123918  0.123918  1
  Se  Se6  1  0.619461  0.619461  0.619461  1
  Se  Se7  1  0.876082  0.876082  0.876082  1
