# generated using pymatgen
data_Tb11In9Ru4
_symmetry_space_group_name_H-M   'P 1'
_cell_length_a   3.77868500
_cell_length_b   13.02452783
_cell_length_c   13.02452818
_cell_angle_alpha   112.60187170
_cell_angle_beta   90.00000000
_cell_angle_gamma   90.00000000
_symmetry_Int_Tables_number   1
_chemical_formula_structural   Tb11In9Ru4
_chemical_formula_sum   'Tb11 In9 Ru4'
_cell_volume   591.77875994
_cell_formula_units_Z   1
loop_
 _symmetry_equiv_pos_site_id
 _symmetry_equiv_pos_as_xyz
  1  'x, y, z'
loop_
 _atom_site_type_symbol
 _atom_site_label
 _atom_site_symmetry_multiplicity
 _atom_site_fract_x
 _atom_site_fract_y
 _atom_site_fract_z
 _atom_site_occupancy
  Tb  Tb0  1  0.000000  0.917116  0.581361  1
  Tb  Tb1  1  0.000000  0.082884  0.418639  1
  Tb  Tb2  1  0.000000  0.581361  0.917116  1
  Tb  Tb3  1  0.000000  0.418639  0.082884  1
  Tb  Tb4  1  0.000000  0.161816  0.838184  1
  Tb  Tb5  1  0.000000  0.838184  0.161816  1
  Tb  Tb6  1  0.000000  0.374286  0.625714  1
  Tb  Tb7  1  0.000000  0.625714  0.374286  1
  Tb  Tb8  1  0.000000  0.689327  0.689327  1
  Tb  Tb9  1  0.000000  0.310673  0.310673  1
  Tb  Tb10  1  0.000000  0.000000  0.000000  1
  In  In11  1  0.500000  0.156913  0.631764  1
  In  In12  1  0.500000  0.843087  0.368236  1
  In  In13  1  0.500000  0.631764  0.156913  1
  In  In14  1  0.500000  0.368236  0.843087  1
  In  In15  1  0.500000  0.925576  0.780613  1
  In  In16  1  0.500000  0.074424  0.219387  1
  In  In17  1  0.500000  0.780613  0.925576  1
  In  In18  1  0.500000  0.219387  0.074424  1
  In  In19  1  0.500000  0.500000  0.500000  1
  Ru  Ru20  1  0.500000  0.747070  0.550847  1
  Ru  Ru21  1  0.500000  0.252930  0.449153  1
  Ru  Ru22  1  0.500000  0.550847  0.747070  1
  Ru  Ru23  1  0.500000  0.449153  0.252930  1
