# generated using pymatgen
data_Sc7Ta(IrRu)4
_symmetry_space_group_name_H-M   'P 1'
_cell_length_a   6.37781100
_cell_length_b   4.56713200
_cell_length_c   9.13684700
_cell_angle_alpha   89.99996864
_cell_angle_beta   89.99891271
_cell_angle_gamma   89.99890001
_symmetry_Int_Tables_number   1
_chemical_formula_structural   Sc7Ta(IrRu)4
_chemical_formula_sum   'Sc7 Ta1 Ir4 Ru4'
_cell_volume   266.14086344
_cell_formula_units_Z   1
loop_
 _symmetry_equiv_pos_site_id
 _symmetry_equiv_pos_as_xyz
  1  'x, y, z'
loop_
 _atom_site_type_symbol
 _atom_site_label
 _atom_site_symmetry_multiplicity
 _atom_site_fract_x
 _atom_site_fract_y
 _atom_site_fract_z
 _atom_site_occupancy
  Sc  Sc0  1  0.500081  0.750002  0.125008  1
  Sc  Sc1  1  0.999921  0.250001  0.377815  1
  Sc  Sc2  1  0.499839  0.250008  0.375646  1
  Sc  Sc3  1  0.499763  0.749994  0.625012  1
  Sc  Sc4  1  0.000547  0.750000  0.625013  1
  Sc  Sc5  1  0.500013  0.250001  0.874369  1
  Sc  Sc6  1  0.000092  0.249989  0.872181  1
  Ta  Ta7  1  0.999102  0.749994  0.125001  1
  Ir  Ir8  1  0.757852  0.250001  0.125000  1
  Ir  Ir9  1  0.246379  0.750000  0.369316  1
  Ir  Ir10  1  0.749431  0.250002  0.625005  1
  Ir  Ir11  1  0.246521  0.750001  0.880684  1
  Ru  Ru12  1  0.239768  0.250009  0.124938  1
  Ru  Ru13  1  0.754662  0.749999  0.367801  1
  Ru  Ru14  1  0.251250  0.249995  0.625040  1
  Ru  Ru15  1  0.754782  0.750003  0.882168  1
