# generated using pymatgen
data_Ho3Co2P6Ir7
_symmetry_space_group_name_H-M   'P 1'
_cell_length_a   3.88322800
_cell_length_b   11.03254400
_cell_length_c   12.71125400
_cell_angle_alpha   90.00000000
_cell_angle_beta   90.00000000
_cell_angle_gamma   90.00000000
_symmetry_Int_Tables_number   1
_chemical_formula_structural   Ho3Co2P6Ir7
_chemical_formula_sum   'Ho6 Co4 P12 Ir14'
_cell_volume   544.57406646
_cell_formula_units_Z   2
loop_
 _symmetry_equiv_pos_site_id
 _symmetry_equiv_pos_as_xyz
  1  'x, y, z'
loop_
 _atom_site_type_symbol
 _atom_site_label
 _atom_site_symmetry_multiplicity
 _atom_site_fract_x
 _atom_site_fract_y
 _atom_site_fract_z
 _atom_site_occupancy
  Ho  Ho0  1  0.000000  0.500000  0.522843  1
  Ho  Ho1  1  0.500000  0.000000  0.477402  1
  Ho  Ho2  1  0.500000  0.820886  0.198997  1
  Ho  Ho3  1  0.500000  0.179114  0.198997  1
  Ho  Ho4  1  0.000000  0.684971  0.801105  1
  Ho  Ho5  1  0.000000  0.315029  0.801105  1
  Co  Co6  1  0.000000  0.500000  0.985983  1
  Co  Co7  1  0.500000  0.000000  0.016283  1
  Co  Co8  1  0.000000  0.159268  0.003590  1
  Co  Co9  1  0.000000  0.840732  0.003590  1
  P  P10  1  0.500000  0.316147  0.620229  1
  P  P11  1  0.500000  0.683853  0.620229  1
  P  P12  1  0.000000  0.183322  0.379532  1
  P  P13  1  0.000000  0.816678  0.379532  1
  P  P14  1  0.500000  0.500000  0.883032  1
  P  P15  1  0.000000  0.000000  0.111546  1
  P  P16  1  0.500000  0.851010  0.900358  1
  P  P17  1  0.500000  0.148990  0.900358  1
  P  P18  1  0.000000  0.660067  0.101777  1
  P  P19  1  0.000000  0.339933  0.101777  1
  P  P20  1  0.500000  0.500000  0.354566  1
  P  P21  1  0.000000  0.000000  0.645938  1
  Ir  Ir22  1  0.500000  0.294495  0.428927  1
  Ir  Ir23  1  0.500000  0.705505  0.428927  1
  Ir  Ir24  1  0.000000  0.203791  0.570399  1
  Ir  Ir25  1  0.000000  0.796209  0.570399  1
  Ir  Ir26  1  0.500000  0.871060  0.716714  1
  Ir  Ir27  1  0.500000  0.128940  0.716714  1
  Ir  Ir28  1  0.000000  0.629922  0.283164  1
  Ir  Ir29  1  0.000000  0.370078  0.283164  1
  Ir  Ir30  1  0.500000  0.332866  0.995845  1
  Ir  Ir31  1  0.500000  0.667134  0.995845  1
  Ir  Ir32  1  0.500000  0.500000  0.171366  1
  Ir  Ir33  1  0.000000  0.000000  0.831163  1
  Ir  Ir34  1  0.500000  0.500000  0.704664  1
  Ir  Ir35  1  0.000000  0.000000  0.293943  1
