# generated using pymatgen
data_Ce4Al18(PdRu)3
_symmetry_space_group_name_H-M   'P 1'
_cell_length_a   7.67760150
_cell_length_b   7.67760226
_cell_length_c   9.50390138
_cell_angle_alpha   90.04354377
_cell_angle_beta   90.04354231
_cell_angle_gamma   119.35572711
_symmetry_Int_Tables_number   1
_chemical_formula_structural   Ce4Al18(PdRu)3
_chemical_formula_sum   'Ce4 Al18 Pd3 Ru3'
_cell_volume   488.27701143
_cell_formula_units_Z   1
loop_
 _symmetry_equiv_pos_site_id
 _symmetry_equiv_pos_as_xyz
  1  'x, y, z'
loop_
 _atom_site_type_symbol
 _atom_site_label
 _atom_site_symmetry_multiplicity
 _atom_site_fract_x
 _atom_site_fract_y
 _atom_site_fract_z
 _atom_site_occupancy
  Ce  Ce0  1  0.994796  0.673089  0.247789  1
  Ce  Ce1  1  0.004153  0.327366  0.751398  1
  Ce  Ce2  1  0.672634  0.995847  0.248602  1
  Ce  Ce3  1  0.326911  0.005204  0.752211  1
  Al  Al4  1  0.126885  0.128776  0.249616  1
  Al  Al5  1  0.871224  0.873115  0.750384  1
  Al  Al6  1  0.997301  0.330180  0.075280  1
  Al  Al7  1  0.993338  0.662957  0.923167  1
  Al  Al8  1  0.997019  0.669040  0.577880  1
  Al  Al9  1  0.330960  0.002981  0.422120  1
  Al  Al10  1  0.002232  0.331753  0.423306  1
  Al  Al11  1  0.668247  0.997768  0.576694  1
  Al  Al12  1  0.669820  0.002699  0.924720  1
  Al  Al13  1  0.337043  0.006662  0.076833  1
  Al  Al14  1  0.329682  0.330302  0.552182  1
  Al  Al15  1  0.669698  0.670318  0.447818  1
  Al  Al16  1  0.671344  0.665736  0.045956  1
  Al  Al17  1  0.334264  0.328656  0.954044  1
  Al  Al18  1  0.343286  0.546967  0.249616  1
  Al  Al19  1  0.656403  0.450316  0.754103  1
  Al  Al20  1  0.549684  0.343597  0.245897  1
  Al  Al21  1  0.453033  0.656714  0.750384  1
  Pd  Pd22  1  0.328210  0.671790  0.000000  1
  Pd  Pd23  1  0.327636  0.672364  0.500000  1
  Pd  Pd24  1  0.671378  0.328622  0.500000  1
  Ru  Ru25  1  0.672365  0.327635  0.000000  1
  Ru  Ru26  1  0.000613  0.999387  0.000000  1
  Ru  Ru27  1  0.999834  0.000166  0.500000  1
