# generated using pymatgen
data_Lu2Zr7(In2Ir)7
_symmetry_space_group_name_H-M   'P 1'
_cell_length_a   9.73342001
_cell_length_b   9.71551492
_cell_length_c   9.73342000
_cell_angle_alpha   59.93901739
_cell_angle_beta   60.00000004
_cell_angle_gamma   59.93901935
_symmetry_Int_Tables_number   1
_chemical_formula_structural   Lu2Zr7(In2Ir)7
_chemical_formula_sum   'Lu2 Zr7 In14 Ir7'
_cell_volume   650.25070616
_cell_formula_units_Z   1
loop_
 _symmetry_equiv_pos_site_id
 _symmetry_equiv_pos_as_xyz
  1  'x, y, z'
loop_
 _atom_site_type_symbol
 _atom_site_label
 _atom_site_symmetry_multiplicity
 _atom_site_fract_x
 _atom_site_fract_y
 _atom_site_fract_z
 _atom_site_occupancy
  Lu  Lu0  1  0.126843  0.619472  0.126843  1
  Lu  Lu1  1  0.497068  0.508796  0.497068  1
  Zr  Zr2  1  0.369952  0.873197  0.878425  1
  Zr  Zr3  1  0.878425  0.873197  0.878425  1
  Zr  Zr4  1  0.628937  0.123930  0.123567  1
  Zr  Zr5  1  0.878425  0.873197  0.369952  1
  Zr  Zr6  1  0.123567  0.123930  0.123567  1
  Zr  Zr7  1  0.876158  0.371524  0.876158  1
  Zr  Zr8  1  0.123567  0.123930  0.628937  1
  In  In9  1  0.498854  0.851279  0.151012  1
  In  In10  1  0.498854  0.851279  0.498854  1
  In  In11  1  0.501014  0.156471  0.501014  1
  In  In12  1  0.501774  0.500558  0.843655  1
  In  In13  1  0.154013  0.500558  0.501774  1
  In  In14  1  0.841502  0.156471  0.501014  1
  In  In15  1  0.151012  0.851279  0.498854  1
  In  In16  1  0.501014  0.156471  0.841502  1
  In  In17  1  0.154013  0.500558  0.843655  1
  In  In18  1  0.501774  0.500558  0.154013  1
  In  In19  1  0.843655  0.500558  0.501774  1
  In  In20  1  0.843655  0.500558  0.154013  1
  In  In21  1  0.254800  0.235600  0.254800  1
  In  In22  1  0.749446  0.751662  0.749446  1
  Ir  Ir23  1  0.773190  0.781596  0.222607  1
  Ir  Ir24  1  0.001078  0.996764  0.001078  1
  Ir  Ir25  1  0.222607  0.781596  0.222607  1
  Ir  Ir26  1  0.222607  0.781596  0.773190  1
  Ir  Ir27  1  0.217814  0.217805  0.782191  1
  Ir  Ir28  1  0.782191  0.217805  0.782191  1
  Ir  Ir29  1  0.782191  0.217805  0.217814  1
