# generated using pymatgen
data_Dy3YLu4(B6Rh)4
_symmetry_space_group_name_H-M   'P 1'
_cell_length_a   3.62651800
_cell_length_b   9.11256800
_cell_length_c   11.46084100
_cell_angle_alpha   89.99782241
_cell_angle_beta   90.00000000
_cell_angle_gamma   90.00000000
_symmetry_Int_Tables_number   1
_chemical_formula_structural   Dy3YLu4(B6Rh)4
_chemical_formula_sum   'Dy3 Y1 Lu4 B24 Rh4'
_cell_volume   378.74517322
_cell_formula_units_Z   1
loop_
 _symmetry_equiv_pos_site_id
 _symmetry_equiv_pos_as_xyz
  1  'x, y, z'
loop_
 _atom_site_type_symbol
 _atom_site_label
 _atom_site_symmetry_multiplicity
 _atom_site_fract_x
 _atom_site_fract_y
 _atom_site_fract_z
 _atom_site_occupancy
  Dy  Dy0  1  0.500000  0.678746  0.585974  1
  Dy  Dy1  1  0.500000  0.178630  0.914014  1
  Dy  Dy2  1  0.500000  0.821377  0.085933  1
  Y  Y3  1  0.500000  0.321339  0.414015  1
  Lu  Lu4  1  0.500000  0.444105  0.126855  1
  Lu  Lu5  1  0.500000  0.555878  0.873061  1
  Lu  Lu6  1  0.500000  0.055827  0.627115  1
  Lu  Lu7  1  0.500000  0.944268  0.373087  1
  B  B8  1  0.000000  0.105111  0.471820  1
  B  B9  1  0.000000  0.894876  0.528333  1
  B  B10  1  0.000000  0.394755  0.971678  1
  B  B11  1  0.000000  0.605228  0.028278  1
  B  B12  1  0.000000  0.131711  0.317015  1
  B  B13  1  0.000000  0.868184  0.682970  1
  B  B14  1  0.000000  0.368195  0.817136  1
  B  B15  1  0.000000  0.631823  0.182796  1
  B  B16  1  0.000000  0.054522  0.065542  1
  B  B17  1  0.000000  0.945402  0.934427  1
  B  B18  1  0.000000  0.445625  0.565720  1
  B  B19  1  0.000000  0.554821  0.434399  1
  B  B20  1  0.000000  0.482817  0.285791  1
  B  B21  1  0.000000  0.517401  0.714050  1
  B  B22  1  0.000000  0.017229  0.786083  1
  B  B23  1  0.000000  0.982621  0.213978  1
  B  B24  1  0.000000  0.251098  0.080119  1
  B  B25  1  0.000000  0.748791  0.919870  1
  B  B26  1  0.000000  0.248832  0.580421  1
  B  B27  1  0.000000  0.751235  0.419801  1
  B  B28  1  0.000000  0.294500  0.235944  1
  B  B29  1  0.000000  0.705448  0.763937  1
  B  B30  1  0.000000  0.205446  0.736204  1
  B  B31  1  0.000000  0.794591  0.263859  1
  Rh  Rh32  1  0.500000  0.139774  0.179824  1
  Rh  Rh33  1  0.500000  0.859630  0.820095  1
  Rh  Rh34  1  0.500000  0.359975  0.680070  1
  Rh  Rh35  1  0.500000  0.640189  0.319786  1
