# generated using pymatgen
data_La12CdCo6
_symmetry_space_group_name_H-M   'P 1'
_cell_length_a   8.82090102
_cell_length_b   8.82090181
_cell_length_c   8.82090100
_cell_angle_alpha   109.47122337
_cell_angle_beta   109.47122519
_cell_angle_gamma   109.47121751
_symmetry_Int_Tables_number   1
_chemical_formula_structural   La12CdCo6
_chemical_formula_sum   'La12 Cd1 Co6'
_cell_volume   528.34423281
_cell_formula_units_Z   1
loop_
 _symmetry_equiv_pos_site_id
 _symmetry_equiv_pos_as_xyz
  1  'x, y, z'
loop_
 _atom_site_type_symbol
 _atom_site_label
 _atom_site_symmetry_multiplicity
 _atom_site_fract_x
 _atom_site_fract_y
 _atom_site_fract_z
 _atom_site_occupancy
  La  La0  1  0.809934  0.686739  0.496672  1
  La  La1  1  0.190066  0.313261  0.503328  1
  La  La2  1  0.190066  0.686739  0.876806  1
  La  La3  1  0.809934  0.313261  0.123194  1
  La  La4  1  0.686739  0.496672  0.809934  1
  La  La5  1  0.313261  0.503328  0.190066  1
  La  La6  1  0.686739  0.876806  0.190066  1
  La  La7  1  0.313261  0.123194  0.809934  1
  La  La8  1  0.496672  0.809934  0.686739  1
  La  La9  1  0.503328  0.190066  0.313261  1
  La  La10  1  0.123194  0.809934  0.313261  1
  La  La11  1  0.876806  0.190066  0.686739  1
  Cd  Cd12  1  0.000000  0.000000  0.000000  1
  Co  Co13  1  0.880837  0.380837  0.500000  1
  Co  Co14  1  0.119163  0.619163  0.500000  1
  Co  Co15  1  0.380837  0.500000  0.880837  1
  Co  Co16  1  0.619163  0.500000  0.119163  1
  Co  Co17  1  0.500000  0.880837  0.380837  1
  Co  Co18  1  0.500000  0.119163  0.619163  1
