# generated using pymatgen
data_Ho7Tm3(PPb3)2
_symmetry_space_group_name_H-M   'P 1'
_cell_length_a   9.09540900
_cell_length_b   9.09540717
_cell_length_c   6.74343300
_cell_angle_alpha   90.00000000
_cell_angle_beta   90.00000000
_cell_angle_gamma   119.99999576
_symmetry_Int_Tables_number   1
_chemical_formula_structural   Ho7Tm3(PPb3)2
_chemical_formula_sum   'Ho7 Tm3 P2 Pb6'
_cell_volume   483.12117820
_cell_formula_units_Z   1
loop_
 _symmetry_equiv_pos_site_id
 _symmetry_equiv_pos_as_xyz
  1  'x, y, z'
loop_
 _atom_site_type_symbol
 _atom_site_label
 _atom_site_symmetry_multiplicity
 _atom_site_fract_x
 _atom_site_fract_y
 _atom_site_fract_z
 _atom_site_occupancy
  Ho  Ho0  1  0.761846  0.761909  0.249962  1
  Ho  Ho1  1  0.238091  0.999937  0.249962  1
  Ho  Ho2  1  0.000063  0.238154  0.249962  1
  Ho  Ho3  1  0.238091  0.238154  0.750038  1
  Ho  Ho4  1  0.761846  0.999937  0.750038  1
  Ho  Ho5  1  0.000063  0.761909  0.750038  1
  Ho  Ho6  1  0.666667  0.333333  0.500000  1
  Tm  Tm7  1  0.333333  0.666667  0.500000  1
  Tm  Tm8  1  0.333333  0.666667  0.000000  1
  Tm  Tm9  1  0.666667  0.333333  0.000000  1
  P  P10  1  0.000000  0.000000  0.500000  1
  P  P11  1  0.000000  0.000000  0.000000  1
  Pb  Pb12  1  0.399946  0.400073  0.249921  1
  Pb  Pb13  1  0.599927  0.999873  0.249921  1
  Pb  Pb14  1  0.000127  0.600054  0.249921  1
  Pb  Pb15  1  0.599927  0.600054  0.750079  1
  Pb  Pb16  1  0.399946  0.999873  0.750079  1
  Pb  Pb17  1  0.000127  0.400073  0.750079  1
