# generated using pymatgen
data_LiYCo4P3
_symmetry_space_group_name_H-M   'P 1'
_cell_length_a   3.69758800
_cell_length_b   10.26040100
_cell_length_c   11.92178200
_cell_angle_alpha   90.00000000
_cell_angle_beta   90.00000000
_cell_angle_gamma   90.00000000
_symmetry_Int_Tables_number   1
_chemical_formula_structural   LiYCo4P3
_chemical_formula_sum   'Li4 Y4 Co16 P12'
_cell_volume   452.29733533
_cell_formula_units_Z   4
loop_
 _symmetry_equiv_pos_site_id
 _symmetry_equiv_pos_as_xyz
  1  'x, y, z'
loop_
 _atom_site_type_symbol
 _atom_site_label
 _atom_site_symmetry_multiplicity
 _atom_site_fract_x
 _atom_site_fract_y
 _atom_site_fract_z
 _atom_site_occupancy
  Li  Li0  1  0.250000  0.796915  0.492440  1
  Li  Li1  1  0.750000  0.203085  0.507560  1
  Li  Li2  1  0.750000  0.296915  0.007560  1
  Li  Li3  1  0.250000  0.703085  0.992440  1
  Y  Y4  1  0.250000  0.920706  0.202396  1
  Y  Y5  1  0.750000  0.079294  0.797604  1
  Y  Y6  1  0.750000  0.420706  0.297604  1
  Y  Y7  1  0.250000  0.579294  0.702396  1
  Co  Co8  1  0.250000  0.094297  0.985615  1
  Co  Co9  1  0.750000  0.905703  0.014385  1
  Co  Co10  1  0.750000  0.594297  0.514385  1
  Co  Co11  1  0.250000  0.405703  0.485615  1
  Co  Co12  1  0.250000  0.278625  0.673188  1
  Co  Co13  1  0.750000  0.721375  0.326812  1
  Co  Co14  1  0.750000  0.778625  0.826812  1
  Co  Co15  1  0.250000  0.221375  0.173188  1
  Co  Co16  1  0.250000  0.620881  0.199497  1
  Co  Co17  1  0.750000  0.379119  0.800503  1
  Co  Co18  1  0.750000  0.120881  0.300503  1
  Co  Co19  1  0.250000  0.879119  0.699497  1
  Co  Co20  1  0.250000  0.034094  0.432716  1
  Co  Co21  1  0.750000  0.965906  0.567284  1
  Co  Co22  1  0.750000  0.534094  0.067284  1
  Co  Co23  1  0.250000  0.465906  0.932716  1
  P  P24  1  0.250000  0.075646  0.614673  1
  P  P25  1  0.750000  0.924354  0.385327  1
  P  P26  1  0.750000  0.575646  0.885327  1
  P  P27  1  0.250000  0.424354  0.114673  1
  P  P28  1  0.250000  0.229566  0.359999  1
  P  P29  1  0.750000  0.770434  0.640001  1
  P  P30  1  0.750000  0.729566  0.140001  1
  P  P31  1  0.250000  0.270434  0.859999  1
  P  P32  1  0.250000  0.898167  0.892897  1
  P  P33  1  0.750000  0.101833  0.107103  1
  P  P34  1  0.750000  0.398167  0.607103  1
  P  P35  1  0.250000  0.601833  0.392897  1
