# generated using pymatgen
data_SmEr2TaO7
_symmetry_space_group_name_H-M   'P 1'
_cell_length_a   6.44844596
_cell_length_b   6.44844594
_cell_length_c   7.55974800
_cell_angle_alpha   90.00000000
_cell_angle_beta   90.00000000
_cell_angle_gamma   109.43436961
_symmetry_Int_Tables_number   1
_chemical_formula_structural   SmEr2TaO7
_chemical_formula_sum   'Sm2 Er4 Ta2 O14'
_cell_volume   296.44207280
_cell_formula_units_Z   2
loop_
 _symmetry_equiv_pos_site_id
 _symmetry_equiv_pos_as_xyz
  1  'x, y, z'
loop_
 _atom_site_type_symbol
 _atom_site_label
 _atom_site_symmetry_multiplicity
 _atom_site_fract_x
 _atom_site_fract_y
 _atom_site_fract_z
 _atom_site_occupancy
  Sm  Sm0  1  0.500000  0.500000  0.500000  1
  Sm  Sm1  1  0.500000  0.500000  0.000000  1
  Er  Er2  1  0.533286  0.001118  0.750000  1
  Er  Er3  1  0.001118  0.533286  0.250000  1
  Er  Er4  1  0.466714  0.998882  0.250000  1
  Er  Er5  1  0.998882  0.466714  0.750000  1
  Ta  Ta6  1  0.000000  0.000000  0.500000  1
  Ta  Ta7  1  0.000000  0.000000  0.000000  1
  O  O8  1  0.677303  0.929902  0.467990  1
  O  O9  1  0.929902  0.677303  0.532010  1
  O  O10  1  0.677303  0.929902  0.032010  1
  O  O11  1  0.929902  0.677303  0.967990  1
  O  O12  1  0.322697  0.070098  0.532010  1
  O  O13  1  0.070098  0.322697  0.467990  1
  O  O14  1  0.322697  0.070098  0.967990  1
  O  O15  1  0.070098  0.322697  0.032010  1
  O  O16  1  0.934928  0.065072  0.750000  1
  O  O17  1  0.065072  0.934928  0.250000  1
  O  O18  1  0.365102  0.634897  0.750000  1
  O  O19  1  0.634897  0.365102  0.250000  1
  O  O20  1  0.641524  0.358476  0.750000  1
  O  O21  1  0.358476  0.641524  0.250000  1
