# generated using pymatgen
data_Er6ThSn23Os6
_symmetry_space_group_name_H-M   'P 1'
_cell_length_a   9.85302800
_cell_length_b   9.85302802
_cell_length_c   10.08399400
_cell_angle_alpha   90.00000000
_cell_angle_beta   90.00000000
_cell_angle_gamma   120.00000664
_symmetry_Int_Tables_number   1
_chemical_formula_structural   Er6ThSn23Os6
_chemical_formula_sum   'Er6 Th1 Sn23 Os6'
_cell_volume   847.81796735
_cell_formula_units_Z   1
loop_
 _symmetry_equiv_pos_site_id
 _symmetry_equiv_pos_as_xyz
  1  'x, y, z'
loop_
 _atom_site_type_symbol
 _atom_site_label
 _atom_site_symmetry_multiplicity
 _atom_site_fract_x
 _atom_site_fract_y
 _atom_site_fract_z
 _atom_site_occupancy
  Er  Er0  1  0.486913  0.513087  0.301402  1
  Er  Er1  1  0.513087  0.486913  0.698598  1
  Er  Er2  1  0.486913  0.973828  0.301402  1
  Er  Er3  1  0.513087  0.026172  0.698598  1
  Er  Er4  1  0.026172  0.513087  0.301402  1
  Er  Er5  1  0.973828  0.486913  0.698598  1
  Th  Th6  1  0.000000  0.000000  0.000000  1
  Sn  Sn7  1  0.118550  0.881450  0.279071  1
  Sn  Sn8  1  0.881450  0.118550  0.720929  1
  Sn  Sn9  1  0.118550  0.237098  0.279071  1
  Sn  Sn10  1  0.881450  0.762902  0.720929  1
  Sn  Sn11  1  0.762902  0.881450  0.279071  1
  Sn  Sn12  1  0.237098  0.118550  0.720929  1
  Sn  Sn13  1  0.779049  0.220951  0.463757  1
  Sn  Sn14  1  0.220951  0.779049  0.536243  1
  Sn  Sn15  1  0.779049  0.558098  0.463757  1
  Sn  Sn16  1  0.220951  0.441902  0.536243  1
  Sn  Sn17  1  0.441902  0.220951  0.463757  1
  Sn  Sn18  1  0.558098  0.779049  0.536243  1
  Sn  Sn19  1  0.351397  0.000000  0.000000  1
  Sn  Sn20  1  0.648603  0.000000  0.000000  1
  Sn  Sn21  1  0.000000  0.351397  0.000000  1
  Sn  Sn22  1  0.000000  0.648603  0.000000  1
  Sn  Sn23  1  0.648603  0.648603  0.000000  1
  Sn  Sn24  1  0.351397  0.351397  0.000000  1
  Sn  Sn25  1  0.333333  0.666667  0.132559  1
  Sn  Sn26  1  0.666667  0.333333  0.867441  1
  Sn  Sn27  1  0.333333  0.666667  0.829076  1
  Sn  Sn28  1  0.666667  0.333333  0.170924  1
  Sn  Sn29  1  0.000000  0.000000  0.500000  1
  Os  Os30  1  0.829877  0.170123  0.201518  1
  Os  Os31  1  0.170123  0.829877  0.798482  1
  Os  Os32  1  0.829877  0.659756  0.201518  1
  Os  Os33  1  0.170123  0.340244  0.798482  1
  Os  Os34  1  0.340244  0.170123  0.201518  1
  Os  Os35  1  0.659756  0.829877  0.798482  1
