# generated using pymatgen
data_Tb2Y2Al3(Ga5Ir2)3
_symmetry_space_group_name_H-M   'P 1'
_cell_length_a   7.57795803
_cell_length_b   7.57826359
_cell_length_c   9.51727102
_cell_angle_alpha   89.99361490
_cell_angle_beta   89.99265219
_cell_angle_gamma   119.71739933
_symmetry_Int_Tables_number   1
_chemical_formula_structural   Tb2Y2Al3(Ga5Ir2)3
_chemical_formula_sum   'Tb2 Y2 Al3 Ga15 Ir6'
_cell_volume   474.67313947
_cell_formula_units_Z   1
loop_
 _symmetry_equiv_pos_site_id
 _symmetry_equiv_pos_as_xyz
  1  'x, y, z'
loop_
 _atom_site_type_symbol
 _atom_site_label
 _atom_site_symmetry_multiplicity
 _atom_site_fract_x
 _atom_site_fract_y
 _atom_site_fract_z
 _atom_site_occupancy
  Tb  Tb0  1  0.000258  0.670230  0.249916  1
  Tb  Tb1  1  0.000473  0.330375  0.749167  1
  Y  Y2  1  0.670216  0.000239  0.249906  1
  Y  Y3  1  0.330386  0.000476  0.749187  1
  Al  Al4  1  0.664622  0.664644  0.447981  1
  Al  Al5  1  0.668234  0.668259  0.052209  1
  Al  Al6  1  0.332231  0.332205  0.948496  1
  Ga  Ga7  1  0.127697  0.127675  0.249347  1
  Ga  Ga8  1  0.872308  0.872334  0.749437  1
  Ga  Ga9  1  0.000065  0.335287  0.078994  1
  Ga  Ga10  1  0.000079  0.664937  0.920762  1
  Ga  Ga11  1  0.999404  0.664784  0.579251  1
  Ga  Ga12  1  0.335746  0.001462  0.418930  1
  Ga  Ga13  1  0.001447  0.335670  0.418918  1
  Ga  Ga14  1  0.664713  0.999394  0.579239  1
  Ga  Ga15  1  0.664873  0.000069  0.920770  1
  Ga  Ga16  1  0.335356  0.000083  0.078986  1
  Ga  Ga17  1  0.329252  0.329238  0.563762  1
  Ga  Ga18  1  0.346771  0.549802  0.249860  1
  Ga  Ga19  1  0.656912  0.451616  0.750208  1
  Ga  Ga20  1  0.549814  0.346807  0.249860  1
  Ga  Ga21  1  0.451603  0.656876  0.750208  1
  Ir  Ir22  1  0.668853  0.330539  0.999660  1
  Ir  Ir23  1  0.330542  0.668856  0.999675  1
  Ir  Ir24  1  0.330403  0.671854  0.499180  1
  Ir  Ir25  1  0.671849  0.330398  0.499195  1
  Ir  Ir26  1  0.000181  0.000179  0.999224  1
  Ir  Ir27  1  0.995709  0.995711  0.497673  1
