# generated using pymatgen
data_Be8VMoAu2
_symmetry_space_group_name_H-M   'P 1'
_cell_length_a   4.43814500
_cell_length_b   4.43814498
_cell_length_c   7.42235800
_cell_angle_alpha   90.00000000
_cell_angle_beta   90.00000000
_cell_angle_gamma   120.00000763
_symmetry_Int_Tables_number   1
_chemical_formula_structural   Be8VMoAu2
_chemical_formula_sum   'Be8 V1 Mo1 Au2'
_cell_volume   126.61217458
_cell_formula_units_Z   1
loop_
 _symmetry_equiv_pos_site_id
 _symmetry_equiv_pos_as_xyz
  1  'x, y, z'
loop_
 _atom_site_type_symbol
 _atom_site_label
 _atom_site_symmetry_multiplicity
 _atom_site_fract_x
 _atom_site_fract_y
 _atom_site_fract_z
 _atom_site_occupancy
  Be  Be0  1  0.000000  0.000000  0.500977  1
  Be  Be1  1  0.000000  0.000000  0.998555  1
  Be  Be2  1  0.833255  0.166745  0.240614  1
  Be  Be3  1  0.833255  0.666511  0.240614  1
  Be  Be4  1  0.333489  0.166745  0.240614  1
  Be  Be5  1  0.167003  0.832997  0.756372  1
  Be  Be6  1  0.167003  0.334007  0.756372  1
  Be  Be7  1  0.665993  0.832997  0.756372  1
  V  V8  1  0.666667  0.333333  0.953008  1
  Mo  Mo9  1  0.333333  0.666667  0.047495  1
  Au  Au10  1  0.333333  0.666667  0.421435  1
  Au  Au11  1  0.666667  0.333333  0.587572  1
