# generated using pymatgen
data_DyY3CoHg
_symmetry_space_group_name_H-M   'P 1'
_cell_length_a   9.50954924
_cell_length_b   9.50954895
_cell_length_c   9.50954800
_cell_angle_alpha   59.99999636
_cell_angle_beta   59.99999735
_cell_angle_gamma   59.99999925
_symmetry_Int_Tables_number   1
_chemical_formula_structural   DyY3CoHg
_chemical_formula_sum   'Dy4 Y12 Co4 Hg4'
_cell_volume   608.08557872
_cell_formula_units_Z   4
loop_
 _symmetry_equiv_pos_site_id
 _symmetry_equiv_pos_as_xyz
  1  'x, y, z'
loop_
 _atom_site_type_symbol
 _atom_site_label
 _atom_site_symmetry_multiplicity
 _atom_site_fract_x
 _atom_site_fract_y
 _atom_site_fract_z
 _atom_site_occupancy
  Dy  Dy0  1  0.597474  0.597474  0.597474  1
  Dy  Dy1  1  0.597474  0.597474  0.207578  1
  Dy  Dy2  1  0.597474  0.207578  0.597474  1
  Dy  Dy3  1  0.207578  0.597474  0.597474  1
  Y  Y4  1  0.060994  0.439006  0.439006  1
  Y  Y5  1  0.439006  0.060994  0.060994  1
  Y  Y6  1  0.439006  0.060994  0.439006  1
  Y  Y7  1  0.060994  0.439006  0.060994  1
  Y  Y8  1  0.439006  0.439006  0.060994  1
  Y  Y9  1  0.060994  0.060994  0.439006  1
  Y  Y10  1  0.189090  0.810910  0.810910  1
  Y  Y11  1  0.810910  0.189090  0.189090  1
  Y  Y12  1  0.810910  0.189090  0.810910  1
  Y  Y13  1  0.189090  0.810910  0.189090  1
  Y  Y14  1  0.810910  0.810910  0.189090  1
  Y  Y15  1  0.189090  0.189090  0.810910  1
  Co  Co16  1  0.391948  0.391948  0.391948  1
  Co  Co17  1  0.391948  0.391948  0.824157  1
  Co  Co18  1  0.391948  0.824157  0.391948  1
  Co  Co19  1  0.824157  0.391948  0.391948  1
  Hg  Hg20  1  0.833963  0.833963  0.833963  1
  Hg  Hg21  1  0.833963  0.833963  0.498108  1
  Hg  Hg22  1  0.833963  0.498108  0.833963  1
  Hg  Hg23  1  0.498108  0.833963  0.833963  1
