# generated using pymatgen
data_Tb8Al2IrPd
_symmetry_space_group_name_H-M   'P 1'
_cell_length_a   9.62377105
_cell_length_b   9.62377075
_cell_length_c   9.54199600
_cell_angle_alpha   60.28068808
_cell_angle_beta   60.28068907
_cell_angle_gamma   60.60528201
_symmetry_Int_Tables_number   1
_chemical_formula_structural   Tb8Al2IrPd
_chemical_formula_sum   'Tb16 Al4 Ir2 Pd2'
_cell_volume   630.38890846
_cell_formula_units_Z   2
loop_
 _symmetry_equiv_pos_site_id
 _symmetry_equiv_pos_as_xyz
  1  'x, y, z'
loop_
 _atom_site_type_symbol
 _atom_site_label
 _atom_site_symmetry_multiplicity
 _atom_site_fract_x
 _atom_site_fract_y
 _atom_site_fract_z
 _atom_site_occupancy
  Tb  Tb0  1  0.602623  0.602623  0.596583  1
  Tb  Tb1  1  0.602623  0.602623  0.198171  1
  Tb  Tb2  1  0.609570  0.183182  0.603625  1
  Tb  Tb3  1  0.183182  0.609570  0.603625  1
  Tb  Tb4  1  0.051939  0.446417  0.441720  1
  Tb  Tb5  1  0.446417  0.051939  0.059924  1
  Tb  Tb6  1  0.446417  0.051939  0.441720  1
  Tb  Tb7  1  0.051939  0.446417  0.059924  1
  Tb  Tb8  1  0.445313  0.445313  0.054687  1
  Tb  Tb9  1  0.057696  0.057696  0.442304  1
  Tb  Tb10  1  0.188904  0.817307  0.809277  1
  Tb  Tb11  1  0.817307  0.188904  0.184513  1
  Tb  Tb12  1  0.817307  0.188904  0.809277  1
  Tb  Tb13  1  0.188904  0.817307  0.184513  1
  Tb  Tb14  1  0.815140  0.815140  0.184860  1
  Tb  Tb15  1  0.186201  0.186201  0.813799  1
  Al  Al16  1  0.825756  0.825756  0.828343  1
  Al  Al17  1  0.825756  0.825756  0.520145  1
  Al  Al18  1  0.823373  0.521527  0.827550  1
  Al  Al19  1  0.521527  0.823373  0.827550  1
  Ir  Ir20  1  0.387679  0.822471  0.394925  1
  Ir  Ir21  1  0.822471  0.387679  0.394925  1
  Pd  Pd22  1  0.390980  0.390980  0.399262  1
  Pd  Pd23  1  0.390980  0.390980  0.818779  1
