# generated using pymatgen
data_TbEr2Th(GaPd2)4
_symmetry_space_group_name_H-M   'P 1'
_cell_length_a   5.66845738
_cell_length_b   7.18965400
_cell_length_c   7.40193136
_cell_angle_alpha   90.00000000
_cell_angle_beta   89.72042110
_cell_angle_gamma   90.00000000
_symmetry_Int_Tables_number   1
_chemical_formula_structural   TbEr2Th(GaPd2)4
_chemical_formula_sum   'Tb1 Er2 Th1 Ga4 Pd8'
_cell_volume   301.65654986
_cell_formula_units_Z   1
loop_
 _symmetry_equiv_pos_site_id
 _symmetry_equiv_pos_as_xyz
  1  'x, y, z'
loop_
 _atom_site_type_symbol
 _atom_site_label
 _atom_site_symmetry_multiplicity
 _atom_site_fract_x
 _atom_site_fract_y
 _atom_site_fract_z
 _atom_site_occupancy
  Tb  Tb0  1  0.852060  0.250000  0.467752  1
  Er  Er1  1  0.150395  0.750000  0.529454  1
  Er  Er2  1  0.653184  0.250000  0.968519  1
  Th  Th3  1  0.352030  0.750000  0.034028  1
  Ga  Ga4  1  0.650894  0.750000  0.392392  1
  Ga  Ga5  1  0.854077  0.750000  0.876904  1
  Ga  Ga6  1  0.354113  0.250000  0.617380  1
  Ga  Ga7  1  0.145852  0.250000  0.115318  1
  Pd  Pd8  1  0.911021  0.552526  0.182619  1
  Pd  Pd9  1  0.582978  0.949636  0.684167  1
  Pd  Pd10  1  0.086185  0.051251  0.816740  1
  Pd  Pd11  1  0.413514  0.448944  0.315602  1
  Pd  Pd12  1  0.086185  0.448749  0.816740  1
  Pd  Pd13  1  0.413514  0.051056  0.315602  1
  Pd  Pd14  1  0.911021  0.947474  0.182619  1
  Pd  Pd15  1  0.582978  0.550364  0.684167  1
