# generated using pymatgen
data_U4Al(ReSi)6
_symmetry_space_group_name_H-M   'P 1'
_cell_length_a   7.15427165
_cell_length_b   7.15427084
_cell_length_c   7.15427122
_cell_angle_alpha   108.93605723
_cell_angle_beta   108.93605817
_cell_angle_gamma   110.54693539
_symmetry_Int_Tables_number   1
_chemical_formula_structural   U4Al(ReSi)6
_chemical_formula_sum   'U4 Al1 Re6 Si6'
_cell_volume   281.81182781
_cell_formula_units_Z   1
loop_
 _symmetry_equiv_pos_site_id
 _symmetry_equiv_pos_as_xyz
  1  'x, y, z'
loop_
 _atom_site_type_symbol
 _atom_site_label
 _atom_site_symmetry_multiplicity
 _atom_site_fract_x
 _atom_site_fract_y
 _atom_site_fract_z
 _atom_site_occupancy
  U  U0  1  0.494011  0.505989  0.500000  1
  U  U1  1  0.005989  0.994011  0.500000  1
  U  U2  1  0.494011  0.994011  0.988023  1
  U  U3  1  0.005989  0.505989  0.011977  1
  Al  Al4  1  0.750000  0.250000  0.500000  1
  Re  Re5  1  0.504744  0.251802  0.747058  1
  Re  Re6  1  0.504744  0.757687  0.252942  1
  Re  Re7  1  0.242313  0.495256  0.747058  1
  Re  Re8  1  0.748198  0.495256  0.252942  1
  Re  Re9  1  0.250000  0.750000  0.500000  1
  Re  Re10  1  0.000000  0.000000  0.000000  1
  Si  Si11  1  0.313054  0.313054  0.000000  1
  Si  Si12  1  0.998617  0.303903  0.305285  1
  Si  Si13  1  0.998617  0.693332  0.694715  1
  Si  Si14  1  0.696097  0.001383  0.694715  1
  Si  Si15  1  0.306668  0.001383  0.305285  1
  Si  Si16  1  0.686946  0.686946  0.000000  1
