# generated using pymatgen
data_Nb(Hg4Cl3)2
_symmetry_space_group_name_H-M   'P 1'
_cell_length_a   7.79345202
_cell_length_b   9.11582748
_cell_length_c   15.33121441
_cell_angle_alpha   94.68998862
_cell_angle_beta   90.90718706
_cell_angle_gamma   98.02088512
_symmetry_Int_Tables_number   1
_chemical_formula_structural   Nb(Hg4Cl3)2
_chemical_formula_sum   'Nb2 Hg16 Cl12'
_cell_volume   1074.51110855
_cell_formula_units_Z   2
loop_
 _symmetry_equiv_pos_site_id
 _symmetry_equiv_pos_as_xyz
  1  'x, y, z'
loop_
 _atom_site_type_symbol
 _atom_site_label
 _atom_site_symmetry_multiplicity
 _atom_site_fract_x
 _atom_site_fract_y
 _atom_site_fract_z
 _atom_site_occupancy
  Nb  Nb0  1  0.000000  0.000000  0.000000  1
  Nb  Nb1  1  0.000000  0.000000  0.500000  1
  Hg  Hg2  1  0.533996  0.316165  0.075460  1
  Hg  Hg3  1  0.314443  0.661305  0.093870  1
  Hg  Hg4  1  0.427743  0.304735  0.258083  1
  Hg  Hg5  1  0.148002  0.566129  0.250578  1
  Hg  Hg6  1  0.665688  0.741071  0.204297  1
  Hg  Hg7  1  0.868985  0.423396  0.346951  1
  Hg  Hg8  1  0.452165  0.690975  0.372840  1
  Hg  Hg9  1  0.557061  0.317091  0.440523  1
  Hg  Hg10  1  0.442940  0.682908  0.559477  1
  Hg  Hg11  1  0.547835  0.309025  0.627160  1
  Hg  Hg12  1  0.131014  0.576604  0.653049  1
  Hg  Hg13  1  0.334311  0.258930  0.795703  1
  Hg  Hg14  1  0.851999  0.433872  0.749422  1
  Hg  Hg15  1  0.572256  0.695264  0.741917  1
  Hg  Hg16  1  0.685557  0.338695  0.906129  1
  Hg  Hg17  1  0.466004  0.683835  0.924539  1
  Cl  Cl18  1  0.086210  0.259488  0.982103  1
  Cl  Cl19  1  0.249673  0.999487  0.093406  1
  Cl  Cl20  1  0.834893  0.063629  0.123885  1
  Cl  Cl21  1  0.142296  0.952488  0.366583  1
  Cl  Cl22  1  0.735646  0.010379  0.419516  1
  Cl  Cl23  1  0.083116  0.262658  0.491709  1
  Cl  Cl24  1  0.916883  0.737343  0.508291  1
  Cl  Cl25  1  0.264353  0.989620  0.580483  1
  Cl  Cl26  1  0.857703  0.047512  0.633417  1
  Cl  Cl27  1  0.165108  0.936371  0.876115  1
  Cl  Cl28  1  0.750328  0.000512  0.906594  1
  Cl  Cl29  1  0.913789  0.740512  0.017897  1
