# generated using pymatgen
data_Gd3Dy2(FeB3)2
_symmetry_space_group_name_H-M   'P 1'
_cell_length_a   5.42242661
_cell_length_b   5.42250975
_cell_length_c   8.32116776
_cell_angle_alpha   70.99584269
_cell_angle_beta   70.97847109
_cell_angle_gamma   60.00042507
_symmetry_Int_Tables_number   1
_chemical_formula_structural   Gd3Dy2(FeB3)2
_chemical_formula_sum   'Gd3 Dy2 Fe2 B6'
_cell_volume   196.32616583
_cell_formula_units_Z   1
loop_
 _symmetry_equiv_pos_site_id
 _symmetry_equiv_pos_as_xyz
  1  'x, y, z'
loop_
 _atom_site_type_symbol
 _atom_site_label
 _atom_site_symmetry_multiplicity
 _atom_site_fract_x
 _atom_site_fract_y
 _atom_site_fract_z
 _atom_site_occupancy
  Gd  Gd0  1  0.000212  0.000259  0.999317  1
  Gd  Gd1  1  0.252148  0.251834  0.243991  1
  Gd  Gd2  1  0.747834  0.748117  0.755991  1
  Dy  Dy3  1  0.417227  0.417388  0.748005  1
  Dy  Dy4  1  0.582756  0.582586  0.251944  1
  Fe  Fe5  1  0.117418  0.117652  0.647483  1
  Fe  Fe6  1  0.882615  0.882383  0.352511  1
  B  B7  1  0.167390  0.832484  0.500132  1
  B  B8  1  0.832510  0.499974  0.500139  1
  B  B9  1  0.499999  0.167437  0.500105  1
  B  B10  1  0.167384  0.500018  0.500105  1
  B  B11  1  0.500006  0.832456  0.500133  1
  B  B12  1  0.832502  0.167414  0.500144  1
