# generated using pymatgen
data_Tm2Lu10OsRh3
_symmetry_space_group_name_H-M   'P 1'
_cell_length_a   7.11433624
_cell_length_b   8.98418500
_cell_length_c   6.27190000
_cell_angle_alpha   90.00000000
_cell_angle_beta   90.09720659
_cell_angle_gamma   90.00000000
_symmetry_Int_Tables_number   1
_chemical_formula_structural   Tm2Lu10OsRh3
_chemical_formula_sum   'Tm2 Lu10 Os1 Rh3'
_cell_volume   400.87740046
_cell_formula_units_Z   1
loop_
 _symmetry_equiv_pos_site_id
 _symmetry_equiv_pos_as_xyz
  1  'x, y, z'
loop_
 _atom_site_type_symbol
 _atom_site_label
 _atom_site_symmetry_multiplicity
 _atom_site_fract_x
 _atom_site_fract_y
 _atom_site_fract_z
 _atom_site_occupancy
  Tm  Tm0  1  0.535998  0.250000  0.880227  1
  Tm  Tm1  1  0.033912  0.250000  0.622793  1
  Lu  Lu2  1  0.677337  0.055796  0.330270  1
  Lu  Lu3  1  0.178767  0.439522  0.173876  1
  Lu  Lu4  1  0.322941  0.562206  0.674436  1
  Lu  Lu5  1  0.818888  0.936615  0.821635  1
  Lu  Lu6  1  0.322941  0.937794  0.674436  1
  Lu  Lu7  1  0.818888  0.563385  0.821635  1
  Lu  Lu8  1  0.677337  0.444204  0.330270  1
  Lu  Lu9  1  0.178767  0.060478  0.173876  1
  Lu  Lu10  1  0.464969  0.750000  0.119705  1
  Lu  Lu11  1  0.966915  0.750000  0.379113  1
  Os  Os12  1  0.612259  0.750000  0.532761  1
  Rh  Rh13  1  0.890342  0.250000  0.041649  1
  Rh  Rh14  1  0.389031  0.250000  0.460911  1
  Rh  Rh15  1  0.110706  0.750000  0.962408  1
