# generated using pymatgen
data_Tb4Er2Al24ZnOs7
_symmetry_space_group_name_H-M   'P 1'
_cell_length_a   8.85430000
_cell_length_b   8.86991765
_cell_length_c   9.54736634
_cell_angle_alpha   89.99542223
_cell_angle_beta   90.00000000
_cell_angle_gamma   119.94176468
_symmetry_Int_Tables_number   1
_chemical_formula_structural   Tb4Er2Al24ZnOs7
_chemical_formula_sum   'Tb4 Er2 Al24 Zn1 Os7'
_cell_volume   649.74446715
_cell_formula_units_Z   1
loop_
 _symmetry_equiv_pos_site_id
 _symmetry_equiv_pos_as_xyz
  1  'x, y, z'
loop_
 _atom_site_type_symbol
 _atom_site_label
 _atom_site_symmetry_multiplicity
 _atom_site_fract_x
 _atom_site_fract_y
 _atom_site_fract_z
 _atom_site_occupancy
  Tb  Tb0  1  0.614564  0.806379  0.247290  1
  Tb  Tb1  1  0.385436  0.193621  0.752710  1
  Tb  Tb2  1  0.191814  0.806379  0.247290  1
  Tb  Tb3  1  0.808186  0.193621  0.752710  1
  Er  Er4  1  0.195275  0.390550  0.253967  1
  Er  Er5  1  0.804725  0.609450  0.746033  1
  Al  Al6  1  0.329249  0.658500  0.021276  1
  Al  Al7  1  0.670751  0.341500  0.978724  1
  Al  Al8  1  0.666124  0.332248  0.517913  1
  Al  Al9  1  0.333876  0.667752  0.482087  1
  Al  Al10  1  0.162814  0.325625  0.575168  1
  Al  Al11  1  0.837186  0.674375  0.424832  1
  Al  Al12  1  0.673838  0.836083  0.573576  1
  Al  Al13  1  0.836606  0.673214  0.075299  1
  Al  Al14  1  0.326162  0.163917  0.426424  1
  Al  Al15  1  0.163394  0.326786  0.924701  1
  Al  Al16  1  0.162246  0.836083  0.573576  1
  Al  Al17  1  0.322750  0.172211  0.081581  1
  Al  Al18  1  0.837754  0.163917  0.426424  1
  Al  Al19  1  0.677250  0.827789  0.918419  1
  Al  Al20  1  0.849460  0.172211  0.081581  1
  Al  Al21  1  0.150540  0.827789  0.918419  1
  Al  Al22  1  0.564021  0.128042  0.254593  1
  Al  Al23  1  0.435979  0.871958  0.745407  1
  Al  Al24  1  0.879322  0.440130  0.249287  1
  Al  Al25  1  0.120678  0.559870  0.750713  1
  Al  Al26  1  0.560807  0.440130  0.249287  1
  Al  Al27  1  0.439193  0.559870  0.750713  1
  Al  Al28  1  0.999795  0.999589  0.250546  1
  Al  Al29  1  0.000205  0.000411  0.749454  1
  Zn  Zn30  1  0.500000  0.000000  0.000000  1
  Os  Os31  1  0.000000  0.500000  0.000000  1
  Os  Os32  1  0.500000  0.000000  0.500000  1
  Os  Os33  1  0.500000  0.500000  0.000000  1
  Os  Os34  1  0.000000  0.500000  0.500000  1
  Os  Os35  1  0.500000  0.500000  0.500000  1
  Os  Os36  1  0.000000  0.000000  0.000000  1
  Os  Os37  1  0.000000  0.000000  0.500000  1
