# generated using pymatgen
data_Eu4Hf3ZrO12
_symmetry_space_group_name_H-M   'P 1'
_cell_length_a   5.75906204
_cell_length_b   5.85947850
_cell_length_c   8.19673572
_cell_angle_alpha   89.95336224
_cell_angle_beta   90.01133885
_cell_angle_gamma   90.00828272
_symmetry_Int_Tables_number   1
_chemical_formula_structural   Eu4Hf3ZrO12
_chemical_formula_sum   'Eu4 Hf3 Zr1 O12'
_cell_volume   276.59956845
_cell_formula_units_Z   1
loop_
 _symmetry_equiv_pos_site_id
 _symmetry_equiv_pos_as_xyz
  1  'x, y, z'
loop_
 _atom_site_type_symbol
 _atom_site_label
 _atom_site_symmetry_multiplicity
 _atom_site_fract_x
 _atom_site_fract_y
 _atom_site_fract_z
 _atom_site_occupancy
  Eu  Eu0  1  0.011187  0.541912  0.250149  1
  Eu  Eu1  1  0.511468  0.957665  0.749758  1
  Eu  Eu2  1  0.488524  0.042282  0.250271  1
  Eu  Eu3  1  0.988869  0.458101  0.749855  1
  Hf  Hf4  1  0.999975  0.000002  0.999941  1
  Hf  Hf5  1  0.500012  0.500025  0.500075  1
  Hf  Hf6  1  0.999986  0.000008  0.500071  1
  Zr  Zr7  1  0.500017  0.500009  0.999914  1
  O  O8  1  0.586475  0.475910  0.252987  1
  O  O9  1  0.915548  0.977157  0.250453  1
  O  O10  1  0.413495  0.524188  0.747018  1
  O  O11  1  0.084476  0.022790  0.749546  1
  O  O12  1  0.206703  0.286816  0.046089  1
  O  O13  1  0.286379  0.785824  0.454628  1
  O  O14  1  0.786523  0.714636  0.544933  1
  O  O15  1  0.712189  0.208279  0.953582  1
  O  O16  1  0.793313  0.713163  0.953861  1
  O  O17  1  0.713582  0.214167  0.545396  1
  O  O18  1  0.213502  0.285349  0.455095  1
  O  O19  1  0.287778  0.791719  0.046377  1
