# generated using pymatgen
data_Ca3Tm4Sn23Ir6
_symmetry_space_group_name_H-M   'P 1'
_cell_length_a   9.85012599
_cell_length_b   9.85992274
_cell_length_c   10.12127700
_cell_angle_alpha   90.00000000
_cell_angle_beta   89.95538548
_cell_angle_gamma   120.03290519
_symmetry_Int_Tables_number   1
_chemical_formula_structural   Ca3Tm4Sn23Ir6
_chemical_formula_sum   'Ca3 Tm4 Sn23 Ir6'
_cell_volume   851.01451480
_cell_formula_units_Z   1
loop_
 _symmetry_equiv_pos_site_id
 _symmetry_equiv_pos_as_xyz
  1  'x, y, z'
loop_
 _atom_site_type_symbol
 _atom_site_label
 _atom_site_symmetry_multiplicity
 _atom_site_fract_x
 _atom_site_fract_y
 _atom_site_fract_z
 _atom_site_occupancy
  Ca  Ca0  1  0.000000  0.000000  0.000000  1
  Ca  Ca1  1  0.039604  0.519802  0.305073  1
  Ca  Ca2  1  0.960396  0.480198  0.694927  1
  Tm  Tm3  1  0.483508  0.516744  0.303628  1
  Tm  Tm4  1  0.516492  0.483256  0.696372  1
  Tm  Tm5  1  0.483508  0.966764  0.303628  1
  Tm  Tm6  1  0.516492  0.033236  0.696372  1
  Sn  Sn7  1  0.352347  0.000863  0.001164  1
  Sn  Sn8  1  0.647653  0.999137  0.998836  1
  Sn  Sn9  1  0.000000  0.350070  0.000000  1
  Sn  Sn10  1  0.000000  0.649930  0.000000  1
  Sn  Sn11  1  0.647653  0.648516  0.998836  1
  Sn  Sn12  1  0.352347  0.351484  0.001164  1
  Sn  Sn13  1  0.331403  0.665702  0.826223  1
  Sn  Sn14  1  0.668597  0.334298  0.173777  1
  Sn  Sn15  1  0.000000  0.000000  0.500000  1
  Sn  Sn16  1  0.775318  0.222074  0.458075  1
  Sn  Sn17  1  0.224682  0.777926  0.541925  1
  Sn  Sn18  1  0.775318  0.553243  0.458075  1
  Sn  Sn19  1  0.224682  0.446757  0.541925  1
  Sn  Sn20  1  0.447882  0.223941  0.459900  1
  Sn  Sn21  1  0.552118  0.776059  0.540100  1
  Sn  Sn22  1  0.339797  0.669900  0.124960  1
  Sn  Sn23  1  0.660203  0.330100  0.875040  1
  Sn  Sn24  1  0.117213  0.882352  0.284280  1
  Sn  Sn25  1  0.882787  0.117648  0.715720  1
  Sn  Sn26  1  0.117213  0.234862  0.284280  1
  Sn  Sn27  1  0.882787  0.765138  0.715720  1
  Sn  Sn28  1  0.762534  0.881267  0.285895  1
  Sn  Sn29  1  0.237466  0.118733  0.714105  1
  Ir  Ir30  1  0.826378  0.166122  0.200692  1
  Ir  Ir31  1  0.173622  0.833878  0.799308  1
  Ir  Ir32  1  0.826378  0.660256  0.200692  1
  Ir  Ir33  1  0.173622  0.339744  0.799308  1
  Ir  Ir34  1  0.343046  0.171523  0.203251  1
  Ir  Ir35  1  0.656954  0.828477  0.796749  1
