# generated using pymatgen
data_Y9Lu(Pb3Cl)2
_symmetry_space_group_name_H-M   'P 1'
_cell_length_a   9.21033700
_cell_length_b   9.21033754
_cell_length_c   6.63451500
_cell_angle_alpha   90.00000000
_cell_angle_beta   90.00000000
_cell_angle_gamma   120.00001602
_symmetry_Int_Tables_number   1
_chemical_formula_structural   Y9Lu(Pb3Cl)2
_chemical_formula_sum   'Y9 Lu1 Pb6 Cl2'
_cell_volume   487.40593085
_cell_formula_units_Z   1
loop_
 _symmetry_equiv_pos_site_id
 _symmetry_equiv_pos_as_xyz
  1  'x, y, z'
loop_
 _atom_site_type_symbol
 _atom_site_label
 _atom_site_symmetry_multiplicity
 _atom_site_fract_x
 _atom_site_fract_y
 _atom_site_fract_z
 _atom_site_occupancy
  Y  Y0  1  0.260802  0.999867  0.250243  1
  Y  Y1  1  0.739066  0.999867  0.749757  1
  Y  Y2  1  0.000133  0.260934  0.250243  1
  Y  Y3  1  0.000133  0.739198  0.749757  1
  Y  Y4  1  0.739066  0.739198  0.250243  1
  Y  Y5  1  0.260802  0.260934  0.749757  1
  Y  Y6  1  0.333333  0.666667  0.000000  1
  Y  Y7  1  0.666667  0.333333  0.000000  1
  Y  Y8  1  0.666667  0.333333  0.500000  1
  Lu  Lu9  1  0.333333  0.666667  0.500000  1
  Pb  Pb10  1  0.609788  0.999334  0.250579  1
  Pb  Pb11  1  0.389545  0.999334  0.749421  1
  Pb  Pb12  1  0.000666  0.610455  0.250579  1
  Pb  Pb13  1  0.000666  0.390212  0.749421  1
  Pb  Pb14  1  0.389545  0.390212  0.250579  1
  Pb  Pb15  1  0.609788  0.610455  0.749421  1
  Cl  Cl16  1  0.000000  0.000000  0.000000  1
  Cl  Cl17  1  0.000000  0.000000  0.500000  1
