# generated using pymatgen
data_Ho9LuSi5P
_symmetry_space_group_name_H-M   'P 1'
_cell_length_a   8.36699804
_cell_length_b   8.37154869
_cell_length_c   6.25558025
_cell_angle_alpha   89.96804614
_cell_angle_beta   90.01024482
_cell_angle_gamma   119.98472150
_symmetry_Int_Tables_number   1
_chemical_formula_structural   Ho9LuSi5P
_chemical_formula_sum   'Ho9 Lu1 Si5 P1'
_cell_volume   379.52507769
_cell_formula_units_Z   1
loop_
 _symmetry_equiv_pos_site_id
 _symmetry_equiv_pos_as_xyz
  1  'x, y, z'
loop_
 _atom_site_type_symbol
 _atom_site_label
 _atom_site_symmetry_multiplicity
 _atom_site_fract_x
 _atom_site_fract_y
 _atom_site_fract_z
 _atom_site_occupancy
  Ho  Ho0  1  0.000841  0.756706  0.749402  1
  Ho  Ho1  1  0.001431  0.244560  0.250471  1
  Ho  Ho2  1  0.756534  0.755731  0.250522  1
  Ho  Ho3  1  0.754640  0.999793  0.749573  1
  Ho  Ho4  1  0.243980  0.243582  0.749615  1
  Ho  Ho5  1  0.243814  0.999745  0.250392  1
  Ho  Ho6  1  0.666283  0.332439  0.999448  1
  Ho  Ho7  1  0.666088  0.332213  0.500711  1
  Ho  Ho8  1  0.333852  0.667590  0.999898  1
  Lu  Lu9  1  0.333831  0.667273  0.499696  1
  Si  Si10  1  0.394179  0.394663  0.251308  1
  Si  Si11  1  0.001937  0.606634  0.251451  1
  Si  Si12  1  0.001368  0.394579  0.748652  1
  Si  Si13  1  0.605724  0.606843  0.748705  1
  Si  Si14  1  0.606264  0.998730  0.251304  1
  P  P15  1  0.389234  0.998920  0.748852  1
