# generated using pymatgen
data_Y2PtRh3
_symmetry_space_group_name_H-M   'P 1'
_cell_length_a   5.37591596
_cell_length_b   5.37591549
_cell_length_c   5.37591570
_cell_angle_alpha   60.07432499
_cell_angle_beta   60.07432472
_cell_angle_gamma   60.07432730
_symmetry_Int_Tables_number   1
_chemical_formula_structural   Y2PtRh3
_chemical_formula_sum   'Y2 Pt1 Rh3'
_cell_volume   110.04574316
_cell_formula_units_Z   1
loop_
 _symmetry_equiv_pos_site_id
 _symmetry_equiv_pos_as_xyz
  1  'x, y, z'
loop_
 _atom_site_type_symbol
 _atom_site_label
 _atom_site_symmetry_multiplicity
 _atom_site_fract_x
 _atom_site_fract_y
 _atom_site_fract_z
 _atom_site_occupancy
  Y  Y0  1  0.000390  0.000390  0.000390  1
  Y  Y1  1  0.249610  0.249610  0.249610  1
  Pt  Pt2  1  0.625000  0.625000  0.625000  1
  Rh  Rh3  1  0.125000  0.625000  0.625000  1
  Rh  Rh4  1  0.625000  0.625000  0.125000  1
  Rh  Rh5  1  0.625000  0.125000  0.625000  1
