# generated using pymatgen
data_Np6Sb8PtAu5
_symmetry_space_group_name_H-M   'P 1'
_cell_length_a   8.67604532
_cell_length_b   8.67604516
_cell_length_c   8.67604400
_cell_angle_alpha   109.50438996
_cell_angle_beta   109.40490083
_cell_angle_gamma   109.50439147
_symmetry_Int_Tables_number   1
_chemical_formula_structural   Np6Sb8PtAu5
_chemical_formula_sum   'Np6 Sb8 Pt1 Au5'
_cell_volume   502.73953001
_cell_formula_units_Z   1
loop_
 _symmetry_equiv_pos_site_id
 _symmetry_equiv_pos_as_xyz
  1  'x, y, z'
loop_
 _atom_site_type_symbol
 _atom_site_label
 _atom_site_symmetry_multiplicity
 _atom_site_fract_x
 _atom_site_fract_y
 _atom_site_fract_z
 _atom_site_occupancy
  Np  Np0  1  0.625000  0.750000  0.375000  1
  Np  Np1  1  0.742712  0.372659  0.626372  1
  Np  Np2  1  0.253712  0.127341  0.870051  1
  Np  Np3  1  0.373628  0.616339  0.746288  1
  Np  Np4  1  0.129949  0.883661  0.257288  1
  Np  Np5  1  0.875000  0.250000  0.125000  1
  Sb  Sb6  1  0.178652  0.500151  0.001168  1
  Sb  Sb7  1  0.320902  0.320839  0.326896  1
  Sb  Sb8  1  0.006057  0.179161  0.500063  1
  Sb  Sb9  1  0.821498  0.822515  0.821348  1
  Sb  Sb10  1  0.499937  0.005994  0.679098  1
  Sb  Sb11  1  0.998832  0.677485  0.498983  1
  Sb  Sb12  1  0.501017  0.999849  0.178502  1
  Sb  Sb13  1  0.673104  0.494006  0.993943  1
  Pt  Pt14  1  0.375000  0.250000  0.625000  1
  Au  Au15  1  0.874885  0.124962  0.748083  1
  Au  Au16  1  0.251917  0.626802  0.376879  1
  Au  Au17  1  0.750076  0.873198  0.125115  1
  Au  Au18  1  0.125000  0.750000  0.875000  1
  Au  Au19  1  0.623121  0.375038  0.249924  1
