# generated using pymatgen
data_CoAsI18
_symmetry_space_group_name_H-M   'P 1'
_cell_length_a   10.00041416
_cell_length_b   10.03583686
_cell_length_c   9.98300592
_cell_angle_alpha   94.03234063
_cell_angle_beta   94.11111417
_cell_angle_gamma   93.97935217
_symmetry_Int_Tables_number   1
_chemical_formula_structural   CoAsI18
_chemical_formula_sum   'Co1 As1 I18'
_cell_volume   994.07395652
_cell_formula_units_Z   1
loop_
 _symmetry_equiv_pos_site_id
 _symmetry_equiv_pos_as_xyz
  1  'x, y, z'
loop_
 _atom_site_type_symbol
 _atom_site_label
 _atom_site_symmetry_multiplicity
 _atom_site_fract_x
 _atom_site_fract_y
 _atom_site_fract_z
 _atom_site_occupancy
  Co  Co0  1  0.000000  0.000000  0.000000  1
  As  As1  1  0.500000  0.500000  0.500000  1
  I  I2  1  0.789267  0.482093  0.522927  1
  I  I3  1  0.522570  0.788077  0.481663  1
  I  I4  1  0.482597  0.523591  0.789738  1
  I  I5  1  0.210733  0.517907  0.477073  1
  I  I6  1  0.477430  0.211923  0.518337  1
  I  I7  1  0.517403  0.476409  0.210262  1
  I  I8  1  0.900083  0.362938  0.765891  1
  I  I9  1  0.765392  0.898702  0.363443  1
  I  I10  1  0.363486  0.765708  0.900015  1
  I  I11  1  0.099917  0.637062  0.234109  1
  I  I12  1  0.234608  0.101298  0.636557  1
  I  I13  1  0.636514  0.234292  0.099985  1
  I  I14  1  0.997846  0.967464  0.737839  1
  I  I15  1  0.738342  0.998178  0.966313  1
  I  I16  1  0.966259  0.739313  0.997043  1
  I  I17  1  0.002154  0.032536  0.262161  1
  I  I18  1  0.261658  0.001822  0.033687  1
  I  I19  1  0.033741  0.260687  0.002957  1
