# generated using pymatgen
data_CaAl6Cu7
_symmetry_space_group_name_H-M   'P 1'
_cell_length_a   8.39988725
_cell_length_b   8.39988541
_cell_length_c   8.39988645
_cell_angle_alpha   121.95695817
_cell_angle_beta   118.54824486
_cell_angle_gamma   89.58857884
_symmetry_Int_Tables_number   1
_chemical_formula_structural   CaAl6Cu7
_chemical_formula_sum   'Ca2 Al12 Cu14'
_cell_volume   417.01024478
_cell_formula_units_Z   2
loop_
 _symmetry_equiv_pos_site_id
 _symmetry_equiv_pos_as_xyz
  1  'x, y, z'
loop_
 _atom_site_type_symbol
 _atom_site_label
 _atom_site_symmetry_multiplicity
 _atom_site_fract_x
 _atom_site_fract_y
 _atom_site_fract_z
 _atom_site_occupancy
  Ca  Ca0  1  0.250000  0.750000  0.500000  1
  Ca  Ca1  1  0.750000  0.250000  0.500000  1
  Al  Al2  1  0.555330  0.546834  0.358205  1
  Al  Al3  1  0.444670  0.453166  0.641795  1
  Al  Al4  1  0.188629  0.197125  0.641795  1
  Al  Al5  1  0.311371  0.953166  0.008495  1
  Al  Al6  1  0.811371  0.802875  0.358205  1
  Al  Al7  1  0.688629  0.046834  0.991505  1
  Al  Al8  1  0.944670  0.302875  0.991505  1
  Al  Al9  1  0.055330  0.697125  0.008495  1
  Al  Al10  1  0.052760  0.309879  0.362639  1
  Al  Al11  1  0.947240  0.690121  0.637361  1
  Al  Al12  1  0.552760  0.190121  0.742880  1
  Al  Al13  1  0.447240  0.809879  0.257120  1
  Cu  Cu14  1  0.285061  0.298323  0.231997  1
  Cu  Cu15  1  0.714939  0.701677  0.768003  1
  Cu  Cu16  1  0.066326  0.053064  0.768003  1
  Cu  Cu17  1  0.433674  0.201677  0.986738  1
  Cu  Cu18  1  0.933674  0.946936  0.231997  1
  Cu  Cu19  1  0.566326  0.798323  0.013262  1
  Cu  Cu20  1  0.214939  0.446936  0.013262  1
  Cu  Cu21  1  0.785061  0.553064  0.986738  1
  Cu  Cu22  1  0.000000  0.000000  0.000000  1
  Cu  Cu23  1  0.500000  0.500000  0.000000  1
  Cu  Cu24  1  0.286371  0.065684  0.352056  1
  Cu  Cu25  1  0.713629  0.934316  0.647944  1
  Cu  Cu26  1  0.786371  0.434316  0.220686  1
  Cu  Cu27  1  0.213629  0.565684  0.779314  1
