# generated using pymatgen
data_Tm16Al3ZnRh4
_symmetry_space_group_name_H-M   'P 1'
_cell_length_a   9.37502087
_cell_length_b   9.37502122
_cell_length_c   9.37502019
_cell_angle_alpha   60.05556650
_cell_angle_beta   60.05556006
_cell_angle_gamma   60.05557019
_symmetry_Int_Tables_number   1
_chemical_formula_structural   Tm16Al3ZnRh4
_chemical_formula_sum   'Tm16 Al3 Zn1 Rh4'
_cell_volume   583.37566542
_cell_formula_units_Z   1
loop_
 _symmetry_equiv_pos_site_id
 _symmetry_equiv_pos_as_xyz
  1  'x, y, z'
loop_
 _atom_site_type_symbol
 _atom_site_label
 _atom_site_symmetry_multiplicity
 _atom_site_fract_x
 _atom_site_fract_y
 _atom_site_fract_z
 _atom_site_occupancy
  Tm  Tm0  1  0.064014  0.064014  0.436397  1
  Tm  Tm1  1  0.435929  0.065752  0.435929  1
  Tm  Tm2  1  0.064014  0.436397  0.064014  1
  Tm  Tm3  1  0.060710  0.646183  0.646183  1
  Tm  Tm4  1  0.435929  0.435929  0.065752  1
  Tm  Tm5  1  0.646183  0.060710  0.646183  1
  Tm  Tm6  1  0.193340  0.807238  0.193340  1
  Tm  Tm7  1  0.193340  0.193340  0.807238  1
  Tm  Tm8  1  0.805191  0.805191  0.194886  1
  Tm  Tm9  1  0.436397  0.064014  0.064014  1
  Tm  Tm10  1  0.807238  0.193340  0.193340  1
  Tm  Tm11  1  0.065752  0.435929  0.435929  1
  Tm  Tm12  1  0.805191  0.194886  0.805191  1
  Tm  Tm13  1  0.194886  0.805191  0.805191  1
  Tm  Tm14  1  0.646183  0.646183  0.060710  1
  Tm  Tm15  1  0.647478  0.647478  0.647478  1
  Al  Al16  1  0.734150  0.422106  0.422106  1
  Al  Al17  1  0.422106  0.734150  0.422106  1
  Al  Al18  1  0.422106  0.422106  0.734150  1
  Zn  Zn19  1  0.419232  0.419232  0.419232  1
  Rh  Rh20  1  0.857890  0.857890  0.427872  1
  Rh  Rh21  1  0.856979  0.856979  0.856979  1
  Rh  Rh22  1  0.427872  0.857890  0.857890  1
  Rh  Rh23  1  0.857890  0.427872  0.857890  1
