# generated using pymatgen
data_Sr2LaY(Ir2O7)2
_symmetry_space_group_name_H-M   'P 1'
_cell_length_a   7.40172250
_cell_length_b   7.39229088
_cell_length_c   7.40847815
_cell_angle_alpha   60.07225292
_cell_angle_beta   59.99192197
_cell_angle_gamma   60.04213512
_symmetry_Int_Tables_number   1
_chemical_formula_structural   Sr2LaY(Ir2O7)2
_chemical_formula_sum   'Sr2 La1 Y1 Ir4 O14'
_cell_volume   286.86273107
_cell_formula_units_Z   1
loop_
 _symmetry_equiv_pos_site_id
 _symmetry_equiv_pos_as_xyz
  1  'x, y, z'
loop_
 _atom_site_type_symbol
 _atom_site_label
 _atom_site_symmetry_multiplicity
 _atom_site_fract_x
 _atom_site_fract_y
 _atom_site_fract_z
 _atom_site_occupancy
  Sr  Sr0  1  0.125000  0.625000  0.125000  1
  Sr  Sr1  1  0.125000  0.125000  0.125000  1
  La  La2  1  0.625000  0.125000  0.125000  1
  Y  Y3  1  0.125000  0.125000  0.625000  1
  Ir  Ir4  1  0.125000  0.625000  0.625000  1
  Ir  Ir5  1  0.625000  0.125000  0.625000  1
  Ir  Ir6  1  0.625000  0.625000  0.125000  1
  Ir  Ir7  1  0.625000  0.625000  0.625000  1
  O  O8  1  0.696819  0.701610  0.301983  1
  O  O9  1  0.299080  0.298604  0.688582  1
  O  O10  1  0.710183  0.298012  0.693793  1
  O  O11  1  0.301494  0.697218  0.304071  1
  O  O12  1  0.299080  0.713734  0.688582  1
  O  O13  1  0.696819  0.299588  0.301983  1
  O  O14  1  0.553181  0.548390  0.948017  1
  O  O15  1  0.950920  0.951396  0.561418  1
  O  O16  1  0.539817  0.951988  0.556207  1
  O  O17  1  0.948506  0.552782  0.945929  1
  O  O18  1  0.950920  0.536266  0.561418  1
  O  O19  1  0.553181  0.950412  0.948017  1
  O  O20  1  0.254213  0.237664  0.270458  1
  O  O21  1  0.995787  0.012336  0.979542  1
