# generated using pymatgen
data_Dy16Al4CoRu3
_symmetry_space_group_name_H-M   'P 1'
_cell_length_a   9.49464909
_cell_length_b   9.49464856
_cell_length_c   9.49464838
_cell_angle_alpha   59.84884978
_cell_angle_beta   59.84885340
_cell_angle_gamma   59.84885012
_symmetry_Int_Tables_number   1
_chemical_formula_structural   Dy16Al4CoRu3
_chemical_formula_sum   'Dy16 Al4 Co1 Ru3'
_cell_volume   603.15570099
_cell_formula_units_Z   1
loop_
 _symmetry_equiv_pos_site_id
 _symmetry_equiv_pos_as_xyz
  1  'x, y, z'
loop_
 _atom_site_type_symbol
 _atom_site_label
 _atom_site_symmetry_multiplicity
 _atom_site_fract_x
 _atom_site_fract_y
 _atom_site_fract_z
 _atom_site_occupancy
  Dy  Dy0  1  0.602022  0.602022  0.602022  1
  Dy  Dy1  1  0.598383  0.598383  0.201434  1
  Dy  Dy2  1  0.598383  0.201434  0.598383  1
  Dy  Dy3  1  0.201434  0.598383  0.598383  1
  Dy  Dy4  1  0.059447  0.443566  0.443566  1
  Dy  Dy5  1  0.442301  0.054249  0.054249  1
  Dy  Dy6  1  0.443566  0.059447  0.443566  1
  Dy  Dy7  1  0.054249  0.442301  0.054249  1
  Dy  Dy8  1  0.443566  0.443566  0.059447  1
  Dy  Dy9  1  0.054249  0.054249  0.442301  1
  Dy  Dy10  1  0.189210  0.809608  0.809608  1
  Dy  Dy11  1  0.811374  0.188923  0.188923  1
  Dy  Dy12  1  0.809608  0.189210  0.809608  1
  Dy  Dy13  1  0.188923  0.811374  0.188923  1
  Dy  Dy14  1  0.809608  0.809608  0.189210  1
  Dy  Dy15  1  0.188923  0.188923  0.811374  1
  Al  Al16  1  0.825976  0.825976  0.825976  1
  Al  Al17  1  0.827570  0.827570  0.519048  1
  Al  Al18  1  0.827570  0.519048  0.827570  1
  Al  Al19  1  0.519048  0.827570  0.827570  1
  Co  Co20  1  0.389247  0.389247  0.389247  1
  Ru  Ru21  1  0.391560  0.391560  0.832224  1
  Ru  Ru22  1  0.391560  0.832224  0.391560  1
  Ru  Ru23  1  0.832224  0.391560  0.391560  1
