# generated using pymatgen
data_LiZn3Pt4
_symmetry_space_group_name_H-M   'P 1'
_cell_length_a   5.72585585
_cell_length_b   5.36365760
_cell_length_c   5.36365864
_cell_angle_alpha   64.52027318
_cell_angle_beta   57.73985650
_cell_angle_gamma   57.73986507
_symmetry_Int_Tables_number   1
_chemical_formula_structural   LiZn3Pt4
_chemical_formula_sum   'Li1 Zn3 Pt4'
_cell_volume   115.33814516
_cell_formula_units_Z   1
loop_
 _symmetry_equiv_pos_site_id
 _symmetry_equiv_pos_as_xyz
  1  'x, y, z'
loop_
 _atom_site_type_symbol
 _atom_site_label
 _atom_site_symmetry_multiplicity
 _atom_site_fract_x
 _atom_site_fract_y
 _atom_site_fract_z
 _atom_site_occupancy
  Li  Li0  1  0.500000  0.500000  0.500000  1
  Zn  Zn1  1  0.000000  0.000000  0.000000  1
  Zn  Zn2  1  0.500000  0.000000  0.000000  1
  Zn  Zn3  1  0.000000  0.500000  0.500000  1
  Pt  Pt4  1  0.000000  0.500000  0.000000  1
  Pt  Pt5  1  0.500000  0.000000  0.500000  1
  Pt  Pt6  1  0.000000  0.000000  0.500000  1
  Pt  Pt7  1  0.500000  0.500000  0.000000  1
