# generated using pymatgen
data_La2Lu3Tl4
_symmetry_space_group_name_H-M   'P 1'
_cell_length_a   8.36083800
_cell_length_b   8.36083800
_cell_length_c   15.32205100
_cell_angle_alpha   90.00000000
_cell_angle_beta   90.00000000
_cell_angle_gamma   90.00000000
_symmetry_Int_Tables_number   1
_chemical_formula_structural   La2Lu3Tl4
_chemical_formula_sum   'La8 Lu12 Tl16'
_cell_volume   1071.06670910
_cell_formula_units_Z   4
loop_
 _symmetry_equiv_pos_site_id
 _symmetry_equiv_pos_as_xyz
  1  'x, y, z'
loop_
 _atom_site_type_symbol
 _atom_site_label
 _atom_site_symmetry_multiplicity
 _atom_site_fract_x
 _atom_site_fract_y
 _atom_site_fract_z
 _atom_site_occupancy
  La  La0  1  0.001203  0.648545  0.033515  1
  La  La1  1  0.998797  0.351455  0.533515  1
  La  La2  1  0.648545  0.001203  0.966485  1
  La  La3  1  0.148545  0.498797  0.783515  1
  La  La4  1  0.851455  0.501203  0.283515  1
  La  La5  1  0.498797  0.148545  0.216485  1
  La  La6  1  0.501203  0.851455  0.716485  1
  La  La7  1  0.351455  0.998797  0.466485  1
  Lu  Lu8  1  0.338736  0.503125  0.376402  1
  Lu  Lu9  1  0.838736  0.996875  0.373598  1
  Lu  Lu10  1  0.003125  0.161264  0.126402  1
  Lu  Lu11  1  0.996875  0.838736  0.626402  1
  Lu  Lu12  1  0.661264  0.496875  0.876402  1
  Lu  Lu13  1  0.503125  0.338736  0.623598  1
  Lu  Lu14  1  0.496875  0.661264  0.123598  1
  Lu  Lu15  1  0.161264  0.003125  0.873598  1
  Lu  Lu16  1  0.672245  0.672245  0.500000  1
  Lu  Lu17  1  0.827755  0.172245  0.750000  1
  Lu  Lu18  1  0.172245  0.827755  0.250000  1
  Lu  Lu19  1  0.327755  0.327755  0.000000  1
  Tl  Tl20  1  0.045827  0.713535  0.433246  1
  Tl  Tl21  1  0.954173  0.286465  0.933246  1
  Tl  Tl22  1  0.713535  0.045827  0.566754  1
  Tl  Tl23  1  0.213536  0.454173  0.183246  1
  Tl  Tl24  1  0.786465  0.545827  0.683246  1
  Tl  Tl25  1  0.454173  0.213536  0.816754  1
  Tl  Tl26  1  0.545827  0.786465  0.316754  1
  Tl  Tl27  1  0.286465  0.954173  0.066754  1
  Tl  Tl28  1  0.863574  0.801413  0.825010  1
  Tl  Tl29  1  0.136426  0.198587  0.325010  1
  Tl  Tl30  1  0.801413  0.863574  0.174990  1
  Tl  Tl31  1  0.301413  0.636426  0.575010  1
  Tl  Tl32  1  0.698587  0.363574  0.075010  1
  Tl  Tl33  1  0.636426  0.301413  0.424990  1
  Tl  Tl34  1  0.363574  0.698587  0.924990  1
  Tl  Tl35  1  0.198587  0.136426  0.674990  1
