# generated using pymatgen
data_Ti8Co8Si13P
_symmetry_space_group_name_H-M   'P 1'
_cell_length_a   9.12487656
_cell_length_b   9.12487693
_cell_length_c   9.16139240
_cell_angle_alpha   94.18968158
_cell_angle_beta   94.18967730
_cell_angle_gamma   148.57221716
_symmetry_Int_Tables_number   1
_chemical_formula_structural   Ti8Co8Si13P
_chemical_formula_sum   'Ti8 Co8 Si13 P1'
_cell_volume   383.00146491
_cell_formula_units_Z   1
loop_
 _symmetry_equiv_pos_site_id
 _symmetry_equiv_pos_as_xyz
  1  'x, y, z'
loop_
 _atom_site_type_symbol
 _atom_site_label
 _atom_site_symmetry_multiplicity
 _atom_site_fract_x
 _atom_site_fract_y
 _atom_site_fract_z
 _atom_site_occupancy
  Ti  Ti0  1  0.135743  0.135743  0.271486  1
  Ti  Ti1  1  0.864134  0.864134  0.728269  1
  Ti  Ti2  1  0.864921  0.134994  0.999914  1
  Ti  Ti3  1  0.134994  0.864921  0.999914  1
  Ti  Ti4  1  0.499831  0.692185  0.192016  1
  Ti  Ti5  1  0.497135  0.307231  0.804366  1
  Ti  Ti6  1  0.307231  0.497135  0.804366  1
  Ti  Ti7  1  0.692185  0.499831  0.192016  1
  Co  Co8  1  0.399649  0.899649  0.799299  1
  Co  Co9  1  0.100490  0.600490  0.200980  1
  Co  Co10  1  0.101327  0.904770  0.502063  1
  Co  Co11  1  0.400736  0.597293  0.502063  1
  Co  Co12  1  0.597293  0.400736  0.502063  1
  Co  Co13  1  0.904770  0.101327  0.502063  1
  Co  Co14  1  0.899649  0.399649  0.799299  1
  Co  Co15  1  0.600490  0.100490  0.200980  1
  Si  Si16  1  0.703211  0.703211  0.406422  1
  Si  Si17  1  0.705238  0.294278  0.999516  1
  Si  Si18  1  0.294278  0.705238  0.999516  1
  Si  Si19  1  0.000268  0.293245  0.293514  1
  Si  Si20  1  0.000185  0.706882  0.707067  1
  Si  Si21  1  0.706882  0.000185  0.707067  1
  Si  Si22  1  0.293245  0.000268  0.293514  1
  Si  Si23  1  0.501142  0.905015  0.406157  1
  Si  Si24  1  0.500342  0.093812  0.594154  1
  Si  Si25  1  0.093812  0.500342  0.594154  1
  Si  Si26  1  0.905015  0.501142  0.406157  1
  Si  Si27  1  0.748740  0.748740  0.999693  1
  Si  Si28  1  0.250953  0.250953  0.999693  1
  P  P29  1  0.296109  0.296109  0.592219  1
