# generated using pymatgen
data_HgPt2S3
_symmetry_space_group_name_H-M   'P 1'
_cell_length_a   7.20587900
_cell_length_b   7.20587902
_cell_length_c   5.39647700
_cell_angle_alpha   90.00000000
_cell_angle_beta   90.00000000
_cell_angle_gamma   120.00000452
_symmetry_Int_Tables_number   1
_chemical_formula_structural   HgPt2S3
_chemical_formula_sum   'Hg2 Pt4 S6'
_cell_volume   242.66932033
_cell_formula_units_Z   2
loop_
 _symmetry_equiv_pos_site_id
 _symmetry_equiv_pos_as_xyz
  1  'x, y, z'
loop_
 _atom_site_type_symbol
 _atom_site_label
 _atom_site_symmetry_multiplicity
 _atom_site_fract_x
 _atom_site_fract_y
 _atom_site_fract_z
 _atom_site_occupancy
  Hg  Hg0  1  0.333333  0.666667  0.622862  1
  Hg  Hg1  1  0.666667  0.333333  0.377138  1
  Pt  Pt2  1  0.000000  0.000000  0.000000  1
  Pt  Pt3  1  0.500000  0.500000  0.000000  1
  Pt  Pt4  1  0.000000  0.500000  0.000000  1
  Pt  Pt5  1  0.500000  0.000000  0.000000  1
  S  S6  1  0.827076  0.654151  0.781948  1
  S  S7  1  0.827076  0.172924  0.781948  1
  S  S8  1  0.345849  0.172924  0.781948  1
  S  S9  1  0.172924  0.345849  0.218052  1
  S  S10  1  0.172924  0.827076  0.218052  1
  S  S11  1  0.654151  0.827076  0.218052  1
