# generated using pymatgen
data_PrGa3Ag
_symmetry_space_group_name_H-M   'P 1'
_cell_length_a   4.34970401
_cell_length_b   4.34970346
_cell_length_c   6.24426370
_cell_angle_alpha   69.61687370
_cell_angle_beta   69.61688120
_cell_angle_gamma   90.00000875
_symmetry_Int_Tables_number   1
_chemical_formula_structural   PrGa3Ag
_chemical_formula_sum   'Pr1 Ga3 Ag1'
_cell_volume   102.81523245
_cell_formula_units_Z   1
loop_
 _symmetry_equiv_pos_site_id
 _symmetry_equiv_pos_as_xyz
  1  'x, y, z'
loop_
 _atom_site_type_symbol
 _atom_site_label
 _atom_site_symmetry_multiplicity
 _atom_site_fract_x
 _atom_site_fract_y
 _atom_site_fract_z
 _atom_site_occupancy
  Pr  Pr0  1  0.000000  0.000000  0.000000  1
  Ga  Ga1  1  0.386610  0.386610  0.226779  1
  Ga  Ga2  1  0.613390  0.613390  0.773221  1
  Ga  Ga3  1  0.250000  0.750000  0.500000  1
  Ag  Ag4  1  0.750000  0.250000  0.500000  1
