# generated using pymatgen
data_Eu3YSb3
_symmetry_space_group_name_H-M   'P 1'
_cell_length_a   8.31661621
_cell_length_b   8.31845789
_cell_length_c   8.41351999
_cell_angle_alpha   109.54470679
_cell_angle_beta   109.54119792
_cell_angle_gamma   108.98805515
_symmetry_Int_Tables_number   1
_chemical_formula_structural   Eu3YSb3
_chemical_formula_sum   'Eu6 Y2 Sb6'
_cell_volume   449.92756197
_cell_formula_units_Z   2
loop_
 _symmetry_equiv_pos_site_id
 _symmetry_equiv_pos_as_xyz
  1  'x, y, z'
loop_
 _atom_site_type_symbol
 _atom_site_label
 _atom_site_symmetry_multiplicity
 _atom_site_fract_x
 _atom_site_fract_y
 _atom_site_fract_z
 _atom_site_occupancy
  Eu  Eu0  1  0.500796  0.003587  0.357802  1
  Eu  Eu1  1  0.996684  0.355630  0.496273  1
  Eu  Eu2  1  0.503604  0.000834  0.857854  1
  Eu  Eu3  1  0.642909  0.642776  0.646197  1
  Eu  Eu4  1  0.142795  0.142924  0.146212  1
  Eu  Eu5  1  0.855649  0.496669  0.996238  1
  Y  Y6  1  0.999509  0.858330  0.498886  1
  Y  Y7  1  0.358344  0.499518  0.998903  1
  Sb  Sb8  1  0.746599  0.865564  0.131347  1
  Sb  Sb9  1  0.365568  0.246590  0.631343  1
  Sb  Sb10  1  0.247830  0.627820  0.370699  1
  Sb  Sb11  1  0.887543  0.124372  0.748779  1
  Sb  Sb12  1  0.624369  0.387546  0.248780  1
  Sb  Sb13  1  0.127801  0.747840  0.870688  1
