# generated using pymatgen
data_Ho13Er7(Ir5Pt)2
_symmetry_space_group_name_H-M   'P 1'
_cell_length_a   10.87871923
_cell_length_b   10.87874305
_cell_length_c   6.31673300
_cell_angle_alpha   90.00318692
_cell_angle_beta   89.94914912
_cell_angle_gamma   89.99004194
_symmetry_Int_Tables_number   1
_chemical_formula_structural   Ho13Er7(Ir5Pt)2
_chemical_formula_sum   'Ho13 Er7 Ir10 Pt2'
_cell_volume   747.56477484
_cell_formula_units_Z   1
loop_
 _symmetry_equiv_pos_site_id
 _symmetry_equiv_pos_as_xyz
  1  'x, y, z'
loop_
 _atom_site_type_symbol
 _atom_site_label
 _atom_site_symmetry_multiplicity
 _atom_site_fract_x
 _atom_site_fract_y
 _atom_site_fract_z
 _atom_site_occupancy
  Ho  Ho0  1  0.290958  0.088171  0.375653  1
  Ho  Ho1  1  0.290981  0.911816  0.875614  1
  Ho  Ho2  1  0.705865  0.089909  0.873864  1
  Ho  Ho3  1  0.705844  0.910247  0.373956  1
  Ho  Ho4  1  0.584587  0.790645  0.877931  1
  Ho  Ho5  1  0.584585  0.209322  0.377996  1
  Ho  Ho6  1  0.411051  0.791190  0.377063  1
  Ho  Ho7  1  0.411050  0.208819  0.877068  1
  Ho  Ho8  1  0.208986  0.411726  0.622687  1
  Ho  Ho9  1  0.209028  0.588199  0.122587  1
  Ho  Ho10  1  0.790808  0.414487  0.123073  1
  Ho  Ho11  1  0.790779  0.585313  0.623149  1
  Ho  Ho12  1  0.913724  0.707387  0.126729  1
  Er  Er13  1  0.913816  0.292903  0.626566  1
  Er  Er14  1  0.091121  0.706884  0.622790  1
  Er  Er15  1  0.090984  0.293078  0.122669  1
  Er  Er16  1  0.002812  0.999658  0.500021  1
  Er  Er17  1  0.002794  0.000450  0.000020  1
  Er  Er18  1  0.499838  0.499563  0.000017  1
  Er  Er19  1  0.499814  0.500463  0.499995  1
  Ir  Ir20  1  0.152216  0.153796  0.750432  1
  Ir  Ir21  1  0.152435  0.846282  0.250522  1
  Ir  Ir22  1  0.654892  0.346061  0.749435  1
  Ir  Ir23  1  0.654621  0.653836  0.249545  1
  Ir  Ir24  1  0.346682  0.346493  0.250196  1
  Ir  Ir25  1  0.346645  0.653533  0.750135  1
  Ir  Ir26  1  0.500704  0.999863  0.123421  1
  Ir  Ir27  1  0.500708  0.000191  0.623313  1
  Ir  Ir28  1  0.999681  0.499909  0.876703  1
  Ir  Ir29  1  0.999699  0.499650  0.377059  1
  Pt  Pt30  1  0.846221  0.153316  0.250147  1
  Pt  Pt31  1  0.846071  0.846841  0.749643  1
