# generated using pymatgen
data_SrS23
_symmetry_space_group_name_H-M   'P 1'
_cell_length_a   5.73225243
_cell_length_b   9.69328241
_cell_length_c   14.74140900
_cell_angle_alpha   97.85669128
_cell_angle_beta   84.99238169
_cell_angle_gamma   95.28655196
_symmetry_Int_Tables_number   1
_chemical_formula_structural   SrS23
_chemical_formula_sum   'Sr1 S23'
_cell_volume   805.63668741
_cell_formula_units_Z   1
loop_
 _symmetry_equiv_pos_site_id
 _symmetry_equiv_pos_as_xyz
  1  'x, y, z'
loop_
 _atom_site_type_symbol
 _atom_site_label
 _atom_site_symmetry_multiplicity
 _atom_site_fract_x
 _atom_site_fract_y
 _atom_site_fract_z
 _atom_site_occupancy
  Sr  Sr0  1  0.608354  0.346487  0.395700  1
  S  S1  1  0.444749  0.812978  0.410264  1
  S  S2  1  0.959433  0.310711  0.134719  1
  S  S3  1  0.838561  0.181110  0.500359  1
  S  S4  1  0.335689  0.755625  0.537534  1
  S  S5  1  0.134583  0.268913  0.007185  1
  S  S6  1  0.828957  0.720998  0.011679  1
  S  S7  1  0.129580  0.398655  0.367051  1
  S  S8  1  0.579492  0.639844  0.330397  1
  S  S9  1  0.806232  0.126883  0.179358  1
  S  S10  1  0.232355  0.908430  0.137536  1
  S  S11  1  0.781027  0.610207  0.611542  1
  S  S12  1  0.364353  0.358949  0.595482  1
  S  S13  1  0.187170  0.868505  0.855478  1
  S  S14  1  0.753667  0.081356  0.870817  1
  S  S15  1  0.053942  0.713137  0.112340  1
  S  S16  1  0.610413  0.792670  0.621312  1
  S  S17  1  0.497324  0.160401  0.551982  1
  S  S18  1  0.013644  0.681926  0.885137  1
  S  S19  1  0.913479  0.278893  0.905501  1
  S  S20  1  0.315956  0.508049  0.268295  1
  S  S21  1  0.051124  0.030817  0.240500  1
  S  S22  1  0.577594  0.476547  0.689485  1
  S  S23  1  0.982322  0.967907  0.780348  1
