# generated using pymatgen
data_DyTa3(NbN2)6
_symmetry_space_group_name_H-M   'P 1'
_cell_length_a   5.30578700
_cell_length_b   5.30578647
_cell_length_c   10.53382600
_cell_angle_alpha   90.00000000
_cell_angle_beta   90.00000000
_cell_angle_gamma   119.99999710
_symmetry_Int_Tables_number   1
_chemical_formula_structural   DyTa3(NbN2)6
_chemical_formula_sum   'Dy1 Ta3 Nb6 N12'
_cell_volume   256.81262118
_cell_formula_units_Z   1
loop_
 _symmetry_equiv_pos_site_id
 _symmetry_equiv_pos_as_xyz
  1  'x, y, z'
loop_
 _atom_site_type_symbol
 _atom_site_label
 _atom_site_symmetry_multiplicity
 _atom_site_fract_x
 _atom_site_fract_y
 _atom_site_fract_z
 _atom_site_occupancy
  Dy  Dy0  1  0.666667  0.333333  0.000000  1
  Ta  Ta1  1  0.333333  0.666667  0.000000  1
  Ta  Ta2  1  0.333333  0.666667  0.500000  1
  Ta  Ta3  1  0.666667  0.333333  0.500000  1
  Nb  Nb4  1  0.676812  0.675286  0.745010  1
  Nb  Nb5  1  0.324714  0.001525  0.745010  1
  Nb  Nb6  1  0.998475  0.323188  0.745010  1
  Nb  Nb7  1  0.324714  0.323188  0.254990  1
  Nb  Nb8  1  0.676812  0.001525  0.254990  1
  Nb  Nb9  1  0.998475  0.675286  0.254990  1
  N  N10  1  0.657352  0.657340  0.383778  1
  N  N11  1  0.342660  0.000012  0.383778  1
  N  N12  1  0.999988  0.342648  0.383778  1
  N  N13  1  0.342660  0.342648  0.616222  1
  N  N14  1  0.657352  0.000012  0.616222  1
  N  N15  1  0.999988  0.657340  0.616222  1
  N  N16  1  0.333366  0.353025  0.870267  1
  N  N17  1  0.646975  0.980341  0.870267  1
  N  N18  1  0.019659  0.666634  0.870267  1
  N  N19  1  0.646975  0.666634  0.129733  1
  N  N20  1  0.333366  0.980341  0.129733  1
  N  N21  1  0.019659  0.353025  0.129733  1
