# generated using pymatgen
data_Yb2Pr3Si4
_symmetry_space_group_name_H-M   'P 1'
_cell_length_a   7.65363296
_cell_length_b   15.31871400
_cell_length_c   7.99310291
_cell_angle_alpha   90.00000000
_cell_angle_beta   90.05594686
_cell_angle_gamma   90.00000000
_symmetry_Int_Tables_number   1
_chemical_formula_structural   Yb2Pr3Si4
_chemical_formula_sum   'Yb8 Pr12 Si16'
_cell_volume   937.14142638
_cell_formula_units_Z   4
loop_
 _symmetry_equiv_pos_site_id
 _symmetry_equiv_pos_as_xyz
  1  'x, y, z'
loop_
 _atom_site_type_symbol
 _atom_site_label
 _atom_site_symmetry_multiplicity
 _atom_site_fract_x
 _atom_site_fract_y
 _atom_site_fract_z
 _atom_site_occupancy
  Yb  Yb0  1  0.367459  0.249999  0.003515  1
  Yb  Yb1  1  0.857909  0.249999  0.499311  1
  Yb  Yb2  1  0.133629  0.750000  0.517771  1
  Yb  Yb3  1  0.689423  0.121887  0.820289  1
  Yb  Yb4  1  0.689423  0.378112  0.820289  1
  Yb  Yb5  1  0.962966  0.597727  0.813904  1
  Yb  Yb6  1  0.962966  0.902273  0.813904  1
  Yb  Yb7  1  0.646437  0.750000  0.983846  1
  Pr  Pr8  1  0.035897  0.103255  0.187222  1
  Pr  Pr9  1  0.035897  0.396745  0.187222  1
  Pr  Pr10  1  0.310995  0.622871  0.178194  1
  Pr  Pr11  1  0.310995  0.877128  0.178194  1
  Pr  Pr12  1  0.811964  0.622259  0.317988  1
  Pr  Pr13  1  0.811964  0.877740  0.317988  1
  Pr  Pr14  1  0.540037  0.102785  0.312457  1
  Pr  Pr15  1  0.540037  0.397215  0.312457  1
  Pr  Pr16  1  0.461789  0.602368  0.688589  1
  Pr  Pr17  1  0.461789  0.897632  0.688589  1
  Pr  Pr18  1  0.186319  0.122216  0.683871  1
  Pr  Pr19  1  0.186319  0.377783  0.683871  1
  Si  Si20  1  0.637068  0.537655  0.028491  1
  Si  Si21  1  0.637068  0.962345  0.028491  1
  Si  Si22  1  0.019412  0.750000  0.093070  1
  Si  Si23  1  0.752044  0.249999  0.124310  1
  Si  Si24  1  0.252107  0.249999  0.380290  1
  Si  Si25  1  0.514982  0.750000  0.406730  1
  Si  Si26  1  0.138931  0.536123  0.468446  1
  Si  Si27  1  0.138931  0.963877  0.468446  1
  Si  Si28  1  0.861127  0.040251  0.524027  1
  Si  Si29  1  0.861127  0.459749  0.524027  1
  Si  Si30  1  0.477942  0.249999  0.593882  1
  Si  Si31  1  0.743198  0.750000  0.614697  1
  Si  Si32  1  0.252565  0.750000  0.880084  1
  Si  Si33  1  0.981193  0.249999  0.908352  1
  Si  Si34  1  0.364049  0.039543  0.973593  1
  Si  Si35  1  0.364049  0.460457  0.973593  1
