# generated using pymatgen
data_Ac2Ge2Os2C
_symmetry_space_group_name_H-M   'P 1'
_cell_length_a   6.17788423
_cell_length_b   6.17788282
_cell_length_c   7.32696900
_cell_angle_alpha   125.32955456
_cell_angle_beta   125.32954524
_cell_angle_gamma   41.16995155
_symmetry_Int_Tables_number   1
_chemical_formula_structural   Ac2Ge2Os2C
_chemical_formula_sum   'Ac2 Ge2 Os2 C1'
_cell_volume   144.76621319
_cell_formula_units_Z   1
loop_
 _symmetry_equiv_pos_site_id
 _symmetry_equiv_pos_as_xyz
  1  'x, y, z'
loop_
 _atom_site_type_symbol
 _atom_site_label
 _atom_site_symmetry_multiplicity
 _atom_site_fract_x
 _atom_site_fract_y
 _atom_site_fract_z
 _atom_site_occupancy
  Ac  Ac0  1  0.561266  0.561266  0.303597  1
  Ac  Ac1  1  0.438734  0.438734  0.696403  1
  Ge  Ge2  1  0.826534  0.826534  0.270748  1
  Ge  Ge3  1  0.173467  0.173467  0.729252  1
  Os  Os4  1  0.193661  0.193661  0.089246  1
  Os  Os5  1  0.806339  0.806339  0.910753  1
  C  C6  1  0.000000  0.000000  0.000000  1
