# generated using pymatgen
data_Y3ErV4F28
_symmetry_space_group_name_H-M   'P 1'
_cell_length_a   5.52031613
_cell_length_b   8.82560848
_cell_length_c   11.79930338
_cell_angle_alpha   63.58391160
_cell_angle_beta   90.02352543
_cell_angle_gamma   90.01623047
_symmetry_Int_Tables_number   1
_chemical_formula_structural   Y3ErV4F28
_chemical_formula_sum   'Y3 Er1 V4 F28'
_cell_volume   514.84044136
_cell_formula_units_Z   1
loop_
 _symmetry_equiv_pos_site_id
 _symmetry_equiv_pos_as_xyz
  1  'x, y, z'
loop_
 _atom_site_type_symbol
 _atom_site_label
 _atom_site_symmetry_multiplicity
 _atom_site_fract_x
 _atom_site_fract_y
 _atom_site_fract_z
 _atom_site_occupancy
  Y  Y0  1  0.758008  0.806111  0.771667  1
  Y  Y1  1  0.258001  0.192923  0.728669  1
  Y  Y2  1  0.242100  0.190970  0.229152  1
  Er  Er3  1  0.741722  0.805875  0.271754  1
  V  V4  1  0.753596  0.272444  0.954666  1
  V  V5  1  0.253847  0.726815  0.544521  1
  V  V6  1  0.245661  0.726788  0.047307  1
  V  V7  1  0.746015  0.274684  0.453480  1
  F  F8  1  0.451129  0.705792  0.926507  1
  F  F9  1  0.950719  0.295205  0.574676  1
  F  F10  1  0.548937  0.294209  0.075298  1
  F  F11  1  0.046609  0.706017  0.424206  1
  F  F12  1  0.463581  0.285875  0.543794  1
  F  F13  1  0.964060  0.715205  0.956501  1
  F  F14  1  0.536223  0.715773  0.453449  1
  F  F15  1  0.036207  0.284413  0.044727  1
  F  F16  1  0.766779  0.505171  0.862348  1
  F  F17  1  0.267514  0.494788  0.637080  1
  F  F18  1  0.233304  0.494699  0.139135  1
  F  F19  1  0.734362  0.507432  0.361503  1
  F  F20  1  0.756047  0.043340  0.044667  1
  F  F21  1  0.256226  0.956409  0.454589  1
  F  F22  1  0.243726  0.956172  0.956640  1
  F  F23  1  0.743480  0.045296  0.543667  1
  F  F24  1  0.980301  0.731323  0.640762  1
  F  F25  1  0.479128  0.268853  0.858712  1
  F  F26  1  0.019836  0.268628  0.358011  1
  F  F27  1  0.519390  0.732155  0.143796  1
  F  F28  1  0.039746  0.749069  0.170278  1
  F  F29  1  0.542686  0.253283  0.329855  1
  F  F30  1  0.956725  0.252062  0.830485  1
  F  F31  1  0.457796  0.747938  0.668321  1
  F  F32  1  0.428396  0.972007  0.232398  1
  F  F33  1  0.923346  0.023000  0.267382  1
  F  F34  1  0.577451  0.026772  0.768123  1
  F  F35  1  0.077341  0.972508  0.731878  1
