# generated using pymatgen
data_LiTm7(Co3Sn11)2
_symmetry_space_group_name_H-M   'P 1'
_cell_length_a   9.61368100
_cell_length_b   9.61367991
_cell_length_c   9.95909500
_cell_angle_alpha   90.00000000
_cell_angle_beta   90.00000000
_cell_angle_gamma   120.00000031
_symmetry_Int_Tables_number   1
_chemical_formula_structural   LiTm7(Co3Sn11)2
_chemical_formula_sum   'Li1 Tm7 Co6 Sn22'
_cell_volume   797.13131560
_cell_formula_units_Z   1
loop_
 _symmetry_equiv_pos_site_id
 _symmetry_equiv_pos_as_xyz
  1  'x, y, z'
loop_
 _atom_site_type_symbol
 _atom_site_label
 _atom_site_symmetry_multiplicity
 _atom_site_fract_x
 _atom_site_fract_y
 _atom_site_fract_z
 _atom_site_occupancy
  Li  Li0  1  0.000000  0.000000  0.500000  1
  Tm  Tm1  1  0.479969  0.520031  0.306962  1
  Tm  Tm2  1  0.520031  0.479969  0.693038  1
  Tm  Tm3  1  0.479969  0.959939  0.306962  1
  Tm  Tm4  1  0.520031  0.040061  0.693038  1
  Tm  Tm5  1  0.040061  0.520031  0.306962  1
  Tm  Tm6  1  0.959939  0.479969  0.693038  1
  Tm  Tm7  1  0.000000  0.000000  0.000000  1
  Co  Co8  1  0.831305  0.168695  0.197054  1
  Co  Co9  1  0.168695  0.831305  0.802946  1
  Co  Co10  1  0.831305  0.662612  0.197054  1
  Co  Co11  1  0.168695  0.337388  0.802946  1
  Co  Co12  1  0.337388  0.168695  0.197054  1
  Co  Co13  1  0.662612  0.831305  0.802946  1
  Sn  Sn14  1  0.115272  0.884728  0.273614  1
  Sn  Sn15  1  0.884728  0.115272  0.726386  1
  Sn  Sn16  1  0.115272  0.230546  0.273614  1
  Sn  Sn17  1  0.884728  0.769454  0.726386  1
  Sn  Sn18  1  0.769454  0.884728  0.273614  1
  Sn  Sn19  1  0.230546  0.115272  0.726386  1
  Sn  Sn20  1  0.783360  0.216640  0.454485  1
  Sn  Sn21  1  0.216640  0.783360  0.545515  1
  Sn  Sn22  1  0.783360  0.566720  0.454485  1
  Sn  Sn23  1  0.216640  0.433280  0.545515  1
  Sn  Sn24  1  0.433280  0.216640  0.454485  1
  Sn  Sn25  1  0.566720  0.783360  0.545515  1
  Sn  Sn26  1  0.346035  0.000000  0.000000  1
  Sn  Sn27  1  0.653965  0.000000  0.000000  1
  Sn  Sn28  1  0.000000  0.346035  0.000000  1
  Sn  Sn29  1  0.000000  0.653965  0.000000  1
  Sn  Sn30  1  0.653965  0.653965  0.000000  1
  Sn  Sn31  1  0.346035  0.346035  0.000000  1
  Sn  Sn32  1  0.333333  0.666667  0.124033  1
  Sn  Sn33  1  0.666667  0.333333  0.875967  1
  Sn  Sn34  1  0.333333  0.666667  0.818452  1
  Sn  Sn35  1  0.666667  0.333333  0.181548  1
