# generated using pymatgen
data_K3Ac(NbS4)2
_symmetry_space_group_name_H-M   'P 1'
_cell_length_a   9.11590177
_cell_length_b   10.58414348
_cell_length_c   11.51730118
_cell_angle_alpha   107.15493092
_cell_angle_beta   101.78680542
_cell_angle_gamma   114.59315161
_symmetry_Int_Tables_number   1
_chemical_formula_structural   K3Ac(NbS4)2
_chemical_formula_sum   'K6 Ac2 Nb4 S16'
_cell_volume   894.47576921
_cell_formula_units_Z   2
loop_
 _symmetry_equiv_pos_site_id
 _symmetry_equiv_pos_as_xyz
  1  'x, y, z'
loop_
 _atom_site_type_symbol
 _atom_site_label
 _atom_site_symmetry_multiplicity
 _atom_site_fract_x
 _atom_site_fract_y
 _atom_site_fract_z
 _atom_site_occupancy
  K  K0  1  0.500001  0.500000  0.000000  1
  K  K1  1  0.000000  0.500001  0.000000  1
  K  K2  1  0.254550  0.004295  0.008614  1
  K  K3  1  0.492111  0.741959  0.483400  1
  K  K4  1  0.507889  0.258040  0.516602  1
  K  K5  1  0.745451  0.995706  0.991386  1
  Ac  Ac6  1  0.989977  0.240008  0.480004  1
  Ac  Ac7  1  0.010024  0.759992  0.519997  1
  Nb  Nb8  1  0.010664  0.902281  0.247004  1
  Nb  Nb9  1  0.736388  0.344759  0.247010  1
  Nb  Nb10  1  0.263613  0.655242  0.752991  1
  Nb  Nb11  1  0.989337  0.097719  0.752996  1
  S  S12  1  0.882353  0.754076  0.027015  1
  S  S13  1  0.644711  0.272969  0.027044  1
  S  S14  1  0.144387  0.156442  0.284202  1
  S  S15  1  0.639854  0.127784  0.284201  1
  S  S16  1  0.811004  0.867750  0.345551  1
  S  S17  1  0.034552  0.477873  0.345570  1
  S  S18  1  0.210609  0.853322  0.349504  1
  S  S19  1  0.638943  0.496257  0.349541  1
  S  S20  1  0.361057  0.503743  0.650458  1
  S  S21  1  0.789390  0.146677  0.650496  1
  S  S22  1  0.965449  0.522127  0.654430  1
  S  S23  1  0.188996  0.132249  0.654448  1
  S  S24  1  0.360143  0.872216  0.715799  1
  S  S25  1  0.855613  0.843557  0.715797  1
  S  S26  1  0.355290  0.727031  0.972957  1
  S  S27  1  0.117646  0.245924  0.972985  1
