# generated using pymatgen
data_SmTm2Th(AsPt)4
_symmetry_space_group_name_H-M   'P 1'
_cell_length_a   4.29174500
_cell_length_b   4.29174421
_cell_length_c   15.61072500
_cell_angle_alpha   90.00000000
_cell_angle_beta   90.00000000
_cell_angle_gamma   120.00001377
_symmetry_Int_Tables_number   1
_chemical_formula_structural   SmTm2Th(AsPt)4
_chemical_formula_sum   'Sm1 Tm2 Th1 As4 Pt4'
_cell_volume   249.01263550
_cell_formula_units_Z   1
loop_
 _symmetry_equiv_pos_site_id
 _symmetry_equiv_pos_as_xyz
  1  'x, y, z'
loop_
 _atom_site_type_symbol
 _atom_site_label
 _atom_site_symmetry_multiplicity
 _atom_site_fract_x
 _atom_site_fract_y
 _atom_site_fract_z
 _atom_site_occupancy
  Sm  Sm0  1  0.000000  0.000000  0.500000  1
  Tm  Tm1  1  0.000000  0.000000  0.253039  1
  Tm  Tm2  1  0.000000  0.000000  0.746961  1
  Th  Th3  1  0.000000  0.000000  0.000000  1
  As  As4  1  0.333333  0.666667  0.882915  1
  As  As5  1  0.666667  0.333333  0.117085  1
  As  As6  1  0.666667  0.333333  0.383924  1
  As  As7  1  0.333333  0.666667  0.616076  1
  Pt  Pt8  1  0.333333  0.666667  0.354477  1
  Pt  Pt9  1  0.666667  0.333333  0.645523  1
  Pt  Pt10  1  0.666667  0.333333  0.856624  1
  Pt  Pt11  1  0.333333  0.666667  0.143376  1
