# generated using pymatgen
data_ErTm2Cd3IrAu2
_symmetry_space_group_name_H-M   'P 1'
_cell_length_a   3.73477800
_cell_length_b   7.84452861
_cell_length_c   7.84037066
_cell_angle_alpha   120.09319926
_cell_angle_beta   90.00000000
_cell_angle_gamma   90.00000000
_symmetry_Int_Tables_number   1
_chemical_formula_structural   ErTm2Cd3IrAu2
_chemical_formula_sum   'Er1 Tm2 Cd3 Ir1 Au2'
_cell_volume   198.74226776
_cell_formula_units_Z   1
loop_
 _symmetry_equiv_pos_site_id
 _symmetry_equiv_pos_as_xyz
  1  'x, y, z'
loop_
 _atom_site_type_symbol
 _atom_site_label
 _atom_site_symmetry_multiplicity
 _atom_site_fract_x
 _atom_site_fract_y
 _atom_site_fract_z
 _atom_site_occupancy
  Er  Er0  1  0.000000  0.416483  0.388086  1
  Tm  Tm1  1  0.000000  0.970999  0.583441  1
  Tm  Tm2  1  0.000000  0.612411  0.028726  1
  Cd  Cd3  1  0.500000  0.727356  0.731994  1
  Cd  Cd4  1  0.500000  0.004340  0.272730  1
  Cd  Cd5  1  0.500000  0.268132  0.994993  1
  Ir  Ir6  1  0.500000  0.667177  0.333283  1
  Au  Au7  1  0.500000  0.333280  0.666926  1
  Au  Au8  1  0.000000  0.999821  0.999821  1
