# generated using pymatgen
data_Rb2GeWN4
_symmetry_space_group_name_H-M   'P 1'
_cell_length_a   5.92057045
_cell_length_b   5.92057128
_cell_length_c   5.92057075
_cell_angle_alpha   120.08501651
_cell_angle_beta   120.08501898
_cell_angle_gamma   89.85279474
_symmetry_Int_Tables_number   1
_chemical_formula_structural   Rb2GeWN4
_chemical_formula_sum   'Rb2 Ge1 W1 N4'
_cell_volume   146.56011450
_cell_formula_units_Z   1
loop_
 _symmetry_equiv_pos_site_id
 _symmetry_equiv_pos_as_xyz
  1  'x, y, z'
loop_
 _atom_site_type_symbol
 _atom_site_label
 _atom_site_symmetry_multiplicity
 _atom_site_fract_x
 _atom_site_fract_y
 _atom_site_fract_z
 _atom_site_occupancy
  Rb  Rb0  1  0.250000  0.750000  0.500000  1
  Rb  Rb1  1  0.500000  0.500000  0.000000  1
  Ge  Ge2  1  0.000000  0.000000  0.000000  1
  W  W3  1  0.750000  0.250000  0.500000  1
  N  N4  1  0.805869  0.124726  0.178643  1
  N  N5  1  0.946083  0.627226  0.821357  1
  N  N6  1  0.372774  0.194131  0.318857  1
  N  N7  1  0.875274  0.053917  0.681143  1
