# generated using pymatgen
data_Dy3YIr4F28
_symmetry_space_group_name_H-M   'P 1'
_cell_length_a   5.56644005
_cell_length_b   8.92757236
_cell_length_c   11.97740620
_cell_angle_alpha   62.57181644
_cell_angle_beta   89.99595702
_cell_angle_gamma   90.00109688
_symmetry_Int_Tables_number   1
_chemical_formula_structural   Dy3YIr4F28
_chemical_formula_sum   'Dy3 Y1 Ir4 F28'
_cell_volume   528.30601817
_cell_formula_units_Z   1
loop_
 _symmetry_equiv_pos_site_id
 _symmetry_equiv_pos_as_xyz
  1  'x, y, z'
loop_
 _atom_site_type_symbol
 _atom_site_label
 _atom_site_symmetry_multiplicity
 _atom_site_fract_x
 _atom_site_fract_y
 _atom_site_fract_z
 _atom_site_occupancy
  Dy  Dy0  1  0.259945  0.186665  0.734305  1
  Dy  Dy1  1  0.240268  0.186767  0.234268  1
  Dy  Dy2  1  0.740195  0.813531  0.265502  1
  Y  Y3  1  0.760084  0.813485  0.765644  1
  Ir  Ir4  1  0.757019  0.273043  0.956265  1
  Ir  Ir5  1  0.256977  0.726594  0.543668  1
  Ir  Ir6  1  0.242833  0.726548  0.044221  1
  Ir  Ir7  1  0.742924  0.273720  0.455880  1
  F  F8  1  0.441458  0.704968  0.917047  1
  F  F9  1  0.943438  0.294432  0.583188  1
  F  F10  1  0.556066  0.294312  0.083603  1
  F  F11  1  0.057074  0.705427  0.416212  1
  F  F12  1  0.446144  0.280258  0.545207  1
  F  F13  1  0.945636  0.719574  0.955838  1
  F  F14  1  0.553645  0.719922  0.455331  1
  F  F15  1  0.053455  0.280129  0.044940  1
  F  F16  1  0.768501  0.518535  0.859135  1
  F  F17  1  0.268389  0.481651  0.640422  1
  F  F18  1  0.231727  0.481600  0.141004  1
  F  F19  1  0.731761  0.519267  0.359154  1
  F  F20  1  0.756792  0.027692  0.050572  1
  F  F21  1  0.256803  0.971356  0.449774  1
  F  F22  1  0.242840  0.971545  0.949817  1
  F  F23  1  0.743170  0.028267  0.549736  1
  F  F24  1  0.967609  0.728668  0.637294  1
  F  F25  1  0.468161  0.270717  0.862079  1
  F  F26  1  0.032317  0.270990  0.361405  1
  F  F27  1  0.532461  0.729321  0.138201  1
  F  F28  1  0.047397  0.746777  0.173577  1
  F  F29  1  0.546493  0.253925  0.326429  1
  F  F30  1  0.953784  0.253254  0.826528  1
  F  F31  1  0.452506  0.746193  0.673724  1
  F  F32  1  0.417763  0.971195  0.232001  1
  F  F33  1  0.917811  0.028889  0.268010  1
  F  F34  1  0.582747  0.029563  0.768313  1
  F  F35  1  0.083806  0.971221  0.731706  1
