# generated using pymatgen
data_TaP3WO12
_symmetry_space_group_name_H-M   'P 1'
_cell_length_a   8.79216394
_cell_length_b   8.79322685
_cell_length_c   9.07807655
_cell_angle_alpha   89.63877731
_cell_angle_beta   61.05153924
_cell_angle_gamma   119.58839810
_symmetry_Int_Tables_number   1
_chemical_formula_structural   TaP3WO12
_chemical_formula_sum   'Ta2 P6 W2 O24'
_cell_volume   505.55072766
_cell_formula_units_Z   2
loop_
 _symmetry_equiv_pos_site_id
 _symmetry_equiv_pos_as_xyz
  1  'x, y, z'
loop_
 _atom_site_type_symbol
 _atom_site_label
 _atom_site_symmetry_multiplicity
 _atom_site_fract_x
 _atom_site_fract_y
 _atom_site_fract_z
 _atom_site_occupancy
  Ta  Ta0  1  0.784193  0.141002  0.073943  1
  Ta  Ta1  1  0.786553  0.643089  0.571988  1
  P  P2  1  0.284484  0.032564  0.251087  1
  P  P3  1  0.717744  0.750632  0.248131  1
  P  P4  1  0.286094  0.253508  0.752089  1
  P  P5  1  0.715958  0.965575  0.749916  1
  P  P6  1  0.001672  0.535233  0.748146  1
  P  P7  1  0.993329  0.461504  0.252081  1
  W  W8  1  0.208694  0.355314  0.433237  1
  W  W9  1  0.212718  0.858060  0.931136  1
  O  O10  1  0.488800  0.061657  0.221641  1
  O  O11  1  0.865058  0.361523  0.912914  1
  O  O12  1  0.893815  0.135263  0.586416  1
  O  O13  1  0.845969  0.549205  0.720493  1
  O  O14  1  0.123278  0.623895  0.085854  1
  O  O15  1  0.091899  0.854512  0.413569  1
  O  O16  1  0.142768  0.438093  0.274127  1
  O  O17  1  0.134440  0.710251  0.773221  1
  O  O18  1  0.147387  0.514209  0.580036  1
  O  O19  1  0.285815  0.202631  0.285331  1
  O  O20  1  0.287395  0.014423  0.084252  1
  O  O21  1  0.713610  0.924395  0.224009  1
  O  O22  1  0.523105  0.580783  0.276491  1
  O  O23  1  0.275887  0.274345  0.591055  1
  O  O24  1  0.850499  0.491392  0.417912  1
  O  O25  1  0.087277  0.222841  0.921193  1
  O  O26  1  0.912176  0.785514  0.076375  1
  O  O27  1  0.506766  0.914418  0.782602  1
  O  O28  1  0.735508  0.733514  0.409496  1
  O  O29  1  0.484916  0.435408  0.720411  1
  O  O30  1  0.305965  0.093438  0.772860  1
  O  O31  1  0.725641  0.998317  0.914659  1
  O  O32  1  0.733101  0.798408  0.716874  1
  O  O33  1  0.847487  0.285089  0.226458  1
