# generated using pymatgen
data_Ba4Mn(N2Cl)2
_symmetry_space_group_name_H-M   'P 1'
_cell_length_a   6.04906900
_cell_length_b   8.40843064
_cell_length_c   10.75280373
_cell_angle_alpha   81.56227884
_cell_angle_beta   90.00000000
_cell_angle_gamma   90.00000000
_symmetry_Int_Tables_number   1
_chemical_formula_structural   Ba4Mn(N2Cl)2
_chemical_formula_sum   'Ba8 Mn2 N8 Cl4'
_cell_volume   541.00184866
_cell_formula_units_Z   2
loop_
 _symmetry_equiv_pos_site_id
 _symmetry_equiv_pos_as_xyz
  1  'x, y, z'
loop_
 _atom_site_type_symbol
 _atom_site_label
 _atom_site_symmetry_multiplicity
 _atom_site_fract_x
 _atom_site_fract_y
 _atom_site_fract_z
 _atom_site_occupancy
  Ba  Ba0  1  0.750000  0.286661  0.289948  1
  Ba  Ba1  1  0.750000  0.004929  0.623544  1
  Ba  Ba2  1  0.750000  0.448137  0.616538  1
  Ba  Ba3  1  0.750000  0.808666  0.108987  1
  Ba  Ba4  1  0.250000  0.995071  0.376456  1
  Ba  Ba5  1  0.250000  0.551863  0.383462  1
  Ba  Ba6  1  0.250000  0.191334  0.891013  1
  Ba  Ba7  1  0.250000  0.713339  0.710052  1
  Mn  Mn8  1  0.750000  0.768949  0.410903  1
  Mn  Mn9  1  0.250000  0.231051  0.589097  1
  N  N10  1  0.250000  0.048051  0.688474  1
  N  N11  1  0.016964  0.246431  0.492247  1
  N  N12  1  0.516964  0.753569  0.507753  1
  N  N13  1  0.983036  0.753569  0.507753  1
  N  N14  1  0.750000  0.610431  0.321002  1
  N  N15  1  0.750000  0.951949  0.311526  1
  N  N16  1  0.483036  0.246431  0.492247  1
  N  N17  1  0.250000  0.389569  0.678998  1
  Cl  Cl18  1  0.250000  0.327998  0.157070  1
  Cl  Cl19  1  0.750000  0.672002  0.842930  1
  Cl  Cl20  1  0.250000  0.845334  0.091786  1
  Cl  Cl21  1  0.750000  0.154666  0.908214  1
