# generated using pymatgen
data_Tm3Lu(ZnPd)4
_symmetry_space_group_name_H-M   'P 1'
_cell_length_a   3.93652500
_cell_length_b   7.10557029
_cell_length_c   8.24672864
_cell_angle_alpha   89.92933264
_cell_angle_beta   90.00000000
_cell_angle_gamma   90.00000000
_symmetry_Int_Tables_number   1
_chemical_formula_structural   Tm3Lu(ZnPd)4
_chemical_formula_sum   'Tm3 Lu1 Zn4 Pd4'
_cell_volume   230.67117498
_cell_formula_units_Z   1
loop_
 _symmetry_equiv_pos_site_id
 _symmetry_equiv_pos_as_xyz
  1  'x, y, z'
loop_
 _atom_site_type_symbol
 _atom_site_label
 _atom_site_symmetry_multiplicity
 _atom_site_fract_x
 _atom_site_fract_y
 _atom_site_fract_z
 _atom_site_occupancy
  Tm  Tm0  1  0.750000  0.945114  0.311431  1
  Tm  Tm1  1  0.250000  0.554432  0.812262  1
  Tm  Tm2  1  0.250000  0.054839  0.688098  1
  Lu  Lu3  1  0.750000  0.445181  0.188201  1
  Zn  Zn4  1  0.750000  0.870029  0.934520  1
  Zn  Zn5  1  0.750000  0.370102  0.565303  1
  Zn  Zn6  1  0.250000  0.130438  0.065828  1
  Zn  Zn7  1  0.250000  0.629442  0.434343  1
  Pd  Pd8  1  0.750000  0.258461  0.878519  1
  Pd  Pd9  1  0.750000  0.757540  0.622817  1
  Pd  Pd10  1  0.250000  0.740820  0.122610  1
  Pd  Pd11  1  0.250000  0.243602  0.376066  1
