# generated using pymatgen
data_Ho7(TmBi2)3
_symmetry_space_group_name_H-M   'P 1'
_cell_length_a   8.21518500
_cell_length_b   9.47158500
_cell_length_c   11.98467900
_cell_angle_alpha   90.00131911
_cell_angle_beta   90.00000000
_cell_angle_gamma   90.00000000
_symmetry_Int_Tables_number   1
_chemical_formula_structural   Ho7(TmBi2)3
_chemical_formula_sum   'Ho14 Tm6 Bi12'
_cell_volume   932.53773648
_cell_formula_units_Z   2
loop_
 _symmetry_equiv_pos_site_id
 _symmetry_equiv_pos_as_xyz
  1  'x, y, z'
loop_
 _atom_site_type_symbol
 _atom_site_label
 _atom_site_symmetry_multiplicity
 _atom_site_fract_x
 _atom_site_fract_y
 _atom_site_fract_z
 _atom_site_occupancy
  Ho  Ho0  1  0.353589  0.750019  0.216395  1
  Ho  Ho1  1  0.853589  0.749981  0.283605  1
  Ho  Ho2  1  0.646499  0.249958  0.783602  1
  Ho  Ho3  1  0.146499  0.250042  0.716398  1
  Ho  Ho4  1  0.691971  0.935589  0.058989  1
  Ho  Ho5  1  0.191971  0.564411  0.441011  1
  Ho  Ho6  1  0.476965  0.249925  0.489006  1
  Ho  Ho7  1  0.976965  0.250075  0.010994  1
  Ho  Ho8  1  0.523371  0.750109  0.511096  1
  Ho  Ho9  1  0.023371  0.749891  0.988904  1
  Ho  Ho10  1  0.314449  0.250007  0.217972  1
  Ho  Ho11  1  0.814449  0.249993  0.282028  1
  Ho  Ho12  1  0.685606  0.749933  0.781959  1
  Ho  Ho13  1  0.185606  0.750067  0.718041  1
  Tm  Tm14  1  0.691924  0.564680  0.059021  1
  Tm  Tm15  1  0.191924  0.935320  0.440979  1
  Tm  Tm16  1  0.308064  0.064855  0.940997  1
  Tm  Tm17  1  0.808064  0.435145  0.559003  1
  Tm  Tm18  1  0.307990  0.435176  0.940975  1
  Tm  Tm19  1  0.807990  0.064824  0.559025  1
  Bi  Bi20  1  0.405307  0.749799  0.957395  1
  Bi  Bi21  1  0.905307  0.750201  0.542605  1
  Bi  Bi22  1  0.594353  0.250574  0.042430  1
  Bi  Bi23  1  0.094353  0.249426  0.457570  1
  Bi  Bi24  1  0.565988  0.996177  0.325698  1
  Bi  Bi25  1  0.065988  0.503823  0.174302  1
  Bi  Bi26  1  0.433893  0.496177  0.674409  1
  Bi  Bi27  1  0.933893  0.003823  0.825591  1
  Bi  Bi28  1  0.433912  0.003860  0.674326  1
  Bi  Bi29  1  0.933912  0.496140  0.825674  1
  Bi  Bi30  1  0.566118  0.503825  0.325627  1
  Bi  Bi31  1  0.066118  0.996175  0.174373  1
