# generated using pymatgen
data_La2Sc3Si4
_symmetry_space_group_name_H-M   'P 1'
_cell_length_a   7.31535500
_cell_length_b   7.60448400
_cell_length_c   14.33480100
_cell_angle_alpha   90.00000000
_cell_angle_beta   90.00000000
_cell_angle_gamma   90.00000000
_symmetry_Int_Tables_number   1
_chemical_formula_structural   La2Sc3Si4
_chemical_formula_sum   'La8 Sc12 Si16'
_cell_volume   797.43781297
_cell_formula_units_Z   4
loop_
 _symmetry_equiv_pos_site_id
 _symmetry_equiv_pos_as_xyz
  1  'x, y, z'
loop_
 _atom_site_type_symbol
 _atom_site_label
 _atom_site_symmetry_multiplicity
 _atom_site_fract_x
 _atom_site_fract_y
 _atom_site_fract_z
 _atom_site_occupancy
  La  La0  1  0.011304  0.171174  0.097443  1
  La  La1  1  0.988696  0.828826  0.902557  1
  La  La2  1  0.488696  0.671174  0.902557  1
  La  La3  1  0.988696  0.828826  0.597443  1
  La  La4  1  0.511304  0.328826  0.097443  1
  La  La5  1  0.011304  0.171174  0.402557  1
  La  La6  1  0.511304  0.328826  0.402557  1
  La  La7  1  0.488696  0.671174  0.597443  1
  Sc  Sc8  1  0.158967  0.496662  0.750000  1
  Sc  Sc9  1  0.841033  0.503338  0.250000  1
  Sc  Sc10  1  0.341033  0.996662  0.250000  1
  Sc  Sc11  1  0.658967  0.003338  0.750000  1
  Sc  Sc12  1  0.330581  0.174875  0.626049  1
  Sc  Sc13  1  0.669419  0.825125  0.373951  1
  Sc  Sc14  1  0.169419  0.674875  0.373951  1
  Sc  Sc15  1  0.669419  0.825125  0.126049  1
  Sc  Sc16  1  0.830581  0.325125  0.626049  1
  Sc  Sc17  1  0.330581  0.174875  0.873951  1
  Sc  Sc18  1  0.830581  0.325125  0.873951  1
  Sc  Sc19  1  0.169419  0.674875  0.126049  1
  Si  Si20  1  0.033555  0.127046  0.750000  1
  Si  Si21  1  0.966445  0.872954  0.250000  1
  Si  Si22  1  0.466445  0.627046  0.250000  1
  Si  Si23  1  0.533555  0.372954  0.750000  1
  Si  Si24  1  0.289354  0.884908  0.750000  1
  Si  Si25  1  0.710646  0.115092  0.250000  1
  Si  Si26  1  0.210646  0.384908  0.250000  1
  Si  Si27  1  0.789354  0.615092  0.750000  1
  Si  Si28  1  0.150186  0.462851  0.539835  1
  Si  Si29  1  0.849814  0.537149  0.460165  1
  Si  Si30  1  0.349814  0.962851  0.460165  1
  Si  Si31  1  0.849814  0.537149  0.039835  1
  Si  Si32  1  0.650186  0.037149  0.539835  1
  Si  Si33  1  0.150186  0.462851  0.960165  1
  Si  Si34  1  0.650186  0.037149  0.960165  1
  Si  Si35  1  0.349814  0.962851  0.039835  1
