# generated using pymatgen
data_YbPa3Ga6Ir7
_symmetry_space_group_name_H-M   'P 1'
_cell_length_a   7.32623040
_cell_length_b   7.32623005
_cell_length_c   7.32623119
_cell_angle_alpha   109.73967950
_cell_angle_beta   109.73969067
_cell_angle_gamma   109.73967084
_symmetry_Int_Tables_number   1
_chemical_formula_structural   YbPa3Ga6Ir7
_chemical_formula_sum   'Yb1 Pa3 Ga6 Ir7'
_cell_volume   299.65870374
_cell_formula_units_Z   1
loop_
 _symmetry_equiv_pos_site_id
 _symmetry_equiv_pos_as_xyz
  1  'x, y, z'
loop_
 _atom_site_type_symbol
 _atom_site_label
 _atom_site_symmetry_multiplicity
 _atom_site_fract_x
 _atom_site_fract_y
 _atom_site_fract_z
 _atom_site_occupancy
  Yb  Yb0  1  0.500000  0.500000  0.500000  1
  Pa  Pa1  1  0.000000  0.500000  0.000000  1
  Pa  Pa2  1  0.000000  0.000000  0.500000  1
  Pa  Pa3  1  0.500000  0.000000  0.000000  1
  Ga  Ga4  1  0.682506  0.989741  0.682506  1
  Ga  Ga5  1  0.317494  0.010259  0.317494  1
  Ga  Ga6  1  0.010259  0.317494  0.317494  1
  Ga  Ga7  1  0.989741  0.682506  0.682506  1
  Ga  Ga8  1  0.682506  0.682506  0.989741  1
  Ga  Ga9  1  0.317494  0.317494  0.010259  1
  Ir  Ir10  1  0.245228  0.500000  0.754772  1
  Ir  Ir11  1  0.245228  0.754772  0.500000  1
  Ir  Ir12  1  0.500000  0.245228  0.754772  1
  Ir  Ir13  1  0.500000  0.754772  0.245228  1
  Ir  Ir14  1  0.754772  0.500000  0.245228  1
  Ir  Ir15  1  0.000000  0.000000  0.000000  1
  Ir  Ir16  1  0.754772  0.245228  0.500000  1
