# generated using pymatgen
data_Eu4Zn3Ga3Ir2
_symmetry_space_group_name_H-M   'P 1'
_cell_length_a   5.56989462
_cell_length_b   5.59660176
_cell_length_c   8.93810200
_cell_angle_alpha   90.00000000
_cell_angle_beta   90.00000000
_cell_angle_gamma   119.57127407
_symmetry_Int_Tables_number   1
_chemical_formula_structural   Eu4Zn3Ga3Ir2
_chemical_formula_sum   'Eu4 Zn3 Ga3 Ir2'
_cell_volume   242.33010126
_cell_formula_units_Z   1
loop_
 _symmetry_equiv_pos_site_id
 _symmetry_equiv_pos_as_xyz
  1  'x, y, z'
loop_
 _atom_site_type_symbol
 _atom_site_label
 _atom_site_symmetry_multiplicity
 _atom_site_fract_x
 _atom_site_fract_y
 _atom_site_fract_z
 _atom_site_occupancy
  Eu  Eu0  1  0.333912  0.667563  0.449732  1
  Eu  Eu1  1  0.667257  0.334055  0.946769  1
  Eu  Eu2  1  0.333912  0.667563  0.050268  1
  Eu  Eu3  1  0.667257  0.334055  0.553231  1
  Zn  Zn4  1  0.836958  0.679200  0.250000  1
  Zn  Zn5  1  0.834579  0.158647  0.250000  1
  Zn  Zn6  1  0.164713  0.836284  0.750000  1
  Ga  Ga7  1  0.310864  0.154442  0.250000  1
  Ga  Ga8  1  0.681746  0.838393  0.750000  1
  Ga  Ga9  1  0.162879  0.320197  0.750000  1
  Ir  Ir10  1  0.002962  0.004800  0.998387  1
  Ir  Ir11  1  0.002962  0.004800  0.501613  1
