# generated using pymatgen
data_Sc4SCl6
_symmetry_space_group_name_H-M   'P 1'
_cell_length_a   3.71013700
_cell_length_b   11.98773000
_cell_length_c   12.44391500
_cell_angle_alpha   90.00000000
_cell_angle_beta   90.00000000
_cell_angle_gamma   90.00000000
_symmetry_Int_Tables_number   1
_chemical_formula_structural   Sc4SCl6
_chemical_formula_sum   'Sc8 S2 Cl12'
_cell_volume   553.45706451
_cell_formula_units_Z   2
loop_
 _symmetry_equiv_pos_site_id
 _symmetry_equiv_pos_as_xyz
  1  'x, y, z'
loop_
 _atom_site_type_symbol
 _atom_site_label
 _atom_site_symmetry_multiplicity
 _atom_site_fract_x
 _atom_site_fract_y
 _atom_site_fract_z
 _atom_site_occupancy
  Sc  Sc0  1  0.000000  0.108092  0.085898  1
  Sc  Sc1  1  0.000000  0.891908  0.914102  1
  Sc  Sc2  1  0.000000  0.608092  0.414102  1
  Sc  Sc3  1  0.000000  0.391908  0.585898  1
  Sc  Sc4  1  0.500000  0.128719  0.849211  1
  Sc  Sc5  1  0.500000  0.871281  0.150789  1
  Sc  Sc6  1  0.500000  0.628719  0.650789  1
  Sc  Sc7  1  0.500000  0.371281  0.349211  1
  S  S8  1  0.500000  0.000000  0.000000  1
  S  S9  1  0.500000  0.500000  0.500000  1
  Cl  Cl10  1  0.500000  0.268359  0.681193  1
  Cl  Cl11  1  0.500000  0.731641  0.318807  1
  Cl  Cl12  1  0.500000  0.768359  0.818807  1
  Cl  Cl13  1  0.500000  0.231641  0.181193  1
  Cl  Cl14  1  0.000000  0.255491  0.929641  1
  Cl  Cl15  1  0.000000  0.744509  0.070359  1
  Cl  Cl16  1  0.000000  0.477856  0.244543  1
  Cl  Cl17  1  0.000000  0.522144  0.755457  1
  Cl  Cl18  1  0.000000  0.977856  0.255457  1
  Cl  Cl19  1  0.000000  0.022144  0.744543  1
  Cl  Cl20  1  0.000000  0.244509  0.429641  1
  Cl  Cl21  1  0.000000  0.755491  0.570359  1
