# generated using pymatgen
data_Hf10Ga5GeN2
_symmetry_space_group_name_H-M   'P 1'
_cell_length_a   7.96393037
_cell_length_b   7.96393080
_cell_length_c   5.68528800
_cell_angle_alpha   90.00000000
_cell_angle_beta   90.00000000
_cell_angle_gamma   120.13308566
_symmetry_Int_Tables_number   1
_chemical_formula_structural   Hf10Ga5GeN2
_chemical_formula_sum   'Hf10 Ga5 Ge1 N2'
_cell_volume   311.85596502
_cell_formula_units_Z   1
loop_
 _symmetry_equiv_pos_site_id
 _symmetry_equiv_pos_as_xyz
  1  'x, y, z'
loop_
 _atom_site_type_symbol
 _atom_site_label
 _atom_site_symmetry_multiplicity
 _atom_site_fract_x
 _atom_site_fract_y
 _atom_site_fract_z
 _atom_site_occupancy
  Hf  Hf0  1  0.227589  0.000044  0.250000  1
  Hf  Hf1  1  0.772009  0.999924  0.750000  1
  Hf  Hf2  1  0.000044  0.227589  0.250000  1
  Hf  Hf3  1  0.999924  0.772009  0.750000  1
  Hf  Hf4  1  0.771900  0.771900  0.250000  1
  Hf  Hf5  1  0.228692  0.228692  0.750000  1
  Hf  Hf6  1  0.333434  0.667035  0.999705  1
  Hf  Hf7  1  0.667035  0.333434  0.999705  1
  Hf  Hf8  1  0.667035  0.333434  0.500295  1
  Hf  Hf9  1  0.333434  0.667035  0.500295  1
  Ga  Ga10  1  0.598569  0.000225  0.250000  1
  Ga  Ga11  1  0.401051  0.999598  0.750000  1
  Ga  Ga12  1  0.000225  0.598569  0.250000  1
  Ga  Ga13  1  0.999598  0.401051  0.750000  1
  Ga  Ga14  1  0.401054  0.401054  0.250000  1
  Ge  Ge15  1  0.598822  0.598822  0.750000  1
  N  N16  1  0.999793  0.999793  0.000184  1
  N  N17  1  0.999793  0.999793  0.499816  1
