# generated using pymatgen
data_Pr3Dy2Tm3(CdIr)2
_symmetry_space_group_name_H-M   'P 1'
_cell_length_a   9.73304952
_cell_length_b   9.73304928
_cell_length_c   9.73304900
_cell_angle_alpha   59.99999757
_cell_angle_beta   59.99999836
_cell_angle_gamma   59.99999419
_symmetry_Int_Tables_number   1
_chemical_formula_structural   Pr3Dy2Tm3(CdIr)2
_chemical_formula_sum   'Pr6 Dy4 Tm6 Cd4 Ir4'
_cell_volume   651.97618880
_cell_formula_units_Z   2
loop_
 _symmetry_equiv_pos_site_id
 _symmetry_equiv_pos_as_xyz
  1  'x, y, z'
loop_
 _atom_site_type_symbol
 _atom_site_label
 _atom_site_symmetry_multiplicity
 _atom_site_fract_x
 _atom_site_fract_y
 _atom_site_fract_z
 _atom_site_occupancy
  Pr  Pr0  1  0.941435  0.558565  0.558565  1
  Pr  Pr1  1  0.558565  0.941435  0.941435  1
  Pr  Pr2  1  0.558565  0.941435  0.558565  1
  Pr  Pr3  1  0.941435  0.558565  0.941435  1
  Pr  Pr4  1  0.558565  0.558565  0.941435  1
  Pr  Pr5  1  0.941435  0.941435  0.558565  1
  Dy  Dy6  1  0.347164  0.347164  0.347164  1
  Dy  Dy7  1  0.347164  0.347164  0.958509  1
  Dy  Dy8  1  0.347164  0.958509  0.347164  1
  Dy  Dy9  1  0.958509  0.347164  0.347164  1
  Tm  Tm10  1  0.814020  0.185980  0.185980  1
  Tm  Tm11  1  0.185980  0.814020  0.814020  1
  Tm  Tm12  1  0.185980  0.814020  0.185980  1
  Tm  Tm13  1  0.814020  0.185980  0.814020  1
  Tm  Tm14  1  0.185980  0.185980  0.814020  1
  Tm  Tm15  1  0.814020  0.814020  0.185980  1
  Cd  Cd16  1  0.579074  0.579074  0.579074  1
  Cd  Cd17  1  0.579074  0.579074  0.262775  1
  Cd  Cd18  1  0.579074  0.262775  0.579074  1
  Cd  Cd19  1  0.262775  0.579074  0.579074  1
  Ir  Ir20  1  0.140485  0.140485  0.140485  1
  Ir  Ir21  1  0.140485  0.140485  0.578543  1
  Ir  Ir22  1  0.140485  0.578543  0.140485  1
  Ir  Ir23  1  0.578543  0.140485  0.140485  1
