# generated using pymatgen
data_Tb3TmAl8
_symmetry_space_group_name_H-M   'P 1'
_cell_length_a   9.65201952
_cell_length_b   9.65201974
_cell_length_c   9.65202090
_cell_angle_alpha   33.45838592
_cell_angle_beta   33.45838301
_cell_angle_gamma   33.45838598
_symmetry_Int_Tables_number   1
_chemical_formula_structural   Tb3TmAl8
_chemical_formula_sum   'Tb3 Tm1 Al8'
_cell_volume   243.41767965
_cell_formula_units_Z   1
loop_
 _symmetry_equiv_pos_site_id
 _symmetry_equiv_pos_as_xyz
  1  'x, y, z'
loop_
 _atom_site_type_symbol
 _atom_site_label
 _atom_site_symmetry_multiplicity
 _atom_site_fract_x
 _atom_site_fract_y
 _atom_site_fract_z
 _atom_site_occupancy
  Tb  Tb0  1  0.187505  0.187505  0.187505  1
  Tb  Tb1  1  0.812522  0.812522  0.812522  1
  Tb  Tb2  1  0.312528  0.312528  0.312528  1
  Tm  Tm3  1  0.687445  0.687445  0.687445  1
  Al  Al4  1  0.000132  0.000132  0.000132  1
  Al  Al5  1  0.499933  0.499933  0.499933  1
  Al  Al6  1  0.749902  0.249707  0.249707  1
  Al  Al7  1  0.250374  0.750121  0.750121  1
  Al  Al8  1  0.249707  0.749902  0.249707  1
  Al  Al9  1  0.750121  0.250374  0.750121  1
  Al  Al10  1  0.249707  0.249707  0.749902  1
  Al  Al11  1  0.750121  0.750121  0.250374  1
