# generated using pymatgen
data_Er3ZnCd3AgAu
_symmetry_space_group_name_H-M   'P 1'
_cell_length_a   7.83947200
_cell_length_b   7.83947122
_cell_length_c   3.78948100
_cell_angle_alpha   90.00000000
_cell_angle_beta   90.00000000
_cell_angle_gamma   120.00000330
_symmetry_Int_Tables_number   1
_chemical_formula_structural   Er3ZnCd3AgAu
_chemical_formula_sum   'Er3 Zn1 Cd3 Ag1 Au1'
_cell_volume   201.68979955
_cell_formula_units_Z   1
loop_
 _symmetry_equiv_pos_site_id
 _symmetry_equiv_pos_as_xyz
  1  'x, y, z'
loop_
 _atom_site_type_symbol
 _atom_site_label
 _atom_site_symmetry_multiplicity
 _atom_site_fract_x
 _atom_site_fract_y
 _atom_site_fract_z
 _atom_site_occupancy
  Er  Er0  1  0.596198  0.009638  0.000000  1
  Er  Er1  1  0.990362  0.586560  0.000000  1
  Er  Er2  1  0.413440  0.403802  0.000000  1
  Zn  Zn3  1  0.000000  0.000000  0.000000  1
  Cd  Cd4  1  0.253111  0.992921  0.500000  1
  Cd  Cd5  1  0.007079  0.260190  0.500000  1
  Cd  Cd6  1  0.739810  0.746889  0.500000  1
  Ag  Ag7  1  0.333333  0.666667  0.500000  1
  Au  Au8  1  0.666667  0.333333  0.500000  1
