# generated using pymatgen
data_Er2Fe9P7Ru3
_symmetry_space_group_name_H-M   'P 1'
_cell_length_a   8.98290300
_cell_length_b   8.98290308
_cell_length_c   3.70720000
_cell_angle_alpha   90.00000000
_cell_angle_beta   90.00000000
_cell_angle_gamma   120.00000339
_symmetry_Int_Tables_number   1
_chemical_formula_structural   Er2Fe9P7Ru3
_chemical_formula_sum   'Er2 Fe9 P7 Ru3'
_cell_volume   259.06578383
_cell_formula_units_Z   1
loop_
 _symmetry_equiv_pos_site_id
 _symmetry_equiv_pos_as_xyz
  1  'x, y, z'
loop_
 _atom_site_type_symbol
 _atom_site_label
 _atom_site_symmetry_multiplicity
 _atom_site_fract_x
 _atom_site_fract_y
 _atom_site_fract_z
 _atom_site_occupancy
  Er  Er0  1  0.333333  0.666667  0.000000  1
  Er  Er1  1  0.000000  0.000000  0.500000  1
  Fe  Fe2  1  0.036560  0.276223  0.000000  1
  Fe  Fe3  1  0.723777  0.760337  0.000000  1
  Fe  Fe4  1  0.239663  0.963440  0.000000  1
  Fe  Fe5  1  0.546413  0.056441  0.000000  1
  Fe  Fe6  1  0.943559  0.489972  0.000000  1
  Fe  Fe7  1  0.510028  0.453587  0.000000  1
  Fe  Fe8  1  0.615167  0.896246  0.500000  1
  Fe  Fe9  1  0.103754  0.718921  0.500000  1
  Fe  Fe10  1  0.281079  0.384833  0.500000  1
  P  P11  1  0.777997  0.029532  0.000000  1
  P  P12  1  0.970468  0.748465  0.000000  1
  P  P13  1  0.251535  0.222003  0.000000  1
  P  P14  1  0.375942  0.925003  0.500000  1
  P  P15  1  0.074997  0.450941  0.500000  1
  P  P16  1  0.549059  0.624058  0.500000  1
  P  P17  1  0.666667  0.333333  0.000000  1
  Ru  Ru18  1  0.786541  0.236096  0.500000  1
  Ru  Ru19  1  0.763904  0.550445  0.500000  1
  Ru  Ru20  1  0.449555  0.213459  0.500000  1
