# generated using pymatgen
data_Dy2Ho8In8Pt3Au
_symmetry_space_group_name_H-M   'P 1'
_cell_length_a   3.62762600
_cell_length_b   8.16962405
_cell_length_c   18.28376105
_cell_angle_alpha   90.02471417
_cell_angle_beta   90.00000000
_cell_angle_gamma   90.00000000
_symmetry_Int_Tables_number   1
_chemical_formula_structural   Dy2Ho8In8Pt3Au
_chemical_formula_sum   'Dy2 Ho8 In8 Pt3 Au1'
_cell_volume   541.86371996
_cell_formula_units_Z   1
loop_
 _symmetry_equiv_pos_site_id
 _symmetry_equiv_pos_as_xyz
  1  'x, y, z'
loop_
 _atom_site_type_symbol
 _atom_site_label
 _atom_site_symmetry_multiplicity
 _atom_site_fract_x
 _atom_site_fract_y
 _atom_site_fract_z
 _atom_site_occupancy
  Dy  Dy0  1  0.000000  0.999518  0.999204  1
  Dy  Dy1  1  0.000000  0.499215  0.500457  1
  Ho  Ho2  1  0.000000  0.120350  0.419612  1
  Ho  Ho3  1  0.000000  0.883849  0.586087  1
  Ho  Ho4  1  0.000000  0.384134  0.914359  1
  Ho  Ho5  1  0.000000  0.616243  0.083886  1
  Ho  Ho6  1  0.000000  0.252682  0.217381  1
  Ho  Ho7  1  0.000000  0.755498  0.779744  1
  Ho  Ho8  1  0.000000  0.255930  0.720779  1
  Ho  Ho9  1  0.000000  0.731612  0.279053  1
  In  In10  1  0.500000  0.423347  0.352399  1
  In  In11  1  0.500000  0.575383  0.648695  1
  In  In12  1  0.500000  0.075429  0.851453  1
  In  In13  1  0.500000  0.923049  0.147349  1
  In  In14  1  0.500000  0.291651  0.065998  1
  In  In15  1  0.500000  0.707977  0.932824  1
  In  In16  1  0.500000  0.208437  0.567829  1
  In  In17  1  0.500000  0.791126  0.433811  1
  Pt  Pt18  1  0.500000  0.974489  0.697032  1
  Pt  Pt19  1  0.500000  0.474740  0.803292  1
  Pt  Pt20  1  0.500000  0.527189  0.196473  1
  Au  Au21  1  0.500000  0.028152  0.302283  1
