# generated using pymatgen
data_Ho20Ga7Bi4Pt
_symmetry_space_group_name_H-M   'P 1'
_cell_length_a   8.16092279
_cell_length_b   8.16092279
_cell_length_c   12.77284400
_cell_angle_alpha   90.00209163
_cell_angle_beta   89.99790837
_cell_angle_gamma   90.91434978
_symmetry_Int_Tables_number   1
_chemical_formula_structural   Ho20Ga7Bi4Pt
_chemical_formula_sum   'Ho20 Ga7 Bi4 Pt1'
_cell_volume   850.57153103
_cell_formula_units_Z   1
loop_
 _symmetry_equiv_pos_site_id
 _symmetry_equiv_pos_as_xyz
  1  'x, y, z'
loop_
 _atom_site_type_symbol
 _atom_site_label
 _atom_site_symmetry_multiplicity
 _atom_site_fract_x
 _atom_site_fract_y
 _atom_site_fract_z
 _atom_site_occupancy
  Ho  Ho0  1  0.998136  0.501780  0.750609  1
  Ho  Ho1  1  0.999618  0.500119  0.250575  1
  Ho  Ho2  1  0.500119  0.999618  0.249425  1
  Ho  Ho3  1  0.501780  0.998136  0.749391  1
  Ho  Ho4  1  0.661420  0.660901  0.613810  1
  Ho  Ho5  1  0.652456  0.346523  0.107282  1
  Ho  Ho6  1  0.845304  0.845696  0.390386  1
  Ho  Ho7  1  0.145772  0.847368  0.890027  1
  Ho  Ho8  1  0.346565  0.346828  0.608300  1
  Ho  Ho9  1  0.346075  0.652144  0.107360  1
  Ho  Ho10  1  0.153493  0.153131  0.392998  1
  Ho  Ho11  1  0.846988  0.145261  0.890000  1
  Ho  Ho12  1  0.652144  0.346075  0.392640  1
  Ho  Ho13  1  0.346828  0.346565  0.891700  1
  Ho  Ho14  1  0.145261  0.846988  0.610000  1
  Ho  Ho15  1  0.845696  0.845304  0.109614  1
  Ho  Ho16  1  0.346523  0.652456  0.392718  1
  Ho  Ho17  1  0.660901  0.661420  0.886190  1
  Ho  Ho18  1  0.847368  0.145772  0.609973  1
  Ho  Ho19  1  0.153131  0.153493  0.107002  1
  Ga  Ga20  1  0.851720  0.146098  0.249979  1
  Ga  Ga21  1  0.645654  0.645654  0.250000  1
  Ga  Ga22  1  0.353927  0.646500  0.749963  1
  Ga  Ga23  1  0.144427  0.144427  0.750000  1
  Ga  Ga24  1  0.146098  0.851720  0.250021  1
  Ga  Ga25  1  0.352492  0.352492  0.250000  1
  Ga  Ga26  1  0.646500  0.353927  0.750037  1
  Bi  Bi27  1  0.000658  0.497289  0.499929  1
  Bi  Bi28  1  0.000677  0.497412  0.000895  1
  Bi  Bi29  1  0.497412  0.000677  0.499105  1
  Bi  Bi30  1  0.497289  0.000658  0.000071  1
  Pt  Pt31  1  0.867566  0.867566  0.750000  1
