# generated using pymatgen
data_La2NdHo7C4I15
_symmetry_space_group_name_H-M   'P 1'
_cell_length_a   9.68800592
_cell_length_b   10.45858853
_cell_length_c   11.63502437
_cell_angle_alpha   93.38898391
_cell_angle_beta   114.14076389
_cell_angle_gamma   109.42049234
_symmetry_Int_Tables_number   1
_chemical_formula_structural   La2NdHo7C4I15
_chemical_formula_sum   'La2 Nd1 Ho7 C4 I15'
_cell_volume   988.16948474
_cell_formula_units_Z   1
loop_
 _symmetry_equiv_pos_site_id
 _symmetry_equiv_pos_as_xyz
  1  'x, y, z'
loop_
 _atom_site_type_symbol
 _atom_site_label
 _atom_site_symmetry_multiplicity
 _atom_site_fract_x
 _atom_site_fract_y
 _atom_site_fract_z
 _atom_site_occupancy
  La  La0  1  0.292568  0.433093  0.955604  1
  La  La1  1  0.664578  0.254622  0.836491  1
  Nd  Nd2  1  0.701207  0.567790  0.044015  1
  Ho  Ho3  1  0.590794  0.542607  0.335718  1
  Ho  Ho4  1  0.353203  0.742073  0.162158  1
  Ho  Ho5  1  0.765619  0.871898  0.251328  1
  Ho  Ho6  1  0.526371  0.187248  0.097855  1
  Ho  Ho7  1  0.239407  0.126789  0.752142  1
  Ho  Ho8  1  0.406527  0.457645  0.664139  1
  Ho  Ho9  1  0.473872  0.814572  0.901963  1
  C  C10  1  0.483445  0.297933  0.939141  1
  C  C11  1  0.518303  0.705760  0.062032  1
  C  C12  1  0.454212  0.362577  0.832900  1
  C  C13  1  0.545956  0.638695  0.167466  1
  I  I14  1  0.218414  0.908852  0.940956  1
  I  I15  1  0.114701  0.194020  0.482034  1
  I  I16  1  0.166849  0.566916  0.698307  1
  I  I17  1  0.393069  0.962187  0.652330  1
  I  I18  1  0.699066  0.737251  0.813251  1
  I  I19  1  0.300034  0.261248  0.187799  1
  I  I20  1  0.831636  0.434855  0.299454  1
  I  I21  1  0.883711  0.804121  0.520303  1
  I  I22  1  0.358120  0.627732  0.405700  1
  I  I23  1  0.046055  0.839715  0.223267  1
  I  I24  1  0.785559  0.087678  0.069850  1
  I  I25  1  0.637030  0.380733  0.582420  1
  I  I26  1  0.949810  0.154636  0.774437  1
  I  I27  1  0.590764  0.023389  0.339601  1
  I  I28  1  0.009120  0.513369  0.007338  1
