# generated using pymatgen
data_Tb13Nd7(SnBi)8
_symmetry_space_group_name_H-M   'P 1'
_cell_length_a   8.30333635
_cell_length_b   8.33157423
_cell_length_c   15.83137449
_cell_angle_alpha   89.96262056
_cell_angle_beta   90.29003513
_cell_angle_gamma   89.81584640
_symmetry_Int_Tables_number   1
_chemical_formula_structural   Tb13Nd7(SnBi)8
_chemical_formula_sum   'Tb13 Nd7 Sn8 Bi8'
_cell_volume   1095.19238769
_cell_formula_units_Z   1
loop_
 _symmetry_equiv_pos_site_id
 _symmetry_equiv_pos_as_xyz
  1  'x, y, z'
loop_
 _atom_site_type_symbol
 _atom_site_label
 _atom_site_symmetry_multiplicity
 _atom_site_fract_x
 _atom_site_fract_y
 _atom_site_fract_z
 _atom_site_occupancy
  Tb  Tb0  1  0.049304  0.172512  0.389297  1
  Tb  Tb1  1  0.380193  0.839305  0.124220  1
  Tb  Tb2  1  0.115959  0.339166  0.625194  1
  Tb  Tb3  1  0.453953  0.671958  0.889179  1
  Tb  Tb4  1  0.882692  0.660296  0.126077  1
  Tb  Tb5  1  0.120649  0.338183  0.874330  1
  Tb  Tb6  1  0.211956  0.497893  0.249729  1
  Tb  Tb7  1  0.713111  0.002823  0.250638  1
  Tb  Tb8  1  0.450059  0.670445  0.610665  1
  Tb  Tb9  1  0.287107  0.997011  0.750105  1
  Tb  Tb10  1  0.619426  0.161007  0.624571  1
  Tb  Tb11  1  0.788234  0.501896  0.749698  1
  Tb  Tb12  1  0.880872  0.662102  0.375145  1
  Nd  Nd13  1  0.041161  0.176437  0.105536  1
  Nd  Nd14  1  0.957152  0.822925  0.892918  1
  Nd  Nd15  1  0.618653  0.162875  0.877438  1
  Nd  Nd16  1  0.543557  0.324665  0.107732  1
  Nd  Nd17  1  0.385350  0.835737  0.378748  1
  Nd  Nd18  1  0.958300  0.824201  0.607148  1
  Nd  Nd19  1  0.542580  0.324908  0.392591  1
  Sn  Sn20  1  0.647319  0.854414  0.748911  1
  Sn  Sn21  1  0.851151  0.357724  0.251524  1
  Sn  Sn22  1  0.580300  0.625546  0.248612  1
  Sn  Sn23  1  0.420552  0.376183  0.748341  1
  Sn  Sn24  1  0.152912  0.641152  0.749878  1
  Sn  Sn25  1  0.922054  0.126370  0.749292  1
  Sn  Sn26  1  0.346721  0.141507  0.249570  1
  Sn  Sn27  1  0.078569  0.874379  0.249947  1
  Bi  Bi28  1  0.771662  0.476866  0.545076  1
  Bi  Bi29  1  0.733519  0.980347  0.455302  1
  Bi  Bi30  1  0.216431  0.523566  0.457903  1
  Bi  Bi31  1  0.276834  0.024541  0.955448  1
  Bi  Bi32  1  0.778544  0.478730  0.956200  1
  Bi  Bi33  1  0.222804  0.533051  0.041196  1
  Bi  Bi34  1  0.279371  0.032185  0.545178  1
  Bi  Bi35  1  0.720988  0.967095  0.046662  1
