# generated using pymatgen
data_TbDy3Ho4(B6Ru)4
_symmetry_space_group_name_H-M   'P 1'
_cell_length_a   3.65639700
_cell_length_b   9.14088000
_cell_length_c   11.51914400
_cell_angle_alpha   89.99966165
_cell_angle_beta   90.00000000
_cell_angle_gamma   90.00000000
_symmetry_Int_Tables_number   1
_chemical_formula_structural   TbDy3Ho4(B6Ru)4
_chemical_formula_sum   'Tb1 Dy3 Ho4 B24 Ru4'
_cell_volume   385.00073531
_cell_formula_units_Z   1
loop_
 _symmetry_equiv_pos_site_id
 _symmetry_equiv_pos_as_xyz
  1  'x, y, z'
loop_
 _atom_site_type_symbol
 _atom_site_label
 _atom_site_symmetry_multiplicity
 _atom_site_fract_x
 _atom_site_fract_y
 _atom_site_fract_z
 _atom_site_occupancy
  Tb  Tb0  1  0.000000  0.322807  0.414005  1
  Dy  Dy1  1  0.000000  0.677324  0.585973  1
  Dy  Dy2  1  0.000000  0.822708  0.085915  1
  Dy  Dy3  1  0.000000  0.177292  0.914059  1
  Ho  Ho4  1  0.000000  0.943713  0.372261  1
  Ho  Ho5  1  0.000000  0.056146  0.627801  1
  Ho  Ho6  1  0.000000  0.443818  0.127651  1
  Ho  Ho7  1  0.000000  0.556233  0.872315  1
  B  B8  1  0.500000  0.554529  0.432911  1
  B  B9  1  0.500000  0.445811  0.567279  1
  B  B10  1  0.500000  0.054233  0.067000  1
  B  B11  1  0.500000  0.945714  0.932946  1
  B  B12  1  0.500000  0.748156  0.419663  1
  B  B13  1  0.500000  0.251844  0.580634  1
  B  B14  1  0.500000  0.248062  0.080278  1
  B  B15  1  0.500000  0.751945  0.919647  1
  B  B16  1  0.500000  0.791299  0.266235  1
  B  B17  1  0.500000  0.208720  0.733833  1
  B  B18  1  0.500000  0.291108  0.233505  1
  B  B19  1  0.500000  0.708761  0.766288  1
  B  B20  1  0.500000  0.631925  0.185033  1
  B  B21  1  0.500000  0.368165  0.814952  1
  B  B22  1  0.500000  0.131645  0.314756  1
  B  B23  1  0.500000  0.868118  0.685125  1
  B  B24  1  0.500000  0.983543  0.212953  1
  B  B25  1  0.500000  0.016344  0.787023  1
  B  B26  1  0.500000  0.483918  0.286850  1
  B  B27  1  0.500000  0.516430  0.713088  1
  B  B28  1  0.500000  0.607767  0.029735  1
  B  B29  1  0.500000  0.392264  0.970241  1
  B  B30  1  0.500000  0.107245  0.470394  1
  B  B31  1  0.500000  0.892336  0.529729  1
  Ru  Ru32  1  0.000000  0.638244  0.320896  1
  Ru  Ru33  1  0.000000  0.361974  0.679161  1
  Ru  Ru34  1  0.000000  0.137879  0.178870  1
  Ru  Ru35  1  0.000000  0.861979  0.820996  1
