# generated using pymatgen
data_V10Si4Ge2HN
_symmetry_space_group_name_H-M   'P 1'
_cell_length_a   7.22981712
_cell_length_b   7.17973816
_cell_length_c   4.85442609
_cell_angle_alpha   90.01081797
_cell_angle_beta   89.97852186
_cell_angle_gamma   120.23099734
_symmetry_Int_Tables_number   1
_chemical_formula_structural   V10Si4Ge2HN
_chemical_formula_sum   'V10 Si4 Ge2 H1 N1'
_cell_volume   217.71522437
_cell_formula_units_Z   1
loop_
 _symmetry_equiv_pos_site_id
 _symmetry_equiv_pos_as_xyz
  1  'x, y, z'
loop_
 _atom_site_type_symbol
 _atom_site_label
 _atom_site_symmetry_multiplicity
 _atom_site_fract_x
 _atom_site_fract_y
 _atom_site_fract_z
 _atom_site_occupancy
  V  V0  1  0.229160  0.000000  0.758299  1
  V  V1  1  0.770840  0.000000  0.241701  1
  V  V2  1  0.005218  0.240061  0.757524  1
  V  V3  1  0.994782  0.759939  0.242476  1
  V  V4  1  0.765157  0.759939  0.757524  1
  V  V5  1  0.234843  0.240061  0.242476  1
  V  V6  1  0.329827  0.659655  0.500000  1
  V  V7  1  0.670173  0.340345  0.500000  1
  V  V8  1  0.670680  0.341359  0.000000  1
  V  V9  1  0.329320  0.658641  0.000000  1
  Si  Si10  1  0.001868  0.597117  0.744348  1
  Si  Si11  1  0.998132  0.402883  0.255652  1
  Si  Si12  1  0.404751  0.402883  0.744348  1
  Si  Si13  1  0.595249  0.597117  0.255652  1
  Ge  Ge14  1  0.599851  0.000000  0.746083  1
  Ge  Ge15  1  0.400149  0.000000  0.253917  1
  H  H16  1  0.000000  0.000000  0.500000  1
  N  N17  1  0.000000  0.000000  0.000000  1
