# generated using pymatgen
data_Tb13Dy3In4RuRh3
_symmetry_space_group_name_H-M   'P 1'
_cell_length_a   9.70564164
_cell_length_b   9.70614171
_cell_length_c   9.70523029
_cell_angle_alpha   59.88602622
_cell_angle_beta   59.89562114
_cell_angle_gamma   59.92899414
_symmetry_Int_Tables_number   1
_chemical_formula_structural   Tb13Dy3In4RuRh3
_chemical_formula_sum   'Tb13 Dy3 In4 Ru1 Rh3'
_cell_volume   645.07505644
_cell_formula_units_Z   1
loop_
 _symmetry_equiv_pos_site_id
 _symmetry_equiv_pos_as_xyz
  1  'x, y, z'
loop_
 _atom_site_type_symbol
 _atom_site_label
 _atom_site_symmetry_multiplicity
 _atom_site_fract_x
 _atom_site_fract_y
 _atom_site_fract_z
 _atom_site_occupancy
  Tb  Tb0  1  0.688105  0.310712  0.311076  1
  Tb  Tb1  1  0.690242  0.690407  0.312701  1
  Tb  Tb2  1  0.310897  0.688140  0.311099  1
  Tb  Tb3  1  0.936667  0.936728  0.563683  1
  Tb  Tb4  1  0.150162  0.150090  0.546985  1
  Tb  Tb5  1  0.559793  0.941879  0.559846  1
  Tb  Tb6  1  0.151831  0.151837  0.151642  1
  Tb  Tb7  1  0.311192  0.311042  0.688135  1
  Tb  Tb8  1  0.941776  0.559801  0.559986  1
  Tb  Tb9  1  0.559846  0.559704  0.941767  1
  Tb  Tb10  1  0.563543  0.936945  0.936525  1
  Tb  Tb11  1  0.936772  0.563617  0.936423  1
  Tb  Tb12  1  0.150334  0.546861  0.149991  1
  Dy  Dy13  1  0.312613  0.690127  0.690428  1
  Dy  Dy14  1  0.690177  0.312427  0.690631  1
  Dy  Dy15  1  0.546586  0.150383  0.150106  1
  In  In16  1  0.918077  0.918268  0.247183  1
  In  In17  1  0.247240  0.918158  0.918137  1
  In  In18  1  0.918045  0.247296  0.918151  1
  In  In19  1  0.917759  0.917949  0.917857  1
  Ru  Ru20  1  0.357879  0.357415  0.357266  1
  Rh  Rh21  1  0.923575  0.358079  0.358527  1
  Rh  Rh22  1  0.358659  0.358107  0.923718  1
  Rh  Rh23  1  0.358233  0.924030  0.358137  1
