# generated using pymatgen
data_V12FeSi2Pt
_symmetry_space_group_name_H-M   'P 1'
_cell_length_a   4.71072100
_cell_length_b   4.71737900
_cell_length_c   9.43995300
_cell_angle_alpha   90.00000000
_cell_angle_beta   90.00000000
_cell_angle_gamma   90.00000000
_symmetry_Int_Tables_number   1
_chemical_formula_structural   V12FeSi2Pt
_chemical_formula_sum   'V12 Fe1 Si2 Pt1'
_cell_volume   209.77705522
_cell_formula_units_Z   1
loop_
 _symmetry_equiv_pos_site_id
 _symmetry_equiv_pos_as_xyz
  1  'x, y, z'
loop_
 _atom_site_type_symbol
 _atom_site_label
 _atom_site_symmetry_multiplicity
 _atom_site_fract_x
 _atom_site_fract_y
 _atom_site_fract_z
 _atom_site_occupancy
  V  V0  1  0.000000  0.500000  0.117347  1
  V  V1  1  0.000000  0.500000  0.629313  1
  V  V2  1  0.500000  0.253704  0.752140  1
  V  V3  1  0.500000  0.252432  0.247900  1
  V  V4  1  0.743595  0.000000  0.004412  1
  V  V5  1  0.748267  0.000000  0.495663  1
  V  V6  1  0.000000  0.500000  0.881030  1
  V  V7  1  0.000000  0.500000  0.372953  1
  V  V8  1  0.500000  0.746296  0.752140  1
  V  V9  1  0.500000  0.747568  0.247900  1
  V  V10  1  0.256405  0.000000  0.004412  1
  V  V11  1  0.251733  0.000000  0.495663  1
  Fe  Fe12  1  0.500000  0.500000  0.998026  1
  Si  Si13  1  0.500000  0.500000  0.499352  1
  Si  Si14  1  0.000000  0.000000  0.249798  1
  Pt  Pt15  1  0.000000  0.000000  0.751953  1
