# generated using pymatgen
data_Ca6Cd3InSn2
_symmetry_space_group_name_H-M   'P 1'
_cell_length_a   5.46365400
_cell_length_b   7.66012300
_cell_length_c   16.53278000
_cell_angle_alpha   90.00000000
_cell_angle_beta   89.99948615
_cell_angle_gamma   90.00000000
_symmetry_Int_Tables_number   1
_chemical_formula_structural   Ca6Cd3InSn2
_chemical_formula_sum   'Ca12 Cd6 In2 Sn4'
_cell_volume   691.93423468
_cell_formula_units_Z   2
loop_
 _symmetry_equiv_pos_site_id
 _symmetry_equiv_pos_as_xyz
  1  'x, y, z'
loop_
 _atom_site_type_symbol
 _atom_site_label
 _atom_site_symmetry_multiplicity
 _atom_site_fract_x
 _atom_site_fract_y
 _atom_site_fract_z
 _atom_site_occupancy
  Ca  Ca0  1  0.500008  0.248206  0.000559  1
  Ca  Ca1  1  0.500008  0.751793  0.000559  1
  Ca  Ca2  1  0.999913  0.251801  0.166119  1
  Ca  Ca3  1  0.999913  0.748200  0.166119  1
  Ca  Ca4  1  0.499979  0.250607  0.332168  1
  Ca  Ca5  1  0.499979  0.749394  0.332168  1
  Ca  Ca6  1  0.000007  0.249035  0.499658  1
  Ca  Ca7  1  0.000007  0.750965  0.499658  1
  Ca  Ca8  1  0.499992  0.250921  0.667036  1
  Ca  Ca9  1  0.499992  0.749080  0.667036  1
  Ca  Ca10  1  0.000071  0.249406  0.834483  1
  Ca  Ca11  1  0.000071  0.750595  0.834483  1
  Cd  Cd12  1  0.000055  0.000000  0.006707  1
  Cd  Cd13  1  0.499907  0.500000  0.159948  1
  Cd  Cd14  1  0.999968  0.000000  0.326372  1
  Cd  Cd15  1  0.500009  0.500000  0.499786  1
  Cd  Cd16  1  0.999994  0.000000  0.666903  1
  Cd  Cd17  1  0.500057  0.500000  0.840337  1
  In  In18  1  0.999981  0.500000  0.000001  1
  In  In19  1  0.499874  0.000000  0.166578  1
  Sn  Sn20  1  0.999995  0.500000  0.334186  1
  Sn  Sn21  1  0.500057  0.000000  0.499919  1
  Sn  Sn22  1  0.000056  0.500000  0.666716  1
  Sn  Sn23  1  0.500112  0.000000  0.832497  1
