# generated using pymatgen
data_V3In(WO4)4
_symmetry_space_group_name_H-M   'P 1'
_cell_length_a   5.69268547
_cell_length_b   5.69264187
_cell_length_c   9.29550813
_cell_angle_alpha   91.86295315
_cell_angle_beta   88.13792065
_cell_angle_gamma   109.36404483
_symmetry_Int_Tables_number   1
_chemical_formula_structural   V3In(WO4)4
_chemical_formula_sum   'V3 In1 W4 O16'
_cell_volume   283.96805730
_cell_formula_units_Z   1
loop_
 _symmetry_equiv_pos_site_id
 _symmetry_equiv_pos_as_xyz
  1  'x, y, z'
loop_
 _atom_site_type_symbol
 _atom_site_label
 _atom_site_symmetry_multiplicity
 _atom_site_fract_x
 _atom_site_fract_y
 _atom_site_fract_z
 _atom_site_occupancy
  V  V0  1  0.127852  0.872177  0.371453  1
  V  V1  1  0.622308  0.377672  0.878356  1
  V  V2  1  0.374978  0.625009  0.125074  1
  In  In3  1  0.874905  0.125088  0.625084  1
  W  W4  1  0.001616  0.998384  0.002826  1
  W  W5  1  0.251316  0.748690  0.752771  1
  W  W6  1  0.498516  0.501478  0.497004  1
  W  W7  1  0.748650  0.251361  0.247426  1
  O  O8  1  0.031973  0.968002  0.784902  1
  O  O9  1  0.278202  0.721821  0.529341  1
  O  O10  1  0.778457  0.221542  0.027403  1
  O  O11  1  0.527458  0.472602  0.274945  1
  O  O12  1  0.717696  0.282315  0.465241  1
  O  O13  1  0.971800  0.028159  0.222769  1
  O  O14  1  0.471388  0.528623  0.720522  1
  O  O15  1  0.222978  0.776985  0.974891  1
  O  O16  1  0.535045  0.050789  0.757798  1
  O  O17  1  0.800270  0.785920  0.491841  1
  O  O18  1  0.295902  0.296756  0.001576  1
  O  O19  1  0.047510  0.545291  0.248780  1
  O  O20  1  0.949199  0.464941  0.757790  1
  O  O21  1  0.214087  0.199782  0.491833  1
  O  O22  1  0.703199  0.704081  0.001577  1
  O  O23  1  0.454692  0.952533  0.248787  1
