# generated using pymatgen
data_Sr4La3(PaS4)5
_symmetry_space_group_name_H-M   'P 1'
_cell_length_a   7.54535776
_cell_length_b   8.17615191
_cell_length_c   11.83501200
_cell_angle_alpha   89.85710644
_cell_angle_beta   89.86888268
_cell_angle_gamma   90.21451410
_symmetry_Int_Tables_number   1
_chemical_formula_structural   Sr4La3(PaS4)5
_chemical_formula_sum   'Sr4 La3 Pa5 S20'
_cell_volume   730.11614101
_cell_formula_units_Z   1
loop_
 _symmetry_equiv_pos_site_id
 _symmetry_equiv_pos_as_xyz
  1  'x, y, z'
loop_
 _atom_site_type_symbol
 _atom_site_label
 _atom_site_symmetry_multiplicity
 _atom_site_fract_x
 _atom_site_fract_y
 _atom_site_fract_z
 _atom_site_occupancy
  Sr  Sr0  1  0.046332  0.496309  0.326500  1
  Sr  Sr1  1  0.547624  0.505789  0.170044  1
  Sr  Sr2  1  0.952959  0.505509  0.672149  1
  Sr  Sr3  1  0.449954  0.493697  0.829247  1
  La  La4  1  0.038232  0.003188  0.324132  1
  La  La5  1  0.540850  0.998054  0.176818  1
  La  La6  1  0.959879  0.997581  0.673390  1
  Pa  Pa7  1  0.459551  0.999403  0.823862  1
  Pa  Pa8  1  0.068596  0.751643  0.006421  1
  Pa  Pa9  1  0.567616  0.250821  0.493237  1
  Pa  Pa10  1  0.933620  0.248861  0.990298  1
  Pa  Pa11  1  0.428807  0.749923  0.509764  1
  S  S12  1  0.668391  0.958027  0.415166  1
  S  S13  1  0.166200  0.044228  0.087463  1
  S  S14  1  0.336742  0.042817  0.596662  1
  S  S15  1  0.826356  0.955088  0.910534  1
  S  S16  1  0.447669  0.772670  0.996812  1
  S  S17  1  0.943349  0.240822  0.497536  1
  S  S18  1  0.551208  0.227377  0.990019  1
  S  S19  1  0.056187  0.762549  0.503111  1
  S  S20  1  0.848810  0.759111  0.187655  1
  S  S21  1  0.350121  0.241046  0.312372  1
  S  S22  1  0.160828  0.229396  0.813268  1
  S  S23  1  0.643583  0.766699  0.695803  1
  S  S24  1  0.324005  0.756151  0.288025  1
  S  S25  1  0.821374  0.245913  0.207912  1
  S  S26  1  0.673791  0.235448  0.715440  1
  S  S27  1  0.183006  0.762846  0.787364  1
  S  S28  1  0.177705  0.459053  0.074150  1
  S  S29  1  0.671519  0.543532  0.422767  1
  S  S30  1  0.827287  0.538853  0.918532  1
  S  S31  1  0.327849  0.457598  0.583550  1
