# generated using pymatgen
data_Nd2Ho3Zr5(Si5Ir2)4
_symmetry_space_group_name_H-M   'P 1'
_cell_length_a   12.54562205
_cell_length_b   12.54536705
_cell_length_c   4.20296600
_cell_angle_alpha   90.00000000
_cell_angle_beta   90.00000000
_cell_angle_gamma   90.25496894
_symmetry_Int_Tables_number   1
_chemical_formula_structural   Nd2Ho3Zr5(Si5Ir2)4
_chemical_formula_sum   'Nd2 Ho3 Zr5 Si20 Ir8'
_cell_volume   661.49588837
_cell_formula_units_Z   1
loop_
 _symmetry_equiv_pos_site_id
 _symmetry_equiv_pos_as_xyz
  1  'x, y, z'
loop_
 _atom_site_type_symbol
 _atom_site_label
 _atom_site_symmetry_multiplicity
 _atom_site_fract_x
 _atom_site_fract_y
 _atom_site_fract_z
 _atom_site_occupancy
  Nd  Nd0  1  0.884450  0.384899  0.500000  1
  Nd  Nd1  1  0.115550  0.615101  0.500000  1
  Ho  Ho2  1  0.000000  0.000000  0.000000  1
  Ho  Ho3  1  0.385390  0.114958  0.500000  1
  Ho  Ho4  1  0.614610  0.885042  0.500000  1
  Zr  Zr5  1  0.500000  0.500000  0.000000  1
  Zr  Zr6  1  0.673044  0.174905  0.500000  1
  Zr  Zr7  1  0.326956  0.825095  0.500000  1
  Zr  Zr8  1  0.176944  0.324954  0.500000  1
  Zr  Zr9  1  0.823056  0.675046  0.500000  1
  Si  Si10  1  0.566235  0.067511  0.000000  1
  Si  Si11  1  0.433765  0.932489  0.000000  1
  Si  Si12  1  0.068964  0.432075  0.000000  1
  Si  Si13  1  0.931036  0.567925  0.000000  1
  Si  Si14  1  0.664931  0.701952  0.000000  1
  Si  Si15  1  0.335069  0.298048  0.000000  1
  Si  Si16  1  0.164617  0.801833  0.000000  1
  Si  Si17  1  0.835383  0.198167  0.000000  1
  Si  Si18  1  0.300177  0.665602  0.000000  1
  Si  Si19  1  0.699823  0.334398  0.000000  1
  Si  Si20  1  0.200052  0.163727  0.000000  1
  Si  Si21  1  0.799948  0.836273  0.000000  1
  Si  Si22  1  0.652317  0.508689  0.500000  1
  Si  Si23  1  0.347683  0.491311  0.500000  1
  Si  Si24  1  0.157987  0.992531  0.500000  1
  Si  Si25  1  0.842013  0.007469  0.500000  1
  Si  Si26  1  0.492245  0.654128  0.500000  1
  Si  Si27  1  0.507755  0.345872  0.500000  1
  Si  Si28  1  0.008886  0.156028  0.500000  1
  Si  Si29  1  0.991114  0.843972  0.500000  1
  Ir  Ir30  1  0.739786  0.522459  0.000000  1
  Ir  Ir31  1  0.260214  0.477541  0.000000  1
  Ir  Ir32  1  0.246232  0.979451  0.000000  1
  Ir  Ir33  1  0.753768  0.020549  0.000000  1
  Ir  Ir34  1  0.479497  0.742871  0.000000  1
  Ir  Ir35  1  0.520503  0.257129  0.000000  1
  Ir  Ir36  1  0.022395  0.242998  0.000000  1
  Ir  Ir37  1  0.977605  0.757002  0.000000  1
