# generated using pymatgen
data_Zr2Cu2Hg
_symmetry_space_group_name_H-M   'P 1'
_cell_length_a   7.22098000
_cell_length_b   7.22098000
_cell_length_c   6.87187800
_cell_angle_alpha   90.00000000
_cell_angle_beta   90.00000000
_cell_angle_gamma   90.00000000
_symmetry_Int_Tables_number   1
_chemical_formula_structural   Zr2Cu2Hg
_chemical_formula_sum   'Zr8 Cu8 Hg4'
_cell_volume   358.31725705
_cell_formula_units_Z   4
loop_
 _symmetry_equiv_pos_site_id
 _symmetry_equiv_pos_as_xyz
  1  'x, y, z'
loop_
 _atom_site_type_symbol
 _atom_site_label
 _atom_site_symmetry_multiplicity
 _atom_site_fract_x
 _atom_site_fract_y
 _atom_site_fract_z
 _atom_site_occupancy
  Zr  Zr0  1  0.352410  0.647590  0.000000  1
  Zr  Zr1  1  0.647590  0.352410  0.000000  1
  Zr  Zr2  1  0.852410  0.852410  0.500000  1
  Zr  Zr3  1  0.147590  0.147590  0.500000  1
  Zr  Zr4  1  0.194282  0.194282  0.000000  1
  Zr  Zr5  1  0.805718  0.805718  0.000000  1
  Zr  Zr6  1  0.694282  0.305718  0.500000  1
  Zr  Zr7  1  0.305718  0.694282  0.500000  1
  Cu  Cu8  1  0.375742  0.375742  0.300323  1
  Cu  Cu9  1  0.624259  0.624259  0.300323  1
  Cu  Cu10  1  0.875742  0.124258  0.199677  1
  Cu  Cu11  1  0.124258  0.875742  0.199677  1
  Cu  Cu12  1  0.624259  0.624259  0.699678  1
  Cu  Cu13  1  0.375742  0.375742  0.699678  1
  Cu  Cu14  1  0.875742  0.124258  0.800322  1
  Cu  Cu15  1  0.124258  0.875742  0.800322  1
  Hg  Hg16  1  0.000000  0.500000  0.250001  1
  Hg  Hg17  1  0.500000  0.000000  0.250001  1
  Hg  Hg18  1  0.500000  0.000000  0.750000  1
  Hg  Hg19  1  0.000000  0.500000  0.750000  1
