# generated using pymatgen
data_NdEr7(Si4W3)4
_symmetry_space_group_name_H-M   'P 1'
_cell_length_a   6.76770935
_cell_length_b   6.92874448
_cell_length_c   12.89443232
_cell_angle_alpha   89.89455238
_cell_angle_beta   90.03320127
_cell_angle_gamma   89.91850641
_symmetry_Int_Tables_number   1
_chemical_formula_structural   NdEr7(Si4W3)4
_chemical_formula_sum   'Nd1 Er7 Si16 W12'
_cell_volume   604.64048511
_cell_formula_units_Z   1
loop_
 _symmetry_equiv_pos_site_id
 _symmetry_equiv_pos_as_xyz
  1  'x, y, z'
loop_
 _atom_site_type_symbol
 _atom_site_label
 _atom_site_symmetry_multiplicity
 _atom_site_fract_x
 _atom_site_fract_y
 _atom_site_fract_z
 _atom_site_occupancy
  Nd  Nd0  1  0.997266  0.834003  0.592283  1
  Er  Er1  1  0.496160  0.667504  0.593388  1
  Er  Er2  1  0.995611  0.832065  0.906575  1
  Er  Er3  1  0.503930  0.331835  0.093184  1
  Er  Er4  1  0.004947  0.167440  0.405306  1
  Er  Er5  1  0.504659  0.332764  0.405624  1
  Er  Er6  1  0.004311  0.167921  0.093179  1
  Er  Er7  1  0.495776  0.667998  0.908095  1
  Si  Si8  1  0.660106  0.958712  0.451255  1
  Si  Si9  1  0.161818  0.541946  0.046971  1
  Si  Si10  1  0.337016  0.041360  0.954033  1
  Si  Si11  1  0.837422  0.454161  0.546544  1
  Si  Si12  1  0.342924  0.044501  0.546339  1
  Si  Si13  1  0.837992  0.458506  0.953447  1
  Si  Si14  1  0.662282  0.958659  0.046810  1
  Si  Si15  1  0.162199  0.539418  0.451357  1
  Si  Si16  1  0.464848  0.371938  0.750841  1
  Si  Si17  1  0.964097  0.132820  0.751967  1
  Si  Si18  1  0.534610  0.628458  0.249183  1
  Si  Si19  1  0.034941  0.870017  0.249762  1
  Si  Si20  1  0.694121  0.866606  0.751756  1
  Si  Si21  1  0.199654  0.632454  0.751941  1
  Si  Si22  1  0.302977  0.133777  0.249417  1
  Si  Si23  1  0.802492  0.364541  0.249004  1
  W  W24  1  0.666967  0.164738  0.626387  1
  W  W25  1  0.169861  0.337841  0.875831  1
  W  W26  1  0.331185  0.836575  0.125498  1
  W  W27  1  0.829611  0.660527  0.373104  1
  W  W28  1  0.332283  0.836480  0.373590  1
  W  W29  1  0.830698  0.662482  0.125141  1
  W  W30  1  0.667055  0.163643  0.875507  1
  W  W31  1  0.169673  0.337368  0.625702  1
  W  W32  1  0.833400  0.499778  0.751214  1
  W  W33  1  0.334558  0.002107  0.751603  1
  W  W34  1  0.166183  0.498966  0.249189  1
  W  W35  1  0.666368  0.000089  0.248969  1
