# generated using pymatgen
data_Rb2YU(CuSe3)2
_symmetry_space_group_name_H-M   'P 1'
_cell_length_a   4.10975600
_cell_length_b   8.00132474
_cell_length_c   10.68196137
_cell_angle_alpha   89.88260416
_cell_angle_beta   90.00000000
_cell_angle_gamma   75.11870173
_symmetry_Int_Tables_number   1
_chemical_formula_structural   Rb2YU(CuSe3)2
_chemical_formula_sum   'Rb2 Y1 U1 Cu2 Se6'
_cell_volume   339.47815062
_cell_formula_units_Z   1
loop_
 _symmetry_equiv_pos_site_id
 _symmetry_equiv_pos_as_xyz
  1  'x, y, z'
loop_
 _atom_site_type_symbol
 _atom_site_label
 _atom_site_symmetry_multiplicity
 _atom_site_fract_x
 _atom_site_fract_y
 _atom_site_fract_z
 _atom_site_occupancy
  Rb  Rb0  1  0.743430  0.513143  0.229807  1
  Rb  Rb1  1  0.256571  0.486857  0.770193  1
  Y  Y2  1  0.000000  0.000000  0.000000  1
  U  U3  1  0.000000  0.000000  0.500000  1
  Cu  Cu4  1  0.465093  0.069815  0.252288  1
  Cu  Cu5  1  0.534908  0.930186  0.747712  1
  Se  Se6  1  0.378971  0.242060  0.062407  1
  Se  Se7  1  0.058746  0.882507  0.258819  1
  Se  Se8  1  0.381628  0.236747  0.444917  1
  Se  Se9  1  0.618373  0.763253  0.555083  1
  Se  Se10  1  0.941255  0.117493  0.741181  1
  Se  Se11  1  0.621030  0.757940  0.937593  1
