# generated using pymatgen
data_ZrZn3Ni
_symmetry_space_group_name_H-M   'P 1'
_cell_length_a   8.66852710
_cell_length_b   8.66852616
_cell_length_c   8.66852700
_cell_angle_alpha   60.00000060
_cell_angle_beta   60.00000420
_cell_angle_gamma   60.00000140
_symmetry_Int_Tables_number   1
_chemical_formula_structural   ZrZn3Ni
_chemical_formula_sum   'Zr6 Zn18 Ni6'
_cell_volume   460.59678681
_cell_formula_units_Z   6
loop_
 _symmetry_equiv_pos_site_id
 _symmetry_equiv_pos_as_xyz
  1  'x, y, z'
loop_
 _atom_site_type_symbol
 _atom_site_label
 _atom_site_symmetry_multiplicity
 _atom_site_fract_x
 _atom_site_fract_y
 _atom_site_fract_z
 _atom_site_occupancy
  Zr  Zr0  1  0.729304  0.270696  0.270696  1
  Zr  Zr1  1  0.270696  0.729304  0.729304  1
  Zr  Zr2  1  0.270696  0.729304  0.270696  1
  Zr  Zr3  1  0.729304  0.270696  0.729304  1
  Zr  Zr4  1  0.270696  0.270696  0.729304  1
  Zr  Zr5  1  0.729304  0.729304  0.270696  1
  Zn  Zn6  1  0.130928  0.130928  0.130928  1
  Zn  Zn7  1  0.869072  0.869072  0.869072  1
  Zn  Zn8  1  0.130928  0.130928  0.607217  1
  Zn  Zn9  1  0.130928  0.607217  0.130928  1
  Zn  Zn10  1  0.869072  0.869072  0.392783  1
  Zn  Zn11  1  0.869072  0.392783  0.869072  1
  Zn  Zn12  1  0.607217  0.130928  0.130928  1
  Zn  Zn13  1  0.392783  0.869072  0.869072  1
  Zn  Zn14  1  0.345652  0.345652  0.345652  1
  Zn  Zn15  1  0.654348  0.654348  0.654348  1
  Zn  Zn16  1  0.345652  0.345652  0.963043  1
  Zn  Zn17  1  0.345652  0.963043  0.345652  1
  Zn  Zn18  1  0.654348  0.654348  0.036957  1
  Zn  Zn19  1  0.654348  0.036957  0.654348  1
  Zn  Zn20  1  0.963043  0.345652  0.345652  1
  Zn  Zn21  1  0.036957  0.654348  0.654348  1
  Zn  Zn22  1  0.000000  0.000000  0.000000  1
  Zn  Zn23  1  0.500000  0.500000  0.500000  1
  Ni  Ni24  1  0.500000  0.000000  0.000000  1
  Ni  Ni25  1  0.000000  0.500000  0.500000  1
  Ni  Ni26  1  0.000000  0.500000  0.000000  1
  Ni  Ni27  1  0.500000  0.000000  0.500000  1
  Ni  Ni28  1  0.000000  0.000000  0.500000  1
  Ni  Ni29  1  0.500000  0.500000  0.000000  1
