# generated using pymatgen
data_Eu7U(Si3Pt)4
_symmetry_space_group_name_H-M   'P 1'
_cell_length_a   8.21970300
_cell_length_b   8.21970309
_cell_length_c   8.50216100
_cell_angle_alpha   90.00000000
_cell_angle_beta   90.00000000
_cell_angle_gamma   119.99999562
_symmetry_Int_Tables_number   1
_chemical_formula_structural   Eu7U(Si3Pt)4
_chemical_formula_sum   'Eu7 U1 Si12 Pt4'
_cell_volume   497.47611190
_cell_formula_units_Z   1
loop_
 _symmetry_equiv_pos_site_id
 _symmetry_equiv_pos_as_xyz
  1  'x, y, z'
loop_
 _atom_site_type_symbol
 _atom_site_label
 _atom_site_symmetry_multiplicity
 _atom_site_fract_x
 _atom_site_fract_y
 _atom_site_fract_z
 _atom_site_occupancy
  Eu  Eu0  1  0.499852  0.500148  0.750000  1
  Eu  Eu1  1  0.500198  0.499802  0.250000  1
  Eu  Eu2  1  0.000298  0.500148  0.750000  1
  Eu  Eu3  1  0.999602  0.499802  0.250000  1
  Eu  Eu4  1  0.499852  0.999702  0.750000  1
  Eu  Eu5  1  0.500198  0.000398  0.250000  1
  Eu  Eu6  1  0.000000  0.000000  0.250000  1
  U  U7  1  0.000000  0.000000  0.750000  1
  Si  Si8  1  0.835633  0.164367  0.992973  1
  Si  Si9  1  0.164397  0.835603  0.993684  1
  Si  Si10  1  0.328735  0.164367  0.992973  1
  Si  Si11  1  0.164397  0.835603  0.506316  1
  Si  Si12  1  0.671205  0.835603  0.993684  1
  Si  Si13  1  0.835633  0.164367  0.507027  1
  Si  Si14  1  0.835633  0.671265  0.992973  1
  Si  Si15  1  0.671205  0.835603  0.506316  1
  Si  Si16  1  0.164397  0.328795  0.993684  1
  Si  Si17  1  0.328735  0.164367  0.507027  1
  Si  Si18  1  0.164397  0.328795  0.506316  1
  Si  Si19  1  0.835633  0.671265  0.507027  1
  Pt  Pt20  1  0.666667  0.333333  0.999961  1
  Pt  Pt21  1  0.333333  0.666667  0.000318  1
  Pt  Pt22  1  0.333333  0.666667  0.499682  1
  Pt  Pt23  1  0.666667  0.333333  0.500039  1
