# generated using pymatgen
data_Sr6YErBi6
_symmetry_space_group_name_H-M   'P 1'
_cell_length_a   8.60575108
_cell_length_b   8.74955214
_cell_length_c   8.60982171
_cell_angle_alpha   109.70394347
_cell_angle_beta   108.86062623
_cell_angle_gamma   109.71955030
_symmetry_Int_Tables_number   1
_chemical_formula_structural   Sr6YErBi6
_chemical_formula_sum   'Sr6 Y1 Er1 Bi6'
_cell_volume   499.82195278
_cell_formula_units_Z   1
loop_
 _symmetry_equiv_pos_site_id
 _symmetry_equiv_pos_as_xyz
  1  'x, y, z'
loop_
 _atom_site_type_symbol
 _atom_site_label
 _atom_site_symmetry_multiplicity
 _atom_site_fract_x
 _atom_site_fract_y
 _atom_site_fract_z
 _atom_site_occupancy
  Sr  Sr0  1  0.359383  0.355603  0.356716  1
  Sr  Sr1  1  0.000245  0.140572  0.498059  1
  Sr  Sr2  1  0.857374  0.855224  0.859675  1
  Sr  Sr3  1  0.997190  0.640009  0.500066  1
  Sr  Sr4  1  0.503782  0.003353  0.140063  1
  Sr  Sr5  1  0.640181  0.504342  0.004450  1
  Y  Y6  1  0.501570  0.002985  0.640225  1
  Er  Er7  1  0.139324  0.503254  0.001735  1
  Bi  Bi8  1  0.877445  0.253905  0.105812  1
  Bi  Bi9  1  0.138254  0.864540  0.254264  1
  Bi  Bi10  1  0.370597  0.628360  0.752558  1
  Bi  Bi11  1  0.251990  0.128900  0.870965  1
  Bi  Bi12  1  0.757226  0.366845  0.640009  1
  Bi  Bi13  1  0.605441  0.752108  0.375404  1
