# generated using pymatgen
data_Fe2Si4BW6
_symmetry_space_group_name_H-M   'P 1'
_cell_length_a   7.80538018
_cell_length_b   7.80538040
_cell_length_c   7.80537900
_cell_angle_alpha   59.99999321
_cell_angle_beta   59.99999230
_cell_angle_gamma   59.99999577
_symmetry_Int_Tables_number   1
_chemical_formula_structural   Fe2Si4BW6
_chemical_formula_sum   'Fe4 Si8 B2 W12'
_cell_volume   336.25369947
_cell_formula_units_Z   2
loop_
 _symmetry_equiv_pos_site_id
 _symmetry_equiv_pos_as_xyz
  1  'x, y, z'
loop_
 _atom_site_type_symbol
 _atom_site_label
 _atom_site_symmetry_multiplicity
 _atom_site_fract_x
 _atom_site_fract_y
 _atom_site_fract_z
 _atom_site_occupancy
  Fe  Fe0  1  0.125000  0.125000  0.625000  1
  Fe  Fe1  1  0.125000  0.625000  0.125000  1
  Fe  Fe2  1  0.125000  0.125000  0.125000  1
  Fe  Fe3  1  0.625000  0.125000  0.125000  1
  Si  Si4  1  0.915419  0.253744  0.915419  1
  Si  Si5  1  0.334581  0.996256  0.334581  1
  Si  Si6  1  0.334581  0.334581  0.334581  1
  Si  Si7  1  0.996256  0.334581  0.334581  1
  Si  Si8  1  0.915419  0.915419  0.253744  1
  Si  Si9  1  0.253744  0.915419  0.915419  1
  Si  Si10  1  0.334581  0.334581  0.996256  1
  Si  Si11  1  0.915419  0.915419  0.915419  1
  B  B12  1  0.750000  0.750000  0.750000  1
  B  B13  1  0.500000  0.500000  0.500000  1
  W  W14  1  0.304147  0.695853  0.695853  1
  W  W15  1  0.304147  0.304147  0.695853  1
  W  W16  1  0.554147  0.945853  0.554147  1
  W  W17  1  0.945853  0.554147  0.554147  1
  W  W18  1  0.554147  0.945853  0.945853  1
  W  W19  1  0.695853  0.304147  0.304147  1
  W  W20  1  0.945853  0.554147  0.945853  1
  W  W21  1  0.304147  0.695853  0.304147  1
  W  W22  1  0.554147  0.554147  0.945853  1
  W  W23  1  0.695853  0.304147  0.695853  1
  W  W24  1  0.695853  0.695853  0.304147  1
  W  W25  1  0.945853  0.945853  0.554147  1
