# generated using pymatgen
data_Hf18Ta2Re6SiAs
_symmetry_space_group_name_H-M   'P 1'
_cell_length_a   8.68382300
_cell_length_b   8.68382247
_cell_length_c   8.62404700
_cell_angle_alpha   90.00000000
_cell_angle_beta   90.00000000
_cell_angle_gamma   119.99999820
_symmetry_Int_Tables_number   1
_chemical_formula_structural   Hf18Ta2Re6SiAs
_chemical_formula_sum   'Hf18 Ta2 Re6 Si1 As1'
_cell_volume   563.20130631
_cell_formula_units_Z   1
loop_
 _symmetry_equiv_pos_site_id
 _symmetry_equiv_pos_as_xyz
  1  'x, y, z'
loop_
 _atom_site_type_symbol
 _atom_site_label
 _atom_site_symmetry_multiplicity
 _atom_site_fract_x
 _atom_site_fract_y
 _atom_site_fract_z
 _atom_site_occupancy
  Hf  Hf0  1  0.195371  0.804629  0.454254  1
  Hf  Hf1  1  0.195371  0.390742  0.454254  1
  Hf  Hf2  1  0.609258  0.804629  0.454254  1
  Hf  Hf3  1  0.803523  0.196477  0.547674  1
  Hf  Hf4  1  0.803523  0.607046  0.547674  1
  Hf  Hf5  1  0.392954  0.196477  0.547674  1
  Hf  Hf6  1  0.803523  0.196477  0.952326  1
  Hf  Hf7  1  0.803523  0.607046  0.952326  1
  Hf  Hf8  1  0.392954  0.196477  0.952326  1
  Hf  Hf9  1  0.195371  0.804629  0.045746  1
  Hf  Hf10  1  0.195371  0.390742  0.045746  1
  Hf  Hf11  1  0.609258  0.804629  0.045746  1
  Hf  Hf12  1  0.540761  0.459239  0.250000  1
  Hf  Hf13  1  0.540761  0.081519  0.250000  1
  Hf  Hf14  1  0.918481  0.459239  0.250000  1
  Hf  Hf15  1  0.461120  0.538880  0.750000  1
  Hf  Hf16  1  0.461120  0.922241  0.750000  1
  Hf  Hf17  1  0.077759  0.538880  0.750000  1
  Ta  Ta18  1  0.000000  0.000000  0.499929  1
  Ta  Ta19  1  0.000000  0.000000  0.000071  1
  Re  Re20  1  0.887806  0.112194  0.250000  1
  Re  Re21  1  0.887806  0.775611  0.250000  1
  Re  Re22  1  0.224389  0.112194  0.250000  1
  Re  Re23  1  0.111993  0.888007  0.750000  1
  Re  Re24  1  0.111993  0.223987  0.750000  1
  Re  Re25  1  0.776013  0.888007  0.750000  1
  Si  Si26  1  0.666667  0.333333  0.750000  1
  As  As27  1  0.333333  0.666667  0.250000  1
