# generated using pymatgen
data_YbY3Tm4(B6Os)4
_symmetry_space_group_name_H-M   'P 1'
_cell_length_a   3.63276700
_cell_length_b   9.11329699
_cell_length_c   11.51021203
_cell_angle_alpha   89.93877691
_cell_angle_beta   90.00000000
_cell_angle_gamma   90.00000000
_symmetry_Int_Tables_number   1
_chemical_formula_structural   YbY3Tm4(B6Os)4
_chemical_formula_sum   'Yb1 Y3 Tm4 B24 Os4'
_cell_volume   381.06243935
_cell_formula_units_Z   1
loop_
 _symmetry_equiv_pos_site_id
 _symmetry_equiv_pos_as_xyz
  1  'x, y, z'
loop_
 _atom_site_type_symbol
 _atom_site_label
 _atom_site_symmetry_multiplicity
 _atom_site_fract_x
 _atom_site_fract_y
 _atom_site_fract_z
 _atom_site_occupancy
  Yb  Yb0  1  0.000000  0.322471  0.413560  1
  Y  Y1  1  0.000000  0.677064  0.585160  1
  Y  Y2  1  0.000000  0.821559  0.086630  1
  Y  Y3  1  0.000000  0.178990  0.914381  1
  Tm  Tm4  1  0.000000  0.944344  0.371961  1
  Tm  Tm5  1  0.000000  0.057759  0.627029  1
  Tm  Tm6  1  0.000000  0.443136  0.128903  1
  Tm  Tm7  1  0.000000  0.555950  0.872665  1
  B  B8  1  0.500000  0.553353  0.432295  1
  B  B9  1  0.500000  0.445583  0.567177  1
  B  B10  1  0.500000  0.053570  0.066998  1
  B  B11  1  0.500000  0.945815  0.932341  1
  B  B12  1  0.500000  0.748934  0.418787  1
  B  B13  1  0.500000  0.251441  0.580756  1
  B  B14  1  0.500000  0.248648  0.081260  1
  B  B15  1  0.500000  0.750694  0.919141  1
  B  B16  1  0.500000  0.791651  0.266303  1
  B  B17  1  0.500000  0.209304  0.733813  1
  B  B18  1  0.500000  0.290654  0.234164  1
  B  B19  1  0.500000  0.708814  0.766271  1
  B  B20  1  0.500000  0.630694  0.185821  1
  B  B21  1  0.500000  0.369387  0.815272  1
  B  B22  1  0.500000  0.130911  0.314610  1
  B  B23  1  0.500000  0.869434  0.684864  1
  B  B24  1  0.500000  0.982916  0.212785  1
  B  B25  1  0.500000  0.017377  0.786399  1
  B  B26  1  0.500000  0.482468  0.287392  1
  B  B27  1  0.500000  0.516952  0.713200  1
  B  B28  1  0.500000  0.604632  0.029221  1
  B  B29  1  0.500000  0.395424  0.971523  1
  B  B30  1  0.500000  0.102888  0.471414  1
  B  B31  1  0.500000  0.896659  0.528478  1
  Os  Os32  1  0.000000  0.639176  0.320245  1
  Os  Os33  1  0.000000  0.361961  0.680210  1
  Os  Os34  1  0.000000  0.137240  0.178608  1
  Os  Os35  1  0.000000  0.862145  0.820365  1
