# generated using pymatgen
data_Lu2VReSi2C
_symmetry_space_group_name_H-M   'P 1'
_cell_length_a   5.69527782
_cell_length_b   5.69527706
_cell_length_c   6.91428347
_cell_angle_alpha   122.97545894
_cell_angle_beta   122.97546606
_cell_angle_gamma   38.35109139
_symmetry_Int_Tables_number   1
_chemical_formula_structural   Lu2VReSi2C
_chemical_formula_sum   'Lu2 V1 Re1 Si2 C1'
_cell_volume   113.72876378
_cell_formula_units_Z   1
loop_
 _symmetry_equiv_pos_site_id
 _symmetry_equiv_pos_as_xyz
  1  'x, y, z'
loop_
 _atom_site_type_symbol
 _atom_site_label
 _atom_site_symmetry_multiplicity
 _atom_site_fract_x
 _atom_site_fract_y
 _atom_site_fract_z
 _atom_site_occupancy
  Lu  Lu0  1  0.573088  0.573088  0.293076  1
  Lu  Lu1  1  0.427283  0.427283  0.708137  1
  V  V2  1  0.205946  0.205946  0.081483  1
  Re  Re3  1  0.791065  0.791065  0.916637  1
  Si  Si4  1  0.866545  0.866545  0.337043  1
  Si  Si5  1  0.134080  0.134080  0.662752  1
  C  C6  1  0.001992  0.001992  0.000876  1
