# generated using pymatgen
data_Yb3Y(Ga2Ag)4
_symmetry_space_group_name_H-M   'P 1'
_cell_length_a   4.33931300
_cell_length_b   6.97280624
_cell_length_c   10.41929273
_cell_angle_alpha   90.61439871
_cell_angle_beta   90.00000000
_cell_angle_gamma   90.00000000
_symmetry_Int_Tables_number   1
_chemical_formula_structural   Yb3Y(Ga2Ag)4
_chemical_formula_sum   'Yb3 Y1 Ga8 Ag4'
_cell_volume   315.24038176
_cell_formula_units_Z   1
loop_
 _symmetry_equiv_pos_site_id
 _symmetry_equiv_pos_as_xyz
  1  'x, y, z'
loop_
 _atom_site_type_symbol
 _atom_site_label
 _atom_site_symmetry_multiplicity
 _atom_site_fract_x
 _atom_site_fract_y
 _atom_site_fract_z
 _atom_site_occupancy
  Yb  Yb0  1  0.750000  0.225340  0.172076  1
  Yb  Yb1  1  0.750000  0.724100  0.327741  1
  Yb  Yb2  1  0.250000  0.275317  0.671247  1
  Y  Y3  1  0.250000  0.778591  0.828609  1
  Ga  Ga4  1  0.250000  0.702999  0.535286  1
  Ga  Ga5  1  0.750000  0.297910  0.464870  1
  Ga  Ga6  1  0.750000  0.795482  0.036554  1
  Ga  Ga7  1  0.250000  0.203012  0.964555  1
  Ga  Ga8  1  0.250000  0.926092  0.149050  1
  Ga  Ga9  1  0.750000  0.074182  0.849091  1
  Ga  Ga10  1  0.750000  0.571843  0.651554  1
  Ga  Ga11  1  0.250000  0.427742  0.348658  1
  Ag  Ag12  1  0.250000  0.539399  0.100280  1
  Ag  Ag13  1  0.750000  0.457883  0.900547  1
  Ag  Ag14  1  0.750000  0.959998  0.598962  1
  Ag  Ag15  1  0.250000  0.040110  0.400920  1
