# generated using pymatgen
data_BaBi6(AsO5)4
_symmetry_space_group_name_H-M   'P 1'
_cell_length_a   7.28200980
_cell_length_b   8.07396920
_cell_length_c   9.43987008
_cell_angle_alpha   106.80356378
_cell_angle_beta   93.45112329
_cell_angle_gamma   111.11747272
_symmetry_Int_Tables_number   1
_chemical_formula_structural   BaBi6(AsO5)4
_chemical_formula_sum   'Ba1 Bi6 As4 O20'
_cell_volume   487.16884788
_cell_formula_units_Z   1
loop_
 _symmetry_equiv_pos_site_id
 _symmetry_equiv_pos_as_xyz
  1  'x, y, z'
loop_
 _atom_site_type_symbol
 _atom_site_label
 _atom_site_symmetry_multiplicity
 _atom_site_fract_x
 _atom_site_fract_y
 _atom_site_fract_z
 _atom_site_occupancy
  Ba  Ba0  1  0.000000  0.000000  0.000000  1
  Bi  Bi1  1  0.332594  0.119417  0.513928  1
  Bi  Bi2  1  0.667406  0.880583  0.486072  1
  Bi  Bi3  1  0.445076  0.804295  0.088843  1
  Bi  Bi4  1  0.554924  0.195705  0.911157  1
  Bi  Bi5  1  0.795802  0.288247  0.327527  1
  Bi  Bi6  1  0.204198  0.711753  0.672473  1
  As  As7  1  0.040475  0.274296  0.750559  1
  As  As8  1  0.959525  0.725704  0.249441  1
  As  As9  1  0.356829  0.405253  0.263389  1
  As  As10  1  0.643171  0.594747  0.736611  1
  O  O11  1  0.127416  0.269410  0.290705  1
  O  O12  1  0.872584  0.730590  0.709295  1
  O  O13  1  0.150360  0.515931  0.823681  1
  O  O14  1  0.849640  0.484069  0.176319  1
  O  O15  1  0.668057  0.092842  0.100463  1
  O  O16  1  0.331943  0.907158  0.899537  1
  O  O17  1  0.549080  0.023700  0.361663  1
  O  O18  1  0.450920  0.976300  0.638337  1
  O  O19  1  0.389829  0.638866  0.311593  1
  O  O20  1  0.610171  0.361134  0.688407  1
  O  O21  1  0.211991  0.169257  0.752336  1
  O  O22  1  0.788009  0.830743  0.247664  1
  O  O23  1  0.536774  0.378713  0.373065  1
  O  O24  1  0.463226  0.621287  0.626935  1
  O  O25  1  0.066676  0.804508  0.438100  1
  O  O26  1  0.933324  0.195492  0.561900  1
  O  O27  1  0.135653  0.819658  0.150104  1
  O  O28  1  0.864347  0.180342  0.849896  1
  O  O29  1  0.359742  0.317835  0.074849  1
  O  O30  1  0.640258  0.682165  0.925151  1
