# generated using pymatgen
data_TlZn(AgTe2)4
_symmetry_space_group_name_H-M   'P 1'
_cell_length_a   12.15276680
_cell_length_b   12.15276679
_cell_length_c   10.79257200
_cell_angle_alpha   90.43658353
_cell_angle_beta   90.43658353
_cell_angle_gamma   14.63823031
_symmetry_Int_Tables_number   1
_chemical_formula_structural   TlZn(AgTe2)4
_chemical_formula_sum   'Tl1 Zn1 Ag4 Te8'
_cell_volume   402.80373505
_cell_formula_units_Z   1
loop_
 _symmetry_equiv_pos_site_id
 _symmetry_equiv_pos_as_xyz
  1  'x, y, z'
loop_
 _atom_site_type_symbol
 _atom_site_label
 _atom_site_symmetry_multiplicity
 _atom_site_fract_x
 _atom_site_fract_y
 _atom_site_fract_z
 _atom_site_occupancy
  Tl  Tl0  1  0.000000  0.000000  0.000000  1
  Zn  Zn1  1  0.500000  0.500000  0.500000  1
  Ag  Ag2  1  0.240682  0.240682  0.114298  1
  Ag  Ag3  1  0.840247  0.840247  0.464731  1
  Ag  Ag4  1  0.159753  0.159753  0.535269  1
  Ag  Ag5  1  0.759318  0.759318  0.885702  1
  Te  Te6  1  0.927720  0.927720  0.643112  1
  Te  Te7  1  0.072280  0.072280  0.356888  1
  Te  Te8  1  0.583519  0.583519  0.722233  1
  Te  Te9  1  0.416481  0.416481  0.277767  1
  Te  Te10  1  0.644967  0.644967  0.980982  1
  Te  Te11  1  0.355033  0.355033  0.019018  1
  Te  Te12  1  0.737386  0.737386  0.339492  1
  Te  Te13  1  0.262614  0.262614  0.660508  1
