# generated using pymatgen
data_TbDy10YCo5Bi
_symmetry_space_group_name_H-M   'P 1'
_cell_length_a   8.32715343
_cell_length_b   8.32715222
_cell_length_c   8.31503959
_cell_angle_alpha   110.74422149
_cell_angle_beta   110.73737175
_cell_angle_gamma   107.02258626
_symmetry_Int_Tables_number   1
_chemical_formula_structural   TbDy10YCo5Bi
_chemical_formula_sum   'Tb1 Dy10 Y1 Co5 Bi1'
_cell_volume   442.89086374
_cell_formula_units_Z   1
loop_
 _symmetry_equiv_pos_site_id
 _symmetry_equiv_pos_as_xyz
  1  'x, y, z'
loop_
 _atom_site_type_symbol
 _atom_site_label
 _atom_site_symmetry_multiplicity
 _atom_site_fract_x
 _atom_site_fract_y
 _atom_site_fract_z
 _atom_site_occupancy
  Tb  Tb0  1  0.815941  0.710187  0.526127  1
  Dy  Dy1  1  0.183910  0.709827  0.893736  1
  Dy  Dy2  1  0.816303  0.290286  0.106590  1
  Dy  Dy3  1  0.688735  0.378976  0.691043  1
  Dy  Dy4  1  0.311452  0.621069  0.309177  1
  Dy  Dy5  1  0.688108  0.997725  0.309177  1
  Dy  Dy6  1  0.312067  0.002309  0.691043  1
  Dy  Dy7  1  0.600235  0.794693  0.806426  1
  Dy  Dy8  1  0.400161  0.205483  0.193771  1
  Dy  Dy9  1  0.988288  0.793609  0.193771  1
  Dy  Dy10  1  0.011734  0.206192  0.806426  1
  Y  Y11  1  0.184922  0.289473  0.474397  1
  Co  Co12  1  0.623790  0.999975  0.623764  1
  Co  Co13  1  0.376174  0.000412  0.376586  1
  Co  Co14  1  0.110657  0.611624  0.499385  1
  Co  Co15  1  0.887761  0.388728  0.499385  1
  Co  Co16  1  0.000039  0.999628  0.999667  1
  Bi  Bi17  1  0.499721  0.499806  0.999527  1
