# generated using pymatgen
data_HfSc5(AsRu)6
_symmetry_space_group_name_H-M   'P 1'
_cell_length_a   7.69716931
_cell_length_b   7.69011741
_cell_length_c   7.69716942
_cell_angle_alpha   127.89690325
_cell_angle_beta   121.29687799
_cell_angle_gamma   82.34114911
_symmetry_Int_Tables_number   1
_chemical_formula_structural   HfSc5(AsRu)6
_chemical_formula_sum   'Hf1 Sc5 As6 Ru6'
_cell_volume   295.32061258
_cell_formula_units_Z   1
loop_
 _symmetry_equiv_pos_site_id
 _symmetry_equiv_pos_as_xyz
  1  'x, y, z'
loop_
 _atom_site_type_symbol
 _atom_site_label
 _atom_site_symmetry_multiplicity
 _atom_site_fract_x
 _atom_site_fract_y
 _atom_site_fract_z
 _atom_site_occupancy
  Hf  Hf0  1  0.947864  0.650889  0.203025  1
  Sc  Sc1  1  0.469349  0.696599  0.727251  1
  Sc  Sc2  1  0.530677  0.258064  0.227387  1
  Sc  Sc3  1  0.749149  0.835664  0.586515  1
  Sc  Sc4  1  0.250793  0.836757  0.085963  1
  Sc  Sc5  1  0.051398  0.255318  0.703920  1
  As  As6  1  0.273995  0.271488  0.497494  1
  As  As7  1  0.723210  0.214948  0.991738  1
  As  As8  1  0.331117  0.586864  0.249988  1
  As  As9  1  0.669839  0.922315  0.258798  1
  As  As10  1  0.163517  0.922315  0.752475  1
  As  As11  1  0.836876  0.586864  0.755747  1
  Ru  Ru12  1  0.505261  0.497018  0.999571  1
  Ru  Ru13  1  0.997447  0.497018  0.491757  1
  Ru  Ru14  1  0.095588  0.255778  0.106513  1
  Ru  Ru15  1  0.906319  0.007962  0.159625  1
  Ru  Ru16  1  0.348337  0.007962  0.601643  1
  Ru  Ru17  1  0.649265  0.255778  0.660190  1
