# generated using pymatgen
data_LuSc11Co4
_symmetry_space_group_name_H-M   'P 1'
_cell_length_a   5.88154902
_cell_length_b   6.50307547
_cell_length_c   8.60555818
_cell_angle_alpha   90.04386297
_cell_angle_beta   89.62150977
_cell_angle_gamma   89.99378578
_symmetry_Int_Tables_number   1
_chemical_formula_structural   LuSc11Co4
_chemical_formula_sum   'Lu1 Sc11 Co4'
_cell_volume   329.13946183
_cell_formula_units_Z   1
loop_
 _symmetry_equiv_pos_site_id
 _symmetry_equiv_pos_as_xyz
  1  'x, y, z'
loop_
 _atom_site_type_symbol
 _atom_site_label
 _atom_site_symmetry_multiplicity
 _atom_site_fract_x
 _atom_site_fract_y
 _atom_site_fract_z
 _atom_site_occupancy
  Lu  Lu0  1  0.175618  0.179487  0.060217  1
  Sc  Sc1  1  0.321689  0.678549  0.063678  1
  Sc  Sc2  1  0.179628  0.178486  0.439560  1
  Sc  Sc3  1  0.677804  0.322408  0.562311  1
  Sc  Sc4  1  0.817537  0.818510  0.935321  1
  Sc  Sc5  1  0.676454  0.324183  0.933900  1
  Sc  Sc6  1  0.822922  0.822064  0.561947  1
  Sc  Sc7  1  0.323236  0.677414  0.435616  1
  Sc  Sc8  1  0.873494  0.540453  0.251387  1
  Sc  Sc9  1  0.626720  0.037998  0.251489  1
  Sc  Sc10  1  0.123231  0.464719  0.747220  1
  Sc  Sc11  1  0.377210  0.958406  0.746877  1
  Co  Co12  1  0.037528  0.889437  0.258636  1
  Co  Co13  1  0.467444  0.393104  0.253197  1
  Co  Co14  1  0.962240  0.107366  0.749064  1
  Co  Co15  1  0.537247  0.607415  0.749582  1
