# generated using pymatgen
data_Sr3CuAs2H
_symmetry_space_group_name_H-M   'P 1'
_cell_length_a   4.41152700
_cell_length_b   12.01623100
_cell_length_c   12.57098700
_cell_angle_alpha   90.00000000
_cell_angle_beta   90.00000000
_cell_angle_gamma   90.00000000
_symmetry_Int_Tables_number   1
_chemical_formula_structural   Sr3CuAs2H
_chemical_formula_sum   'Sr12 Cu4 As8 H4'
_cell_volume   666.38710941
_cell_formula_units_Z   4
loop_
 _symmetry_equiv_pos_site_id
 _symmetry_equiv_pos_as_xyz
  1  'x, y, z'
loop_
 _atom_site_type_symbol
 _atom_site_label
 _atom_site_symmetry_multiplicity
 _atom_site_fract_x
 _atom_site_fract_y
 _atom_site_fract_z
 _atom_site_occupancy
  Sr  Sr0  1  0.250000  0.066216  0.621933  1
  Sr  Sr1  1  0.250000  0.566216  0.878067  1
  Sr  Sr2  1  0.750000  0.933784  0.378067  1
  Sr  Sr3  1  0.750000  0.433784  0.121933  1
  Sr  Sr4  1  0.250000  0.204645  0.298582  1
  Sr  Sr5  1  0.250000  0.704645  0.201418  1
  Sr  Sr6  1  0.750000  0.795355  0.701418  1
  Sr  Sr7  1  0.750000  0.295355  0.798582  1
  Sr  Sr8  1  0.250000  0.373479  0.556162  1
  Sr  Sr9  1  0.250000  0.873479  0.943838  1
  Sr  Sr10  1  0.750000  0.626521  0.443838  1
  Sr  Sr11  1  0.750000  0.126521  0.056162  1
  Cu  Cu12  1  0.250000  0.134607  0.858942  1
  Cu  Cu13  1  0.250000  0.634607  0.641058  1
  Cu  Cu14  1  0.750000  0.865393  0.141058  1
  Cu  Cu15  1  0.750000  0.365393  0.358942  1
  As  As16  1  0.250000  0.308540  0.984574  1
  As  As17  1  0.250000  0.808540  0.515426  1
  As  As18  1  0.750000  0.691460  0.015426  1
  As  As19  1  0.750000  0.191460  0.484574  1
  As  As20  1  0.250000  0.470384  0.321296  1
  As  As21  1  0.250000  0.970384  0.178704  1
  As  As22  1  0.750000  0.529616  0.678704  1
  As  As23  1  0.750000  0.029616  0.821296  1
  H  H24  1  0.250000  0.237148  0.728787  1
  H  H25  1  0.250000  0.737148  0.771213  1
  H  H26  1  0.750000  0.762852  0.271213  1
  H  H27  1  0.750000  0.262852  0.228787  1
