# generated using pymatgen
data_Tb4Y8InCo4Rh
_symmetry_space_group_name_H-M   'P 1'
_cell_length_a   8.36874350
_cell_length_b   8.36874321
_cell_length_c   8.36874346
_cell_angle_alpha   110.87430833
_cell_angle_beta   110.57311863
_cell_angle_gamma   106.99441233
_symmetry_Int_Tables_number   1
_chemical_formula_structural   Tb4Y8InCo4Rh
_chemical_formula_sum   'Tb4 Y8 In1 Co4 Rh1'
_cell_volume   450.55721031
_cell_formula_units_Z   1
loop_
 _symmetry_equiv_pos_site_id
 _symmetry_equiv_pos_as_xyz
  1  'x, y, z'
loop_
 _atom_site_type_symbol
 _atom_site_label
 _atom_site_symmetry_multiplicity
 _atom_site_fract_x
 _atom_site_fract_y
 _atom_site_fract_z
 _atom_site_occupancy
  Tb  Tb0  1  0.314716  0.620440  0.305723  1
  Tb  Tb1  1  0.685284  0.379560  0.694277  1
  Tb  Tb2  1  0.314716  0.008994  0.694277  1
  Tb  Tb3  1  0.685284  0.991006  0.305723  1
  Y  Y4  1  0.406654  0.212502  0.194152  1
  Y  Y5  1  0.593346  0.787498  0.805848  1
  Y  Y6  1  0.018352  0.212502  0.805848  1
  Y  Y7  1  0.981648  0.787498  0.194152  1
  Y  Y8  1  0.185930  0.292159  0.478089  1
  Y  Y9  1  0.814070  0.707841  0.521911  1
  Y  Y10  1  0.185930  0.707841  0.893771  1
  Y  Y11  1  0.814070  0.292159  0.106229  1
  In  In12  1  0.500000  0.500000  0.000000  1
  Co  Co13  1  0.381090  0.000000  0.381090  1
  Co  Co14  1  0.618910  0.000000  0.618910  1
  Co  Co15  1  0.111468  0.611468  0.500000  1
  Co  Co16  1  0.888532  0.388532  0.500000  1
  Rh  Rh17  1  0.000000  0.000000  0.000000  1
