# generated using pymatgen
data_CaAc3(MgPd)4
_symmetry_space_group_name_H-M   'P 1'
_cell_length_a   4.38639700
_cell_length_b   7.63493595
_cell_length_c   9.04770698
_cell_angle_alpha   89.70851866
_cell_angle_beta   90.00000000
_cell_angle_gamma   90.00000000
_symmetry_Int_Tables_number   1
_chemical_formula_structural   CaAc3(MgPd)4
_chemical_formula_sum   'Ca1 Ac3 Mg4 Pd4'
_cell_volume   303.00252023
_cell_formula_units_Z   1
loop_
 _symmetry_equiv_pos_site_id
 _symmetry_equiv_pos_as_xyz
  1  'x, y, z'
loop_
 _atom_site_type_symbol
 _atom_site_label
 _atom_site_symmetry_multiplicity
 _atom_site_fract_x
 _atom_site_fract_y
 _atom_site_fract_z
 _atom_site_occupancy
  Ca  Ca0  1  0.750000  0.463657  0.816428  1
  Ac  Ac1  1  0.250000  0.033319  0.317887  1
  Ac  Ac2  1  0.250000  0.532554  0.172058  1
  Ac  Ac3  1  0.750000  0.966259  0.686092  1
  Mg  Mg4  1  0.250000  0.143834  0.939693  1
  Mg  Mg5  1  0.250000  0.626961  0.564853  1
  Mg  Mg6  1  0.750000  0.863248  0.054006  1
  Mg  Mg7  1  0.750000  0.369621  0.447926  1
  Pd  Pd8  1  0.250000  0.262777  0.621283  1
  Pd  Pd9  1  0.250000  0.767763  0.877392  1
  Pd  Pd10  1  0.750000  0.737129  0.376881  1
  Pd  Pd11  1  0.750000  0.232879  0.125501  1
