# generated using pymatgen
data_Y6ScVO12
_symmetry_space_group_name_H-M   'P 1'
_cell_length_a   6.59751888
_cell_length_b   6.59751862
_cell_length_c   6.59751870
_cell_angle_alpha   92.64623811
_cell_angle_beta   92.64623215
_cell_angle_gamma   92.64623397
_symmetry_Int_Tables_number   1
_chemical_formula_structural   Y6ScVO12
_chemical_formula_sum   'Y6 Sc1 V1 O12'
_cell_volume   286.22384664
_cell_formula_units_Z   1
loop_
 _symmetry_equiv_pos_site_id
 _symmetry_equiv_pos_as_xyz
  1  'x, y, z'
loop_
 _atom_site_type_symbol
 _atom_site_label
 _atom_site_symmetry_multiplicity
 _atom_site_fract_x
 _atom_site_fract_y
 _atom_site_fract_z
 _atom_site_occupancy
  Y  Y0  1  0.743713  0.927750  0.436140  1
  Y  Y1  1  0.927750  0.436140  0.743713  1
  Y  Y2  1  0.436140  0.743713  0.927750  1
  Y  Y3  1  0.256287  0.072250  0.563860  1
  Y  Y4  1  0.072250  0.563860  0.256287  1
  Y  Y5  1  0.563860  0.256287  0.072250  1
  Sc  Sc6  1  0.000000  0.000000  0.000000  1
  V  V7  1  0.500000  0.500000  0.500000  1
  O  O8  1  0.588803  0.460488  0.800547  1
  O  O9  1  0.460488  0.800547  0.588803  1
  O  O10  1  0.800547  0.588803  0.460488  1
  O  O11  1  0.411197  0.539512  0.199453  1
  O  O12  1  0.539512  0.199453  0.411197  1
  O  O13  1  0.199453  0.411197  0.539512  1
  O  O14  1  0.068685  0.915888  0.306846  1
  O  O15  1  0.915888  0.306846  0.068685  1
  O  O16  1  0.693154  0.931315  0.084112  1
  O  O17  1  0.084112  0.693154  0.931315  1
  O  O18  1  0.931315  0.084112  0.693154  1
  O  O19  1  0.306846  0.068685  0.915888  1
