# generated using pymatgen
data_Er2Tm6B24IrRu3
_symmetry_space_group_name_H-M   'P 1'
_cell_length_a   3.62180700
_cell_length_b   9.07956723
_cell_length_c   11.42748000
_cell_angle_alpha   90.03092362
_cell_angle_beta   90.00000000
_cell_angle_gamma   90.00000000
_symmetry_Int_Tables_number   1
_chemical_formula_structural   Er2Tm6B24IrRu3
_chemical_formula_sum   'Er2 Tm6 B24 Ir1 Ru3'
_cell_volume   375.78622751
_cell_formula_units_Z   1
loop_
 _symmetry_equiv_pos_site_id
 _symmetry_equiv_pos_as_xyz
  1  'x, y, z'
loop_
 _atom_site_type_symbol
 _atom_site_label
 _atom_site_symmetry_multiplicity
 _atom_site_fract_x
 _atom_site_fract_y
 _atom_site_fract_z
 _atom_site_occupancy
  Er  Er0  1  0.000000  0.318373  0.414427  1
  Er  Er1  1  0.000000  0.679514  0.589079  1
  Tm  Tm2  1  0.000000  0.823075  0.083992  1
  Tm  Tm3  1  0.000000  0.179031  0.913185  1
  Tm  Tm4  1  0.000000  0.945738  0.373339  1
  Tm  Tm5  1  0.000000  0.056026  0.626869  1
  Tm  Tm6  1  0.000000  0.441879  0.125360  1
  Tm  Tm7  1  0.000000  0.555895  0.873508  1
  B  B8  1  0.500000  0.553722  0.434028  1
  B  B9  1  0.500000  0.446011  0.566697  1
  B  B10  1  0.500000  0.054041  0.066463  1
  B  B11  1  0.500000  0.946345  0.933210  1
  B  B12  1  0.500000  0.749951  0.421373  1
  B  B13  1  0.500000  0.250930  0.579922  1
  B  B14  1  0.500000  0.248342  0.079419  1
  B  B15  1  0.500000  0.751594  0.920390  1
  B  B16  1  0.500000  0.792711  0.265174  1
  B  B17  1  0.500000  0.208280  0.734063  1
  B  B18  1  0.500000  0.291874  0.234368  1
  B  B19  1  0.500000  0.708206  0.766118  1
  B  B20  1  0.500000  0.631845  0.183222  1
  B  B21  1  0.500000  0.368535  0.815209  1
  B  B22  1  0.500000  0.131502  0.315352  1
  B  B23  1  0.500000  0.868358  0.685016  1
  B  B24  1  0.500000  0.982350  0.212910  1
  B  B25  1  0.500000  0.017588  0.786942  1
  B  B26  1  0.500000  0.481468  0.286550  1
  B  B27  1  0.500000  0.517365  0.713338  1
  B  B28  1  0.500000  0.608717  0.030116  1
  B  B29  1  0.500000  0.391364  0.970134  1
  B  B30  1  0.500000  0.107766  0.470407  1
  B  B31  1  0.500000  0.891613  0.529467  1
  Ir  Ir32  1  0.000000  0.637682  0.321392  1
  Ru  Ru33  1  0.000000  0.362234  0.678723  1
  Ru  Ru34  1  0.000000  0.137841  0.179194  1
  Ru  Ru35  1  0.000000  0.862236  0.821046  1
