# generated using pymatgen
data_Sc2TaSnRu4
_symmetry_space_group_name_H-M   'P 1'
_cell_length_a   6.39489300
_cell_length_b   4.52571000
_cell_length_c   9.06103600
_cell_angle_alpha   90.00000000
_cell_angle_beta   89.99997471
_cell_angle_gamma   90.00000000
_symmetry_Int_Tables_number   1
_chemical_formula_structural   Sc2TaSnRu4
_chemical_formula_sum   'Sc4 Ta2 Sn2 Ru8'
_cell_volume   262.23934999
_cell_formula_units_Z   2
loop_
 _symmetry_equiv_pos_site_id
 _symmetry_equiv_pos_as_xyz
  1  'x, y, z'
loop_
 _atom_site_type_symbol
 _atom_site_label
 _atom_site_symmetry_multiplicity
 _atom_site_fract_x
 _atom_site_fract_y
 _atom_site_fract_z
 _atom_site_occupancy
  Sc  Sc0  1  0.750038  0.250000  0.130870  1
  Sc  Sc1  1  0.250032  0.750000  0.369131  1
  Sc  Sc2  1  0.749976  0.250000  0.620296  1
  Sc  Sc3  1  0.249969  0.750000  0.879700  1
  Ta  Ta4  1  0.249978  0.250000  0.624561  1
  Ta  Ta5  1  0.749972  0.750000  0.875443  1
  Sn  Sn6  1  0.250010  0.250000  0.125359  1
  Sn  Sn7  1  0.750005  0.750000  0.374640  1
  Ru  Ru8  1  0.507224  0.750000  0.116358  1
  Ru  Ru9  1  0.992823  0.750000  0.116389  1
  Ru  Ru10  1  0.492816  0.250000  0.383630  1
  Ru  Ru11  1  0.007226  0.250000  0.383631  1
  Ru  Ru12  1  0.004806  0.750000  0.630482  1
  Ru  Ru13  1  0.495154  0.750000  0.630483  1
  Ru  Ru14  1  0.995160  0.250000  0.869514  1
  Ru  Ru15  1  0.504810  0.250000  0.869511  1
