# generated using pymatgen
data_Dy3Co2Sn3Au
_symmetry_space_group_name_H-M   'P 1'
_cell_length_a   7.56737700
_cell_length_b   7.56737612
_cell_length_c   3.78903800
_cell_angle_alpha   90.00000000
_cell_angle_beta   90.00000000
_cell_angle_gamma   119.99999945
_symmetry_Int_Tables_number   1
_chemical_formula_structural   Dy3Co2Sn3Au
_chemical_formula_sum   'Dy3 Co2 Sn3 Au1'
_cell_volume   187.91017024
_cell_formula_units_Z   1
loop_
 _symmetry_equiv_pos_site_id
 _symmetry_equiv_pos_as_xyz
  1  'x, y, z'
loop_
 _atom_site_type_symbol
 _atom_site_label
 _atom_site_symmetry_multiplicity
 _atom_site_fract_x
 _atom_site_fract_y
 _atom_site_fract_z
 _atom_site_occupancy
  Dy  Dy0  1  0.393357  0.412836  0.500000  1
  Dy  Dy1  1  0.587164  0.980521  0.500000  1
  Dy  Dy2  1  0.019479  0.606643  0.500000  1
  Co  Co3  1  0.333333  0.666667  0.000000  1
  Co  Co4  1  0.000000  0.000000  0.500000  1
  Sn  Sn5  1  0.744755  0.751131  0.000000  1
  Sn  Sn6  1  0.248869  0.993624  0.000000  1
  Sn  Sn7  1  0.006376  0.255245  0.000000  1
  Au  Au8  1  0.666667  0.333333  0.000000  1
