# generated using pymatgen
data_EuScBrO2
_symmetry_space_group_name_H-M   'P 1'
_cell_length_a   5.84971939
_cell_length_b   5.84971921
_cell_length_c   9.34937197
_cell_angle_alpha   102.28653985
_cell_angle_beta   102.28654106
_cell_angle_gamma   40.12255609
_symmetry_Int_Tables_number   1
_chemical_formula_structural   EuScBrO2
_chemical_formula_sum   'Eu2 Sc2 Br2 O4'
_cell_volume   200.80929753
_cell_formula_units_Z   2
loop_
 _symmetry_equiv_pos_site_id
 _symmetry_equiv_pos_as_xyz
  1  'x, y, z'
loop_
 _atom_site_type_symbol
 _atom_site_label
 _atom_site_symmetry_multiplicity
 _atom_site_fract_x
 _atom_site_fract_y
 _atom_site_fract_z
 _atom_site_occupancy
  Eu  Eu0  1  0.603181  0.603181  0.285991  1
  Eu  Eu1  1  0.396818  0.396818  0.714009  1
  Sc  Sc2  1  0.138390  0.138390  0.997535  1
  Sc  Sc3  1  0.861610  0.861610  0.002465  1
  Br  Br4  1  0.335956  0.335956  0.367039  1
  Br  Br5  1  0.664043  0.664043  0.632961  1
  O  O6  1  0.684903  0.684903  0.055552  1
  O  O7  1  0.024574  0.024574  0.153569  1
  O  O8  1  0.975426  0.975426  0.846431  1
  O  O9  1  0.315097  0.315097  0.944448  1
