# generated using pymatgen
data_Zr6Ta4Al12Co5Ru2
_symmetry_space_group_name_H-M   'P 1'
_cell_length_a   8.68661949
_cell_length_b   8.71457377
_cell_length_c   8.71977748
_cell_angle_alpha   59.81302038
_cell_angle_beta   60.11881269
_cell_angle_gamma   60.14223000
_symmetry_Int_Tables_number   1
_chemical_formula_structural   Zr6Ta4Al12Co5Ru2
_chemical_formula_sum   'Zr6 Ta4 Al12 Co5 Ru2'
_cell_volume   467.00489607
_cell_formula_units_Z   1
loop_
 _symmetry_equiv_pos_site_id
 _symmetry_equiv_pos_as_xyz
  1  'x, y, z'
loop_
 _atom_site_type_symbol
 _atom_site_label
 _atom_site_symmetry_multiplicity
 _atom_site_fract_x
 _atom_site_fract_y
 _atom_site_fract_z
 _atom_site_occupancy
  Zr  Zr0  1  0.696628  0.303399  0.303371  1
  Zr  Zr1  1  0.692263  0.307419  0.692106  1
  Zr  Zr2  1  0.691462  0.691377  0.308142  1
  Zr  Zr3  1  0.301836  0.698147  0.698211  1
  Zr  Zr4  1  0.308241  0.692087  0.307394  1
  Zr  Zr5  1  0.309025  0.308130  0.691412  1
  Ta  Ta6  1  0.635200  0.122792  0.122569  1
  Ta  Ta7  1  0.120867  0.634839  0.123626  1
  Ta  Ta8  1  0.120603  0.123565  0.635001  1
  Ta  Ta9  1  0.119433  0.122557  0.122802  1
  Al  Al10  1  0.365503  0.877424  0.877526  1
  Al  Al11  1  0.878660  0.365488  0.877271  1
  Al  Al12  1  0.878660  0.877253  0.365447  1
  Al  Al13  1  0.879571  0.877459  0.877470  1
  Al  Al14  1  0.985221  0.337715  0.337877  1
  Al  Al15  1  0.334870  0.985992  0.343831  1
  Al  Al16  1  0.335129  0.343939  0.985978  1
  Al  Al17  1  0.339108  0.338037  0.337627  1
  Al  Al18  1  0.007224  0.664508  0.664451  1
  Al  Al19  1  0.667562  0.005577  0.659707  1
  Al  Al20  1  0.667318  0.659610  0.005609  1
  Al  Al21  1  0.663914  0.664290  0.664601  1
  Co  Co22  1  0.494544  0.005582  0.494567  1
  Co  Co23  1  0.494626  0.494772  0.005463  1
  Co  Co24  1  0.005534  0.494528  0.494435  1
  Co  Co25  1  0.005125  0.494805  0.005395  1
  Co  Co26  1  0.005185  0.005462  0.494690  1
  Ru  Ru27  1  0.000157  0.999815  0.999940  1
  Ru  Ru28  1  0.496534  0.003434  0.003479  1
