# generated using pymatgen
data_Sc12Si12TcRh3
_symmetry_space_group_name_H-M   'P 1'
_cell_length_a   4.02532600
_cell_length_b   10.28409339
_cell_length_c   11.72210689
_cell_angle_alpha   90.09322710
_cell_angle_beta   90.00000000
_cell_angle_gamma   90.00000000
_symmetry_Int_Tables_number   1
_chemical_formula_structural   Sc12Si12TcRh3
_chemical_formula_sum   'Sc12 Si12 Tc1 Rh3'
_cell_volume   485.25740652
_cell_formula_units_Z   1
loop_
 _symmetry_equiv_pos_site_id
 _symmetry_equiv_pos_as_xyz
  1  'x, y, z'
loop_
 _atom_site_type_symbol
 _atom_site_label
 _atom_site_symmetry_multiplicity
 _atom_site_fract_x
 _atom_site_fract_y
 _atom_site_fract_z
 _atom_site_occupancy
  Sc  Sc0  1  0.250000  0.876114  0.020076  1
  Sc  Sc1  1  0.250000  0.622327  0.521516  1
  Sc  Sc2  1  0.750000  0.121925  0.980491  1
  Sc  Sc3  1  0.750000  0.376320  0.481610  1
  Sc  Sc4  1  0.250000  0.920993  0.601595  1
  Sc  Sc5  1  0.250000  0.579779  0.102730  1
  Sc  Sc6  1  0.750000  0.078461  0.396993  1
  Sc  Sc7  1  0.750000  0.420478  0.896226  1
  Sc  Sc8  1  0.250000  0.661796  0.798063  1
  Sc  Sc9  1  0.250000  0.841518  0.299169  1
  Sc  Sc10  1  0.750000  0.341733  0.200678  1
  Sc  Sc11  1  0.750000  0.157690  0.701317  1
  Si  Si12  1  0.250000  0.014502  0.823270  1
  Si  Si13  1  0.250000  0.484712  0.322886  1
  Si  Si14  1  0.750000  0.984599  0.177300  1
  Si  Si15  1  0.750000  0.517023  0.678734  1
  Si  Si16  1  0.250000  0.249931  0.842587  1
  Si  Si17  1  0.250000  0.248897  0.341927  1
  Si  Si18  1  0.750000  0.749694  0.157894  1
  Si  Si19  1  0.750000  0.753196  0.657004  1
  Si  Si20  1  0.250000  0.192613  0.544204  1
  Si  Si21  1  0.250000  0.305711  0.044817  1
  Si  Si22  1  0.750000  0.805959  0.454888  1
  Si  Si23  1  0.750000  0.692489  0.955299  1
  Tc  Tc24  1  0.250000  0.391502  0.676317  1
  Rh  Rh25  1  0.250000  0.110142  0.177019  1
  Rh  Rh26  1  0.750000  0.610690  0.322225  1
  Rh  Rh27  1  0.750000  0.889206  0.823164  1
