# generated using pymatgen
data_ErZr4(ReTc)12
_symmetry_space_group_name_H-M   'P 1'
_cell_length_a   8.47901488
_cell_length_b   8.47901556
_cell_length_c   8.47901500
_cell_angle_alpha   109.47121691
_cell_angle_beta   109.47121852
_cell_angle_gamma   109.47122789
_symmetry_Int_Tables_number   1
_chemical_formula_structural   ErZr4(ReTc)12
_chemical_formula_sum   'Er1 Zr4 Re12 Tc12'
_cell_volume   469.26086289
_cell_formula_units_Z   1
loop_
 _symmetry_equiv_pos_site_id
 _symmetry_equiv_pos_as_xyz
  1  'x, y, z'
loop_
 _atom_site_type_symbol
 _atom_site_label
 _atom_site_symmetry_multiplicity
 _atom_site_fract_x
 _atom_site_fract_y
 _atom_site_fract_z
 _atom_site_occupancy
  Er  Er0  1  0.000000  0.000000  0.000000  1
  Zr  Zr1  1  0.625307  0.000000  0.000000  1
  Zr  Zr2  1  0.000000  0.625307  0.000000  1
  Zr  Zr3  1  0.000000  0.000000  0.625307  1
  Zr  Zr4  1  0.374693  0.374693  0.374693  1
  Re  Re5  1  0.376899  0.194606  0.000000  1
  Re  Re6  1  0.182294  0.805394  0.805394  1
  Re  Re7  1  0.376899  0.000000  0.194606  1
  Re  Re8  1  0.194606  0.376899  0.000000  1
  Re  Re9  1  0.000000  0.376899  0.194606  1
  Re  Re10  1  0.805394  0.182294  0.805394  1
  Re  Re11  1  0.805394  0.805394  0.182294  1
  Re  Re12  1  0.000000  0.194606  0.376899  1
  Re  Re13  1  0.194606  0.000000  0.376899  1
  Re  Re14  1  0.623101  0.623101  0.817706  1
  Re  Re15  1  0.817706  0.623101  0.623101  1
  Re  Re16  1  0.623101  0.817706  0.623101  1
  Tc  Tc17  1  0.396317  0.675680  0.000000  1
  Tc  Tc18  1  0.720636  0.324320  0.324320  1
  Tc  Tc19  1  0.396317  0.000000  0.675680  1
  Tc  Tc20  1  0.675680  0.396317  0.000000  1
  Tc  Tc21  1  0.000000  0.396317  0.675680  1
  Tc  Tc22  1  0.324320  0.720636  0.324320  1
  Tc  Tc23  1  0.324320  0.324320  0.720636  1
  Tc  Tc24  1  0.000000  0.675680  0.396317  1
  Tc  Tc25  1  0.675680  0.000000  0.396317  1
  Tc  Tc26  1  0.603683  0.603683  0.279364  1
  Tc  Tc27  1  0.279364  0.603683  0.603683  1
  Tc  Tc28  1  0.603683  0.279364  0.603683  1
