# generated using pymatgen
data_Yb6Al24Os7Pt
_symmetry_space_group_name_H-M   'P 1'
_cell_length_a   8.83863655
_cell_length_b   8.83863544
_cell_length_c   9.63467612
_cell_angle_alpha   89.73444276
_cell_angle_beta   90.26555848
_cell_angle_gamma   119.83050589
_symmetry_Int_Tables_number   1
_chemical_formula_structural   Yb6Al24Os7Pt
_chemical_formula_sum   'Yb6 Al24 Os7 Pt1'
_cell_volume   652.93693275
_cell_formula_units_Z   1
loop_
 _symmetry_equiv_pos_site_id
 _symmetry_equiv_pos_as_xyz
  1  'x, y, z'
loop_
 _atom_site_type_symbol
 _atom_site_label
 _atom_site_symmetry_multiplicity
 _atom_site_fract_x
 _atom_site_fract_y
 _atom_site_fract_z
 _atom_site_occupancy
  Yb  Yb0  1  0.192327  0.388179  0.251004  1
  Yb  Yb1  1  0.807673  0.611821  0.748996  1
  Yb  Yb2  1  0.611821  0.807673  0.251004  1
  Yb  Yb3  1  0.388179  0.192327  0.748996  1
  Yb  Yb4  1  0.195824  0.804176  0.252452  1
  Yb  Yb5  1  0.804176  0.195824  0.747548  1
  Al  Al6  1  0.330926  0.669074  0.001121  1
  Al  Al7  1  0.669074  0.330926  0.998879  1
  Al  Al8  1  0.666548  0.333452  0.505370  1
  Al  Al9  1  0.333452  0.666548  0.494630  1
  Al  Al10  1  0.163332  0.323726  0.574689  1
  Al  Al11  1  0.836668  0.676274  0.425311  1
  Al  Al12  1  0.676274  0.836668  0.574689  1
  Al  Al13  1  0.843927  0.678113  0.076401  1
  Al  Al14  1  0.323726  0.163332  0.425311  1
  Al  Al15  1  0.156073  0.321887  0.923599  1
  Al  Al16  1  0.162774  0.837226  0.572997  1
  Al  Al17  1  0.321887  0.156073  0.076401  1
  Al  Al18  1  0.837226  0.162774  0.427003  1
  Al  Al19  1  0.678113  0.843927  0.923599  1
  Al  Al20  1  0.838439  0.161561  0.074753  1
  Al  Al21  1  0.161561  0.838439  0.925247  1
  Al  Al22  1  0.560166  0.122954  0.249982  1
  Al  Al23  1  0.439834  0.877046  0.750018  1
  Al  Al24  1  0.877046  0.439834  0.249982  1
  Al  Al25  1  0.122954  0.560166  0.750018  1
  Al  Al26  1  0.562404  0.437596  0.252801  1
  Al  Al27  1  0.437596  0.562404  0.747199  1
  Al  Al28  1  0.999898  0.000102  0.250171  1
  Al  Al29  1  0.000102  0.999898  0.749829  1
  Os  Os30  1  0.500000  0.000000  0.000000  1
  Os  Os31  1  0.000000  0.500000  0.000000  1
  Os  Os32  1  0.500000  0.000000  0.500000  1
  Os  Os33  1  0.000000  0.500000  0.500000  1
  Os  Os34  1  0.500000  0.500000  0.500000  1
  Os  Os35  1  0.000000  0.000000  0.000000  1
  Os  Os36  1  0.000000  0.000000  0.500000  1
  Pt  Pt37  1  0.500000  0.500000  0.000000  1
