# generated using pymatgen
data_Tb2Ho8InPb5
_symmetry_space_group_name_H-M   'P 1'
_cell_length_a   9.01682500
_cell_length_b   9.02964415
_cell_length_c   6.66596500
_cell_angle_alpha   90.00000000
_cell_angle_beta   90.00000000
_cell_angle_gamma   119.95305234
_symmetry_Int_Tables_number   1
_chemical_formula_structural   Tb2Ho8InPb5
_chemical_formula_sum   'Tb2 Ho8 In1 Pb5'
_cell_volume   470.24392853
_cell_formula_units_Z   1
loop_
 _symmetry_equiv_pos_site_id
 _symmetry_equiv_pos_as_xyz
  1  'x, y, z'
loop_
 _atom_site_type_symbol
 _atom_site_label
 _atom_site_symmetry_multiplicity
 _atom_site_fract_x
 _atom_site_fract_y
 _atom_site_fract_z
 _atom_site_occupancy
  Tb  Tb0  1  0.238693  0.237786  0.750000  1
  Tb  Tb1  1  0.000907  0.762214  0.750000  1
  Ho  Ho2  1  0.337129  0.670742  0.001834  1
  Ho  Ho3  1  0.666387  0.329258  0.498166  1
  Ho  Ho4  1  0.666387  0.329258  0.001834  1
  Ho  Ho5  1  0.337129  0.670742  0.498166  1
  Ho  Ho6  1  0.238968  0.000000  0.250000  1
  Ho  Ho7  1  0.994144  0.233920  0.250000  1
  Ho  Ho8  1  0.760224  0.766080  0.250000  1
  Ho  Ho9  1  0.762608  0.000000  0.750000  1
  In  In10  1  0.601788  0.000000  0.250000  1
  Pb  Pb11  1  0.604860  0.603561  0.750000  1
  Pb  Pb12  1  0.001299  0.396439  0.750000  1
  Pb  Pb13  1  0.998881  0.605848  0.250000  1
  Pb  Pb14  1  0.393033  0.394152  0.250000  1
  Pb  Pb15  1  0.397566  0.000000  0.750000  1
