# generated using pymatgen
data_Nd3Er(WN3)4
_symmetry_space_group_name_H-M   'P 1'
_cell_length_a   7.36311298
_cell_length_b   7.36311237
_cell_length_c   6.31007289
_cell_angle_alpha   75.38771695
_cell_angle_beta   75.38772876
_cell_angle_gamma   83.34427793
_symmetry_Int_Tables_number   1
_chemical_formula_structural   Nd3Er(WN3)4
_chemical_formula_sum   'Nd3 Er1 W4 N12'
_cell_volume   319.83134355
_cell_formula_units_Z   1
loop_
 _symmetry_equiv_pos_site_id
 _symmetry_equiv_pos_as_xyz
  1  'x, y, z'
loop_
 _atom_site_type_symbol
 _atom_site_label
 _atom_site_symmetry_multiplicity
 _atom_site_fract_x
 _atom_site_fract_y
 _atom_site_fract_z
 _atom_site_occupancy
  Nd  Nd0  1  0.697807  0.302193  0.750000  1
  Nd  Nd1  1  0.088109  0.911891  0.750000  1
  Nd  Nd2  1  0.303172  0.696828  0.250000  1
  Er  Er3  1  0.908639  0.091361  0.250000  1
  W  W4  1  0.381434  0.199960  0.243129  1
  W  W5  1  0.620972  0.799784  0.751377  1
  W  W6  1  0.800040  0.618566  0.256871  1
  W  W7  1  0.200216  0.379028  0.748623  1
  N  N8  1  0.621477  0.111077  0.161119  1
  N  N9  1  0.360453  0.339606  0.473108  1
  N  N10  1  0.000035  0.221229  0.861101  1
  N  N11  1  0.383985  0.888364  0.846515  1
  N  N12  1  0.778771  0.999965  0.638899  1
  N  N13  1  0.111636  0.616015  0.653485  1
  N  N14  1  0.888923  0.378523  0.338881  1
  N  N15  1  0.632573  0.649766  0.532773  1
  N  N16  1  0.660394  0.639547  0.026892  1
  N  N17  1  0.350234  0.367427  0.967227  1
  N  N18  1  0.994155  0.783026  0.159670  1
  N  N19  1  0.216974  0.005845  0.340330  1
