# generated using pymatgen
data_Tb3Y3U2(ReB6)4
_symmetry_space_group_name_H-M   'P 1'
_cell_length_a   3.68637400
_cell_length_b   9.22028564
_cell_length_c   11.48022069
_cell_angle_alpha   89.41962065
_cell_angle_beta   90.00000000
_cell_angle_gamma   90.00000000
_symmetry_Int_Tables_number   1
_chemical_formula_structural   Tb3Y3U2(ReB6)4
_chemical_formula_sum   'Tb3 Y3 U2 Re4 B24'
_cell_volume   390.18603840
_cell_formula_units_Z   1
loop_
 _symmetry_equiv_pos_site_id
 _symmetry_equiv_pos_as_xyz
  1  'x, y, z'
loop_
 _atom_site_type_symbol
 _atom_site_label
 _atom_site_symmetry_multiplicity
 _atom_site_fract_x
 _atom_site_fract_y
 _atom_site_fract_z
 _atom_site_occupancy
  Tb  Tb0  1  0.000000  0.325389  0.411711  1
  Tb  Tb1  1  0.000000  0.674592  0.588322  1
  Tb  Tb2  1  0.000000  0.834671  0.089456  1
  Y  Y3  1  0.000000  0.165252  0.910499  1
  Y  Y4  1  0.000000  0.945304  0.371617  1
  Y  Y5  1  0.000000  0.054750  0.628325  1
  U  U6  1  0.000000  0.454283  0.105696  1
  U  U7  1  0.000000  0.545520  0.894435  1
  Re  Re8  1  0.000000  0.636499  0.314044  1
  Re  Re9  1  0.000000  0.363376  0.686015  1
  Re  Re10  1  0.000000  0.149201  0.176626  1
  Re  Re11  1  0.000000  0.850926  0.823297  1
  B  B12  1  0.500000  0.554215  0.431731  1
  B  B13  1  0.500000  0.445732  0.568296  1
  B  B14  1  0.500000  0.052847  0.067651  1
  B  B15  1  0.500000  0.947316  0.932302  1
  B  B16  1  0.500000  0.748363  0.418686  1
  B  B17  1  0.500000  0.251600  0.581327  1
  B  B18  1  0.500000  0.245772  0.079417  1
  B  B19  1  0.500000  0.754353  0.920579  1
  B  B20  1  0.500000  0.796250  0.268001  1
  B  B21  1  0.500000  0.203644  0.732020  1
  B  B22  1  0.500000  0.297791  0.229552  1
  B  B23  1  0.500000  0.702270  0.770447  1
  B  B24  1  0.500000  0.637615  0.186590  1
  B  B25  1  0.500000  0.362364  0.813407  1
  B  B26  1  0.500000  0.136173  0.313444  1
  B  B27  1  0.500000  0.863920  0.686549  1
  B  B28  1  0.500000  0.988004  0.213500  1
  B  B29  1  0.500000  0.012216  0.786489  1
  B  B30  1  0.500000  0.484835  0.281989  1
  B  B31  1  0.500000  0.515156  0.717989  1
  B  B32  1  0.500000  0.631854  0.035921  1
  B  B33  1  0.500000  0.367932  0.964081  1
  B  B34  1  0.500000  0.107948  0.470323  1
  B  B35  1  0.500000  0.892065  0.529671  1
