# generated using pymatgen
data_DyTaB6Ru
_symmetry_space_group_name_H-M   'P 1'
_cell_length_a   3.47962900
_cell_length_b   9.00443500
_cell_length_c   11.28443200
_cell_angle_alpha   90.00000000
_cell_angle_beta   90.00000000
_cell_angle_gamma   90.00000000
_symmetry_Int_Tables_number   1
_chemical_formula_structural   DyTaB6Ru
_chemical_formula_sum   'Dy4 Ta4 B24 Ru4'
_cell_volume   353.56487462
_cell_formula_units_Z   4
loop_
 _symmetry_equiv_pos_site_id
 _symmetry_equiv_pos_as_xyz
  1  'x, y, z'
loop_
 _atom_site_type_symbol
 _atom_site_label
 _atom_site_symmetry_multiplicity
 _atom_site_fract_x
 _atom_site_fract_y
 _atom_site_fract_z
 _atom_site_occupancy
  Dy  Dy0  1  0.000000  0.323470  0.413393  1
  Dy  Dy1  1  0.000000  0.676530  0.586607  1
  Dy  Dy2  1  0.000000  0.823470  0.086607  1
  Dy  Dy3  1  0.000000  0.176530  0.913393  1
  Ta  Ta4  1  0.000000  0.946593  0.375149  1
  Ta  Ta5  1  0.000000  0.053407  0.624851  1
  Ta  Ta6  1  0.000000  0.446593  0.124851  1
  Ta  Ta7  1  0.000000  0.553407  0.875149  1
  B  B8  1  0.500000  0.554576  0.434040  1
  B  B9  1  0.500000  0.445424  0.565960  1
  B  B10  1  0.500000  0.054576  0.065960  1
  B  B11  1  0.500000  0.945424  0.934040  1
  B  B12  1  0.500000  0.754881  0.418449  1
  B  B13  1  0.500000  0.245119  0.581551  1
  B  B14  1  0.500000  0.254881  0.081551  1
  B  B15  1  0.500000  0.745119  0.918449  1
  B  B16  1  0.500000  0.798838  0.262996  1
  B  B17  1  0.500000  0.201162  0.737004  1
  B  B18  1  0.500000  0.298838  0.237004  1
  B  B19  1  0.500000  0.701162  0.762996  1
  B  B20  1  0.500000  0.629512  0.181154  1
  B  B21  1  0.500000  0.370488  0.818846  1
  B  B22  1  0.500000  0.129512  0.318846  1
  B  B23  1  0.500000  0.870488  0.681154  1
  B  B24  1  0.500000  0.981047  0.214207  1
  B  B25  1  0.500000  0.018953  0.785793  1
  B  B26  1  0.500000  0.481047  0.285793  1
  B  B27  1  0.500000  0.518953  0.714207  1
  B  B28  1  0.500000  0.599795  0.026313  1
  B  B29  1  0.500000  0.400205  0.973687  1
  B  B30  1  0.500000  0.099795  0.473687  1
  B  B31  1  0.500000  0.900205  0.526313  1
  Ru  Ru32  1  0.000000  0.644190  0.317338  1
  Ru  Ru33  1  0.000000  0.355810  0.682662  1
  Ru  Ru34  1  0.000000  0.144190  0.182662  1
  Ru  Ru35  1  0.000000  0.855810  0.817338  1
