# generated using pymatgen
data_Dy7ErGa12CoAg3
_symmetry_space_group_name_H-M   'P 1'
_cell_length_a   7.12360433
_cell_length_b   8.92879276
_cell_length_c   8.92168526
_cell_angle_alpha   120.02635965
_cell_angle_beta   89.96976867
_cell_angle_gamma   90.00000184
_symmetry_Int_Tables_number   1
_chemical_formula_structural   Dy7ErGa12CoAg3
_chemical_formula_sum   'Dy7 Er1 Ga12 Co1 Ag3'
_cell_volume   491.30882352
_cell_formula_units_Z   1
loop_
 _symmetry_equiv_pos_site_id
 _symmetry_equiv_pos_as_xyz
  1  'x, y, z'
loop_
 _atom_site_type_symbol
 _atom_site_label
 _atom_site_symmetry_multiplicity
 _atom_site_fract_x
 _atom_site_fract_y
 _atom_site_fract_z
 _atom_site_occupancy
  Dy  Dy0  1  0.739422  0.000056  0.000112  1
  Dy  Dy1  1  0.252795  0.000017  0.000033  1
  Dy  Dy2  1  0.749174  0.487755  0.511454  1
  Dy  Dy3  1  0.258189  0.522625  0.477284  1
  Dy  Dy4  1  0.749174  0.023698  0.511454  1
  Dy  Dy5  1  0.258189  0.954660  0.477284  1
  Dy  Dy6  1  0.748989  0.488359  0.976719  1
  Er  Er7  1  0.259111  0.522980  0.045959  1
  Ga  Ga8  1  0.963776  0.836790  0.162909  1
  Ga  Ga9  1  0.041306  0.165749  0.834926  1
  Ga  Ga10  1  0.963776  0.326119  0.162909  1
  Ga  Ga11  1  0.463063  0.164685  0.835858  1
  Ga  Ga12  1  0.041306  0.669176  0.834926  1
  Ga  Ga13  1  0.539572  0.825529  0.173878  1
  Ga  Ga14  1  0.963286  0.837029  0.674056  1
  Ga  Ga15  1  0.463063  0.671171  0.835858  1
  Ga  Ga16  1  0.040203  0.165311  0.330622  1
  Ga  Ga17  1  0.539572  0.348350  0.173878  1
  Ga  Ga18  1  0.464132  0.164366  0.328734  1
  Ga  Ga19  1  0.540154  0.825698  0.651394  1
  Co  Co20  1  0.510764  0.666226  0.332451  1
  Ag  Ag21  1  0.944809  0.666490  0.332980  1
  Ag  Ag22  1  0.040837  0.333552  0.667106  1
  Ag  Ag23  1  0.465339  0.333607  0.667215  1
