# generated using pymatgen
data_Hf3ZrV4GaP3
_symmetry_space_group_name_H-M   'P 1'
_cell_length_a   3.47824800
_cell_length_b   6.70769227
_cell_length_c   8.01687184
_cell_angle_alpha   89.56536417
_cell_angle_beta   90.00000000
_cell_angle_gamma   90.00000000
_symmetry_Int_Tables_number   1
_chemical_formula_structural   Hf3ZrV4GaP3
_chemical_formula_sum   'Hf3 Zr1 V4 Ga1 P3'
_cell_volume   187.03639332
_cell_formula_units_Z   1
loop_
 _symmetry_equiv_pos_site_id
 _symmetry_equiv_pos_as_xyz
  1  'x, y, z'
loop_
 _atom_site_type_symbol
 _atom_site_label
 _atom_site_symmetry_multiplicity
 _atom_site_fract_x
 _atom_site_fract_y
 _atom_site_fract_z
 _atom_site_occupancy
  Hf  Hf0  1  0.250000  0.541749  0.671227  1
  Hf  Hf1  1  0.750000  0.962890  0.160916  1
  Hf  Hf2  1  0.750000  0.446321  0.331945  1
  Zr  Zr3  1  0.250000  0.041164  0.829740  1
  V  V4  1  0.250000  0.133478  0.444842  1
  V  V5  1  0.250000  0.623225  0.051436  1
  V  V6  1  0.750000  0.881257  0.566214  1
  V  V7  1  0.750000  0.370087  0.941937  1
  Ga  Ga8  1  0.250000  0.757040  0.362289  1
  P  P9  1  0.250000  0.260443  0.138472  1
  P  P10  1  0.750000  0.246057  0.637834  1
  P  P11  1  0.750000  0.736288  0.863145  1
