# generated using pymatgen
data_Sm5Er3(Si3Rh)4
_symmetry_space_group_name_H-M   'P 1'
_cell_length_a   8.20552200
_cell_length_b   8.20552243
_cell_length_c   8.05204500
_cell_angle_alpha   90.00000000
_cell_angle_beta   90.00000000
_cell_angle_gamma   119.99999827
_symmetry_Int_Tables_number   1
_chemical_formula_structural   Sm5Er3(Si3Rh)4
_chemical_formula_sum   'Sm5 Er3 Si12 Rh4'
_cell_volume   469.51479699
_cell_formula_units_Z   1
loop_
 _symmetry_equiv_pos_site_id
 _symmetry_equiv_pos_as_xyz
  1  'x, y, z'
loop_
 _atom_site_type_symbol
 _atom_site_label
 _atom_site_symmetry_multiplicity
 _atom_site_fract_x
 _atom_site_fract_y
 _atom_site_fract_z
 _atom_site_occupancy
  Sm  Sm0  1  0.000000  0.000000  0.250000  1
  Sm  Sm1  1  0.000000  0.000000  0.750000  1
  Sm  Sm2  1  0.495491  0.504509  0.250000  1
  Sm  Sm3  1  0.495491  0.990982  0.250000  1
  Sm  Sm4  1  0.009018  0.504509  0.250000  1
  Er  Er5  1  0.506977  0.493023  0.750000  1
  Er  Er6  1  0.986047  0.493023  0.750000  1
  Er  Er7  1  0.506977  0.013953  0.750000  1
  Si  Si8  1  0.833524  0.166476  0.504553  1
  Si  Si9  1  0.833524  0.667049  0.504553  1
  Si  Si10  1  0.332951  0.166476  0.504553  1
  Si  Si11  1  0.833524  0.166476  0.995447  1
  Si  Si12  1  0.833524  0.667049  0.995447  1
  Si  Si13  1  0.332951  0.166476  0.995447  1
  Si  Si14  1  0.167929  0.832071  0.997040  1
  Si  Si15  1  0.664142  0.832071  0.997040  1
  Si  Si16  1  0.167929  0.335858  0.997040  1
  Si  Si17  1  0.167929  0.832071  0.502960  1
  Si  Si18  1  0.664142  0.832071  0.502960  1
  Si  Si19  1  0.167929  0.335858  0.502960  1
  Rh  Rh20  1  0.666667  0.333333  0.492392  1
  Rh  Rh21  1  0.666667  0.333333  0.007608  1
  Rh  Rh22  1  0.333333  0.666667  0.959354  1
  Rh  Rh23  1  0.333333  0.666667  0.540646  1
