# generated using pymatgen
data_CeNd5Ir18
_symmetry_space_group_name_H-M   'P 1'
_cell_length_a   5.39239801
_cell_length_b   5.39172378
_cell_length_c   17.59717700
_cell_angle_alpha   90.00000000
_cell_angle_beta   90.00000000
_cell_angle_gamma   119.99798684
_symmetry_Int_Tables_number   1
_chemical_formula_structural   CeNd5Ir18
_chemical_formula_sum   'Ce1 Nd5 Ir18'
_cell_volume   443.09007083
_cell_formula_units_Z   1
loop_
 _symmetry_equiv_pos_site_id
 _symmetry_equiv_pos_as_xyz
  1  'x, y, z'
loop_
 _atom_site_type_symbol
 _atom_site_label
 _atom_site_symmetry_multiplicity
 _atom_site_fract_x
 _atom_site_fract_y
 _atom_site_fract_z
 _atom_site_occupancy
  Ce  Ce0  1  0.666726  0.333371  0.250000  1
  Nd  Nd1  1  0.333325  0.666656  0.958973  1
  Nd  Nd2  1  0.666659  0.333326  0.040246  1
  Nd  Nd3  1  0.666659  0.333326  0.459754  1
  Nd  Nd4  1  0.333325  0.666656  0.541027  1
  Nd  Nd5  1  0.333321  0.666656  0.750000  1
  Ir  Ir6  1  0.166387  0.833639  0.371814  1
  Ir  Ir7  1  0.166384  0.332745  0.371815  1
  Ir  Ir8  1  0.667215  0.833609  0.371812  1
  Ir  Ir9  1  0.833753  0.166239  0.628678  1
  Ir  Ir10  1  0.833761  0.667530  0.628685  1
  Ir  Ir11  1  0.332516  0.166257  0.628661  1
  Ir  Ir12  1  0.833753  0.166239  0.871322  1
  Ir  Ir13  1  0.833761  0.667530  0.871315  1
  Ir  Ir14  1  0.332516  0.166257  0.871339  1
  Ir  Ir15  1  0.166387  0.833639  0.128186  1
  Ir  Ir16  1  0.166384  0.332745  0.128185  1
  Ir  Ir17  1  0.667215  0.833609  0.128188  1
  Ir  Ir18  1  0.333288  0.666642  0.250000  1
  Ir  Ir19  1  0.666602  0.333284  0.750000  1
  Ir  Ir20  1  0.000004  0.999998  0.250000  1
  Ir  Ir21  1  0.000082  0.000063  0.750000  1
  Ir  Ir22  1  0.999989  0.999991  0.499608  1
  Ir  Ir23  1  0.999989  0.999991  0.000392  1
