# generated using pymatgen
data_CeDy(Al5Ru)4
_symmetry_space_group_name_H-M   'P 1'
_cell_length_a   6.85512838
_cell_length_b   6.85512707
_cell_length_c   9.13238900
_cell_angle_alpha   90.00000000
_cell_angle_beta   90.00000000
_cell_angle_gamma   96.90512779
_symmetry_Int_Tables_number   1
_chemical_formula_structural   CeDy(Al5Ru)4
_chemical_formula_sum   'Ce1 Dy1 Al20 Ru4'
_cell_volume   426.04346285
_cell_formula_units_Z   1
loop_
 _symmetry_equiv_pos_site_id
 _symmetry_equiv_pos_as_xyz
  1  'x, y, z'
loop_
 _atom_site_type_symbol
 _atom_site_label
 _atom_site_symmetry_multiplicity
 _atom_site_fract_x
 _atom_site_fract_y
 _atom_site_fract_z
 _atom_site_occupancy
  Ce  Ce0  1  0.124419  0.875581  0.250000  1
  Dy  Dy1  1  0.872853  0.127147  0.750000  1
  Al  Al2  1  0.589713  0.860321  0.250000  1
  Al  Al3  1  0.778956  0.518937  0.250000  1
  Al  Al4  1  0.158293  0.841707  0.898463  1
  Al  Al5  1  0.413894  0.140269  0.750000  1
  Al  Al6  1  0.623222  0.376778  0.947666  1
  Al  Al7  1  0.841014  0.158986  0.399848  1
  Al  Al8  1  0.773608  0.774254  0.998808  1
  Al  Al9  1  0.859731  0.586106  0.750000  1
  Al  Al10  1  0.841014  0.158986  0.100152  1
  Al  Al11  1  0.220098  0.479709  0.750000  1
  Al  Al12  1  0.158293  0.841707  0.601537  1
  Al  Al13  1  0.773608  0.774254  0.501192  1
  Al  Al14  1  0.481063  0.221044  0.250000  1
  Al  Al15  1  0.623222  0.376778  0.552334  1
  Al  Al16  1  0.225746  0.226392  0.501192  1
  Al  Al17  1  0.377796  0.622204  0.448577  1
  Al  Al18  1  0.139679  0.410287  0.250000  1
  Al  Al19  1  0.520291  0.779902  0.750000  1
  Al  Al20  1  0.377796  0.622204  0.051423  1
  Al  Al21  1  0.225746  0.226392  0.998808  1
  Ru  Ru22  1  0.499547  0.999576  0.999673  1
  Ru  Ru23  1  0.499547  0.999576  0.500327  1
  Ru  Ru24  1  0.000424  0.500453  0.999673  1
  Ru  Ru25  1  0.000424  0.500453  0.500327  1
