# generated using pymatgen
data_NaCe2Tl(CuSe3)2
_symmetry_space_group_name_H-M   'P 1'
_cell_length_a   7.34496682
_cell_length_b   7.34496673
_cell_length_c   10.81429600
_cell_angle_alpha   90.00000000
_cell_angle_beta   90.00000000
_cell_angle_gamma   147.20629463
_symmetry_Int_Tables_number   1
_chemical_formula_structural   NaCe2Tl(CuSe3)2
_chemical_formula_sum   'Na1 Ce2 Tl1 Cu2 Se6'
_cell_volume   315.98705990
_cell_formula_units_Z   1
loop_
 _symmetry_equiv_pos_site_id
 _symmetry_equiv_pos_as_xyz
  1  'x, y, z'
loop_
 _atom_site_type_symbol
 _atom_site_label
 _atom_site_symmetry_multiplicity
 _atom_site_fract_x
 _atom_site_fract_y
 _atom_site_fract_z
 _atom_site_occupancy
  Na  Na0  1  0.245304  0.754696  0.750000  1
  Ce  Ce1  1  0.002904  0.997096  0.997569  1
  Ce  Ce2  1  0.002904  0.997096  0.502431  1
  Tl  Tl3  1  0.752341  0.247659  0.250000  1
  Cu  Cu4  1  0.468451  0.531549  0.250000  1
  Cu  Cu5  1  0.525327  0.474673  0.750000  1
  Se  Se6  1  0.372093  0.627907  0.064129  1
  Se  Se7  1  0.069437  0.930563  0.250000  1
  Se  Se8  1  0.372093  0.627907  0.435871  1
  Se  Se9  1  0.632800  0.367200  0.573641  1
  Se  Se10  1  0.923547  0.076453  0.750000  1
  Se  Se11  1  0.632800  0.367200  0.926360  1
