# generated using pymatgen
data_Tb7Ho9Cd4(CoRu)2
_symmetry_space_group_name_H-M   'P 1'
_cell_length_a   9.63333446
_cell_length_b   9.57942057
_cell_length_c   9.57510155
_cell_angle_alpha   59.34534636
_cell_angle_beta   59.43032125
_cell_angle_gamma   59.45519175
_symmetry_Int_Tables_number   1
_chemical_formula_structural   Tb7Ho9Cd4(CoRu)2
_chemical_formula_sum   'Tb7 Ho9 Cd4 Co2 Ru2'
_cell_volume   616.41918779
_cell_formula_units_Z   1
loop_
 _symmetry_equiv_pos_site_id
 _symmetry_equiv_pos_as_xyz
  1  'x, y, z'
loop_
 _atom_site_type_symbol
 _atom_site_label
 _atom_site_symmetry_multiplicity
 _atom_site_fract_x
 _atom_site_fract_y
 _atom_site_fract_z
 _atom_site_occupancy
  Tb  Tb0  1  0.938715  0.939708  0.558835  1
  Tb  Tb1  1  0.811228  0.188275  0.187542  1
  Tb  Tb2  1  0.935917  0.563335  0.564151  1
  Tb  Tb3  1  0.939005  0.558407  0.939425  1
  Tb  Tb4  1  0.815340  0.807954  0.185508  1
  Tb  Tb5  1  0.341038  0.348624  0.349038  1
  Tb  Tb6  1  0.557594  0.941892  0.941408  1
  Ho  Ho7  1  0.563679  0.937994  0.559463  1
  Ho  Ho8  1  0.189773  0.811373  0.809877  1
  Ho  Ho9  1  0.188725  0.185893  0.807670  1
  Ho  Ho10  1  0.344382  0.352605  0.960675  1
  Ho  Ho11  1  0.343471  0.961190  0.352958  1
  Ho  Ho12  1  0.815595  0.186443  0.807231  1
  Ho  Ho13  1  0.564158  0.558867  0.937977  1
  Ho  Ho14  1  0.189516  0.807841  0.185967  1
  Ho  Ho15  1  0.964316  0.348217  0.349801  1
  Cd  Cd16  1  0.580217  0.579437  0.258046  1
  Cd  Cd17  1  0.258052  0.580086  0.580002  1
  Cd  Cd18  1  0.580670  0.579891  0.580354  1
  Cd  Cd19  1  0.580364  0.257987  0.579654  1
  Co  Co20  1  0.139799  0.580233  0.142455  1
  Co  Co21  1  0.139507  0.142137  0.580650  1
  Ru  Ru22  1  0.579101  0.141363  0.140984  1
  Ru  Ru23  1  0.139840  0.140255  0.140334  1
