# generated using pymatgen
data_BaInAgPb2
_symmetry_space_group_name_H-M   'P 1'
_cell_length_a   4.97972297
_cell_length_b   4.97972304
_cell_length_c   7.30274998
_cell_angle_alpha   109.93467766
_cell_angle_beta   109.93467403
_cell_angle_gamma   89.99999671
_symmetry_Int_Tables_number   1
_chemical_formula_structural   BaInAgPb2
_chemical_formula_sum   'Ba1 In1 Ag1 Pb2'
_cell_volume   158.64935427
_cell_formula_units_Z   1
loop_
 _symmetry_equiv_pos_site_id
 _symmetry_equiv_pos_as_xyz
  1  'x, y, z'
loop_
 _atom_site_type_symbol
 _atom_site_label
 _atom_site_symmetry_multiplicity
 _atom_site_fract_x
 _atom_site_fract_y
 _atom_site_fract_z
 _atom_site_occupancy
  Ba  Ba0  1  0.001386  0.001386  0.002771  1
  In  In1  1  0.395659  0.395659  0.791317  1
  Ag  Ag2  1  0.611471  0.611471  0.222941  1
  Pb  Pb3  1  0.745744  0.245742  0.491485  1
  Pb  Pb4  1  0.245742  0.745744  0.491485  1
