# generated using pymatgen
data_Yb6MnRuN6
_symmetry_space_group_name_H-M   'P 1'
_cell_length_a   6.55163924
_cell_length_b   6.55163977
_cell_length_c   4.94960400
_cell_angle_alpha   90.00000000
_cell_angle_beta   90.00000000
_cell_angle_gamma   101.15499958
_symmetry_Int_Tables_number   1
_chemical_formula_structural   Yb6MnRuN6
_chemical_formula_sum   'Yb6 Mn1 Ru1 N6'
_cell_volume   208.44284580
_cell_formula_units_Z   1
loop_
 _symmetry_equiv_pos_site_id
 _symmetry_equiv_pos_as_xyz
  1  'x, y, z'
loop_
 _atom_site_type_symbol
 _atom_site_label
 _atom_site_symmetry_multiplicity
 _atom_site_fract_x
 _atom_site_fract_y
 _atom_site_fract_z
 _atom_site_occupancy
  Yb  Yb0  1  0.669062  0.905483  0.750000  1
  Yb  Yb1  1  0.390268  0.609732  0.250000  1
  Yb  Yb2  1  0.903888  0.670198  0.250000  1
  Yb  Yb3  1  0.608118  0.391882  0.750000  1
  Yb  Yb4  1  0.329802  0.096112  0.250000  1
  Yb  Yb5  1  0.094517  0.330938  0.750000  1
  Mn  Mn6  1  0.197610  0.802390  0.750000  1
  Ru  Ru7  1  0.806497  0.193503  0.250000  1
  N  N8  1  0.672090  0.911969  0.250000  1
  N  N9  1  0.372784  0.627216  0.750000  1
  N  N10  1  0.615941  0.384059  0.250000  1
  N  N11  1  0.931496  0.680103  0.750000  1
  N  N12  1  0.319897  0.068504  0.750000  1
  N  N13  1  0.088031  0.327910  0.250000  1
