# generated using pymatgen
data_Y5InRu2
_symmetry_space_group_name_H-M   'P 1'
_cell_length_a   8.76332887
_cell_length_b   8.76332882
_cell_length_c   8.76332874
_cell_angle_alpha   127.43327878
_cell_angle_beta   127.43327885
_cell_angle_gamma   77.54490857
_symmetry_Int_Tables_number   1
_chemical_formula_structural   Y5InRu2
_chemical_formula_sum   'Y10 In2 Ru4'
_cell_volume   411.52610368
_cell_formula_units_Z   2
loop_
 _symmetry_equiv_pos_site_id
 _symmetry_equiv_pos_as_xyz
  1  'x, y, z'
loop_
 _atom_site_type_symbol
 _atom_site_label
 _atom_site_symmetry_multiplicity
 _atom_site_fract_x
 _atom_site_fract_y
 _atom_site_fract_z
 _atom_site_occupancy
  Y  Y0  1  0.000000  0.000000  0.000000  1
  Y  Y1  1  0.500000  0.500000  0.000000  1
  Y  Y2  1  0.792938  0.292938  0.819147  1
  Y  Y3  1  0.207062  0.707062  0.180853  1
  Y  Y4  1  0.473792  0.973792  0.180853  1
  Y  Y5  1  0.292938  0.473792  0.500000  1
  Y  Y6  1  0.026208  0.207062  0.500000  1
  Y  Y7  1  0.526208  0.026208  0.819147  1
  Y  Y8  1  0.707062  0.526208  0.500000  1
  Y  Y9  1  0.973792  0.792938  0.500000  1
  In  In10  1  0.250000  0.250000  0.000000  1
  In  In11  1  0.750000  0.750000  0.000000  1
  Ru  Ru12  1  0.141471  0.641471  0.782942  1
  Ru  Ru13  1  0.858529  0.358529  0.217058  1
  Ru  Ru14  1  0.641471  0.858529  0.500000  1
  Ru  Ru15  1  0.358529  0.141471  0.500000  1
