# generated using pymatgen
data_DyEr5(CI5)2
_symmetry_space_group_name_H-M   'P 1'
_cell_length_a   7.60492313
_cell_length_b   9.49019827
_cell_length_c   9.55794236
_cell_angle_alpha   106.88397446
_cell_angle_beta   96.44290977
_cell_angle_gamma   104.26436509
_symmetry_Int_Tables_number   1
_chemical_formula_structural   DyEr5(CI5)2
_chemical_formula_sum   'Dy1 Er5 C2 I10'
_cell_volume   627.04586928
_cell_formula_units_Z   1
loop_
 _symmetry_equiv_pos_site_id
 _symmetry_equiv_pos_as_xyz
  1  'x, y, z'
loop_
 _atom_site_type_symbol
 _atom_site_label
 _atom_site_symmetry_multiplicity
 _atom_site_fract_x
 _atom_site_fract_y
 _atom_site_fract_z
 _atom_site_occupancy
  Dy  Dy0  1  0.103739  0.038291  0.783199  1
  Er  Er1  1  0.373149  0.131040  0.176422  1
  Er  Er2  1  0.897438  0.962110  0.215577  1
  Er  Er3  1  0.028722  0.746931  0.926893  1
  Er  Er4  1  0.971315  0.252987  0.072989  1
  Er  Er5  1  0.626655  0.868896  0.823584  1
  C  C6  1  0.906784  0.969704  0.959083  1
  C  C7  1  0.092420  0.030018  0.042333  1
  I  I8  1  0.194165  0.737522  0.652229  1
  I  I9  1  0.086389  0.363007  0.823999  1
  I  I10  1  0.456448  0.811515  0.093412  1
  I  I11  1  0.253584  0.083924  0.455385  1
  I  I12  1  0.544371  0.188791  0.906996  1
  I  I13  1  0.806152  0.261175  0.347498  1
  I  I14  1  0.343317  0.449814  0.271448  1
  I  I15  1  0.913437  0.638419  0.176498  1
  I  I16  1  0.656676  0.550179  0.728595  1
  I  I17  1  0.745239  0.915677  0.543863  1
