# generated using pymatgen
data_YbDy12Y7(Cd3Ru)2
_symmetry_space_group_name_H-M   'P 1'
_cell_length_a   9.63829100
_cell_length_b   9.63829274
_cell_length_c   9.82905300
_cell_angle_alpha   90.00000000
_cell_angle_beta   90.00000000
_cell_angle_gamma   120.00001621
_symmetry_Int_Tables_number   1
_chemical_formula_structural   YbDy12Y7(Cd3Ru)2
_chemical_formula_sum   'Yb1 Dy12 Y7 Cd6 Ru2'
_cell_volume   790.75579798
_cell_formula_units_Z   1
loop_
 _symmetry_equiv_pos_site_id
 _symmetry_equiv_pos_as_xyz
  1  'x, y, z'
loop_
 _atom_site_type_symbol
 _atom_site_label
 _atom_site_symmetry_multiplicity
 _atom_site_fract_x
 _atom_site_fract_y
 _atom_site_fract_z
 _atom_site_occupancy
  Yb  Yb0  1  0.000000  0.000000  0.500000  1
  Dy  Dy1  1  0.210770  0.789230  0.439441  1
  Dy  Dy2  1  0.210771  0.421541  0.439441  1
  Dy  Dy3  1  0.578459  0.789230  0.439441  1
  Dy  Dy4  1  0.789230  0.210770  0.560559  1
  Dy  Dy5  1  0.789229  0.578459  0.560559  1
  Dy  Dy6  1  0.421541  0.210770  0.560559  1
  Dy  Dy7  1  0.789748  0.210252  0.940176  1
  Dy  Dy8  1  0.789747  0.579495  0.940176  1
  Dy  Dy9  1  0.420505  0.210253  0.940176  1
  Dy  Dy10  1  0.210252  0.789748  0.059824  1
  Dy  Dy11  1  0.210253  0.420505  0.059824  1
  Dy  Dy12  1  0.579495  0.789747  0.059824  1
  Y  Y13  1  0.000000  0.000000  0.000000  1
  Y  Y14  1  0.541592  0.458408  0.250899  1
  Y  Y15  1  0.541592  0.083183  0.250899  1
  Y  Y16  1  0.916817  0.458409  0.250899  1
  Y  Y17  1  0.458408  0.541592  0.749101  1
  Y  Y18  1  0.458408  0.916817  0.749101  1
  Y  Y19  1  0.083183  0.541591  0.749101  1
  Cd  Cd20  1  0.884975  0.115025  0.250255  1
  Cd  Cd21  1  0.884975  0.769950  0.250255  1
  Cd  Cd22  1  0.230050  0.115025  0.250255  1
  Cd  Cd23  1  0.115025  0.884975  0.749745  1
  Cd  Cd24  1  0.115025  0.230050  0.749745  1
  Cd  Cd25  1  0.769950  0.884975  0.749745  1
  Ru  Ru26  1  0.333333  0.666667  0.250476  1
  Ru  Ru27  1  0.666667  0.333333  0.749524  1
