# generated using pymatgen
data_Tb3Np(GePt)4
_symmetry_space_group_name_H-M   'P 1'
_cell_length_a   4.40070900
_cell_length_b   7.06669161
_cell_length_c   7.59917480
_cell_angle_alpha   89.85118929
_cell_angle_beta   90.00000000
_cell_angle_gamma   90.00000000
_symmetry_Int_Tables_number   1
_chemical_formula_structural   Tb3Np(GePt)4
_chemical_formula_sum   'Tb3 Np1 Ge4 Pt4'
_cell_volume   236.32178590
_cell_formula_units_Z   1
loop_
 _symmetry_equiv_pos_site_id
 _symmetry_equiv_pos_as_xyz
  1  'x, y, z'
loop_
 _atom_site_type_symbol
 _atom_site_label
 _atom_site_symmetry_multiplicity
 _atom_site_fract_x
 _atom_site_fract_y
 _atom_site_fract_z
 _atom_site_occupancy
  Tb  Tb0  1  0.250000  0.996175  0.296683  1
  Tb  Tb1  1  0.750000  0.004281  0.706093  1
  Tb  Tb2  1  0.250000  0.496159  0.201905  1
  Np  Np3  1  0.750000  0.502229  0.791189  1
  Ge  Ge4  1  0.250000  0.813551  0.913173  1
  Ge  Ge5  1  0.250000  0.315397  0.587383  1
  Ge  Ge6  1  0.750000  0.193708  0.088954  1
  Ge  Ge7  1  0.750000  0.692253  0.411679  1
  Pt  Pt8  1  0.250000  0.701884  0.590815  1
  Pt  Pt9  1  0.250000  0.209940  0.914297  1
  Pt  Pt10  1  0.750000  0.782359  0.079513  1
  Pt  Pt11  1  0.750000  0.292065  0.418315  1
