# generated using pymatgen
data_ErLu3(Si3Ir)2
_symmetry_space_group_name_H-M   'P 1'
_cell_length_a   8.11626800
_cell_length_b   8.11626913
_cell_length_c   7.73692800
_cell_angle_alpha   90.00000000
_cell_angle_beta   90.00000000
_cell_angle_gamma   120.00000354
_symmetry_Int_Tables_number   1
_chemical_formula_structural   ErLu3(Si3Ir)2
_chemical_formula_sum   'Er2 Lu6 Si12 Ir4'
_cell_volume   441.37932899
_cell_formula_units_Z   2
loop_
 _symmetry_equiv_pos_site_id
 _symmetry_equiv_pos_as_xyz
  1  'x, y, z'
loop_
 _atom_site_type_symbol
 _atom_site_label
 _atom_site_symmetry_multiplicity
 _atom_site_fract_x
 _atom_site_fract_y
 _atom_site_fract_z
 _atom_site_occupancy
  Er  Er0  1  0.000000  0.000000  0.750000  1
  Er  Er1  1  0.000000  0.000000  0.250000  1
  Lu  Lu2  1  0.980631  0.490315  0.250000  1
  Lu  Lu3  1  0.509685  0.490315  0.250000  1
  Lu  Lu4  1  0.490315  0.980631  0.750000  1
  Lu  Lu5  1  0.019369  0.509685  0.750000  1
  Lu  Lu6  1  0.490315  0.509685  0.750000  1
  Lu  Lu7  1  0.509685  0.019369  0.250000  1
  Si  Si8  1  0.166843  0.833157  0.499856  1
  Si  Si9  1  0.166843  0.333687  0.499856  1
  Si  Si10  1  0.666313  0.833157  0.499856  1
  Si  Si11  1  0.333687  0.166843  0.999856  1
  Si  Si12  1  0.833157  0.666313  0.500144  1
  Si  Si13  1  0.833157  0.166843  0.999856  1
  Si  Si14  1  0.833157  0.666313  0.999856  1
  Si  Si15  1  0.166843  0.333687  0.000144  1
  Si  Si16  1  0.666313  0.833157  0.000144  1
  Si  Si17  1  0.333687  0.166843  0.500144  1
  Si  Si18  1  0.833157  0.166843  0.500144  1
  Si  Si19  1  0.166843  0.833157  0.000144  1
  Ir  Ir20  1  0.333333  0.666667  0.035097  1
  Ir  Ir21  1  0.666667  0.333333  0.964903  1
  Ir  Ir22  1  0.666667  0.333333  0.535097  1
  Ir  Ir23  1  0.333333  0.666667  0.464903  1
