# generated using pymatgen
data_PrTm3(IrO4)4
_symmetry_space_group_name_H-M   'P 1'
_cell_length_a   5.35743100
_cell_length_b   7.39557786
_cell_length_c   7.62426133
_cell_angle_alpha   80.77246090
_cell_angle_beta   86.75283152
_cell_angle_gamma   89.34583567
_symmetry_Int_Tables_number   1
_chemical_formula_structural   PrTm3(IrO4)4
_chemical_formula_sum   'Pr1 Tm3 Ir4 O16'
_cell_volume   297.69440305
_cell_formula_units_Z   1
loop_
 _symmetry_equiv_pos_site_id
 _symmetry_equiv_pos_as_xyz
  1  'x, y, z'
loop_
 _atom_site_type_symbol
 _atom_site_label
 _atom_site_symmetry_multiplicity
 _atom_site_fract_x
 _atom_site_fract_y
 _atom_site_fract_z
 _atom_site_occupancy
  Pr  Pr0  1  0.259592  0.389497  0.368998  1
  Tm  Tm1  1  0.195075  0.892736  0.335162  1
  Tm  Tm2  1  0.798567  0.105905  0.669472  1
  Tm  Tm3  1  0.736666  0.615805  0.628842  1
  Ir  Ir4  1  0.760667  0.200216  0.158887  1
  Ir  Ir5  1  0.716516  0.702671  0.161632  1
  Ir  Ir6  1  0.283504  0.301466  0.837312  1
  Ir  Ir7  1  0.240153  0.797183  0.838766  1
  O  O8  1  0.078614  0.308698  0.053803  1
  O  O9  1  0.392932  0.804138  0.066071  1
  O  O10  1  0.620352  0.447610  0.167402  1
  O  O11  1  0.868533  0.945332  0.159671  1
  O  O12  1  0.457827  0.113212  0.294005  1
  O  O13  1  0.942833  0.158614  0.390721  1
  O  O14  1  0.973310  0.628691  0.335551  1
  O  O15  1  0.500907  0.687648  0.394031  1
  O  O16  1  0.514222  0.324371  0.612576  1
  O  O17  1  0.011726  0.383903  0.674418  1
  O  O18  1  0.048521  0.824705  0.613410  1
  O  O19  1  0.550007  0.874443  0.704684  1
  O  O20  1  0.138813  0.056727  0.826923  1
  O  O21  1  0.394624  0.554139  0.827592  1
  O  O22  1  0.597972  0.192269  0.936753  1
  O  O23  1  0.918066  0.690022  0.943317  1
