# generated using pymatgen
data_CsPr(NbCl3)6
_symmetry_space_group_name_H-M   'P 1'
_cell_length_a   10.44338833
_cell_length_b   10.44338787
_cell_length_c   10.44338745
_cell_angle_alpha   55.23814525
_cell_angle_beta   55.23814704
_cell_angle_gamma   55.23815209
_symmetry_Int_Tables_number   1
_chemical_formula_structural   CsPr(NbCl3)6
_chemical_formula_sum   'Cs1 Pr1 Nb6 Cl18'
_cell_volume   716.25058435
_cell_formula_units_Z   1
loop_
 _symmetry_equiv_pos_site_id
 _symmetry_equiv_pos_as_xyz
  1  'x, y, z'
loop_
 _atom_site_type_symbol
 _atom_site_label
 _atom_site_symmetry_multiplicity
 _atom_site_fract_x
 _atom_site_fract_y
 _atom_site_fract_z
 _atom_site_occupancy
  Cs  Cs0  1  0.222636  0.222636  0.222636  1
  Pr  Pr1  1  0.497975  0.497975  0.497975  1
  Nb  Nb2  1  0.803428  0.146144  0.915293  1
  Nb  Nb3  1  0.915293  0.803428  0.146144  1
  Nb  Nb4  1  0.146144  0.915293  0.803428  1
  Nb  Nb5  1  0.197826  0.854338  0.083362  1
  Nb  Nb6  1  0.083362  0.197826  0.854338  1
  Nb  Nb7  1  0.854338  0.083362  0.197826  1
  Cl  Cl8  1  0.864589  0.405381  0.731578  1
  Cl  Cl9  1  0.731578  0.864589  0.405381  1
  Cl  Cl10  1  0.405381  0.731578  0.864589  1
  Cl  Cl11  1  0.134375  0.595057  0.270565  1
  Cl  Cl12  1  0.270565  0.134375  0.595057  1
  Cl  Cl13  1  0.595057  0.270565  0.134375  1
  Cl  Cl14  1  0.542171  0.336541  0.805752  1
  Cl  Cl15  1  0.805752  0.542171  0.336541  1
  Cl  Cl16  1  0.336541  0.805752  0.542171  1
  Cl  Cl17  1  0.456109  0.666676  0.193749  1
  Cl  Cl18  1  0.193749  0.456109  0.666676  1
  Cl  Cl19  1  0.666676  0.193749  0.456109  1
  Cl  Cl20  1  0.669241  0.938907  0.071024  1
  Cl  Cl21  1  0.071024  0.669241  0.938907  1
  Cl  Cl22  1  0.938907  0.071024  0.669241  1
  Cl  Cl23  1  0.333655  0.060446  0.924322  1
  Cl  Cl24  1  0.924322  0.333655  0.060446  1
  Cl  Cl25  1  0.060446  0.924322  0.333655  1
