# generated using pymatgen
data_Np2Si7(Ir5Ru)2
_symmetry_space_group_name_H-M   'P 1'
_cell_length_a   9.66816610
_cell_length_b   9.66112494
_cell_length_c   3.95696600
_cell_angle_alpha   89.99612142
_cell_angle_beta   90.00812486
_cell_angle_gamma   120.06149756
_symmetry_Int_Tables_number   1
_chemical_formula_structural   Np2Si7(Ir5Ru)2
_chemical_formula_sum   'Np2 Si7 Ir10 Ru2'
_cell_volume   319.88603865
_cell_formula_units_Z   1
loop_
 _symmetry_equiv_pos_site_id
 _symmetry_equiv_pos_as_xyz
  1  'x, y, z'
loop_
 _atom_site_type_symbol
 _atom_site_label
 _atom_site_symmetry_multiplicity
 _atom_site_fract_x
 _atom_site_fract_y
 _atom_site_fract_z
 _atom_site_occupancy
  Np  Np0  1  0.335471  0.668142  0.737815  1
  Np  Np1  1  0.665857  0.333517  0.238126  1
  Si  Si2  1  0.000764  0.998602  0.737573  1
  Si  Si3  1  0.289054  0.888197  0.238298  1
  Si  Si4  1  0.601551  0.709958  0.238446  1
  Si  Si5  1  0.115740  0.404408  0.238165  1
  Si  Si6  1  0.706921  0.115870  0.738203  1
  Si  Si7  1  0.406680  0.291459  0.738107  1
  Si  Si8  1  0.883960  0.591611  0.737949  1
  Ir  Ir9  1  0.895775  0.133547  0.238104  1
  Ir  Ir10  1  0.725167  0.880702  0.738436  1
  Ir  Ir11  1  0.154419  0.275144  0.738178  1
  Ir  Ir12  1  0.120743  0.842443  0.738175  1
  Ir  Ir13  1  0.055166  0.614002  0.237902  1
  Ir  Ir14  1  0.557290  0.941975  0.238161  1
  Ir  Ir15  1  0.385288  0.438507  0.238021  1
  Ir  Ir16  1  0.934252  0.374191  0.737825  1
  Ir  Ir17  1  0.438732  0.065707  0.738080  1
  Ir  Ir18  1  0.626971  0.560976  0.738046  1
  Ru  Ru19  1  0.222389  0.095487  0.238215  1
  Ru  Ru20  1  0.877811  0.775556  0.238175  1
