# generated using pymatgen
data_NdDy11(Si3Ir)4
_symmetry_space_group_name_H-M   'P 1'
_cell_length_a   4.25874500
_cell_length_b   10.65740837
_cell_length_c   12.35430627
_cell_angle_alpha   90.23537031
_cell_angle_beta   90.00000000
_cell_angle_gamma   90.00000000
_symmetry_Int_Tables_number   1
_chemical_formula_structural   NdDy11(Si3Ir)4
_chemical_formula_sum   'Nd1 Dy11 Si12 Ir4'
_cell_volume   560.72244813
_cell_formula_units_Z   1
loop_
 _symmetry_equiv_pos_site_id
 _symmetry_equiv_pos_as_xyz
  1  'x, y, z'
loop_
 _atom_site_type_symbol
 _atom_site_label
 _atom_site_symmetry_multiplicity
 _atom_site_fract_x
 _atom_site_fract_y
 _atom_site_fract_z
 _atom_site_occupancy
  Nd  Nd0  1  0.750000  0.155881  0.696515  1
  Dy  Dy1  1  0.250000  0.879744  0.022168  1
  Dy  Dy2  1  0.250000  0.619927  0.520655  1
  Dy  Dy3  1  0.750000  0.119442  0.980075  1
  Dy  Dy4  1  0.750000  0.382230  0.478012  1
  Dy  Dy5  1  0.250000  0.916781  0.603788  1
  Dy  Dy6  1  0.250000  0.581764  0.104366  1
  Dy  Dy7  1  0.750000  0.081890  0.395050  1
  Dy  Dy8  1  0.750000  0.419702  0.896624  1
  Dy  Dy9  1  0.250000  0.659606  0.801102  1
  Dy  Dy10  1  0.250000  0.840879  0.301233  1
  Dy  Dy11  1  0.750000  0.340768  0.198994  1
  Si  Si12  1  0.250000  0.005926  0.823228  1
  Si  Si13  1  0.250000  0.490617  0.320486  1
  Si  Si14  1  0.750000  0.990467  0.178587  1
  Si  Si15  1  0.750000  0.509916  0.679338  1
  Si  Si16  1  0.250000  0.247853  0.842363  1
  Si  Si17  1  0.250000  0.254729  0.339345  1
  Si  Si18  1  0.750000  0.753889  0.159845  1
  Si  Si19  1  0.750000  0.746108  0.659483  1
  Si  Si20  1  0.250000  0.204430  0.538651  1
  Si  Si21  1  0.250000  0.298975  0.044157  1
  Si  Si22  1  0.750000  0.798268  0.455908  1
  Si  Si23  1  0.750000  0.700951  0.957178  1
  Ir  Ir24  1  0.250000  0.392108  0.682057  1
  Ir  Ir25  1  0.250000  0.111104  0.181133  1
  Ir  Ir26  1  0.750000  0.610425  0.318154  1
  Ir  Ir27  1  0.750000  0.885622  0.821504  1
