# generated using pymatgen
data_TbTmV2F14
_symmetry_space_group_name_H-M   'P 1'
_cell_length_a   5.49773065
_cell_length_b   8.80011620
_cell_length_c   11.76915836
_cell_angle_alpha   63.36954372
_cell_angle_beta   90.05419814
_cell_angle_gamma   90.01230122
_symmetry_Int_Tables_number   1
_chemical_formula_structural   TbTmV2F14
_chemical_formula_sum   'Tb2 Tm2 V4 F28'
_cell_volume   508.99536113
_cell_formula_units_Z   2
loop_
 _symmetry_equiv_pos_site_id
 _symmetry_equiv_pos_as_xyz
  1  'x, y, z'
loop_
 _atom_site_type_symbol
 _atom_site_label
 _atom_site_symmetry_multiplicity
 _atom_site_fract_x
 _atom_site_fract_y
 _atom_site_fract_z
 _atom_site_occupancy
  Tb  Tb0  1  0.758254  0.189565  0.230573  1
  Tb  Tb1  1  0.241746  0.810435  0.769427  1
  Tm  Tm2  1  0.258768  0.806754  0.270210  1
  Tm  Tm3  1  0.741232  0.193246  0.729790  1
  V  V4  1  0.754393  0.727198  0.046290  1
  V  V5  1  0.245607  0.272802  0.953710  1
  V  V6  1  0.254317  0.275263  0.455973  1
  V  V7  1  0.745683  0.724737  0.544027  1
  F  F8  1  0.953037  0.705983  0.422423  1
  F  F9  1  0.046963  0.294017  0.577577  1
  F  F10  1  0.450591  0.294034  0.075215  1
  F  F11  1  0.549409  0.705966  0.924785  1
  F  F12  1  0.478573  0.732790  0.142285  1
  F  F13  1  0.521427  0.267210  0.857715  1
  F  F14  1  0.980174  0.268487  0.360396  1
  F  F15  1  0.019826  0.731513  0.639604  1
  F  F16  1  0.961548  0.748655  0.170010  1
  F  F17  1  0.038452  0.251345  0.829990  1
  F  F18  1  0.457211  0.253945  0.331852  1
  F  F19  1  0.542789  0.746055  0.668148  1
  F  F20  1  0.766215  0.494107  0.138901  1
  F  F21  1  0.233785  0.505893  0.861099  1
  F  F22  1  0.266546  0.508563  0.362272  1
  F  F23  1  0.733454  0.491437  0.637728  1
  F  F24  1  0.963354  0.285286  0.044427  1
  F  F25  1  0.036646  0.714714  0.955573  1
  F  F26  1  0.461270  0.715295  0.452468  1
  F  F27  1  0.538730  0.284705  0.547532  1
  F  F28  1  0.741933  0.956247  0.453576  1
  F  F29  1  0.258067  0.043753  0.546424  1
  F  F30  1  0.241887  0.042355  0.045903  1
  F  F31  1  0.758113  0.957645  0.954097  1
  F  F32  1  0.574548  0.969443  0.231131  1
  F  F33  1  0.425452  0.030557  0.768869  1
  F  F34  1  0.082968  0.022802  0.269138  1
  F  F35  1  0.917032  0.977198  0.730862  1
