# generated using pymatgen
data_Ho20Ir3PtRh8
_symmetry_space_group_name_H-M   'P 1'
_cell_length_a   10.87750919
_cell_length_b   10.87750926
_cell_length_c   6.33919101
_cell_angle_alpha   89.99682234
_cell_angle_beta   89.99682468
_cell_angle_gamma   89.81311915
_symmetry_Int_Tables_number   1
_chemical_formula_structural   Ho20Ir3PtRh8
_chemical_formula_sum   'Ho20 Ir3 Pt1 Rh8'
_cell_volume   750.05040033
_cell_formula_units_Z   1
loop_
 _symmetry_equiv_pos_site_id
 _symmetry_equiv_pos_as_xyz
  1  'x, y, z'
loop_
 _atom_site_type_symbol
 _atom_site_label
 _atom_site_symmetry_multiplicity
 _atom_site_fract_x
 _atom_site_fract_y
 _atom_site_fract_z
 _atom_site_occupancy
  Ho  Ho0  1  0.290968  0.090121  0.378524  1
  Ho  Ho1  1  0.291502  0.909460  0.878007  1
  Ho  Ho2  1  0.707835  0.087787  0.876018  1
  Ho  Ho3  1  0.707902  0.908796  0.378867  1
  Ho  Ho4  1  0.587726  0.789769  0.879494  1
  Ho  Ho5  1  0.585791  0.209426  0.378654  1
  Ho  Ho6  1  0.412419  0.790092  0.379018  1
  Ho  Ho7  1  0.410321  0.209528  0.879423  1
  Ho  Ho8  1  0.210231  0.412274  0.620506  1
  Ho  Ho9  1  0.209908  0.587581  0.120982  1
  Ho  Ho10  1  0.790574  0.414209  0.121346  1
  Ho  Ho11  1  0.790472  0.589679  0.620577  1
  Ho  Ho12  1  0.909879  0.709032  0.121476  1
  Ho  Ho13  1  0.912213  0.292165  0.623982  1
  Ho  Ho14  1  0.090540  0.708498  0.621993  1
  Ho  Ho15  1  0.091204  0.292098  0.121133  1
  Ho  Ho16  1  0.000798  0.998749  0.500483  1
  Ho  Ho17  1  0.001251  0.999202  0.999517  1
  Ho  Ho18  1  0.499740  0.499935  0.999857  1
  Ho  Ho19  1  0.500065  0.500260  0.500143  1
  Ir  Ir20  1  0.654724  0.653897  0.249786  1
  Ir  Ir21  1  0.346103  0.345276  0.250214  1
  Ir  Ir22  1  0.345244  0.654756  0.750000  1
  Pt  Pt23  1  0.845342  0.154658  0.250000  1
  Rh  Rh24  1  0.846231  0.847195  0.750176  1
  Rh  Rh25  1  0.152805  0.153769  0.749824  1
  Rh  Rh26  1  0.153551  0.846449  0.250000  1
  Rh  Rh27  1  0.655477  0.344523  0.750000  1
  Rh  Rh28  1  0.500156  0.000352  0.123660  1
  Rh  Rh29  1  0.500348  0.000964  0.623649  1
  Rh  Rh30  1  0.999036  0.499652  0.876351  1
  Rh  Rh31  1  0.999648  0.499844  0.376340  1
