# generated using pymatgen
data_Sr2HoEr(BO4)2
_symmetry_space_group_name_H-M   'P 1'
_cell_length_a   3.64963900
_cell_length_b   9.71835488
_cell_length_c   10.96340900
_cell_angle_alpha   89.95117326
_cell_angle_beta   90.00000000
_cell_angle_gamma   90.00000000
_symmetry_Int_Tables_number   1
_chemical_formula_structural   Sr2HoEr(BO4)2
_chemical_formula_sum   'Sr4 Ho2 Er2 B4 O16'
_cell_volume   388.85538816
_cell_formula_units_Z   2
loop_
 _symmetry_equiv_pos_site_id
 _symmetry_equiv_pos_as_xyz
  1  'x, y, z'
loop_
 _atom_site_type_symbol
 _atom_site_label
 _atom_site_symmetry_multiplicity
 _atom_site_fract_x
 _atom_site_fract_y
 _atom_site_fract_z
 _atom_site_occupancy
  Sr  Sr0  1  0.250000  0.657238  0.084787  1
  Sr  Sr1  1  0.750000  0.342762  0.915213  1
  Sr  Sr2  1  0.750000  0.157740  0.415684  1
  Sr  Sr3  1  0.250000  0.842260  0.584316  1
  Ho  Ho4  1  0.250000  0.080285  0.109916  1
  Ho  Ho5  1  0.750000  0.919715  0.890084  1
  Er  Er6  1  0.750000  0.579723  0.390477  1
  Er  Er7  1  0.250000  0.420277  0.609523  1
  B  B8  1  0.250000  0.363008  0.204682  1
  B  B9  1  0.750000  0.636992  0.795318  1
  B  B10  1  0.750000  0.862453  0.295757  1
  B  B11  1  0.250000  0.137547  0.704243  1
  O  O12  1  0.250000  0.488216  0.265884  1
  O  O13  1  0.750000  0.511784  0.734116  1
  O  O14  1  0.750000  0.987773  0.234527  1
  O  O15  1  0.250000  0.012227  0.765473  1
  O  O16  1  0.250000  0.238504  0.268199  1
  O  O17  1  0.750000  0.761496  0.731801  1
  O  O18  1  0.750000  0.737736  0.232721  1
  O  O19  1  0.250000  0.262264  0.767279  1
  O  O20  1  0.250000  0.360409  0.077068  1
  O  O21  1  0.750000  0.639591  0.922932  1
  O  O22  1  0.750000  0.859941  0.423294  1
  O  O23  1  0.250000  0.140059  0.576706  1
  O  O24  1  0.250000  0.612871  0.499790  1
  O  O25  1  0.750000  0.387129  0.500210  1
  O  O26  1  0.750000  0.113676  0.999499  1
  O  O27  1  0.250000  0.886324  0.000501  1
