# generated using pymatgen
data_Nd2MgNiAg
_symmetry_space_group_name_H-M   'P 1'
_cell_length_a   7.96539601
_cell_length_b   7.96539700
_cell_length_c   3.82619100
_cell_angle_alpha   90.00000000
_cell_angle_beta   90.00000000
_cell_angle_gamma   88.17415208
_symmetry_Int_Tables_number   1
_chemical_formula_structural   Nd2MgNiAg
_chemical_formula_sum   'Nd4 Mg2 Ni2 Ag2'
_cell_volume   242.63915870
_cell_formula_units_Z   2
loop_
 _symmetry_equiv_pos_site_id
 _symmetry_equiv_pos_as_xyz
  1  'x, y, z'
loop_
 _atom_site_type_symbol
 _atom_site_label
 _atom_site_symmetry_multiplicity
 _atom_site_fract_x
 _atom_site_fract_y
 _atom_site_fract_z
 _atom_site_occupancy
  Nd  Nd0  1  0.659084  0.159084  0.500000  1
  Nd  Nd1  1  0.340916  0.840916  0.500000  1
  Nd  Nd2  1  0.195062  0.304938  0.500000  1
  Nd  Nd3  1  0.804938  0.695062  0.500000  1
  Mg  Mg4  1  0.500000  0.500000  0.000000  1
  Mg  Mg5  1  0.000000  0.000000  0.000000  1
  Ni  Ni6  1  0.615538  0.884462  0.000000  1
  Ni  Ni7  1  0.384462  0.115538  0.000000  1
  Ag  Ag8  1  0.125227  0.625227  0.000000  1
  Ag  Ag9  1  0.874773  0.374773  0.000000  1
