# generated using pymatgen
data_DyEr3(TmGa5)2
_symmetry_space_group_name_H-M   'P 1'
_cell_length_a   6.05268418
_cell_length_b   9.57161529
_cell_length_c   11.48125300
_cell_angle_alpha   90.00000000
_cell_angle_beta   90.00000000
_cell_angle_gamma   89.97203709
_symmetry_Int_Tables_number   1
_chemical_formula_structural   DyEr3(TmGa5)2
_chemical_formula_sum   'Dy2 Er6 Tm4 Ga20'
_cell_volume   665.15442352
_cell_formula_units_Z   2
loop_
 _symmetry_equiv_pos_site_id
 _symmetry_equiv_pos_as_xyz
  1  'x, y, z'
loop_
 _atom_site_type_symbol
 _atom_site_label
 _atom_site_symmetry_multiplicity
 _atom_site_fract_x
 _atom_site_fract_y
 _atom_site_fract_z
 _atom_site_occupancy
  Dy  Dy0  1  0.891004  0.509711  0.351717  1
  Dy  Dy1  1  0.608996  0.990289  0.851717  1
  Er  Er2  1  0.109048  0.009663  0.648144  1
  Er  Er3  1  0.390952  0.490337  0.148144  1
  Er  Er4  1  0.109054  0.490311  0.648644  1
  Er  Er5  1  0.390946  0.009689  0.148644  1
  Er  Er6  1  0.891120  0.990407  0.351676  1
  Er  Er7  1  0.608880  0.509593  0.851676  1
  Tm  Tm8  1  0.848290  0.749912  0.074175  1
  Tm  Tm9  1  0.651710  0.750088  0.574175  1
  Tm  Tm10  1  0.151395  0.249975  0.925869  1
  Tm  Tm11  1  0.348605  0.250025  0.425869  1
  Ga  Ga12  1  0.874954  0.052594  0.090772  1
  Ga  Ga13  1  0.625046  0.447406  0.590772  1
  Ga  Ga14  1  0.125050  0.552500  0.909400  1
  Ga  Ga15  1  0.374950  0.947500  0.409400  1
  Ga  Ga16  1  0.124579  0.947303  0.909477  1
  Ga  Ga17  1  0.375421  0.552697  0.409477  1
  Ga  Ga18  1  0.874941  0.447348  0.090260  1
  Ga  Ga19  1  0.625059  0.052652  0.590260  1
  Ga  Ga20  1  0.172331  0.750296  0.251175  1
  Ga  Ga21  1  0.327669  0.749704  0.751175  1
  Ga  Ga22  1  0.828276  0.250331  0.748433  1
  Ga  Ga23  1  0.671724  0.249669  0.248433  1
  Ga  Ga24  1  0.373670  0.749881  0.005544  1
  Ga  Ga25  1  0.126330  0.750119  0.505544  1
  Ga  Ga26  1  0.626087  0.250378  0.994899  1
  Ga  Ga27  1  0.873913  0.249622  0.494899  1
  Ga  Ga28  1  0.603959  0.750474  0.298775  1
  Ga  Ga29  1  0.896041  0.749526  0.798775  1
  Ga  Ga30  1  0.395439  0.250048  0.701040  1
  Ga  Ga31  1  0.104561  0.249952  0.201040  1
