# generated using pymatgen
data_Zr6Zn17Pt6Pb
_symmetry_space_group_name_H-M   'P 1'
_cell_length_a   8.92174522
_cell_length_b   8.92340560
_cell_length_c   8.92012510
_cell_angle_alpha   59.99977793
_cell_angle_beta   60.01359463
_cell_angle_gamma   59.98022506
_symmetry_Int_Tables_number   1
_chemical_formula_structural   Zr6Zn17Pt6Pb
_chemical_formula_sum   'Zr6 Zn17 Pt6 Pb1'
_cell_volume   502.12900569
_cell_formula_units_Z   1
loop_
 _symmetry_equiv_pos_site_id
 _symmetry_equiv_pos_as_xyz
  1  'x, y, z'
loop_
 _atom_site_type_symbol
 _atom_site_label
 _atom_site_symmetry_multiplicity
 _atom_site_fract_x
 _atom_site_fract_y
 _atom_site_fract_z
 _atom_site_occupancy
  Zr  Zr0  1  0.740098  0.259901  0.259900  1
  Zr  Zr1  1  0.259902  0.740099  0.740100  1
  Zr  Zr2  1  0.259974  0.740029  0.259970  1
  Zr  Zr3  1  0.740026  0.259971  0.740030  1
  Zr  Zr4  1  0.259883  0.259882  0.740114  1
  Zr  Zr5  1  0.740117  0.740118  0.259886  1
  Zn  Zn6  1  0.131868  0.131908  0.131808  1
  Zn  Zn7  1  0.868132  0.868092  0.868192  1
  Zn  Zn8  1  0.131962  0.131912  0.604383  1
  Zn  Zn9  1  0.131734  0.604416  0.131898  1
  Zn  Zn10  1  0.868038  0.868088  0.395617  1
  Zn  Zn11  1  0.868266  0.395584  0.868102  1
  Zn  Zn12  1  0.604402  0.131779  0.131939  1
  Zn  Zn13  1  0.395598  0.868221  0.868061  1
  Zn  Zn14  1  0.349965  0.349926  0.350020  1
  Zn  Zn15  1  0.650035  0.650074  0.649980  1
  Zn  Zn16  1  0.349906  0.349922  0.950169  1
  Zn  Zn17  1  0.350017  0.950113  0.349937  1
  Zn  Zn18  1  0.650094  0.650078  0.049831  1
  Zn  Zn19  1  0.649983  0.049887  0.650063  1
  Zn  Zn20  1  0.950118  0.350011  0.349914  1
  Zn  Zn21  1  0.049882  0.649989  0.650086  1
  Zn  Zn22  1  0.000000  0.000000  0.000000  1
  Pt  Pt23  1  0.500000  0.000000  0.000000  1
  Pt  Pt24  1  0.000000  0.500000  0.500000  1
  Pt  Pt25  1  0.000000  0.500000  0.000000  1
  Pt  Pt26  1  0.500000  0.000000  0.500000  1
  Pt  Pt27  1  0.000000  0.000000  0.500000  1
  Pt  Pt28  1  0.500000  0.500000  0.000000  1
  Pb  Pb29  1  0.500000  0.500000  0.500000  1
