# generated using pymatgen
data_Eu(Zn2Pt)2
_symmetry_space_group_name_H-M   'P 1'
_cell_length_a   7.73591900
_cell_length_b   7.73591900
_cell_length_c   4.21573400
_cell_angle_alpha   90.00000000
_cell_angle_beta   90.00000000
_cell_angle_gamma   90.00000000
_symmetry_Int_Tables_number   1
_chemical_formula_structural   Eu(Zn2Pt)2
_chemical_formula_sum   'Eu2 Zn8 Pt4'
_cell_volume   252.28825212
_cell_formula_units_Z   2
loop_
 _symmetry_equiv_pos_site_id
 _symmetry_equiv_pos_as_xyz
  1  'x, y, z'
loop_
 _atom_site_type_symbol
 _atom_site_label
 _atom_site_symmetry_multiplicity
 _atom_site_fract_x
 _atom_site_fract_y
 _atom_site_fract_z
 _atom_site_occupancy
  Eu  Eu0  1  0.500000  0.500000  0.500000  1
  Eu  Eu1  1  0.000000  0.000000  0.000000  1
  Zn  Zn2  1  0.348342  0.093139  0.500000  1
  Zn  Zn3  1  0.651658  0.906861  0.500000  1
  Zn  Zn4  1  0.848342  0.406861  0.000000  1
  Zn  Zn5  1  0.151658  0.593139  0.000000  1
  Zn  Zn6  1  0.093139  0.348342  0.500000  1
  Zn  Zn7  1  0.906861  0.651658  0.500000  1
  Zn  Zn8  1  0.406861  0.848342  0.000000  1
  Zn  Zn9  1  0.593139  0.151658  0.000000  1
  Pt  Pt10  1  0.780943  0.219057  0.500000  1
  Pt  Pt11  1  0.219057  0.780943  0.500000  1
  Pt  Pt12  1  0.280943  0.280943  0.000000  1
  Pt  Pt13  1  0.719057  0.719057  0.000000  1
