# generated using pymatgen
data_KAc5Te8
_symmetry_space_group_name_H-M   'P 1'
_cell_length_a   8.70176607
_cell_length_b   8.70176553
_cell_length_c   8.70176527
_cell_angle_alpha   109.38604993
_cell_angle_beta   109.38604947
_cell_angle_gamma   109.64169778
_symmetry_Int_Tables_number   1
_chemical_formula_structural   KAc5Te8
_chemical_formula_sum   'K1 Ac5 Te8'
_cell_volume   507.22116345
_cell_formula_units_Z   1
loop_
 _symmetry_equiv_pos_site_id
 _symmetry_equiv_pos_as_xyz
  1  'x, y, z'
loop_
 _atom_site_type_symbol
 _atom_site_label
 _atom_site_symmetry_multiplicity
 _atom_site_fract_x
 _atom_site_fract_y
 _atom_site_fract_z
 _atom_site_occupancy
  K  K0  1  0.000000  0.000000  0.000000  1
  Ac  Ac1  1  0.240204  0.117799  0.616886  1
  Ac  Ac2  1  0.750000  0.250000  0.500000  1
  Ac  Ac3  1  0.500912  0.623318  0.383114  1
  Ac  Ac4  1  0.882201  0.499088  0.122405  1
  Ac  Ac5  1  0.376682  0.759796  0.877595  1
  Te  Te6  1  0.767517  0.869987  0.254045  1
  Te  Te7  1  0.283404  0.872922  0.253142  1
  Te  Te8  1  0.127078  0.380220  0.410482  1
  Te  Te9  1  0.619780  0.030262  0.746858  1
  Te  Te10  1  0.486528  0.232483  0.102471  1
  Te  Te11  1  0.615943  0.513472  0.745955  1
  Te  Te12  1  0.130013  0.384057  0.897529  1
  Te  Te13  1  0.969738  0.716596  0.589518  1
