# generated using pymatgen
data_Tb3ErGa12Co
_symmetry_space_group_name_H-M   'P 1'
_cell_length_a   7.41749014
_cell_length_b   7.41748973
_cell_length_c   7.41748995
_cell_angle_alpha   109.38985506
_cell_angle_beta   109.38985076
_cell_angle_gamma   109.38982535
_symmetry_Int_Tables_number   1
_chemical_formula_structural   Tb3ErGa12Co
_chemical_formula_sum   'Tb3 Er1 Ga12 Co1'
_cell_volume   315.10161352
_cell_formula_units_Z   1
loop_
 _symmetry_equiv_pos_site_id
 _symmetry_equiv_pos_as_xyz
  1  'x, y, z'
loop_
 _atom_site_type_symbol
 _atom_site_label
 _atom_site_symmetry_multiplicity
 _atom_site_fract_x
 _atom_site_fract_y
 _atom_site_fract_z
 _atom_site_occupancy
  Tb  Tb0  1  0.000000  0.000000  0.500000  1
  Tb  Tb1  1  0.000000  0.500000  0.000000  1
  Tb  Tb2  1  0.500000  0.000000  0.000000  1
  Er  Er3  1  0.500000  0.500000  0.500000  1
  Ga  Ga4  1  0.749386  0.250614  0.500000  1
  Ga  Ga5  1  0.749386  0.500000  0.250614  1
  Ga  Ga6  1  0.500000  0.250614  0.749386  1
  Ga  Ga7  1  0.250614  0.500000  0.749386  1
  Ga  Ga8  1  0.250614  0.749386  0.500000  1
  Ga  Ga9  1  0.500000  0.749386  0.250614  1
  Ga  Ga10  1  0.716521  0.716521  0.999129  1
  Ga  Ga11  1  0.283479  0.000871  0.283479  1
  Ga  Ga12  1  0.000871  0.283479  0.283479  1
  Ga  Ga13  1  0.283479  0.283479  0.000871  1
  Ga  Ga14  1  0.716521  0.999129  0.716521  1
  Ga  Ga15  1  0.999129  0.716521  0.716521  1
  Co  Co16  1  0.000000  0.000000  0.000000  1
