# generated using pymatgen
data_Tb3LuPb4F28
_symmetry_space_group_name_H-M   'P 1'
_cell_length_a   5.74896025
_cell_length_b   9.09115462
_cell_length_c   12.22606400
_cell_angle_alpha   62.41090084
_cell_angle_beta   90.01692275
_cell_angle_gamma   89.96432586
_symmetry_Int_Tables_number   1
_chemical_formula_structural   Tb3LuPb4F28
_chemical_formula_sum   'Tb3 Lu1 Pb4 F28'
_cell_volume   566.33254917
_cell_formula_units_Z   1
loop_
 _symmetry_equiv_pos_site_id
 _symmetry_equiv_pos_as_xyz
  1  'x, y, z'
loop_
 _atom_site_type_symbol
 _atom_site_label
 _atom_site_symmetry_multiplicity
 _atom_site_fract_x
 _atom_site_fract_y
 _atom_site_fract_z
 _atom_site_occupancy
  Tb  Tb0  1  0.742120  0.814464  0.266614  1
  Tb  Tb1  1  0.241958  0.183638  0.233300  1
  Tb  Tb2  1  0.256995  0.181466  0.733474  1
  Lu  Lu3  1  0.757647  0.815745  0.766347  1
  Pb  Pb4  1  0.745217  0.269636  0.457436  1
  Pb  Pb5  1  0.244528  0.727789  0.040826  1
  Pb  Pb6  1  0.256215  0.728288  0.546938  1
  Pb  Pb7  1  0.755586  0.275017  0.954772  1
  F  F8  1  0.473391  0.705935  0.916000  1
  F  F9  1  0.968974  0.295515  0.582117  1
  F  F10  1  0.532035  0.295991  0.081527  1
  F  F11  1  0.031354  0.706328  0.420481  1
  F  F12  1  0.440338  0.283284  0.547497  1
  F  F13  1  0.939545  0.718478  0.947534  1
  F  F14  1  0.558517  0.716494  0.454005  1
  F  F15  1  0.060809  0.285097  0.045809  1
  F  F16  1  0.767334  0.532348  0.853323  1
  F  F17  1  0.269521  0.471947  0.646522  1
  F  F18  1  0.227739  0.471866  0.143660  1
  F  F19  1  0.730143  0.526801  0.356408  1
  F  F20  1  0.760004  0.016138  0.055683  1
  F  F21  1  0.260398  0.986444  0.445469  1
  F  F22  1  0.240136  0.986406  0.943519  1
  F  F23  1  0.741372  0.010909  0.558814  1
  F  F24  1  0.978754  0.731408  0.657405  1
  F  F25  1  0.477082  0.269602  0.846746  1
  F  F26  1  0.026543  0.271227  0.348702  1
  F  F27  1  0.524062  0.728463  0.150530  1
  F  F28  1  0.034622  0.744485  0.175934  1
  F  F29  1  0.537175  0.253978  0.321884  1
  F  F30  1  0.964839  0.256425  0.820797  1
  F  F31  1  0.471781  0.748042  0.679638  1
  F  F32  1  0.423736  0.969597  0.235478  1
  F  F33  1  0.923849  0.029358  0.264501  1
  F  F34  1  0.573562  0.021355  0.763410  1
  F  F35  1  0.062122  0.970030  0.736902  1
