# generated using pymatgen
data_NaB(SeO4)2
_symmetry_space_group_name_H-M   'P 1'
_cell_length_a   8.02047500
_cell_length_b   5.87071166
_cell_length_c   8.28100046
_cell_angle_alpha   71.20103061
_cell_angle_beta   90.00000000
_cell_angle_gamma   90.00000000
_symmetry_Int_Tables_number   1
_chemical_formula_structural   NaB(SeO4)2
_chemical_formula_sum   'Na2 B2 Se4 O16'
_cell_volume   369.11815615
_cell_formula_units_Z   2
loop_
 _symmetry_equiv_pos_site_id
 _symmetry_equiv_pos_as_xyz
  1  'x, y, z'
loop_
 _atom_site_type_symbol
 _atom_site_label
 _atom_site_symmetry_multiplicity
 _atom_site_fract_x
 _atom_site_fract_y
 _atom_site_fract_z
 _atom_site_occupancy
  Na  Na0  1  0.554248  0.500000  0.750000  1
  Na  Na1  1  0.445752  0.500000  0.250000  1
  B  B2  1  0.952548  0.000000  0.250000  1
  B  B3  1  0.047452  0.000000  0.750000  1
  Se  Se4  1  0.227257  0.878826  0.490746  1
  Se  Se5  1  0.227257  0.121174  0.009254  1
  Se  Se6  1  0.772743  0.121174  0.509254  1
  Se  Se7  1  0.772743  0.878826  0.990746  1
  O  O8  1  0.295872  0.151505  0.401205  1
  O  O9  1  0.295872  0.848495  0.098795  1
  O  O10  1  0.704128  0.848495  0.598795  1
  O  O11  1  0.704128  0.151505  0.901205  1
  O  O12  1  0.047774  0.826976  0.389390  1
  O  O13  1  0.047774  0.173024  0.110610  1
  O  O14  1  0.952226  0.173024  0.610610  1
  O  O15  1  0.952226  0.826976  0.889390  1
  O  O16  1  0.155498  0.829875  0.696260  1
  O  O17  1  0.155498  0.170125  0.803740  1
  O  O18  1  0.844502  0.170125  0.303740  1
  O  O19  1  0.844502  0.829875  0.196260  1
  O  O20  1  0.354114  0.654535  0.509065  1
  O  O21  1  0.354114  0.345465  0.990935  1
  O  O22  1  0.645886  0.345465  0.490935  1
  O  O23  1  0.645886  0.654535  0.009065  1
