# generated using pymatgen
data_Ti12Al8IrRh3N4
_symmetry_space_group_name_H-M   'P 1'
_cell_length_a   8.14053069
_cell_length_b   8.14053151
_cell_length_c   8.16500832
_cell_angle_alpha   60.09911510
_cell_angle_beta   60.09911683
_cell_angle_gamma   59.99999742
_symmetry_Int_Tables_number   1
_chemical_formula_structural   Ti12Al8IrRh3N4
_chemical_formula_sum   'Ti12 Al8 Ir1 Rh3 N4'
_cell_volume   383.17407297
_cell_formula_units_Z   1
loop_
 _symmetry_equiv_pos_site_id
 _symmetry_equiv_pos_as_xyz
  1  'x, y, z'
loop_
 _atom_site_type_symbol
 _atom_site_label
 _atom_site_symmetry_multiplicity
 _atom_site_fract_x
 _atom_site_fract_y
 _atom_site_fract_z
 _atom_site_occupancy
  Ti  Ti0  1  0.816381  0.816381  0.183040  1
  Ti  Ti1  1  0.066686  0.433031  0.433598  1
  Ti  Ti2  1  0.433619  0.065801  0.066960  1
  Ti  Ti3  1  0.066686  0.066686  0.433598  1
  Ti  Ti4  1  0.065801  0.433619  0.066960  1
  Ti  Ti5  1  0.433031  0.066686  0.433598  1
  Ti  Ti6  1  0.184199  0.816381  0.183040  1
  Ti  Ti7  1  0.183314  0.816969  0.816402  1
  Ti  Ti8  1  0.816381  0.184199  0.183040  1
  Ti  Ti9  1  0.816969  0.183314  0.816402  1
  Ti  Ti10  1  0.433619  0.433619  0.066960  1
  Ti  Ti11  1  0.183314  0.183314  0.816402  1
  Al  Al12  1  0.414823  0.754718  0.415633  1
  Al  Al13  1  0.834967  0.834967  0.495101  1
  Al  Al14  1  0.495282  0.835177  0.834367  1
  Al  Al15  1  0.835177  0.835177  0.834367  1
  Al  Al16  1  0.754718  0.414823  0.415633  1
  Al  Al17  1  0.414823  0.414823  0.415633  1
  Al  Al18  1  0.415033  0.415033  0.754899  1
  Al  Al19  1  0.835177  0.495282  0.834367  1
  Ir  Ir20  1  0.625000  0.625000  0.125000  1
  Rh  Rh21  1  0.625000  0.125000  0.625000  1
  Rh  Rh22  1  0.125000  0.625000  0.625000  1
  Rh  Rh23  1  0.625000  0.625000  0.625000  1
  N  N24  1  0.125000  0.625000  0.125000  1
  N  N25  1  0.125000  0.125000  0.625000  1
  N  N26  1  0.625000  0.125000  0.125000  1
  N  N27  1  0.125000  0.125000  0.125000  1
