# generated using pymatgen
data_V6Si6Tc11Ir
_symmetry_space_group_name_H-M   'P 1'
_cell_length_a   4.22112500
_cell_length_b   6.00967900
_cell_length_c   12.71676701
_cell_angle_alpha   89.99918454
_cell_angle_beta   89.99590499
_cell_angle_gamma   89.99996734
_symmetry_Int_Tables_number   1
_chemical_formula_structural   V6Si6Tc11Ir
_chemical_formula_sum   'V6 Si6 Tc11 Ir1'
_cell_volume   322.59393784
_cell_formula_units_Z   1
loop_
 _symmetry_equiv_pos_site_id
 _symmetry_equiv_pos_as_xyz
  1  'x, y, z'
loop_
 _atom_site_type_symbol
 _atom_site_label
 _atom_site_symmetry_multiplicity
 _atom_site_fract_x
 _atom_site_fract_y
 _atom_site_fract_z
 _atom_site_occupancy
  V  V0  1  0.999999  0.511574  0.999991  1
  V  V1  1  0.499759  0.996070  0.171412  1
  V  V2  1  0.999769  0.498996  0.333562  1
  V  V3  1  0.500000  0.001085  0.500015  1
  V  V4  1  0.000231  0.499002  0.666445  1
  V  V5  1  0.500241  0.996061  0.828568  1
  Si  Si6  1  0.000000  0.999171  0.999987  1
  Si  Si7  1  0.499778  0.499219  0.166746  1
  Si  Si8  1  0.999756  0.001570  0.332385  1
  Si  Si9  1  0.500000  0.498958  0.500013  1
  Si  Si10  1  0.000244  0.001569  0.667629  1
  Si  Si11  1  0.500222  0.499219  0.833239  1
  Tc  Tc12  1  0.500000  0.748094  0.999993  1
  Tc  Tc13  1  0.999824  0.249906  0.164429  1
  Tc  Tc14  1  0.999816  0.750561  0.166398  1
  Tc  Tc15  1  0.499799  0.251405  0.332431  1
  Tc  Tc16  1  0.499781  0.748621  0.333453  1
  Tc  Tc17  1  0.000000  0.249032  0.500008  1
  Tc  Tc18  1  0.000000  0.751711  0.500006  1
  Tc  Tc19  1  0.500201  0.251396  0.667576  1
  Tc  Tc20  1  0.500218  0.748628  0.666554  1
  Tc  Tc21  1  0.000177  0.249902  0.835572  1
  Tc  Tc22  1  0.000183  0.750566  0.833594  1
  Ir  Ir23  1  0.500000  0.247685  0.999995  1
