# generated using pymatgen
data_Ca20Ni8SnHg3
_symmetry_space_group_name_H-M   'P 1'
_cell_length_a   7.68933100
_cell_length_b   7.68933100
_cell_length_c   14.93285800
_cell_angle_alpha   90.00000000
_cell_angle_beta   90.00000000
_cell_angle_gamma   90.00000000
_symmetry_Int_Tables_number   1
_chemical_formula_structural   Ca20Ni8SnHg3
_chemical_formula_sum   'Ca20 Ni8 Sn1 Hg3'
_cell_volume   882.91734320
_cell_formula_units_Z   1
loop_
 _symmetry_equiv_pos_site_id
 _symmetry_equiv_pos_as_xyz
  1  'x, y, z'
loop_
 _atom_site_type_symbol
 _atom_site_label
 _atom_site_symmetry_multiplicity
 _atom_site_fract_x
 _atom_site_fract_y
 _atom_site_fract_z
 _atom_site_occupancy
  Ca  Ca0  1  0.672399  0.171528  0.113045  1
  Ca  Ca1  1  0.172036  0.671797  0.618565  1
  Ca  Ca2  1  0.327601  0.828472  0.113045  1
  Ca  Ca3  1  0.827964  0.328203  0.618565  1
  Ca  Ca4  1  0.828472  0.672399  0.113045  1
  Ca  Ca5  1  0.328203  0.172036  0.618565  1
  Ca  Ca6  1  0.171528  0.327601  0.113045  1
  Ca  Ca7  1  0.671797  0.827964  0.618565  1
  Ca  Ca8  1  0.828472  0.327601  0.886955  1
  Ca  Ca9  1  0.328203  0.827964  0.381435  1
  Ca  Ca10  1  0.171528  0.672399  0.886955  1
  Ca  Ca11  1  0.671797  0.172036  0.381435  1
  Ca  Ca12  1  0.672399  0.828472  0.886955  1
  Ca  Ca13  1  0.172036  0.328203  0.381435  1
  Ca  Ca14  1  0.327601  0.171528  0.886955  1
  Ca  Ca15  1  0.827964  0.671797  0.381435  1
  Ca  Ca16  1  0.500000  0.500000  0.754606  1
  Ca  Ca17  1  0.000000  0.000000  0.245957  1
  Ca  Ca18  1  0.000000  0.000000  0.754043  1
  Ca  Ca19  1  0.500000  0.500000  0.245394  1
  Ni  Ni20  1  0.608702  0.109078  0.751408  1
  Ni  Ni21  1  0.109078  0.608702  0.248592  1
  Ni  Ni22  1  0.890922  0.391298  0.248592  1
  Ni  Ni23  1  0.391298  0.890922  0.751408  1
  Ni  Ni24  1  0.890922  0.608702  0.751408  1
  Ni  Ni25  1  0.391298  0.109078  0.248592  1
  Ni  Ni26  1  0.109078  0.391298  0.751408  1
  Ni  Ni27  1  0.608702  0.890922  0.248592  1
  Sn  Sn28  1  0.000000  0.000000  0.000000  1
  Hg  Hg29  1  0.500000  0.500000  0.500000  1
  Hg  Hg30  1  0.500000  0.500000  0.000000  1
  Hg  Hg31  1  0.000000  0.000000  0.500000  1
