# generated using pymatgen
data_Sc12Tc2AsP
_symmetry_space_group_name_H-M   'P 1'
_cell_length_a   5.77437503
_cell_length_b   7.10135906
_cell_length_c   8.43968000
_cell_angle_alpha   90.00000000
_cell_angle_beta   90.00000000
_cell_angle_gamma   90.31398125
_symmetry_Int_Tables_number   1
_chemical_formula_structural   Sc12Tc2AsP
_chemical_formula_sum   'Sc12 Tc2 As1 P1'
_cell_volume   346.07156544
_cell_formula_units_Z   1
loop_
 _symmetry_equiv_pos_site_id
 _symmetry_equiv_pos_as_xyz
  1  'x, y, z'
loop_
 _atom_site_type_symbol
 _atom_site_label
 _atom_site_symmetry_multiplicity
 _atom_site_fract_x
 _atom_site_fract_y
 _atom_site_fract_z
 _atom_site_occupancy
  Sc  Sc0  1  0.348219  0.666269  0.054041  1
  Sc  Sc1  1  0.149355  0.191606  0.440491  1
  Sc  Sc2  1  0.650552  0.313875  0.563632  1
  Sc  Sc3  1  0.843607  0.829528  0.940936  1
  Sc  Sc4  1  0.650552  0.313875  0.936368  1
  Sc  Sc5  1  0.843607  0.829528  0.559064  1
  Sc  Sc6  1  0.348219  0.666269  0.445959  1
  Sc  Sc7  1  0.149355  0.191606  0.059509  1
  Sc  Sc8  1  0.873872  0.524690  0.250000  1
  Sc  Sc9  1  0.607836  0.037069  0.250000  1
  Sc  Sc10  1  0.118870  0.465247  0.750000  1
  Sc  Sc11  1  0.376479  0.968246  0.750000  1
  Tc  Tc12  1  0.452277  0.379575  0.250000  1
  Tc  Tc13  1  0.955997  0.121247  0.750000  1
  As  As14  1  0.066494  0.879219  0.250000  1
  P  P15  1  0.564714  0.622153  0.750000  1
