# generated using pymatgen
data_SmDy2Ho(Si3Rh)2
_symmetry_space_group_name_H-M   'P 1'
_cell_length_a   8.17925301
_cell_length_b   8.17925342
_cell_length_c   7.96298900
_cell_angle_alpha   90.00000000
_cell_angle_beta   90.00000000
_cell_angle_gamma   120.00681217
_symmetry_Int_Tables_number   1
_chemical_formula_structural   SmDy2Ho(Si3Rh)2
_chemical_formula_sum   'Sm2 Dy4 Ho2 Si12 Rh4'
_cell_volume   461.32207717
_cell_formula_units_Z   2
loop_
 _symmetry_equiv_pos_site_id
 _symmetry_equiv_pos_as_xyz
  1  'x, y, z'
loop_
 _atom_site_type_symbol
 _atom_site_label
 _atom_site_symmetry_multiplicity
 _atom_site_fract_x
 _atom_site_fract_y
 _atom_site_fract_z
 _atom_site_occupancy
  Sm  Sm0  1  0.999977  0.000023  0.250000  1
  Sm  Sm1  1  0.000021  0.999979  0.750000  1
  Dy  Dy2  1  0.508805  0.491195  0.250000  1
  Dy  Dy3  1  0.508810  0.017600  0.250000  1
  Dy  Dy4  1  0.982400  0.491190  0.250000  1
  Dy  Dy5  1  0.491147  0.508853  0.750000  1
  Ho  Ho6  1  0.491184  0.982439  0.750000  1
  Ho  Ho7  1  0.017561  0.508816  0.750000  1
  Si  Si8  1  0.167727  0.832273  0.500391  1
  Si  Si9  1  0.167590  0.335378  0.500256  1
  Si  Si10  1  0.664622  0.832410  0.500256  1
  Si  Si11  1  0.832296  0.167704  0.500041  1
  Si  Si12  1  0.832370  0.664614  0.500000  1
  Si  Si13  1  0.335386  0.167630  0.500000  1
  Si  Si14  1  0.832296  0.167704  0.999959  1
  Si  Si15  1  0.832370  0.664614  0.000000  1
  Si  Si16  1  0.335386  0.167630  0.000000  1
  Si  Si17  1  0.167727  0.832273  0.999609  1
  Si  Si18  1  0.167590  0.335378  0.999744  1
  Si  Si19  1  0.664622  0.832410  0.999744  1
  Rh  Rh20  1  0.333266  0.666734  0.466458  1
  Rh  Rh21  1  0.666791  0.333209  0.534355  1
  Rh  Rh22  1  0.666791  0.333209  0.965645  1
  Rh  Rh23  1  0.333266  0.666734  0.033542  1
