# generated using pymatgen
data_Bi8PdAu7
_symmetry_space_group_name_H-M   'P 1'
_cell_length_a   5.97397767
_cell_length_b   5.97397753
_cell_length_c   11.06655104
_cell_angle_alpha   90.14898996
_cell_angle_beta   90.14898893
_cell_angle_gamma   91.98005077
_symmetry_Int_Tables_number   1
_chemical_formula_structural   Bi8PdAu7
_chemical_formula_sum   'Bi8 Pd1 Au7'
_cell_volume   394.70901186
_cell_formula_units_Z   1
loop_
 _symmetry_equiv_pos_site_id
 _symmetry_equiv_pos_as_xyz
  1  'x, y, z'
loop_
 _atom_site_type_symbol
 _atom_site_label
 _atom_site_symmetry_multiplicity
 _atom_site_fract_x
 _atom_site_fract_y
 _atom_site_fract_z
 _atom_site_occupancy
  Bi  Bi0  1  0.375672  0.868835  0.278273  1
  Bi  Bi1  1  0.119269  0.119269  0.003152  1
  Bi  Bi2  1  0.868835  0.375672  0.278273  1
  Bi  Bi3  1  0.130132  0.623380  0.781112  1
  Bi  Bi4  1  0.373407  0.373407  0.500771  1
  Bi  Bi5  1  0.633777  0.633777  0.004646  1
  Bi  Bi6  1  0.623380  0.130132  0.781112  1
  Bi  Bi7  1  0.876509  0.876509  0.481020  1
  Pd  Pd8  1  0.874917  0.874917  0.224457  1
  Au  Au9  1  0.119547  0.119547  0.729656  1
  Au  Au10  1  0.366277  0.366277  0.232785  1
  Au  Au11  1  0.130651  0.623211  0.049557  1
  Au  Au12  1  0.632887  0.632887  0.731963  1
  Au  Au13  1  0.377488  0.874042  0.548831  1
  Au  Au14  1  0.874042  0.377488  0.548831  1
  Au  Au15  1  0.623211  0.130651  0.049557  1
