# generated using pymatgen
data_Tb19YSn16
_symmetry_space_group_name_H-M   'P 1'
_cell_length_a   8.07139604
_cell_length_b   8.22305004
_cell_length_c   15.54246800
_cell_angle_alpha   90.00000000
_cell_angle_beta   90.00000000
_cell_angle_gamma   89.98909229
_symmetry_Int_Tables_number   1
_chemical_formula_structural   Tb19YSn16
_chemical_formula_sum   'Tb19 Y1 Sn16'
_cell_volume   1031.57679482
_cell_formula_units_Z   1
loop_
 _symmetry_equiv_pos_site_id
 _symmetry_equiv_pos_as_xyz
  1  'x, y, z'
loop_
 _atom_site_type_symbol
 _atom_site_label
 _atom_site_symmetry_multiplicity
 _atom_site_fract_x
 _atom_site_fract_y
 _atom_site_fract_z
 _atom_site_occupancy
  Tb  Tb0  1  0.367685  0.835730  0.878555  1
  Tb  Tb1  1  0.867634  0.664347  0.621416  1
  Tb  Tb2  1  0.632347  0.164317  0.378485  1
  Tb  Tb3  1  0.132311  0.335620  0.121488  1
  Tb  Tb4  1  0.632347  0.164317  0.121515  1
  Tb  Tb5  1  0.132311  0.335620  0.378512  1
  Tb  Tb6  1  0.367685  0.835730  0.621445  1
  Tb  Tb7  1  0.867634  0.664347  0.878584  1
  Tb  Tb8  1  0.520212  0.319688  0.902135  1
  Tb  Tb9  1  0.020177  0.180301  0.597855  1
  Tb  Tb10  1  0.479853  0.680330  0.402110  1
  Tb  Tb11  1  0.979796  0.819695  0.097921  1
  Tb  Tb12  1  0.479853  0.680330  0.097890  1
  Tb  Tb13  1  0.979796  0.819695  0.402079  1
  Tb  Tb14  1  0.520212  0.319688  0.597865  1
  Tb  Tb15  1  0.020177  0.180301  0.902145  1
  Tb  Tb16  1  0.698317  0.997875  0.750000  1
  Tb  Tb17  1  0.801624  0.497868  0.250000  1
  Tb  Tb18  1  0.301602  0.002174  0.250000  1
  Y  Y19  1  0.198524  0.502095  0.750000  1
  Sn  Sn20  1  0.291943  0.034080  0.042108  1
  Sn  Sn21  1  0.791959  0.465866  0.457886  1
  Sn  Sn22  1  0.708054  0.965957  0.542103  1
  Sn  Sn23  1  0.208048  0.534069  0.957825  1
  Sn  Sn24  1  0.708054  0.965957  0.957897  1
  Sn  Sn25  1  0.208048  0.534069  0.542175  1
  Sn  Sn26  1  0.291943  0.034080  0.457892  1
  Sn  Sn27  1  0.791959  0.465866  0.042114  1
  Sn  Sn28  1  0.565362  0.618643  0.750000  1
  Sn  Sn29  1  0.065558  0.881238  0.750000  1
  Sn  Sn30  1  0.434408  0.381289  0.250000  1
  Sn  Sn31  1  0.934488  0.118756  0.250000  1
  Sn  Sn32  1  0.327890  0.145661  0.750000  1
  Sn  Sn33  1  0.827767  0.354535  0.750000  1
  Sn  Sn34  1  0.672164  0.854378  0.250000  1
  Sn  Sn35  1  0.172261  0.645490  0.250000  1
