# generated using pymatgen
data_Tm5(Cd2Ni)2
_symmetry_space_group_name_H-M   'P 1'
_cell_length_a   3.52245300
_cell_length_b   7.80982700
_cell_length_c   18.03104500
_cell_angle_alpha   90.00000000
_cell_angle_beta   90.00000000
_cell_angle_gamma   90.00000000
_symmetry_Int_Tables_number   1
_chemical_formula_structural   Tm5(Cd2Ni)2
_chemical_formula_sum   'Tm10 Cd8 Ni4'
_cell_volume   496.02951396
_cell_formula_units_Z   2
loop_
 _symmetry_equiv_pos_site_id
 _symmetry_equiv_pos_as_xyz
  1  'x, y, z'
loop_
 _atom_site_type_symbol
 _atom_site_label
 _atom_site_symmetry_multiplicity
 _atom_site_fract_x
 _atom_site_fract_y
 _atom_site_fract_z
 _atom_site_occupancy
  Tm  Tm0  1  0.000000  0.500000  0.500000  1
  Tm  Tm1  1  0.000000  0.000000  0.000000  1
  Tm  Tm2  1  0.000000  0.748117  0.278974  1
  Tm  Tm3  1  0.000000  0.251883  0.721026  1
  Tm  Tm4  1  0.000000  0.751883  0.778974  1
  Tm  Tm5  1  0.000000  0.248117  0.221026  1
  Tm  Tm6  1  0.000000  0.615261  0.088414  1
  Tm  Tm7  1  0.000000  0.384739  0.911586  1
  Tm  Tm8  1  0.000000  0.884739  0.588414  1
  Tm  Tm9  1  0.000000  0.115261  0.411586  1
  Cd  Cd10  1  0.500000  0.710221  0.931101  1
  Cd  Cd11  1  0.500000  0.289779  0.068899  1
  Cd  Cd12  1  0.500000  0.789779  0.431101  1
  Cd  Cd13  1  0.500000  0.210221  0.568899  1
  Cd  Cd14  1  0.500000  0.570246  0.651304  1
  Cd  Cd15  1  0.500000  0.429754  0.348696  1
  Cd  Cd16  1  0.500000  0.929754  0.151304  1
  Cd  Cd17  1  0.500000  0.070246  0.848696  1
  Ni  Ni18  1  0.500000  0.528378  0.195927  1
  Ni  Ni19  1  0.500000  0.471622  0.804073  1
  Ni  Ni20  1  0.500000  0.971622  0.695927  1
  Ni  Ni21  1  0.500000  0.028378  0.304073  1
