# generated using pymatgen
data_SmAs4Ru5Rh
_symmetry_space_group_name_H-M   'P 1'
_cell_length_a   7.19902317
_cell_length_b   7.19902246
_cell_length_c   3.90023300
_cell_angle_alpha   90.00000000
_cell_angle_beta   90.00000000
_cell_angle_gamma   120.37314678
_symmetry_Int_Tables_number   1
_chemical_formula_structural   SmAs4Ru5Rh
_chemical_formula_sum   'Sm1 As4 Ru5 Rh1'
_cell_volume   174.39056845
_cell_formula_units_Z   1
loop_
 _symmetry_equiv_pos_site_id
 _symmetry_equiv_pos_as_xyz
  1  'x, y, z'
loop_
 _atom_site_type_symbol
 _atom_site_label
 _atom_site_symmetry_multiplicity
 _atom_site_fract_x
 _atom_site_fract_y
 _atom_site_fract_z
 _atom_site_occupancy
  Sm  Sm0  1  0.999574  0.000426  0.000000  1
  As  As1  1  0.804604  0.614819  0.500000  1
  As  As2  1  0.336232  0.663768  0.000000  1
  As  As3  1  0.385181  0.195396  0.500000  1
  As  As4  1  0.808571  0.191429  0.500000  1
  Ru  Ru5  1  0.533335  0.068446  0.000000  1
  Ru  Ru6  1  0.598763  0.799179  0.500000  1
  Ru  Ru7  1  0.200821  0.401237  0.500000  1
  Ru  Ru8  1  0.535309  0.464691  0.000000  1
  Ru  Ru9  1  0.931554  0.466665  0.000000  1
  Rh  Rh10  1  0.199391  0.800609  0.500000  1
