# generated using pymatgen
data_Th2Mn17
_symmetry_space_group_name_H-M   'P 1'
_cell_length_a   6.38354530
_cell_length_b   6.38354538
_cell_length_c   6.38354636
_cell_angle_alpha   85.86363119
_cell_angle_beta   85.86363066
_cell_angle_gamma   85.86362071
_symmetry_Int_Tables_number   1
_chemical_formula_structural   Th2Mn17
_chemical_formula_sum   'Th2 Mn17'
_cell_volume   258.18758056
_cell_formula_units_Z   1
loop_
 _symmetry_equiv_pos_site_id
 _symmetry_equiv_pos_as_xyz
  1  'x, y, z'
loop_
 _atom_site_type_symbol
 _atom_site_label
 _atom_site_symmetry_multiplicity
 _atom_site_fract_x
 _atom_site_fract_y
 _atom_site_fract_z
 _atom_site_occupancy
  Th  Th0  1  0.647548  0.647548  0.647548  1
  Th  Th1  1  0.352452  0.352452  0.352452  1
  Mn  Mn2  1  0.352924  0.352924  0.871817  1
  Mn  Mn3  1  0.871817  0.352924  0.352924  1
  Mn  Mn4  1  0.098441  0.098441  0.098441  1
  Mn  Mn5  1  0.901559  0.901559  0.901559  1
  Mn  Mn6  1  0.000000  0.000000  0.500000  1
  Mn  Mn7  1  0.000000  0.500000  0.000000  1
  Mn  Mn8  1  0.500000  0.000000  0.000000  1
  Mn  Mn9  1  0.729567  0.270433  0.000000  1
  Mn  Mn10  1  0.270433  0.000000  0.729567  1
  Mn  Mn11  1  0.000000  0.729567  0.270433  1
  Mn  Mn12  1  0.270433  0.729567  0.000000  1
  Mn  Mn13  1  0.729567  0.000000  0.270433  1
  Mn  Mn14  1  0.000000  0.270433  0.729567  1
  Mn  Mn15  1  0.128183  0.647076  0.647076  1
  Mn  Mn16  1  0.647076  0.647076  0.128183  1
  Mn  Mn17  1  0.647076  0.128183  0.647076  1
  Mn  Mn18  1  0.352924  0.871817  0.352924  1
