# generated using pymatgen
data_CeEr2Co2Si7
_symmetry_space_group_name_H-M   'P 1'
_cell_length_a   12.45667004
_cell_length_b   12.45666968
_cell_length_c   4.00800600
_cell_angle_alpha   90.00000000
_cell_angle_beta   90.00000000
_cell_angle_gamma   161.15054710
_symmetry_Int_Tables_number   1
_chemical_formula_structural   CeEr2Co2Si7
_chemical_formula_sum   'Ce1 Er2 Co2 Si7'
_cell_volume   200.93051587
_cell_formula_units_Z   1
loop_
 _symmetry_equiv_pos_site_id
 _symmetry_equiv_pos_as_xyz
  1  'x, y, z'
loop_
 _atom_site_type_symbol
 _atom_site_label
 _atom_site_symmetry_multiplicity
 _atom_site_fract_x
 _atom_site_fract_y
 _atom_site_fract_z
 _atom_site_occupancy
  Ce  Ce0  1  0.218667  0.781333  0.000000  1
  Er  Er1  1  0.903181  0.096819  0.500000  1
  Er  Er2  1  0.533770  0.466230  0.500000  1
  Co  Co3  1  0.350321  0.649679  0.000000  1
  Co  Co4  1  0.087329  0.912671  0.000000  1
  Si  Si5  1  0.628054  0.371946  0.000000  1
  Si  Si6  1  0.442077  0.557923  0.000000  1
  Si  Si7  1  0.129425  0.870575  0.500000  1
  Si  Si8  1  0.994799  0.005201  0.000000  1
  Si  Si9  1  0.808244  0.191756  0.000000  1
  Si  Si10  1  0.699563  0.300437  0.500000  1
  Si  Si11  1  0.307870  0.692130  0.500000  1
