# generated using pymatgen
data_Tb4Cd2CoCu3
_symmetry_space_group_name_H-M   'P 1'
_cell_length_a   7.55735999
_cell_length_b   7.55736051
_cell_length_c   3.69060600
_cell_angle_alpha   90.00000000
_cell_angle_beta   90.00000000
_cell_angle_gamma   90.43980308
_symmetry_Int_Tables_number   1
_chemical_formula_structural   Tb4Cd2CoCu3
_chemical_formula_sum   'Tb4 Cd2 Co1 Cu3'
_cell_volume   210.77793174
_cell_formula_units_Z   1
loop_
 _symmetry_equiv_pos_site_id
 _symmetry_equiv_pos_as_xyz
  1  'x, y, z'
loop_
 _atom_site_type_symbol
 _atom_site_label
 _atom_site_symmetry_multiplicity
 _atom_site_fract_x
 _atom_site_fract_y
 _atom_site_fract_z
 _atom_site_occupancy
  Tb  Tb0  1  0.671380  0.171380  0.500000  1
  Tb  Tb1  1  0.309242  0.809242  0.500000  1
  Tb  Tb2  1  0.181835  0.344391  0.500000  1
  Tb  Tb3  1  0.844391  0.681835  0.500000  1
  Cd  Cd4  1  0.000950  0.006575  0.000000  1
  Cd  Cd5  1  0.506575  0.500950  0.000000  1
  Co  Co6  1  0.114085  0.614085  0.000000  1
  Cu  Cu7  1  0.881739  0.381739  0.000000  1
  Cu  Cu8  1  0.613555  0.876245  0.000000  1
  Cu  Cu9  1  0.376245  0.113555  0.000000  1
