# generated using pymatgen
data_Dy3ThAl18PtRh5
_symmetry_space_group_name_H-M   'P 1'
_cell_length_a   7.59774712
_cell_length_b   7.60956328
_cell_length_c   9.48902730
_cell_angle_alpha   90.06205976
_cell_angle_beta   90.01325269
_cell_angle_gamma   119.47521562
_symmetry_Int_Tables_number   1
_chemical_formula_structural   Dy3ThAl18PtRh5
_chemical_formula_sum   'Dy3 Th1 Al18 Pt1 Rh5'
_cell_volume   477.60498560
_cell_formula_units_Z   1
loop_
 _symmetry_equiv_pos_site_id
 _symmetry_equiv_pos_as_xyz
  1  'x, y, z'
loop_
 _atom_site_type_symbol
 _atom_site_label
 _atom_site_symmetry_multiplicity
 _atom_site_fract_x
 _atom_site_fract_y
 _atom_site_fract_z
 _atom_site_occupancy
  Dy  Dy0  1  0.004062  0.327930  0.250243  1
  Dy  Dy1  1  0.672375  0.994839  0.749821  1
  Dy  Dy2  1  0.329420  0.006132  0.249912  1
  Th  Th3  1  0.994877  0.670748  0.750365  1
  Al  Al4  1  0.131296  0.132238  0.750247  1
  Al  Al5  1  0.872648  0.874191  0.249575  1
  Al  Al6  1  0.004376  0.331291  0.573539  1
  Al  Al7  1  0.003263  0.668210  0.417304  1
  Al  Al8  1  0.000092  0.664092  0.081693  1
  Al  Al9  1  0.340187  0.004405  0.928419  1
  Al  Al10  1  0.000991  0.330804  0.928161  1
  Al  Al11  1  0.664708  0.000586  0.076515  1
  Al  Al12  1  0.664652  0.997061  0.422104  1
  Al  Al13  1  0.336007  0.001375  0.572906  1
  Al  Al14  1  0.331426  0.331839  0.054170  1
  Al  Al15  1  0.663493  0.666980  0.955924  1
  Al  Al16  1  0.662844  0.669341  0.546145  1
  Al  Al17  1  0.329426  0.332786  0.443972  1
  Al  Al18  1  0.344583  0.549123  0.750184  1
  Al  Al19  1  0.657709  0.450932  0.246732  1
  Al  Al20  1  0.543175  0.337795  0.753282  1
  Al  Al21  1  0.448148  0.660200  0.249530  1
  Pt  Pt22  1  0.673278  0.328615  0.499990  1
  Rh  Rh23  1  0.326761  0.671472  0.500202  1
  Rh  Rh24  1  0.326747  0.671507  0.999586  1
  Rh  Rh25  1  0.673205  0.328711  0.999717  1
  Rh  Rh26  1  0.999979  0.998558  0.500403  1
  Rh  Rh27  1  0.000275  0.998237  0.999359  1
