# generated using pymatgen
data_Dy2HoFe9
_symmetry_space_group_name_H-M   'P 1'
_cell_length_a   8.62302410
_cell_length_b   8.62302442
_cell_length_c   8.62302511
_cell_angle_alpha   34.30881853
_cell_angle_beta   34.30881200
_cell_angle_gamma   34.30881838
_symmetry_Int_Tables_number   1
_chemical_formula_structural   Dy2HoFe9
_chemical_formula_sum   'Dy2 Ho1 Fe9'
_cell_volume   181.67195224
_cell_formula_units_Z   1
loop_
 _symmetry_equiv_pos_site_id
 _symmetry_equiv_pos_as_xyz
  1  'x, y, z'
loop_
 _atom_site_type_symbol
 _atom_site_label
 _atom_site_symmetry_multiplicity
 _atom_site_fract_x
 _atom_site_fract_y
 _atom_site_fract_z
 _atom_site_occupancy
  Dy  Dy0  1  0.999937  0.999937  0.999937  1
  Dy  Dy1  1  0.141947  0.141947  0.141947  1
  Ho  Ho2  1  0.858123  0.858123  0.858123  1
  Fe  Fe3  1  0.500031  0.500031  0.500031  1
  Fe  Fe4  1  0.332636  0.332636  0.332636  1
  Fe  Fe5  1  0.667396  0.667396  0.667396  1
  Fe  Fe6  1  0.082620  0.581135  0.581135  1
  Fe  Fe7  1  0.581135  0.581135  0.082620  1
  Fe  Fe8  1  0.581135  0.082620  0.581135  1
  Fe  Fe9  1  0.418847  0.917343  0.418847  1
  Fe  Fe10  1  0.917343  0.418847  0.418847  1
  Fe  Fe11  1  0.418847  0.418847  0.917343  1
