# generated using pymatgen
data_TbY7Os2(WC4)2
_symmetry_space_group_name_H-M   'P 1'
_cell_length_a   5.12660100
_cell_length_b   6.61331130
_cell_length_c   9.94090520
_cell_angle_alpha   89.26505408
_cell_angle_beta   90.00000000
_cell_angle_gamma   90.00000000
_symmetry_Int_Tables_number   1
_chemical_formula_structural   TbY7Os2(WC4)2
_chemical_formula_sum   'Tb1 Y7 Os2 W2 C8'
_cell_volume   337.00681718
_cell_formula_units_Z   1
loop_
 _symmetry_equiv_pos_site_id
 _symmetry_equiv_pos_as_xyz
  1  'x, y, z'
loop_
 _atom_site_type_symbol
 _atom_site_label
 _atom_site_symmetry_multiplicity
 _atom_site_fract_x
 _atom_site_fract_y
 _atom_site_fract_z
 _atom_site_occupancy
  Tb  Tb0  1  0.250000  0.679654  0.556438  1
  Y  Y1  1  0.750000  0.320662  0.443082  1
  Y  Y2  1  0.750000  0.822352  0.057307  1
  Y  Y3  1  0.250000  0.177695  0.942749  1
  Y  Y4  1  0.250000  0.538104  0.217939  1
  Y  Y5  1  0.750000  0.461679  0.782132  1
  Y  Y6  1  0.750000  0.969021  0.717433  1
  Y  Y7  1  0.250000  0.031111  0.282659  1
  Os  Os8  1  0.750000  0.777931  0.365129  1
  Os  Os9  1  0.250000  0.221825  0.634761  1
  W  W10  1  0.250000  0.718115  0.866395  1
  W  W11  1  0.750000  0.281805  0.133773  1
  C  C12  1  0.250000  0.451645  0.758164  1
  C  C13  1  0.750000  0.548516  0.241787  1
  C  C14  1  0.750000  0.044558  0.260049  1
  C  C15  1  0.250000  0.955426  0.740150  1
  C  C16  1  0.250000  0.823052  0.051271  1
  C  C17  1  0.750000  0.176968  0.948769  1
  C  C18  1  0.750000  0.678660  0.546716  1
  C  C19  1  0.250000  0.321221  0.453297  1
