# generated using pymatgen
data_Y4Cd2Si3Ge
_symmetry_space_group_name_H-M   'P 1'
_cell_length_a   7.19812815
_cell_length_b   7.19812815
_cell_length_c   4.22549500
_cell_angle_alpha   90.00000000
_cell_angle_beta   90.00000000
_cell_angle_gamma   90.12309063
_symmetry_Int_Tables_number   1
_chemical_formula_structural   Y4Cd2Si3Ge
_chemical_formula_sum   'Y4 Cd2 Si3 Ge1'
_cell_volume   218.93527384
_cell_formula_units_Z   1
loop_
 _symmetry_equiv_pos_site_id
 _symmetry_equiv_pos_as_xyz
  1  'x, y, z'
loop_
 _atom_site_type_symbol
 _atom_site_label
 _atom_site_symmetry_multiplicity
 _atom_site_fract_x
 _atom_site_fract_y
 _atom_site_fract_z
 _atom_site_occupancy
  Y  Y0  1  0.679952  0.177727  0.500000  1
  Y  Y1  1  0.322273  0.820048  0.500000  1
  Y  Y2  1  0.176015  0.323985  0.500000  1
  Y  Y3  1  0.822501  0.677499  0.500000  1
  Cd  Cd4  1  0.500926  0.502452  0.000000  1
  Cd  Cd5  1  0.997548  0.999074  0.000000  1
  Si  Si6  1  0.117154  0.617223  0.000000  1
  Si  Si7  1  0.882777  0.382846  0.000000  1
  Si  Si8  1  0.620133  0.879867  0.000000  1
  Ge  Ge9  1  0.380722  0.119278  0.000000  1
