# generated using pymatgen
data_Zr8Nb12Ga11Ge5
_symmetry_space_group_name_H-M   'P 1'
_cell_length_a   6.90724406
_cell_length_b   7.02336675
_cell_length_c   13.39193501
_cell_angle_alpha   89.99561766
_cell_angle_beta   89.99037829
_cell_angle_gamma   90.05618583
_symmetry_Int_Tables_number   1
_chemical_formula_structural   Zr8Nb12Ga11Ge5
_chemical_formula_sum   'Zr8 Nb12 Ga11 Ge5'
_cell_volume   649.67067769
_cell_formula_units_Z   1
loop_
 _symmetry_equiv_pos_site_id
 _symmetry_equiv_pos_as_xyz
  1  'x, y, z'
loop_
 _atom_site_type_symbol
 _atom_site_label
 _atom_site_symmetry_multiplicity
 _atom_site_fract_x
 _atom_site_fract_y
 _atom_site_fract_z
 _atom_site_occupancy
  Zr  Zr0  1  0.492248  0.674652  0.592874  1
  Zr  Zr1  1  0.991953  0.825680  0.907188  1
  Zr  Zr2  1  0.508643  0.326103  0.093942  1
  Zr  Zr3  1  0.007320  0.174969  0.406249  1
  Zr  Zr4  1  0.504193  0.325565  0.405701  1
  Zr  Zr5  1  0.002602  0.175389  0.094278  1
  Zr  Zr6  1  0.497094  0.674725  0.906722  1
  Zr  Zr7  1  0.996973  0.825446  0.593287  1
  Nb  Nb8  1  0.654355  0.175267  0.627355  1
  Nb  Nb9  1  0.154121  0.324303  0.872423  1
  Nb  Nb10  1  0.345861  0.825285  0.126997  1
  Nb  Nb11  1  0.844710  0.673277  0.372570  1
  Nb  Nb12  1  0.342148  0.825715  0.373923  1
  Nb  Nb13  1  0.840983  0.673063  0.126446  1
  Nb  Nb14  1  0.657646  0.175007  0.873519  1
  Nb  Nb15  1  0.157508  0.324590  0.626572  1
  Nb  Nb16  1  0.835038  0.485820  0.751091  1
  Nb  Nb17  1  0.335009  0.014570  0.748912  1
  Nb  Nb18  1  0.164120  0.512035  0.251030  1
  Nb  Nb19  1  0.666463  0.987668  0.248900  1
  Ga  Ga20  1  0.681682  0.964436  0.461013  1
  Ga  Ga21  1  0.181258  0.534985  0.039068  1
  Ga  Ga22  1  0.318969  0.035039  0.960708  1
  Ga  Ga23  1  0.819569  0.465528  0.539816  1
  Ga  Ga24  1  0.456711  0.394134  0.750425  1
  Ga  Ga25  1  0.956303  0.105920  0.749563  1
  Ga  Ga26  1  0.540274  0.608596  0.250490  1
  Ga  Ga27  1  0.043855  0.891568  0.249463  1
  Ga  Ga28  1  0.696879  0.852548  0.749179  1
  Ga  Ga29  1  0.197190  0.647578  0.750844  1
  Ga  Ga30  1  0.303310  0.145925  0.249317  1
  Ge  Ge31  1  0.324132  0.035874  0.538389  1
  Ge  Ge32  1  0.824564  0.464689  0.960990  1
  Ge  Ge33  1  0.676476  0.963825  0.038114  1
  Ge  Ge34  1  0.176437  0.535833  0.461896  1
  Ge  Ge35  1  0.803399  0.354395  0.250750  1
