# generated using pymatgen
data_Er3Nb2Sn(B2Ru5)2
_symmetry_space_group_name_H-M   'P 1'
_cell_length_a   9.60586356
_cell_length_b   9.64878752
_cell_length_c   3.11332300
_cell_angle_alpha   90.00000000
_cell_angle_beta   90.00000000
_cell_angle_gamma   90.51794975
_symmetry_Int_Tables_number   1
_chemical_formula_structural   Er3Nb2Sn(B2Ru5)2
_chemical_formula_sum   'Er3 Nb2 Sn1 B4 Ru10'
_cell_volume   288.54635386
_cell_formula_units_Z   1
loop_
 _symmetry_equiv_pos_site_id
 _symmetry_equiv_pos_as_xyz
  1  'x, y, z'
loop_
 _atom_site_type_symbol
 _atom_site_label
 _atom_site_symmetry_multiplicity
 _atom_site_fract_x
 _atom_site_fract_y
 _atom_site_fract_z
 _atom_site_occupancy
  Er  Er0  1  0.824197  0.674317  0.000000  1
  Er  Er1  1  0.175114  0.325202  0.000000  1
  Er  Er2  1  0.324801  0.825764  0.000000  1
  Nb  Nb3  1  0.678078  0.171713  0.000000  1
  Nb  Nb4  1  0.003977  0.998189  0.000000  1
  Sn  Sn5  1  0.498368  0.505046  0.000000  1
  B  B6  1  0.623847  0.882663  0.000000  1
  B  B7  1  0.380900  0.123768  0.000000  1
  B  B8  1  0.117378  0.619343  0.000000  1
  B  B9  1  0.876817  0.376467  0.000000  1
  Ru  Ru10  1  0.573056  0.727259  0.500000  1
  Ru  Ru11  1  0.442098  0.276823  0.500000  1
  Ru  Ru12  1  0.067612  0.779897  0.500000  1
  Ru  Ru13  1  0.916978  0.213469  0.500000  1
  Ru  Ru14  1  0.275139  0.572837  0.500000  1
  Ru  Ru15  1  0.714483  0.410498  0.500000  1
  Ru  Ru16  1  0.222326  0.071339  0.500000  1
  Ru  Ru17  1  0.780824  0.940829  0.500000  1
  Ru  Ru18  1  0.508934  0.008589  0.500000  1
  Ru  Ru19  1  0.995074  0.495991  0.500000  1
