# generated using pymatgen
data_CsPd2O3
_symmetry_space_group_name_H-M   'P 1'
_cell_length_a   7.70677458
_cell_length_b   7.70677441
_cell_length_c   7.70677331
_cell_angle_alpha   48.36135923
_cell_angle_beta   48.36136059
_cell_angle_gamma   48.36135824
_symmetry_Int_Tables_number   1
_chemical_formula_structural   CsPd2O3
_chemical_formula_sum   'Cs2 Pd4 O6'
_cell_volume   234.40792121
_cell_formula_units_Z   2
loop_
 _symmetry_equiv_pos_site_id
 _symmetry_equiv_pos_as_xyz
  1  'x, y, z'
loop_
 _atom_site_type_symbol
 _atom_site_label
 _atom_site_symmetry_multiplicity
 _atom_site_fract_x
 _atom_site_fract_y
 _atom_site_fract_z
 _atom_site_occupancy
  Cs  Cs0  1  0.829728  0.829728  0.829728  1
  Cs  Cs1  1  0.170272  0.170272  0.170272  1
  Pd  Pd2  1  0.000000  0.500000  0.500000  1
  Pd  Pd3  1  0.500000  0.000000  0.500000  1
  Pd  Pd4  1  0.500000  0.500000  0.000000  1
  Pd  Pd5  1  0.000000  0.000000  0.000000  1
  O  O6  1  0.879374  0.384410  0.879374  1
  O  O7  1  0.879374  0.879374  0.384410  1
  O  O8  1  0.384410  0.879374  0.879374  1
  O  O9  1  0.120626  0.615590  0.120626  1
  O  O10  1  0.120626  0.120626  0.615590  1
  O  O11  1  0.615590  0.120626  0.120626  1
