# generated using pymatgen
data_NdYCo9As7Ru3
_symmetry_space_group_name_H-M   'P 1'
_cell_length_a   3.85035700
_cell_length_b   9.43316156
_cell_length_c   9.43316100
_cell_angle_alpha   120.00000060
_cell_angle_beta   90.00000000
_cell_angle_gamma   90.00000000
_symmetry_Int_Tables_number   1
_chemical_formula_structural   NdYCo9As7Ru3
_chemical_formula_sum   'Nd1 Y1 Co9 As7 Ru3'
_cell_volume   296.71954001
_cell_formula_units_Z   1
loop_
 _symmetry_equiv_pos_site_id
 _symmetry_equiv_pos_as_xyz
  1  'x, y, z'
loop_
 _atom_site_type_symbol
 _atom_site_label
 _atom_site_symmetry_multiplicity
 _atom_site_fract_x
 _atom_site_fract_y
 _atom_site_fract_z
 _atom_site_occupancy
  Nd  Nd0  1  0.500000  0.333333  0.666667  1
  Y  Y1  1  0.000000  0.666667  0.333333  1
  Co  Co2  1  0.000000  0.571070  0.943292  1
  Co  Co3  1  0.000000  0.372223  0.428930  1
  Co  Co4  1  0.000000  0.056708  0.627777  1
  Co  Co5  1  0.000000  0.874687  0.155991  1
  Co  Co6  1  0.000000  0.281304  0.125313  1
  Co  Co7  1  0.000000  0.844009  0.718696  1
  Co  Co8  1  0.500000  0.944990  0.380959  1
  Co  Co9  1  0.500000  0.435968  0.055010  1
  Co  Co10  1  0.500000  0.619041  0.564032  1
  As  As11  1  0.000000  0.000000  0.000000  1
  As  As12  1  0.500000  0.707302  0.116138  1
  As  As13  1  0.500000  0.408836  0.292698  1
  As  As14  1  0.500000  0.883862  0.591164  1
  As  As15  1  0.000000  0.591541  0.701286  1
  As  As16  1  0.000000  0.109746  0.408459  1
  As  As17  1  0.000000  0.298714  0.890254  1
  Ru  Ru18  1  0.500000  0.782497  0.900621  1
  Ru  Ru19  1  0.500000  0.118124  0.217503  1
  Ru  Ru20  1  0.500000  0.099379  0.881876  1
