# generated using pymatgen
data_LaAl2ZnGa
_symmetry_space_group_name_H-M   'P 1'
_cell_length_a   6.25609215
_cell_length_b   6.25609301
_cell_length_c   6.25609231
_cell_angle_alpha   139.83122921
_cell_angle_beta   139.83124000
_cell_angle_gamma   58.10963348
_symmetry_Int_Tables_number   1
_chemical_formula_structural   LaAl2ZnGa
_chemical_formula_sum   'La1 Al2 Zn1 Ga1'
_cell_volume   100.96436550
_cell_formula_units_Z   1
loop_
 _symmetry_equiv_pos_site_id
 _symmetry_equiv_pos_as_xyz
  1  'x, y, z'
loop_
 _atom_site_type_symbol
 _atom_site_label
 _atom_site_symmetry_multiplicity
 _atom_site_fract_x
 _atom_site_fract_y
 _atom_site_fract_z
 _atom_site_occupancy
  La  La0  1  0.998958  0.998958  0.000000  1
  Al  Al1  1  0.747934  0.247934  0.500000  1
  Al  Al2  1  0.247934  0.747934  0.500000  1
  Zn  Zn3  1  0.615823  0.615823  0.000000  1
  Ga  Ga4  1  0.389350  0.389350  0.000000  1
