# generated using pymatgen
data_Mn24Tc5
_symmetry_space_group_name_H-M   'P 1'
_cell_length_a   7.55151957
_cell_length_b   7.55151983
_cell_length_c   7.55152000
_cell_angle_alpha   109.47121840
_cell_angle_beta   109.47121909
_cell_angle_gamma   109.47122527
_symmetry_Int_Tables_number   1
_chemical_formula_structural   Mn24Tc5
_chemical_formula_sum   'Mn24 Tc5'
_cell_volume   331.49822046
_cell_formula_units_Z   1
loop_
 _symmetry_equiv_pos_site_id
 _symmetry_equiv_pos_as_xyz
  1  'x, y, z'
loop_
 _atom_site_type_symbol
 _atom_site_label
 _atom_site_symmetry_multiplicity
 _atom_site_fract_x
 _atom_site_fract_y
 _atom_site_fract_z
 _atom_site_occupancy
  Mn  Mn0  1  0.389900  0.676776  0.000000  1
  Mn  Mn1  1  0.713125  0.323224  0.323224  1
  Mn  Mn2  1  0.389900  0.000000  0.676776  1
  Mn  Mn3  1  0.676776  0.389900  0.000000  1
  Mn  Mn4  1  0.000000  0.389900  0.676776  1
  Mn  Mn5  1  0.323224  0.713125  0.323224  1
  Mn  Mn6  1  0.323224  0.323224  0.713125  1
  Mn  Mn7  1  0.000000  0.676776  0.389900  1
  Mn  Mn8  1  0.676776  0.000000  0.389900  1
  Mn  Mn9  1  0.610100  0.610100  0.286875  1
  Mn  Mn10  1  0.286875  0.610100  0.610100  1
  Mn  Mn11  1  0.610100  0.286875  0.610100  1
  Mn  Mn12  1  0.373416  0.193802  0.000000  1
  Mn  Mn13  1  0.179613  0.806198  0.806198  1
  Mn  Mn14  1  0.373416  0.000000  0.193802  1
  Mn  Mn15  1  0.193802  0.373416  0.000000  1
  Mn  Mn16  1  0.000000  0.373416  0.193802  1
  Mn  Mn17  1  0.806198  0.179613  0.806198  1
  Mn  Mn18  1  0.806198  0.806198  0.179613  1
  Mn  Mn19  1  0.000000  0.193802  0.373416  1
  Mn  Mn20  1  0.193802  0.000000  0.373416  1
  Mn  Mn21  1  0.626584  0.626584  0.820387  1
  Mn  Mn22  1  0.820387  0.626584  0.626584  1
  Mn  Mn23  1  0.626584  0.820387  0.626584  1
  Tc  Tc24  1  0.000000  0.000000  0.000000  1
  Tc  Tc25  1  0.633060  0.000000  0.000000  1
  Tc  Tc26  1  0.000000  0.633060  0.000000  1
  Tc  Tc27  1  0.000000  0.000000  0.633060  1
  Tc  Tc28  1  0.366940  0.366940  0.366940  1
