# generated using pymatgen
data_Yb2Zn14Rh3
_symmetry_space_group_name_H-M   'P 1'
_cell_length_a   6.83539746
_cell_length_b   6.83539782
_cell_length_c   6.83539800
_cell_angle_alpha   97.24662722
_cell_angle_beta   82.75338085
_cell_angle_gamma   97.24663669
_symmetry_Int_Tables_number   1
_chemical_formula_structural   Yb2Zn14Rh3
_chemical_formula_sum   'Yb2 Zn14 Rh3'
_cell_volume   312.30854734
_cell_formula_units_Z   1
loop_
 _symmetry_equiv_pos_site_id
 _symmetry_equiv_pos_as_xyz
  1  'x, y, z'
loop_
 _atom_site_type_symbol
 _atom_site_label
 _atom_site_symmetry_multiplicity
 _atom_site_fract_x
 _atom_site_fract_y
 _atom_site_fract_z
 _atom_site_occupancy
  Yb  Yb0  1  0.332248  0.667752  0.332249  1
  Yb  Yb1  1  0.667752  0.332248  0.667753  1
  Zn  Zn2  1  0.705901  0.705901  0.000000  1
  Zn  Zn3  1  0.294100  0.294100  0.000000  1
  Zn  Zn4  1  0.104393  0.895606  0.104394  1
  Zn  Zn5  1  0.648342  0.351659  0.153288  1
  Zn  Zn6  1  0.000000  0.294099  0.294099  1
  Zn  Zn7  1  0.705899  0.000000  0.294100  1
  Zn  Zn8  1  0.351658  0.153289  0.351659  1
  Zn  Zn9  1  0.846712  0.648342  0.351659  1
  Zn  Zn10  1  0.153288  0.351659  0.648341  1
  Zn  Zn11  1  0.648342  0.846712  0.648341  1
  Zn  Zn12  1  0.294100  0.000000  0.705900  1
  Zn  Zn13  1  0.000000  0.705900  0.705900  1
  Zn  Zn14  1  0.351658  0.648342  0.846712  1
  Zn  Zn15  1  0.895606  0.104393  0.895607  1
  Rh  Rh16  1  0.499999  0.000000  0.000001  1
  Rh  Rh17  1  0.000000  0.500000  0.000000  1
  Rh  Rh18  1  0.000000  0.000000  0.500000  1
