# generated using pymatgen
data_Sc4Al2B4Ir9Ru
_symmetry_space_group_name_H-M   'P 1'
_cell_length_a   9.45216694
_cell_length_b   9.45216694
_cell_length_c   3.01328100
_cell_angle_alpha   90.00000000
_cell_angle_beta   90.00000000
_cell_angle_gamma   89.54064652
_symmetry_Int_Tables_number   1
_chemical_formula_structural   Sc4Al2B4Ir9Ru
_chemical_formula_sum   'Sc4 Al2 B4 Ir9 Ru1'
_cell_volume   269.20829822
_cell_formula_units_Z   1
loop_
 _symmetry_equiv_pos_site_id
 _symmetry_equiv_pos_as_xyz
  1  'x, y, z'
loop_
 _atom_site_type_symbol
 _atom_site_label
 _atom_site_symmetry_multiplicity
 _atom_site_fract_x
 _atom_site_fract_y
 _atom_site_fract_z
 _atom_site_occupancy
  Sc  Sc0  1  0.677179  0.177179  0.000000  1
  Sc  Sc1  1  0.322821  0.822821  0.000000  1
  Sc  Sc2  1  0.172485  0.327515  0.000000  1
  Sc  Sc3  1  0.827515  0.672485  0.000000  1
  Al  Al4  1  0.000000  0.000000  0.000000  1
  Al  Al5  1  0.500000  0.500000  0.000000  1
  B  B6  1  0.122003  0.622003  0.000000  1
  B  B7  1  0.877997  0.377997  0.000000  1
  B  B8  1  0.626236  0.873764  0.000000  1
  B  B9  1  0.373764  0.126236  0.000000  1
  Ir  Ir10  1  0.215278  0.070418  0.500000  1
  Ir  Ir11  1  0.784722  0.929582  0.500000  1
  Ir  Ir12  1  0.070394  0.785022  0.500000  1
  Ir  Ir13  1  0.714978  0.429606  0.500000  1
  Ir  Ir14  1  0.929606  0.214978  0.500000  1
  Ir  Ir15  1  0.285022  0.570394  0.500000  1
  Ir  Ir16  1  0.570418  0.715278  0.500000  1
  Ir  Ir17  1  0.429582  0.284722  0.500000  1
  Ir  Ir18  1  0.500000  0.000000  0.500000  1
  Ru  Ru19  1  0.000000  0.500000  0.500000  1
