# generated using pymatgen
data_Y2Ho4Al24IrOs7
_symmetry_space_group_name_H-M   'P 1'
_cell_length_a   8.80798409
_cell_length_b   8.80790075
_cell_length_c   9.57908702
_cell_angle_alpha   90.00251036
_cell_angle_beta   89.82068694
_cell_angle_gamma   119.78816628
_symmetry_Int_Tables_number   1
_chemical_formula_structural   Y2Ho4Al24IrOs7
_chemical_formula_sum   'Y2 Ho4 Al24 Ir1 Os7'
_cell_volume   644.94693329
_cell_formula_units_Z   1
loop_
 _symmetry_equiv_pos_site_id
 _symmetry_equiv_pos_as_xyz
  1  'x, y, z'
loop_
 _atom_site_type_symbol
 _atom_site_label
 _atom_site_symmetry_multiplicity
 _atom_site_fract_x
 _atom_site_fract_y
 _atom_site_fract_z
 _atom_site_occupancy
  Y  Y0  1  0.193191  0.386178  0.251360  1
  Y  Y1  1  0.806809  0.613822  0.748640  1
  Ho  Ho2  1  0.611177  0.806514  0.250220  1
  Ho  Ho3  1  0.388823  0.193486  0.749780  1
  Ho  Ho4  1  0.194533  0.809054  0.250877  1
  Ho  Ho5  1  0.805467  0.190946  0.749123  1
  Al  Al6  1  0.333953  0.667418  0.020712  1
  Al  Al7  1  0.666047  0.332582  0.979288  1
  Al  Al8  1  0.667197  0.333093  0.520404  1
  Al  Al9  1  0.332803  0.666907  0.479596  1
  Al  Al10  1  0.164335  0.327415  0.575747  1
  Al  Al11  1  0.835665  0.672585  0.424253  1
  Al  Al12  1  0.671972  0.834909  0.573961  1
  Al  Al13  1  0.834065  0.673084  0.076421  1
  Al  Al14  1  0.328028  0.165091  0.426039  1
  Al  Al15  1  0.165935  0.326916  0.923579  1
  Al  Al16  1  0.164276  0.835976  0.572708  1
  Al  Al17  1  0.327423  0.164914  0.074888  1
  Al  Al18  1  0.835724  0.164024  0.427292  1
  Al  Al19  1  0.672577  0.835086  0.925112  1
  Al  Al20  1  0.834107  0.162287  0.072736  1
  Al  Al21  1  0.165893  0.837713  0.927264  1
  Al  Al22  1  0.560905  0.123956  0.249838  1
  Al  Al23  1  0.439095  0.876044  0.750162  1
  Al  Al24  1  0.877580  0.440663  0.250651  1
  Al  Al25  1  0.122420  0.559337  0.749349  1
  Al  Al26  1  0.561788  0.438787  0.249836  1
  Al  Al27  1  0.438212  0.561213  0.750164  1
  Al  Al28  1  0.997517  0.999375  0.249963  1
  Al  Al29  1  0.002483  0.000625  0.750037  1
  Ir  Ir30  1  0.000000  0.500000  0.000000  1
  Os  Os31  1  0.500000  0.000000  0.000000  1
  Os  Os32  1  0.500000  0.000000  0.500000  1
  Os  Os33  1  0.500000  0.500000  0.000000  1
  Os  Os34  1  0.000000  0.500000  0.500000  1
  Os  Os35  1  0.500000  0.500000  0.500000  1
  Os  Os36  1  0.000000  0.000000  0.000000  1
  Os  Os37  1  0.000000  0.000000  0.500000  1
