# generated using pymatgen
data_Ac2Tb(HoSn2)2
_symmetry_space_group_name_H-M   'P 1'
_cell_length_a   8.22921000
_cell_length_b   8.55389800
_cell_length_c   16.07792500
_cell_angle_alpha   90.00000000
_cell_angle_beta   90.00000000
_cell_angle_gamma   90.00000000
_symmetry_Int_Tables_number   1
_chemical_formula_structural   Ac2Tb(HoSn2)2
_chemical_formula_sum   'Ac8 Tb4 Ho8 Sn16'
_cell_volume   1131.75445017
_cell_formula_units_Z   4
loop_
 _symmetry_equiv_pos_site_id
 _symmetry_equiv_pos_as_xyz
  1  'x, y, z'
loop_
 _atom_site_type_symbol
 _atom_site_label
 _atom_site_symmetry_multiplicity
 _atom_site_fract_x
 _atom_site_fract_y
 _atom_site_fract_z
 _atom_site_occupancy
  Ac  Ac0  1  0.498980  0.674184  0.595982  1
  Ac  Ac1  1  0.998980  0.825816  0.904018  1
  Ac  Ac2  1  0.501020  0.325816  0.095982  1
  Ac  Ac3  1  0.001020  0.174184  0.404018  1
  Ac  Ac4  1  0.501020  0.325816  0.404018  1
  Ac  Ac5  1  0.001020  0.174184  0.095982  1
  Ac  Ac6  1  0.498980  0.674184  0.904018  1
  Ac  Ac7  1  0.998980  0.825816  0.595982  1
  Tb  Tb8  1  0.828773  0.497627  0.750000  1
  Tb  Tb9  1  0.328773  0.002373  0.750000  1
  Tb  Tb10  1  0.171227  0.502373  0.250000  1
  Tb  Tb11  1  0.671227  0.997627  0.250000  1
  Ho  Ho12  1  0.662670  0.167076  0.625081  1
  Ho  Ho13  1  0.162670  0.332924  0.874919  1
  Ho  Ho14  1  0.337330  0.832924  0.125081  1
  Ho  Ho15  1  0.837330  0.667076  0.374919  1
  Ho  Ho16  1  0.337330  0.832924  0.374919  1
  Ho  Ho17  1  0.837330  0.667076  0.125081  1
  Ho  Ho18  1  0.662670  0.167076  0.874919  1
  Ho  Ho19  1  0.162670  0.332924  0.625081  1
  Sn  Sn20  1  0.673754  0.957537  0.457790  1
  Sn  Sn21  1  0.173754  0.542463  0.042210  1
  Sn  Sn22  1  0.326246  0.042463  0.957790  1
  Sn  Sn23  1  0.826246  0.457537  0.542210  1
  Sn  Sn24  1  0.326246  0.042463  0.542210  1
  Sn  Sn25  1  0.826246  0.457537  0.957790  1
  Sn  Sn26  1  0.673754  0.957537  0.042210  1
  Sn  Sn27  1  0.173754  0.542463  0.457790  1
  Sn  Sn28  1  0.466059  0.366320  0.750000  1
  Sn  Sn29  1  0.966059  0.133680  0.750000  1
  Sn  Sn30  1  0.533941  0.633680  0.250000  1
  Sn  Sn31  1  0.033941  0.866320  0.250000  1
  Sn  Sn32  1  0.695093  0.867104  0.750000  1
  Sn  Sn33  1  0.195093  0.632896  0.750000  1
  Sn  Sn34  1  0.304907  0.132896  0.250000  1
  Sn  Sn35  1  0.804907  0.367104  0.250000  1
