# generated using pymatgen
data_Hf7ZrCu4
_symmetry_space_group_name_H-M   'P 1'
_cell_length_a   4.49626300
_cell_length_b   11.22324501
_cell_length_c   4.49569400
_cell_angle_alpha   90.00000000
_cell_angle_beta   90.00000000
_cell_angle_gamma   89.99634249
_symmetry_Int_Tables_number   1
_chemical_formula_structural   Hf7ZrCu4
_chemical_formula_sum   'Hf7 Zr1 Cu4'
_cell_volume   226.86468310
_cell_formula_units_Z   1
loop_
 _symmetry_equiv_pos_site_id
 _symmetry_equiv_pos_as_xyz
  1  'x, y, z'
loop_
 _atom_site_type_symbol
 _atom_site_label
 _atom_site_symmetry_multiplicity
 _atom_site_fract_x
 _atom_site_fract_y
 _atom_site_fract_z
 _atom_site_occupancy
  Hf  Hf0  1  0.417111  0.156185  0.000000  1
  Hf  Hf1  1  0.917010  0.343247  0.000000  1
  Hf  Hf2  1  0.917031  0.655030  0.000000  1
  Hf  Hf3  1  0.417004  0.843232  0.000000  1
  Hf  Hf4  1  0.916289  0.157301  0.499999  1
  Hf  Hf5  1  0.416283  0.343247  0.499999  1
  Hf  Hf6  1  0.416209  0.655027  0.499999  1
  Zr  Zr7  1  0.916237  0.842909  0.499999  1
  Cu  Cu8  1  0.921127  0.001827  0.000000  1
  Cu  Cu9  1  0.420995  0.500034  0.000000  1
  Cu  Cu10  1  0.412374  0.001820  0.499999  1
  Cu  Cu11  1  0.912260  0.500140  0.499999  1
