# generated using pymatgen
data_ZrPtSeBr12
_symmetry_space_group_name_H-M   'P 1'
_cell_length_a   9.52102901
_cell_length_b   9.52102828
_cell_length_c   7.15942049
_cell_angle_alpha   71.84351599
_cell_angle_beta   71.84351671
_cell_angle_gamma   80.61949167
_symmetry_Int_Tables_number   1
_chemical_formula_structural   ZrPtSeBr12
_chemical_formula_sum   'Zr1 Pt1 Se1 Br12'
_cell_volume   584.41918741
_cell_formula_units_Z   1
loop_
 _symmetry_equiv_pos_site_id
 _symmetry_equiv_pos_as_xyz
  1  'x, y, z'
loop_
 _atom_site_type_symbol
 _atom_site_label
 _atom_site_symmetry_multiplicity
 _atom_site_fract_x
 _atom_site_fract_y
 _atom_site_fract_z
 _atom_site_occupancy
  Zr  Zr0  1  0.270963  0.270963  0.735730  1
  Pt  Pt1  1  0.000817  0.000817  0.000939  1
  Se  Se2  1  0.725202  0.725202  0.266921  1
  Br  Br3  1  0.970011  0.250067  0.754113  1
  Br  Br4  1  0.250067  0.970011  0.754113  1
  Br  Br5  1  0.037978  0.755517  0.243944  1
  Br  Br6  1  0.755517  0.037978  0.243944  1
  Br  Br7  1  0.205295  0.520995  0.799155  1
  Br  Br8  1  0.520995  0.205295  0.799155  1
  Br  Br9  1  0.780061  0.485258  0.210581  1
  Br  Br10  1  0.485258  0.780061  0.210581  1
  Br  Br11  1  0.128685  0.128685  0.154466  1
  Br  Br12  1  0.877405  0.877405  0.840652  1
  Br  Br13  1  0.650400  0.650400  0.634848  1
  Br  Br14  1  0.341348  0.341348  0.350859  1
