# generated using pymatgen
data_Dy4Lu4MgSi4B16Mo
_symmetry_space_group_name_H-M   'P 1'
_cell_length_a   7.10512287
_cell_length_b   7.10329290
_cell_length_c   7.65417750
_cell_angle_alpha   90.01450861
_cell_angle_beta   90.13650766
_cell_angle_gamma   89.91750208
_symmetry_Int_Tables_number   1
_chemical_formula_structural   Dy4Lu4MgSi4B16Mo
_chemical_formula_sum   'Dy4 Lu4 Mg1 Si4 B16 Mo1'
_cell_volume   386.30306022
_cell_formula_units_Z   1
loop_
 _symmetry_equiv_pos_site_id
 _symmetry_equiv_pos_as_xyz
  1  'x, y, z'
loop_
 _atom_site_type_symbol
 _atom_site_label
 _atom_site_symmetry_multiplicity
 _atom_site_fract_x
 _atom_site_fract_y
 _atom_site_fract_z
 _atom_site_occupancy
  Dy  Dy0  1  0.817804  0.681184  0.763705  1
  Dy  Dy1  1  0.680962  0.181294  0.763553  1
  Dy  Dy2  1  0.181674  0.318469  0.763554  1
  Dy  Dy3  1  0.182386  0.318710  0.236251  1
  Lu  Lu4  1  0.682009  0.180723  0.232694  1
  Lu  Lu5  1  0.318074  0.818800  0.767495  1
  Lu  Lu6  1  0.318251  0.818486  0.232604  1
  Lu  Lu7  1  0.818766  0.682320  0.232866  1
  Mg  Mg8  1  0.500676  0.501731  0.498347  1
  Si  Si9  1  0.108187  0.634474  0.497359  1
  Si  Si10  1  0.890894  0.369849  0.496314  1
  Si  Si11  1  0.368766  0.102673  0.498780  1
  Si  Si12  1  0.631222  0.891300  0.494846  1
  B  B13  1  0.172195  0.038730  0.001205  1
  B  B14  1  0.827659  0.959570  0.001361  1
  B  B15  1  0.959549  0.171514  0.001236  1
  B  B16  1  0.326793  0.540972  0.001428  1
  B  B17  1  0.040177  0.827106  0.001320  1
  B  B18  1  0.673381  0.461202  0.001846  1
  B  B19  1  0.538959  0.674426  0.001628  1
  B  B20  1  0.460968  0.327437  0.001630  1
  B  B21  1  0.089569  0.589841  0.001421  1
  B  B22  1  0.910143  0.410535  0.001306  1
  B  B23  1  0.410313  0.089449  0.001474  1
  B  B24  1  0.589245  0.910613  0.001305  1
  B  B25  1  0.999506  0.998570  0.176520  1
  B  B26  1  0.000968  0.998983  0.825955  1
  B  B27  1  0.499360  0.501912  0.834375  1
  B  B28  1  0.501166  0.501088  0.169166  1
  Mo  Mo29  1  0.000378  0.998041  0.498457  1
