# generated using pymatgen
data_TaV5Si2(BW)4
_symmetry_space_group_name_H-M   'P 1'
_cell_length_a   6.90938589
_cell_length_b   6.93637592
_cell_length_c   6.93021491
_cell_angle_alpha   129.33428364
_cell_angle_beta   129.19241247
_cell_angle_gamma   74.76036496
_symmetry_Int_Tables_number   1
_chemical_formula_structural   TaV5Si2(BW)4
_chemical_formula_sum   'Ta1 V5 Si2 B4 W4'
_cell_volume   193.77857552
_cell_formula_units_Z   1
loop_
 _symmetry_equiv_pos_site_id
 _symmetry_equiv_pos_as_xyz
  1  'x, y, z'
loop_
 _atom_site_type_symbol
 _atom_site_label
 _atom_site_symmetry_multiplicity
 _atom_site_fract_x
 _atom_site_fract_y
 _atom_site_fract_z
 _atom_site_occupancy
  Ta  Ta0  1  0.525675  0.690702  0.498480  1
  V  V1  1  0.471434  0.302118  0.499915  1
  V  V2  1  0.802842  0.971145  0.499853  1
  V  V3  1  0.305283  0.803118  0.834938  1
  V  V4  1  0.005132  0.001870  0.000497  1
  V  V5  1  0.501881  0.503933  0.999664  1
  Si  Si6  1  0.244161  0.234393  0.992051  1
  Si  Si7  1  0.740661  0.746919  0.001355  1
  B  B8  1  0.620778  0.122622  0.737178  1
  B  B9  1  0.126225  0.382087  0.503344  1
  B  B10  1  0.883691  0.626482  0.503753  1
  B  B11  1  0.384134  0.885523  0.261486  1
  W  W12  1  0.030148  0.530134  0.836638  1
  W  W13  1  0.693053  0.193015  0.162998  1
  W  W14  1  0.975003  0.473437  0.169766  1
  W  W15  1  0.189898  0.032501  0.498083  1
