# generated using pymatgen
data_TiNb3(PRh)4
_symmetry_space_group_name_H-M   'P 1'
_cell_length_a   3.75848500
_cell_length_b   6.34455262
_cell_length_c   7.22925871
_cell_angle_alpha   90.05065231
_cell_angle_beta   90.00000000
_cell_angle_gamma   90.00000000
_symmetry_Int_Tables_number   1
_chemical_formula_structural   TiNb3(PRh)4
_chemical_formula_sum   'Ti1 Nb3 P4 Rh4'
_cell_volume   172.38815513
_cell_formula_units_Z   1
loop_
 _symmetry_equiv_pos_site_id
 _symmetry_equiv_pos_as_xyz
  1  'x, y, z'
loop_
 _atom_site_type_symbol
 _atom_site_label
 _atom_site_symmetry_multiplicity
 _atom_site_fract_x
 _atom_site_fract_y
 _atom_site_fract_z
 _atom_site_occupancy
  Ti  Ti0  1  0.250000  0.029268  0.827943  1
  Nb  Nb1  1  0.250000  0.528521  0.666508  1
  Nb  Nb2  1  0.750000  0.970257  0.170274  1
  Nb  Nb3  1  0.750000  0.470812  0.332320  1
  P  P4  1  0.250000  0.762750  0.373808  1
  P  P5  1  0.250000  0.259683  0.123809  1
  P  P6  1  0.750000  0.237270  0.626579  1
  P  P7  1  0.750000  0.743327  0.876468  1
  Rh  Rh8  1  0.250000  0.146147  0.439380  1
  Rh  Rh9  1  0.250000  0.645452  0.058901  1
  Rh  Rh10  1  0.750000  0.856678  0.566863  1
  Rh  Rh11  1  0.750000  0.349834  0.937148  1
