# generated using pymatgen
data_SmErCo3P7Ru9
_symmetry_space_group_name_H-M   'P 1'
_cell_length_a   9.34575400
_cell_length_b   9.34575367
_cell_length_c   3.83627300
_cell_angle_alpha   90.00000000
_cell_angle_beta   90.00000000
_cell_angle_gamma   120.00000117
_symmetry_Int_Tables_number   1
_chemical_formula_structural   SmErCo3P7Ru9
_chemical_formula_sum   'Sm1 Er1 Co3 P7 Ru9'
_cell_volume   290.18088910
_cell_formula_units_Z   1
loop_
 _symmetry_equiv_pos_site_id
 _symmetry_equiv_pos_as_xyz
  1  'x, y, z'
loop_
 _atom_site_type_symbol
 _atom_site_label
 _atom_site_symmetry_multiplicity
 _atom_site_fract_x
 _atom_site_fract_y
 _atom_site_fract_z
 _atom_site_occupancy
  Sm  Sm0  1  0.000000  0.000000  0.000000  1
  Er  Er1  1  0.333333  0.666667  0.500000  1
  Co  Co2  1  0.824484  0.602090  0.000000  1
  Co  Co3  1  0.397910  0.222395  0.000000  1
  Co  Co4  1  0.777605  0.175516  0.000000  1
  P  P5  1  0.780591  0.732130  0.500000  1
  P  P6  1  0.267870  0.048461  0.500000  1
  P  P7  1  0.951539  0.219409  0.500000  1
  P  P8  1  0.666667  0.333333  0.000000  1
  P  P9  1  0.078831  0.635528  0.000000  1
  P  P10  1  0.364472  0.443303  0.000000  1
  P  P11  1  0.556697  0.921169  0.000000  1
  Ru  Ru12  1  0.092250  0.396353  0.000000  1
  Ru  Ru13  1  0.603647  0.695897  0.000000  1
  Ru  Ru14  1  0.304103  0.907750  0.000000  1
  Ru  Ru15  1  0.049927  0.766958  0.500000  1
  Ru  Ru16  1  0.233042  0.282969  0.500000  1
  Ru  Ru17  1  0.717031  0.950073  0.500000  1
  Ru  Ru18  1  0.871938  0.418527  0.500000  1
  Ru  Ru19  1  0.581473  0.453411  0.500000  1
  Ru  Ru20  1  0.546589  0.128062  0.500000  1
