# generated using pymatgen
data_Cs4VNiPS8
_symmetry_space_group_name_H-M   'P 1'
_cell_length_a   13.60048700
_cell_length_b   7.49295010
_cell_length_c   9.73929352
_cell_angle_alpha   83.23464227
_cell_angle_beta   90.00000000
_cell_angle_gamma   90.00000000
_symmetry_Int_Tables_number   1
_chemical_formula_structural   Cs4VNiPS8
_chemical_formula_sum   'Cs8 V2 Ni2 P2 S16'
_cell_volume   985.59876091
_cell_formula_units_Z   2
loop_
 _symmetry_equiv_pos_site_id
 _symmetry_equiv_pos_as_xyz
  1  'x, y, z'
loop_
 _atom_site_type_symbol
 _atom_site_label
 _atom_site_symmetry_multiplicity
 _atom_site_fract_x
 _atom_site_fract_y
 _atom_site_fract_z
 _atom_site_occupancy
  Cs  Cs0  1  0.130994  0.816078  0.682934  1
  Cs  Cs1  1  0.630994  0.183922  0.817066  1
  Cs  Cs2  1  0.867694  0.181570  0.316385  1
  Cs  Cs3  1  0.367694  0.818430  0.183615  1
  Cs  Cs4  1  0.345884  0.280726  0.535969  1
  Cs  Cs5  1  0.845884  0.719274  0.964031  1
  Cs  Cs6  1  0.651027  0.726816  0.469912  1
  Cs  Cs7  1  0.151027  0.273184  0.030088  1
  V  V8  1  0.426083  0.746808  0.774344  1
  V  V9  1  0.926083  0.253192  0.725656  1
  Ni  Ni10  1  0.998519  0.491620  0.508612  1
  Ni  Ni11  1  0.498519  0.508380  0.991388  1
  P  P12  1  0.577568  0.246915  0.230860  1
  P  P13  1  0.077568  0.753085  0.269140  1
  S  S14  1  0.079706  0.304034  0.662455  1
  S  S15  1  0.579706  0.695966  0.837545  1
  S  S16  1  0.934475  0.684781  0.340405  1
  S  S17  1  0.434475  0.315219  0.159595  1
  S  S18  1  0.403248  0.748853  0.557038  1
  S  S19  1  0.903248  0.251147  0.942962  1
  S  S20  1  0.599278  0.249631  0.435073  1
  S  S21  1  0.099278  0.750369  0.064927  1
  S  S22  1  0.136393  0.525794  0.387901  1
  S  S23  1  0.636393  0.474206  0.112099  1
  S  S24  1  0.852845  0.480808  0.608764  1
  S  S25  1  0.352845  0.519192  0.891236  1
  S  S26  1  0.372958  0.993849  0.835193  1
  S  S27  1  0.872958  0.006151  0.664807  1
  S  S28  1  0.623329  0.014179  0.166920  1
  S  S29  1  0.123329  0.985821  0.333080  1
