# generated using pymatgen
data_Ac7(Pt3Rh5)2
_symmetry_space_group_name_H-M   'P 1'
_cell_length_a   9.63320103
_cell_length_b   9.67003639
_cell_length_c   9.66189372
_cell_angle_alpha   131.82173490
_cell_angle_beta   131.52423825
_cell_angle_gamma   70.86687415
_symmetry_Int_Tables_number   1
_chemical_formula_structural   Ac7(Pt3Rh5)2
_chemical_formula_sum   'Ac7 Pt6 Rh10'
_cell_volume   491.50938506
_cell_formula_units_Z   1
loop_
 _symmetry_equiv_pos_site_id
 _symmetry_equiv_pos_as_xyz
  1  'x, y, z'
loop_
 _atom_site_type_symbol
 _atom_site_label
 _atom_site_symmetry_multiplicity
 _atom_site_fract_x
 _atom_site_fract_y
 _atom_site_fract_z
 _atom_site_occupancy
  Ac  Ac0  1  0.099267  0.094696  0.410717  1
  Ac  Ac1  1  0.699178  0.692390  0.597961  1
  Ac  Ac2  1  0.895302  0.316245  0.993544  1
  Ac  Ac3  1  0.750800  0.245552  0.496442  1
  Ac  Ac4  1  0.498857  0.504415  0.007057  1
  Ac  Ac5  1  0.305445  0.892791  0.991191  1
  Ac  Ac6  1  0.249346  0.750407  0.498938  1
  Pt  Pt7  1  0.568259  0.571226  0.764651  1
  Pt  Pt8  1  0.803943  0.317533  0.251729  1
  Pt  Pt9  1  0.550606  0.064221  0.747143  1
  Pt  Pt10  1  0.193181  0.446899  0.510977  1
  Pt  Pt11  1  0.327279  0.327549  0.263688  1
  Pt  Pt12  1  0.447960  0.194197  0.511181  1
  Rh  Rh13  1  0.432196  0.191802  0.999125  1
  Rh  Rh14  1  0.683741  0.932738  0.486850  1
  Rh  Rh15  1  0.933718  0.685414  0.486358  1
  Rh  Rh16  1  0.192105  0.432915  0.998773  1
  Rh  Rh17  1  0.317093  0.801660  0.249811  1
  Rh  Rh18  1  0.941492  0.669785  0.002297  1
  Rh  Rh19  1  0.811205  0.813913  0.247245  1
  Rh  Rh20  1  0.065542  0.550133  0.749841  1
  Rh  Rh21  1  0.061209  0.062061  0.731828  1
  Rh  Rh22  1  0.672270  0.941459  0.002652  1
