# generated using pymatgen
data_YbGaSiN3
_symmetry_space_group_name_H-M   'P 1'
_cell_length_a   5.10169400
_cell_length_b   5.75036507
_cell_length_c   5.74933903
_cell_angle_alpha   120.20556972
_cell_angle_beta   90.00000000
_cell_angle_gamma   90.00000000
_symmetry_Int_Tables_number   1
_chemical_formula_structural   YbGaSiN3
_chemical_formula_sum   'Yb2 Ga2 Si2 N6'
_cell_volume   145.76559155
_cell_formula_units_Z   2
loop_
 _symmetry_equiv_pos_site_id
 _symmetry_equiv_pos_as_xyz
  1  'x, y, z'
loop_
 _atom_site_type_symbol
 _atom_site_label
 _atom_site_symmetry_multiplicity
 _atom_site_fract_x
 _atom_site_fract_y
 _atom_site_fract_z
 _atom_site_occupancy
  Yb  Yb0  1  0.996368  0.682654  0.688096  1
  Yb  Yb1  1  0.496368  0.317346  0.311904  1
  Ga  Ga2  1  0.528852  0.012317  0.672050  1
  Ga  Ga3  1  0.028852  0.987683  0.327950  1
  Si  Si4  1  0.524969  0.664015  0.013301  1
  Si  Si5  1  0.024969  0.335985  0.986699  1
  N  N6  1  0.481685  0.722020  0.747277  1
  N  N7  1  0.981685  0.277980  0.252723  1
  N  N8  1  0.902010  0.082401  0.681405  1
  N  N9  1  0.864315  0.639544  0.066576  1
  N  N10  1  0.402010  0.917599  0.318595  1
  N  N11  1  0.364315  0.360456  0.933424  1
