# generated using pymatgen
data_Zr4Nb4Si3Se
_symmetry_space_group_name_H-M   'P 1'
_cell_length_a   3.63926700
_cell_length_b   7.05941067
_cell_length_c   8.54917619
_cell_angle_alpha   90.02094159
_cell_angle_beta   90.00000000
_cell_angle_gamma   90.00000000
_symmetry_Int_Tables_number   1
_chemical_formula_structural   Zr4Nb4Si3Se
_chemical_formula_sum   'Zr4 Nb4 Si3 Se1'
_cell_volume   219.63755729
_cell_formula_units_Z   1
loop_
 _symmetry_equiv_pos_site_id
 _symmetry_equiv_pos_as_xyz
  1  'x, y, z'
loop_
 _atom_site_type_symbol
 _atom_site_label
 _atom_site_symmetry_multiplicity
 _atom_site_fract_x
 _atom_site_fract_y
 _atom_site_fract_z
 _atom_site_occupancy
  Zr  Zr0  1  0.250000  0.541995  0.833566  1
  Zr  Zr1  1  0.750000  0.950804  0.332109  1
  Zr  Zr2  1  0.250000  0.038652  0.673059  1
  Zr  Zr3  1  0.750000  0.464598  0.162001  1
  Nb  Nb4  1  0.250000  0.133574  0.058850  1
  Nb  Nb5  1  0.750000  0.868269  0.939354  1
  Nb  Nb6  1  0.250000  0.636211  0.440541  1
  Nb  Nb7  1  0.750000  0.367704  0.562389  1
  Si  Si8  1  0.750000  0.741500  0.641470  1
  Si  Si9  1  0.250000  0.756544  0.138745  1
  Si  Si10  1  0.750000  0.245338  0.859683  1
  Se  Se11  1  0.250000  0.254810  0.358230  1
