# generated using pymatgen
data_Zr6Co15Si7Ni
_symmetry_space_group_name_H-M   'P 1'
_cell_length_a   8.07144216
_cell_length_b   8.07144151
_cell_length_c   8.07144137
_cell_angle_alpha   60.08545587
_cell_angle_beta   60.08545710
_cell_angle_gamma   60.08545370
_symmetry_Int_Tables_number   1
_chemical_formula_structural   Zr6Co15Si7Ni
_chemical_formula_sum   'Zr6 Co15 Si7 Ni1'
_cell_volume   372.54480823
_cell_formula_units_Z   1
loop_
 _symmetry_equiv_pos_site_id
 _symmetry_equiv_pos_as_xyz
  1  'x, y, z'
loop_
 _atom_site_type_symbol
 _atom_site_label
 _atom_site_symmetry_multiplicity
 _atom_site_fract_x
 _atom_site_fract_y
 _atom_site_fract_z
 _atom_site_occupancy
  Zr  Zr0  1  0.792949  0.792949  0.206314  1
  Zr  Zr1  1  0.206314  0.792949  0.792949  1
  Zr  Zr2  1  0.794469  0.205676  0.205676  1
  Zr  Zr3  1  0.792949  0.206314  0.792949  1
  Zr  Zr4  1  0.205676  0.205676  0.794469  1
  Zr  Zr5  1  0.205676  0.794469  0.205676  1
  Co  Co6  1  0.517598  0.827928  0.827928  1
  Co  Co7  1  0.827928  0.517598  0.827928  1
  Co  Co8  1  0.827928  0.827928  0.517598  1
  Co  Co9  1  0.826725  0.826725  0.826725  1
  Co  Co10  1  0.171858  0.484504  0.171858  1
  Co  Co11  1  0.484504  0.171858  0.171858  1
  Co  Co12  1  0.171858  0.171858  0.484504  1
  Co  Co13  1  0.170071  0.170071  0.170071  1
  Co  Co14  1  0.140759  0.619685  0.619685  1
  Co  Co15  1  0.619685  0.140759  0.619685  1
  Co  Co16  1  0.619685  0.619685  0.140759  1
  Co  Co17  1  0.620455  0.620455  0.620455  1
  Co  Co18  1  0.380313  0.860225  0.380313  1
  Co  Co19  1  0.860225  0.380313  0.380313  1
  Co  Co20  1  0.380313  0.380313  0.860225  1
  Si  Si21  1  0.500421  0.500421  0.997317  1
  Si  Si22  1  0.500421  0.997317  0.500421  1
  Si  Si23  1  0.001155  0.001155  0.498746  1
  Si  Si24  1  0.001155  0.498746  0.001155  1
  Si  Si25  1  0.997317  0.500421  0.500421  1
  Si  Si26  1  0.498746  0.001155  0.001155  1
  Si  Si27  1  0.501483  0.501483  0.501483  1
  Ni  Ni28  1  0.381366  0.381366  0.381366  1
