# generated using pymatgen
data_Rb2(RhO2)5
_symmetry_space_group_name_H-M   'P 1'
_cell_length_a   7.06269886
_cell_length_b   7.06269860
_cell_length_c   10.26344657
_cell_angle_alpha   87.39391528
_cell_angle_beta   87.39391610
_cell_angle_gamma   25.96138181
_symmetry_Int_Tables_number   1
_chemical_formula_structural   Rb2(RhO2)5
_chemical_formula_sum   'Rb2 Rh5 O10'
_cell_volume   223.87343404
_cell_formula_units_Z   1
loop_
 _symmetry_equiv_pos_site_id
 _symmetry_equiv_pos_as_xyz
  1  'x, y, z'
loop_
 _atom_site_type_symbol
 _atom_site_label
 _atom_site_symmetry_multiplicity
 _atom_site_fract_x
 _atom_site_fract_y
 _atom_site_fract_z
 _atom_site_occupancy
  Rb  Rb0  1  0.249575  0.249575  0.176455  1
  Rb  Rb1  1  0.750425  0.750425  0.823545  1
  Rh  Rh2  1  0.846935  0.846935  0.513416  1
  Rh  Rh3  1  0.153065  0.153065  0.486584  1
  Rh  Rh4  1  0.000000  0.000000  0.000000  1
  Rh  Rh5  1  0.495393  0.495393  0.265583  1
  Rh  Rh6  1  0.504607  0.504607  0.734417  1
  O  O7  1  0.930579  0.930579  0.667214  1
  O  O8  1  0.069421  0.069421  0.332786  1
  O  O9  1  0.569809  0.569809  0.086302  1
  O  O10  1  0.430191  0.430191  0.913698  1
  O  O11  1  0.728651  0.728651  0.398775  1
  O  O12  1  0.271349  0.271349  0.601225  1
  O  O13  1  0.591772  0.591772  0.577452  1
  O  O14  1  0.408228  0.408228  0.422548  1
  O  O15  1  0.924891  0.924891  0.178217  1
  O  O16  1  0.075109  0.075109  0.821783  1
