# generated using pymatgen
data_NdHo5(BiO7)2
_symmetry_space_group_name_H-M   'P 1'
_cell_length_a   6.57611692
_cell_length_b   6.56543269
_cell_length_c   7.71630850
_cell_angle_alpha   106.98423602
_cell_angle_beta   89.82406533
_cell_angle_gamma   98.91855909
_symmetry_Int_Tables_number   1
_chemical_formula_structural   NdHo5(BiO7)2
_chemical_formula_sum   'Nd1 Ho5 Bi2 O14'
_cell_volume   314.45507418
_cell_formula_units_Z   1
loop_
 _symmetry_equiv_pos_site_id
 _symmetry_equiv_pos_as_xyz
  1  'x, y, z'
loop_
 _atom_site_type_symbol
 _atom_site_label
 _atom_site_symmetry_multiplicity
 _atom_site_fract_x
 _atom_site_fract_y
 _atom_site_fract_z
 _atom_site_occupancy
  Nd  Nd0  1  0.258636  0.519118  0.382990  1
  Ho  Ho1  1  0.464955  0.006304  0.251267  1
  Ho  Ho2  1  0.537698  0.993403  0.748700  1
  Ho  Ho3  1  0.274332  0.538516  0.883259  1
  Ho  Ho4  1  0.727700  0.462956  0.115024  1
  Ho  Ho5  1  0.729405  0.472810  0.615522  1
  Bi  Bi6  1  0.998094  0.001253  0.501218  1
  Bi  Bi7  1  0.999822  0.998543  0.999249  1
  O  O8  1  0.454138  0.652437  0.160247  1
  O  O9  1  0.553278  0.348465  0.832346  1
  O  O10  1  0.301891  0.921881  0.950710  1
  O  O11  1  0.698796  0.079032  0.048036  1
  O  O12  1  0.298784  0.929958  0.515602  1
  O  O13  1  0.699036  0.075902  0.488930  1
  O  O14  1  0.553477  0.360838  0.343995  1
  O  O15  1  0.459150  0.637725  0.661915  1
  O  O16  1  0.927230  0.665050  0.960892  1
  O  O17  1  0.076290  0.333747  0.039740  1
  O  O18  1  0.065133  0.351047  0.624492  1
  O  O19  1  0.921558  0.656247  0.376278  1
  O  O20  1  0.872654  0.898778  0.724456  1
  O  O21  1  0.127942  0.095991  0.275131  1
