# generated using pymatgen
data_K4NpUTe6
_symmetry_space_group_name_H-M   'P 1'
_cell_length_a   8.10300075
_cell_length_b   8.09142640
_cell_length_c   8.64127787
_cell_angle_alpha   80.95485266
_cell_angle_beta   80.85244663
_cell_angle_gamma   119.88329098
_symmetry_Int_Tables_number   1
_chemical_formula_structural   K4NpUTe6
_chemical_formula_sum   'K4 Np1 U1 Te6'
_cell_volume   466.12316353
_cell_formula_units_Z   1
loop_
 _symmetry_equiv_pos_site_id
 _symmetry_equiv_pos_as_xyz
  1  'x, y, z'
loop_
 _atom_site_type_symbol
 _atom_site_label
 _atom_site_symmetry_multiplicity
 _atom_site_fract_x
 _atom_site_fract_y
 _atom_site_fract_z
 _atom_site_occupancy
  K  K0  1  0.344838  0.655111  0.499956  1
  K  K1  1  0.654399  0.345460  0.500077  1
  K  K2  1  0.000191  0.999929  0.499952  1
  K  K3  1  0.499950  0.500014  0.000008  1
  Np  Np4  1  0.167990  0.831988  0.999967  1
  U  U5  1  0.831926  0.167953  0.000010  1
  Te  Te6  1  0.795729  0.802554  0.209607  1
  Te  Te7  1  0.434446  0.059724  0.212533  1
  Te  Te8  1  0.052207  0.420272  0.212190  1
  Te  Te9  1  0.580255  0.947971  0.787551  1
  Te  Te10  1  0.940053  0.564968  0.787814  1
  Te  Te11  1  0.198016  0.204055  0.790335  1
