# generated using pymatgen
data_Ca8NbAlN8
_symmetry_space_group_name_H-M   'P 1'
_cell_length_a   6.00952382
_cell_length_b   6.02067106
_cell_length_c   9.14245522
_cell_angle_alpha   70.70732848
_cell_angle_beta   80.41505589
_cell_angle_gamma   68.51470846
_symmetry_Int_Tables_number   1
_chemical_formula_structural   Ca8NbAlN8
_chemical_formula_sum   'Ca8 Nb1 Al1 N8'
_cell_volume   290.12549279
_cell_formula_units_Z   1
loop_
 _symmetry_equiv_pos_site_id
 _symmetry_equiv_pos_as_xyz
  1  'x, y, z'
loop_
 _atom_site_type_symbol
 _atom_site_label
 _atom_site_symmetry_multiplicity
 _atom_site_fract_x
 _atom_site_fract_y
 _atom_site_fract_z
 _atom_site_occupancy
  Ca  Ca0  1  0.238800  0.948174  0.614582  1
  Ca  Ca1  1  0.741568  0.615180  0.179986  1
  Ca  Ca2  1  0.752961  0.243297  0.981772  1
  Ca  Ca3  1  0.262601  0.523622  0.433444  1
  Ca  Ca4  1  0.754676  0.047723  0.415232  1
  Ca  Ca5  1  0.257768  0.393684  0.809147  1
  Ca  Ca6  1  0.733616  0.476540  0.583936  1
  Ca  Ca7  1  0.251939  0.760774  0.002936  1
  Nb  Nb8  1  0.283506  0.154973  0.241669  1
  Al  Al9  1  0.717688  0.842464  0.757729  1
  N  N10  1  0.977615  0.698849  0.614115  1
  N  N11  1  0.511583  0.171646  0.626994  1
  N  N12  1  0.020890  0.299856  0.380825  1
  N  N13  1  0.516915  0.626495  0.800992  1
  N  N14  1  0.150420  0.147506  0.061755  1
  N  N15  1  0.485368  0.824250  0.370547  1
  N  N16  1  0.484947  0.371891  0.195406  1
  N  N17  1  0.857139  0.853077  0.928933  1
