# generated using pymatgen
data_Hf18Ta2ReNi2W5
_symmetry_space_group_name_H-M   'P 1'
_cell_length_a   8.70673263
_cell_length_b   8.70668748
_cell_length_c   8.51859700
_cell_angle_alpha   90.00000000
_cell_angle_beta   90.00000000
_cell_angle_gamma   119.88198992
_symmetry_Int_Tables_number   1
_chemical_formula_structural   Hf18Ta2ReNi2W5
_chemical_formula_sum   'Hf18 Ta2 Re1 Ni2 W5'
_cell_volume   559.91497365
_cell_formula_units_Z   1
loop_
 _symmetry_equiv_pos_site_id
 _symmetry_equiv_pos_as_xyz
  1  'x, y, z'
loop_
 _atom_site_type_symbol
 _atom_site_label
 _atom_site_symmetry_multiplicity
 _atom_site_fract_x
 _atom_site_fract_y
 _atom_site_fract_z
 _atom_site_occupancy
  Hf  Hf0  1  0.200594  0.799406  0.441636  1
  Hf  Hf1  1  0.200514  0.400749  0.441360  1
  Hf  Hf2  1  0.599252  0.799487  0.441358  1
  Hf  Hf3  1  0.799972  0.200030  0.557738  1
  Hf  Hf4  1  0.799644  0.599016  0.558059  1
  Hf  Hf5  1  0.400983  0.200356  0.558059  1
  Hf  Hf6  1  0.799972  0.200030  0.942262  1
  Hf  Hf7  1  0.799644  0.599016  0.941941  1
  Hf  Hf8  1  0.400983  0.200356  0.941941  1
  Hf  Hf9  1  0.200594  0.799406  0.058364  1
  Hf  Hf10  1  0.200514  0.400749  0.058640  1
  Hf  Hf11  1  0.599252  0.799487  0.058642  1
  Hf  Hf12  1  0.542675  0.457325  0.250000  1
  Hf  Hf13  1  0.543418  0.085858  0.250000  1
  Hf  Hf14  1  0.914143  0.456583  0.250000  1
  Hf  Hf15  1  0.457161  0.542840  0.750000  1
  Hf  Hf16  1  0.457233  0.914525  0.750000  1
  Hf  Hf17  1  0.085475  0.542765  0.750000  1
  Ta  Ta18  1  0.999330  0.000670  0.498881  1
  Ta  Ta19  1  0.999330  0.000670  0.001119  1
  Re  Re20  1  0.885923  0.114073  0.250000  1
  Ni  Ni21  1  0.333506  0.666494  0.250000  1
  Ni  Ni22  1  0.666759  0.333240  0.750000  1
  W  W23  1  0.885355  0.771426  0.250000  1
  W  W24  1  0.228573  0.114646  0.250000  1
  W  W25  1  0.113973  0.886027  0.750000  1
  W  W26  1  0.113491  0.228261  0.750000  1
  W  W27  1  0.771737  0.886509  0.750000  1
