# generated using pymatgen
data_Hf3Ga3Rh2Au
_symmetry_space_group_name_H-M   'P 1'
_cell_length_a   7.27172900
_cell_length_b   7.27172871
_cell_length_c   3.43802600
_cell_angle_alpha   90.00000000
_cell_angle_beta   90.00000000
_cell_angle_gamma   119.99999676
_symmetry_Int_Tables_number   1
_chemical_formula_structural   Hf3Ga3Rh2Au
_chemical_formula_sum   'Hf3 Ga3 Rh2 Au1'
_cell_volume   157.44002723
_cell_formula_units_Z   1
loop_
 _symmetry_equiv_pos_site_id
 _symmetry_equiv_pos_as_xyz
  1  'x, y, z'
loop_
 _atom_site_type_symbol
 _atom_site_label
 _atom_site_symmetry_multiplicity
 _atom_site_fract_x
 _atom_site_fract_y
 _atom_site_fract_z
 _atom_site_occupancy
  Hf  Hf0  1  0.398891  0.018303  0.500000  1
  Hf  Hf1  1  0.981697  0.380588  0.500000  1
  Hf  Hf2  1  0.619412  0.601109  0.500000  1
  Ga  Ga3  1  0.732616  0.999437  0.000000  1
  Ga  Ga4  1  0.000563  0.733178  0.000000  1
  Ga  Ga5  1  0.266822  0.267384  0.000000  1
  Rh  Rh6  1  0.666667  0.333333  0.000000  1
  Rh  Rh7  1  0.000000  0.000000  0.500000  1
  Au  Au8  1  0.333333  0.666667  0.000000  1
