# generated using pymatgen
data_Pu3SbO3
_symmetry_space_group_name_H-M   'P 1'
_cell_length_a   3.81287848
_cell_length_b   7.08593818
_cell_length_c   10.82168573
_cell_angle_alpha   82.14256823
_cell_angle_beta   79.85333365
_cell_angle_gamma   74.39252691
_symmetry_Int_Tables_number   1
_chemical_formula_structural   Pu3SbO3
_chemical_formula_sum   'Pu6 Sb2 O6'
_cell_volume   275.96076439
_cell_formula_units_Z   2
loop_
 _symmetry_equiv_pos_site_id
 _symmetry_equiv_pos_as_xyz
  1  'x, y, z'
loop_
 _atom_site_type_symbol
 _atom_site_label
 _atom_site_symmetry_multiplicity
 _atom_site_fract_x
 _atom_site_fract_y
 _atom_site_fract_z
 _atom_site_occupancy
  Pu  Pu0  1  0.380624  0.799261  0.439491  1
  Pu  Pu1  1  0.619376  0.200739  0.560509  1
  Pu  Pu2  1  0.371439  0.353877  0.903245  1
  Pu  Pu3  1  0.628561  0.646123  0.096755  1
  Pu  Pu4  1  0.847616  0.101647  0.203119  1
  Pu  Pu5  1  0.152384  0.898353  0.796881  1
  Sb  Sb6  1  0.880452  0.561339  0.677757  1
  Sb  Sb7  1  0.119548  0.438661  0.322243  1
  O  O8  1  0.806879  0.978753  0.407488  1
  O  O9  1  0.193121  0.021247  0.592512  1
  O  O10  1  0.561684  0.082968  0.793663  1
  O  O11  1  0.438316  0.917032  0.206337  1
  O  O12  1  0.829546  0.320102  0.020806  1
  O  O13  1  0.170454  0.679898  0.979194  1
