# generated using pymatgen
data_Tb3Dy2P12Ir11Ru8
_symmetry_space_group_name_H-M   'P 1'
_cell_length_a   12.63018009
_cell_length_b   12.59829130
_cell_length_c   3.97711200
_cell_angle_alpha   90.00000000
_cell_angle_beta   90.00000000
_cell_angle_gamma   120.03495346
_symmetry_Int_Tables_number   1
_chemical_formula_structural   Tb3Dy2P12Ir11Ru8
_chemical_formula_sum   'Tb3 Dy2 P12 Ir11 Ru8'
_cell_volume   547.85618599
_cell_formula_units_Z   1
loop_
 _symmetry_equiv_pos_site_id
 _symmetry_equiv_pos_as_xyz
  1  'x, y, z'
loop_
 _atom_site_type_symbol
 _atom_site_label
 _atom_site_symmetry_multiplicity
 _atom_site_fract_x
 _atom_site_fract_y
 _atom_site_fract_z
 _atom_site_occupancy
  Tb  Tb0  1  0.666950  0.331439  0.000000  1
  Tb  Tb1  1  0.813823  0.000946  0.500000  1
  Tb  Tb2  1  0.183255  0.184808  0.500000  1
  Dy  Dy3  1  0.334718  0.669066  0.000000  1
  Dy  Dy4  1  0.999382  0.815033  0.500000  1
  P  P5  1  0.633922  0.999024  0.000000  1
  P  P6  1  0.363459  0.363746  0.000000  1
  P  P7  1  0.000283  0.635962  0.000000  1
  P  P8  1  0.688846  0.517947  0.500000  1
  P  P9  1  0.830000  0.307341  0.500000  1
  P  P10  1  0.317205  0.834171  0.500000  1
  P  P11  1  0.519493  0.691391  0.500000  1
  P  P12  1  0.179064  0.999984  0.000000  1
  P  P13  1  0.819032  0.819102  0.000000  1
  P  P14  1  0.996685  0.181241  0.000000  1
  P  P15  1  0.479812  0.167194  0.500000  1
  P  P16  1  0.170416  0.482256  0.500000  1
  Ir  Ir17  1  0.624267  0.803569  0.000000  1
  Ir  Ir18  1  0.182939  0.377037  0.000000  1
  Ir  Ir19  1  0.374473  0.181277  0.000000  1
  Ir  Ir20  1  0.191923  0.818755  0.000000  1
  Ir  Ir21  1  0.806016  0.623316  0.000000  1
  Ir  Ir22  1  0.870478  0.507170  0.500000  1
  Ir  Ir23  1  0.491867  0.360324  0.500000  1
  Ir  Ir24  1  0.636997  0.128942  0.500000  1
  Ir  Ir25  1  0.132689  0.640937  0.500000  1
  Ir  Ir26  1  0.362673  0.492311  0.500000  1
  Ir  Ir27  1  0.998902  0.000123  0.000000  1
  Ru  Ru28  1  0.511692  0.871699  0.500000  1
  Ru  Ru29  1  0.712091  0.710432  0.500000  1
  Ru  Ru30  1  0.002369  0.289642  0.500000  1
  Ru  Ru31  1  0.450392  0.998747  0.000000  1
  Ru  Ru32  1  0.546779  0.544554  0.000000  1
  Ru  Ru33  1  0.002220  0.454953  0.000000  1
  Ru  Ru34  1  0.818436  0.195956  0.000000  1
  Ru  Ru35  1  0.286450  0.999599  0.500000  1
