# generated using pymatgen
data_CePr2Hg(Pt2O7)2
_symmetry_space_group_name_H-M   'P 1'
_cell_length_a   7.49756721
_cell_length_b   7.49756707
_cell_length_c   7.38891764
_cell_angle_alpha   59.17374139
_cell_angle_beta   59.17374220
_cell_angle_gamma   59.80760132
_symmetry_Int_Tables_number   1
_chemical_formula_structural   CePr2Hg(Pt2O7)2
_chemical_formula_sum   'Ce1 Pr2 Hg1 Pt4 O14'
_cell_volume   289.56698701
_cell_formula_units_Z   1
loop_
 _symmetry_equiv_pos_site_id
 _symmetry_equiv_pos_as_xyz
  1  'x, y, z'
loop_
 _atom_site_type_symbol
 _atom_site_label
 _atom_site_symmetry_multiplicity
 _atom_site_fract_x
 _atom_site_fract_y
 _atom_site_fract_z
 _atom_site_occupancy
  Ce  Ce0  1  0.125000  0.125000  0.125000  1
  Pr  Pr1  1  0.625000  0.125000  0.125000  1
  Pr  Pr2  1  0.125000  0.625000  0.125000  1
  Hg  Hg3  1  0.125000  0.125000  0.625000  1
  Pt  Pt4  1  0.625000  0.625000  0.125000  1
  Pt  Pt5  1  0.625000  0.625000  0.625000  1
  Pt  Pt6  1  0.625000  0.125000  0.625000  1
  Pt  Pt7  1  0.125000  0.625000  0.625000  1
  O  O8  1  0.715607  0.290106  0.285796  1
  O  O9  1  0.704937  0.292594  0.708545  1
  O  O10  1  0.004838  0.004838  0.017272  1
  O  O11  1  0.290106  0.715607  0.285796  1
  O  O12  1  0.712017  0.712017  0.285106  1
  O  O13  1  0.957406  0.545063  0.541455  1
  O  O14  1  0.292594  0.704937  0.708545  1
  O  O15  1  0.245162  0.245162  0.232728  1
  O  O16  1  0.959894  0.534393  0.964204  1
  O  O17  1  0.545063  0.957406  0.541455  1
  O  O18  1  0.537983  0.537983  0.964894  1
  O  O19  1  0.956207  0.956207  0.534706  1
  O  O20  1  0.534393  0.959894  0.964204  1
  O  O21  1  0.293793  0.293793  0.715294  1
