# generated using pymatgen
data_Nd3Er3Al24(Os3Ru)2
_symmetry_space_group_name_H-M   'P 1'
_cell_length_a   8.81480066
_cell_length_b   8.84201960
_cell_length_c   9.63943800
_cell_angle_alpha   90.00000000
_cell_angle_beta   90.00000000
_cell_angle_gamma   119.65125848
_symmetry_Int_Tables_number   1
_chemical_formula_structural   Nd3Er3Al24(Os3Ru)2
_chemical_formula_sum   'Nd3 Er3 Al24 Os6 Ru2'
_cell_volume   652.92273266
_cell_formula_units_Z   1
loop_
 _symmetry_equiv_pos_site_id
 _symmetry_equiv_pos_as_xyz
  1  'x, y, z'
loop_
 _atom_site_type_symbol
 _atom_site_label
 _atom_site_symmetry_multiplicity
 _atom_site_fract_x
 _atom_site_fract_y
 _atom_site_fract_z
 _atom_site_occupancy
  Nd  Nd0  1  0.384600  0.190762  0.750000  1
  Nd  Nd1  1  0.191574  0.810862  0.250000  1
  Nd  Nd2  1  0.809312  0.191342  0.750000  1
  Er  Er3  1  0.195379  0.391165  0.250000  1
  Er  Er4  1  0.805076  0.608396  0.750000  1
  Er  Er5  1  0.610581  0.806413  0.250000  1
  Al  Al6  1  0.332874  0.666671  0.016972  1
  Al  Al7  1  0.667192  0.333152  0.987241  1
  Al  Al8  1  0.667192  0.333152  0.512759  1
  Al  Al9  1  0.332874  0.666671  0.483028  1
  Al  Al10  1  0.164197  0.327529  0.572408  1
  Al  Al11  1  0.835600  0.674307  0.424949  1
  Al  Al12  1  0.673974  0.835308  0.572849  1
  Al  Al13  1  0.835600  0.674307  0.075051  1
  Al  Al14  1  0.326660  0.165250  0.422767  1
  Al  Al15  1  0.164197  0.327529  0.927592  1
  Al  Al16  1  0.162168  0.835132  0.573664  1
  Al  Al17  1  0.326660  0.165250  0.077233  1
  Al  Al18  1  0.837908  0.162856  0.424276  1
  Al  Al19  1  0.673974  0.835308  0.927151  1
  Al  Al20  1  0.837908  0.162856  0.075724  1
  Al  Al21  1  0.162168  0.835132  0.926336  1
  Al  Al22  1  0.563671  0.124838  0.250000  1
  Al  Al23  1  0.437476  0.872887  0.750000  1
  Al  Al24  1  0.876729  0.438317  0.250000  1
  Al  Al25  1  0.124187  0.562520  0.750000  1
  Al  Al26  1  0.561271  0.441088  0.250000  1
  Al  Al27  1  0.440162  0.562505  0.750000  1
  Al  Al28  1  0.996090  0.005744  0.250000  1
  Al  Al29  1  0.997534  0.991269  0.750000  1
  Os  Os30  1  0.501198  0.998646  0.001844  1
  Os  Os31  1  0.999972  0.500152  0.000111  1
  Os  Os32  1  0.501198  0.998646  0.498156  1
  Os  Os33  1  0.500637  0.501714  0.001629  1
  Os  Os34  1  0.999972  0.500152  0.499889  1
  Os  Os35  1  0.500637  0.501714  0.498371  1
  Ru  Ru36  1  0.000799  0.000227  0.000318  1
  Ru  Ru37  1  0.000799  0.000227  0.499682  1
