# generated using pymatgen
data_Dy19Ho(Ir5Pt)2
_symmetry_space_group_name_H-M   'P 1'
_cell_length_a   10.94142322
_cell_length_b   10.94650100
_cell_length_c   6.34694600
_cell_angle_alpha   90.00127950
_cell_angle_beta   89.95743424
_cell_angle_gamma   90.00042979
_symmetry_Int_Tables_number   1
_chemical_formula_structural   Dy19Ho(Ir5Pt)2
_chemical_formula_sum   'Dy19 Ho1 Ir10 Pt2'
_cell_volume   760.17541822
_cell_formula_units_Z   1
loop_
 _symmetry_equiv_pos_site_id
 _symmetry_equiv_pos_as_xyz
  1  'x, y, z'
loop_
 _atom_site_type_symbol
 _atom_site_label
 _atom_site_symmetry_multiplicity
 _atom_site_fract_x
 _atom_site_fract_y
 _atom_site_fract_z
 _atom_site_occupancy
  Dy  Dy0  1  0.291368  0.088357  0.376218  1
  Dy  Dy1  1  0.291364  0.911649  0.876232  1
  Dy  Dy2  1  0.705288  0.090103  0.874214  1
  Dy  Dy3  1  0.705285  0.909894  0.374195  1
  Dy  Dy4  1  0.584639  0.790942  0.878637  1
  Dy  Dy5  1  0.584638  0.209080  0.378660  1
  Dy  Dy6  1  0.410894  0.791346  0.377723  1
  Dy  Dy7  1  0.410895  0.208628  0.877705  1
  Dy  Dy8  1  0.208861  0.411493  0.622120  1
  Dy  Dy9  1  0.208838  0.588514  0.122131  1
  Dy  Dy10  1  0.790847  0.414583  0.122331  1
  Dy  Dy11  1  0.790825  0.585404  0.622313  1
  Dy  Dy12  1  0.913341  0.706974  0.126521  1
  Dy  Dy13  1  0.913334  0.293022  0.626530  1
  Dy  Dy14  1  0.091565  0.706800  0.622322  1
  Dy  Dy15  1  0.091549  0.293204  0.122306  1
  Dy  Dy16  1  0.003082  0.999672  0.499952  1
  Dy  Dy17  1  0.003077  0.000329  0.999939  1
  Dy  Dy18  1  0.499780  0.499621  0.999878  1
  Ho  Ho19  1  0.499776  0.500377  0.499875  1
  Ir  Ir20  1  0.153041  0.153855  0.750094  1
  Ir  Ir21  1  0.153036  0.846143  0.250093  1
  Ir  Ir22  1  0.654840  0.345850  0.749538  1
  Ir  Ir23  1  0.654849  0.654155  0.249680  1
  Ir  Ir24  1  0.346575  0.346230  0.250410  1
  Ir  Ir25  1  0.346584  0.653774  0.750268  1
  Ir  Ir26  1  0.500726  0.999800  0.123354  1
  Ir  Ir27  1  0.500723  0.000203  0.623360  1
  Ir  Ir28  1  0.999535  0.500169  0.876937  1
  Ir  Ir29  1  0.999536  0.499830  0.376939  1
  Pt  Pt30  1  0.845660  0.153436  0.249760  1
  Pt  Pt31  1  0.845652  0.846565  0.749765  1
