# generated using pymatgen
data_TbLu5Co16(P6W)2
_symmetry_space_group_name_H-M   'P 1'
_cell_length_a   3.69219200
_cell_length_b   10.50739600
_cell_length_c   12.17755000
_cell_angle_alpha   90.00000000
_cell_angle_beta   90.00000000
_cell_angle_gamma   90.00000000
_symmetry_Int_Tables_number   1
_chemical_formula_structural   TbLu5Co16(P6W)2
_chemical_formula_sum   'Tb1 Lu5 Co16 P12 W2'
_cell_volume   472.43199110
_cell_formula_units_Z   1
loop_
 _symmetry_equiv_pos_site_id
 _symmetry_equiv_pos_as_xyz
  1  'x, y, z'
loop_
 _atom_site_type_symbol
 _atom_site_label
 _atom_site_symmetry_multiplicity
 _atom_site_fract_x
 _atom_site_fract_y
 _atom_site_fract_z
 _atom_site_occupancy
  Tb  Tb0  1  0.500000  0.000000  0.474517  1
  Lu  Lu1  1  0.000000  0.500000  0.525419  1
  Lu  Lu2  1  0.500000  0.819802  0.204704  1
  Lu  Lu3  1  0.500000  0.180198  0.204704  1
  Lu  Lu4  1  0.000000  0.679896  0.794796  1
  Lu  Lu5  1  0.000000  0.320104  0.794796  1
  Co  Co6  1  0.500000  0.500000  0.700568  1
  Co  Co7  1  0.000000  0.000000  0.297708  1
  Co  Co8  1  0.000000  0.500000  0.986339  1
  Co  Co9  1  0.500000  0.000000  0.013480  1
  Co  Co10  1  0.500000  0.332922  0.989486  1
  Co  Co11  1  0.500000  0.667078  0.989486  1
  Co  Co12  1  0.000000  0.167425  0.010469  1
  Co  Co13  1  0.000000  0.832575  0.010469  1
  Co  Co14  1  0.500000  0.297115  0.431501  1
  Co  Co15  1  0.500000  0.702885  0.431501  1
  Co  Co16  1  0.000000  0.205695  0.568883  1
  Co  Co17  1  0.000000  0.794305  0.568883  1
  Co  Co18  1  0.500000  0.876630  0.707974  1
  Co  Co19  1  0.500000  0.123370  0.707974  1
  Co  Co20  1  0.000000  0.622676  0.292597  1
  Co  Co21  1  0.000000  0.377324  0.292597  1
  P  P22  1  0.500000  0.500000  0.878609  1
  P  P23  1  0.000000  0.000000  0.120728  1
  P  P24  1  0.500000  0.500000  0.352452  1
  P  P25  1  0.000000  0.000000  0.649717  1
  P  P26  1  0.500000  0.313220  0.616712  1
  P  P27  1  0.500000  0.686780  0.616712  1
  P  P28  1  0.000000  0.188522  0.382445  1
  P  P29  1  0.000000  0.811478  0.382445  1
  P  P30  1  0.500000  0.842806  0.891783  1
  P  P31  1  0.500000  0.157194  0.891783  1
  P  P32  1  0.000000  0.656823  0.108328  1
  P  P33  1  0.000000  0.343177  0.108328  1
  W  W34  1  0.500000  0.500000  0.157141  1
  W  W35  1  0.000000  0.000000  0.843964  1
