# generated using pymatgen
data_Tb5GaBi2
_symmetry_space_group_name_H-M   'P 1'
_cell_length_a   8.12780200
_cell_length_b   9.34434700
_cell_length_c   12.17559700
_cell_angle_alpha   90.00000000
_cell_angle_beta   90.00000000
_cell_angle_gamma   90.00000000
_symmetry_Int_Tables_number   1
_chemical_formula_structural   Tb5GaBi2
_chemical_formula_sum   'Tb20 Ga4 Bi8'
_cell_volume   924.72444377
_cell_formula_units_Z   4
loop_
 _symmetry_equiv_pos_site_id
 _symmetry_equiv_pos_as_xyz
  1  'x, y, z'
loop_
 _atom_site_type_symbol
 _atom_site_label
 _atom_site_symmetry_multiplicity
 _atom_site_fract_x
 _atom_site_fract_y
 _atom_site_fract_z
 _atom_site_occupancy
  Tb  Tb0  1  0.819527  0.552327  0.062624  1
  Tb  Tb1  1  0.680473  0.947673  0.562624  1
  Tb  Tb2  1  0.180473  0.052327  0.937376  1
  Tb  Tb3  1  0.319527  0.447673  0.437376  1
  Tb  Tb4  1  0.180473  0.447673  0.937376  1
  Tb  Tb5  1  0.319527  0.052327  0.437376  1
  Tb  Tb6  1  0.819527  0.947673  0.062624  1
  Tb  Tb7  1  0.680473  0.552327  0.562624  1
  Tb  Tb8  1  0.172740  0.750000  0.215474  1
  Tb  Tb9  1  0.327260  0.750000  0.715474  1
  Tb  Tb10  1  0.827260  0.250000  0.784526  1
  Tb  Tb11  1  0.672740  0.250000  0.284526  1
  Tb  Tb12  1  0.462006  0.750000  0.002638  1
  Tb  Tb13  1  0.037994  0.750000  0.502638  1
  Tb  Tb14  1  0.537994  0.250000  0.997362  1
  Tb  Tb15  1  0.962006  0.250000  0.497362  1
  Tb  Tb16  1  0.644979  0.750000  0.294545  1
  Tb  Tb17  1  0.855021  0.750000  0.794545  1
  Tb  Tb18  1  0.355021  0.250000  0.705455  1
  Tb  Tb19  1  0.144979  0.250000  0.205455  1
  Ga  Ga20  1  0.407305  0.750000  0.475009  1
  Ga  Ga21  1  0.092695  0.750000  0.975009  1
  Ga  Ga22  1  0.592695  0.250000  0.524991  1
  Ga  Ga23  1  0.907305  0.250000  0.024991  1
  Bi  Bi24  1  0.937577  0.509563  0.324769  1
  Bi  Bi25  1  0.562423  0.990437  0.824769  1
  Bi  Bi26  1  0.062423  0.009563  0.675231  1
  Bi  Bi27  1  0.437577  0.490437  0.175231  1
  Bi  Bi28  1  0.062423  0.490437  0.675231  1
  Bi  Bi29  1  0.437577  0.009563  0.175231  1
  Bi  Bi30  1  0.937577  0.990437  0.324769  1
  Bi  Bi31  1  0.562423  0.509563  0.824769  1
