# generated using pymatgen
data_Li2Ho8Sc9Si16Ru
_symmetry_space_group_name_H-M   'P 1'
_cell_length_a   6.92191314
_cell_length_b   7.34124896
_cell_length_c   13.90523000
_cell_angle_alpha   90.00000000
_cell_angle_beta   90.00000000
_cell_angle_gamma   90.03376862
_symmetry_Int_Tables_number   1
_chemical_formula_structural   Li2Ho8Sc9Si16Ru
_chemical_formula_sum   'Li2 Ho8 Sc9 Si16 Ru1'
_cell_volume   706.60092000
_cell_formula_units_Z   1
loop_
 _symmetry_equiv_pos_site_id
 _symmetry_equiv_pos_as_xyz
  1  'x, y, z'
loop_
 _atom_site_type_symbol
 _atom_site_label
 _atom_site_symmetry_multiplicity
 _atom_site_fract_x
 _atom_site_fract_y
 _atom_site_fract_z
 _atom_site_occupancy
  Li  Li0  1  0.842509  0.492198  0.250000  1
  Li  Li1  1  0.660120  0.987793  0.750000  1
  Ho  Ho2  1  0.010796  0.185372  0.095182  1
  Ho  Ho3  1  0.987566  0.822296  0.900403  1
  Ho  Ho4  1  0.490496  0.681646  0.901241  1
  Ho  Ho5  1  0.987566  0.822296  0.599597  1
  Ho  Ho6  1  0.516392  0.326676  0.095582  1
  Ho  Ho7  1  0.010796  0.185372  0.404818  1
  Ho  Ho8  1  0.516392  0.326676  0.404418  1
  Ho  Ho9  1  0.490496  0.681646  0.598759  1
  Sc  Sc10  1  0.344176  0.001839  0.250000  1
  Sc  Sc11  1  0.332937  0.173766  0.627040  1
  Sc  Sc12  1  0.676725  0.817961  0.374105  1
  Sc  Sc13  1  0.167813  0.669422  0.376123  1
  Sc  Sc14  1  0.676725  0.817961  0.125895  1
  Sc  Sc15  1  0.818540  0.322218  0.629171  1
  Sc  Sc16  1  0.332937  0.173766  0.872960  1
  Sc  Sc17  1  0.818540  0.322218  0.870829  1
  Sc  Sc18  1  0.167813  0.669422  0.123877  1
  Si  Si19  1  0.036647  0.120853  0.750000  1
  Si  Si20  1  0.974870  0.895566  0.250000  1
  Si  Si21  1  0.468786  0.611119  0.250000  1
  Si  Si22  1  0.510530  0.407972  0.750000  1
  Si  Si23  1  0.275960  0.863877  0.750000  1
  Si  Si24  1  0.716922  0.121232  0.250000  1
  Si  Si25  1  0.221700  0.371962  0.250000  1
  Si  Si26  1  0.793345  0.620343  0.750000  1
  Si  Si27  1  0.154385  0.466900  0.550785  1
  Si  Si28  1  0.842943  0.538152  0.469527  1
  Si  Si29  1  0.343989  0.966090  0.460887  1
  Si  Si30  1  0.842943  0.538152  0.030473  1
  Si  Si31  1  0.660059  0.036421  0.534352  1
  Si  Si32  1  0.154385  0.466900  0.949215  1
  Si  Si33  1  0.660059  0.036421  0.965648  1
  Si  Si34  1  0.343989  0.966090  0.039113  1
  Ru  Ru35  1  0.149157  0.491409  0.750000  1
