# generated using pymatgen
data_TbHo3(Fe2Br)2
_symmetry_space_group_name_H-M   'P 1'
_cell_length_a   3.90299300
_cell_length_b   3.90299267
_cell_length_c   16.44664200
_cell_angle_alpha   90.00000000
_cell_angle_beta   90.00000000
_cell_angle_gamma   119.99999430
_symmetry_Int_Tables_number   1
_chemical_formula_structural   TbHo3(Fe2Br)2
_chemical_formula_sum   'Tb1 Ho3 Fe4 Br2'
_cell_volume   216.97185606
_cell_formula_units_Z   1
loop_
 _symmetry_equiv_pos_site_id
 _symmetry_equiv_pos_as_xyz
  1  'x, y, z'
loop_
 _atom_site_type_symbol
 _atom_site_label
 _atom_site_symmetry_multiplicity
 _atom_site_fract_x
 _atom_site_fract_y
 _atom_site_fract_z
 _atom_site_occupancy
  Tb  Tb0  1  0.000000  0.000000  0.110001  1
  Ho  Ho1  1  0.000000  0.000000  0.391453  1
  Ho  Ho2  1  0.000000  0.000000  0.608719  1
  Ho  Ho3  1  0.000000  0.000000  0.890725  1
  Fe  Fe4  1  0.333334  0.666668  0.005353  1
  Fe  Fe5  1  0.333334  0.666668  0.493839  1
  Fe  Fe6  1  0.666667  0.333333  0.506219  1
  Fe  Fe7  1  0.666667  0.333333  0.993189  1
  Br  Br8  1  0.666667  0.333333  0.250620  1
  Br  Br9  1  0.333334  0.666668  0.749884  1
