# generated using pymatgen
data_SmDyHo2(WO6)2
_symmetry_space_group_name_H-M   'P 1'
_cell_length_a   5.42409600
_cell_length_b   7.73513164
_cell_length_c   11.50072920
_cell_angle_alpha   75.51080268
_cell_angle_beta   90.00000000
_cell_angle_gamma   90.00000000
_symmetry_Int_Tables_number   1
_chemical_formula_structural   SmDyHo2(WO6)2
_chemical_formula_sum   'Sm2 Dy2 Ho4 W4 O24'
_cell_volume   467.17889326
_cell_formula_units_Z   2
loop_
 _symmetry_equiv_pos_site_id
 _symmetry_equiv_pos_as_xyz
  1  'x, y, z'
loop_
 _atom_site_type_symbol
 _atom_site_label
 _atom_site_symmetry_multiplicity
 _atom_site_fract_x
 _atom_site_fract_y
 _atom_site_fract_z
 _atom_site_occupancy
  Sm  Sm0  1  0.684468  0.500000  0.750000  1
  Sm  Sm1  1  0.315532  0.500000  0.250000  1
  Dy  Dy2  1  0.739834  0.000000  0.750000  1
  Dy  Dy3  1  0.260166  0.000000  0.250000  1
  Ho  Ho4  1  0.186658  0.796794  0.577537  1
  Ho  Ho5  1  0.813342  0.796794  0.077537  1
  Ho  Ho6  1  0.186658  0.203206  0.922463  1
  Ho  Ho7  1  0.813342  0.203206  0.422463  1
  W  W8  1  0.254027  0.724889  0.885581  1
  W  W9  1  0.745973  0.724889  0.385581  1
  W  W10  1  0.254027  0.275111  0.614419  1
  W  W11  1  0.745973  0.275111  0.114419  1
  O  O12  1  0.041614  0.940284  0.896085  1
  O  O13  1  0.530906  0.847602  0.931387  1
  O  O14  1  0.958386  0.940284  0.396085  1
  O  O15  1  0.457237  0.791520  0.727661  1
  O  O16  1  0.469094  0.847602  0.431387  1
  O  O17  1  0.985436  0.714434  0.770605  1
  O  O18  1  0.542763  0.791520  0.227661  1
  O  O19  1  0.854613  0.637982  0.547318  1
  O  O20  1  0.355529  0.490758  0.888205  1
  O  O21  1  0.014564  0.714434  0.270605  1
  O  O22  1  0.355529  0.509242  0.611795  1
  O  O23  1  0.854613  0.362018  0.952682  1
  O  O24  1  0.145387  0.637982  0.047318  1
  O  O25  1  0.644471  0.490758  0.388205  1
  O  O26  1  0.985436  0.285566  0.729395  1
  O  O27  1  0.644471  0.509242  0.111795  1
  O  O28  1  0.145387  0.362018  0.452682  1
  O  O29  1  0.457237  0.208480  0.772339  1
  O  O30  1  0.014564  0.285566  0.229395  1
  O  O31  1  0.530906  0.152398  0.568613  1
  O  O32  1  0.542763  0.208480  0.272339  1
  O  O33  1  0.041614  0.059716  0.603915  1
  O  O34  1  0.469094  0.152398  0.068613  1
  O  O35  1  0.958386  0.059716  0.103915  1
