# generated using pymatgen
data_Tm7Th3Co4
_symmetry_space_group_name_H-M   'P 1'
_cell_length_a   8.71248440
_cell_length_b   8.70060973
_cell_length_c   6.89856742
_cell_angle_alpha   84.86078696
_cell_angle_beta   84.14845851
_cell_angle_gamma   41.83813610
_symmetry_Int_Tables_number   1
_chemical_formula_structural   Tm7Th3Co4
_chemical_formula_sum   'Tm7 Th3 Co4'
_cell_volume   346.92425822
_cell_formula_units_Z   1
loop_
 _symmetry_equiv_pos_site_id
 _symmetry_equiv_pos_as_xyz
  1  'x, y, z'
loop_
 _atom_site_type_symbol
 _atom_site_label
 _atom_site_symmetry_multiplicity
 _atom_site_fract_x
 _atom_site_fract_y
 _atom_site_fract_z
 _atom_site_occupancy
  Tm  Tm0  1  0.797147  0.010636  0.913900  1
  Tm  Tm1  1  0.355756  0.218734  0.318870  1
  Tm  Tm2  1  0.786162  0.643939  0.174098  1
  Tm  Tm3  1  0.642156  0.785783  0.679871  1
  Tm  Tm4  1  0.220971  0.356214  0.820343  1
  Tm  Tm5  1  0.573129  0.425823  0.251862  1
  Tm  Tm6  1  0.425989  0.570666  0.753437  1
  Th  Th7  1  0.999220  0.806506  0.410045  1
  Th  Th8  1  0.197564  0.995404  0.092561  1
  Th  Th9  1  0.998492  0.194902  0.593038  1
  Co  Co10  1  0.171988  0.607694  0.090657  1
  Co  Co11  1  0.389351  0.831444  0.414208  1
  Co  Co12  1  0.834787  0.386177  0.912741  1
  Co  Co13  1  0.607288  0.166080  0.574368  1
