# generated using pymatgen
data_Y5CrP12(Ru4Rh5)2
_symmetry_space_group_name_H-M   'P 1'
_cell_length_a   12.62896148
_cell_length_b   12.69594908
_cell_length_c   3.92548500
_cell_angle_alpha   90.00000000
_cell_angle_beta   90.00000000
_cell_angle_gamma   120.17561012
_symmetry_Int_Tables_number   1
_chemical_formula_structural   Y5CrP12(Ru4Rh5)2
_chemical_formula_sum   'Y5 Cr1 P12 Ru8 Rh10'
_cell_volume   544.10852367
_cell_formula_units_Z   1
loop_
 _symmetry_equiv_pos_site_id
 _symmetry_equiv_pos_as_xyz
  1  'x, y, z'
loop_
 _atom_site_type_symbol
 _atom_site_label
 _atom_site_symmetry_multiplicity
 _atom_site_fract_x
 _atom_site_fract_y
 _atom_site_fract_z
 _atom_site_occupancy
  Y  Y0  1  0.000000  0.187325  0.500000  1
  Y  Y1  1  0.812990  0.814000  0.500000  1
  Y  Y2  1  0.187010  0.001009  0.500000  1
  Y  Y3  1  0.667531  0.333548  0.000000  1
  Y  Y4  1  0.332469  0.666018  0.000000  1
  Cr  Cr5  1  0.000000  0.556715  0.000000  1
  P  P6  1  0.000000  0.821052  0.000000  1
  P  P7  1  0.182355  0.182674  0.000000  1
  P  P8  1  0.817645  0.000319  0.000000  1
  P  P9  1  0.688026  0.169843  0.500000  1
  P  P10  1  0.830255  0.514270  0.500000  1
  P  P11  1  0.483876  0.311564  0.500000  1
  P  P12  1  0.169745  0.684015  0.500000  1
  P  P13  1  0.516124  0.827688  0.500000  1
  P  P14  1  0.311974  0.481816  0.500000  1
  P  P15  1  0.000000  0.371978  0.000000  1
  P  P16  1  0.630685  0.631363  0.000000  1
  P  P17  1  0.369315  0.000678  0.000000  1
  Ru  Ru18  1  0.286091  0.284832  0.500000  1
  Ru  Ru19  1  0.713909  0.998741  0.500000  1
  Ru  Ru20  1  0.873810  0.359816  0.500000  1
  Ru  Ru21  1  0.639922  0.511440  0.500000  1
  Ru  Ru22  1  0.487026  0.125550  0.500000  1
  Ru  Ru23  1  0.360078  0.871517  0.500000  1
  Ru  Ru24  1  0.512974  0.638524  0.500000  1
  Ru  Ru25  1  0.126190  0.486005  0.500000  1
  Rh  Rh26  1  0.449786  0.449818  0.000000  1
  Rh  Rh27  1  0.550214  0.000033  0.000000  1
  Rh  Rh28  1  0.000000  0.717527  0.500000  1
  Rh  Rh29  1  0.807114  0.181129  0.000000  1
  Rh  Rh30  1  0.819099  0.625751  0.000000  1
  Rh  Rh31  1  0.376205  0.194025  0.000000  1
  Rh  Rh32  1  0.180901  0.806650  0.000000  1
  Rh  Rh33  1  0.623795  0.817820  0.000000  1
  Rh  Rh34  1  0.192886  0.374012  0.000000  1
  Rh  Rh35  1  0.000000  0.000930  0.000000  1
