# generated using pymatgen
data_Dy12YTh3(MgRh)4
_symmetry_space_group_name_H-M   'P 1'
_cell_length_a   9.75337445
_cell_length_b   9.78394346
_cell_length_c   9.77239000
_cell_angle_alpha   60.03904805
_cell_angle_beta   59.93547871
_cell_angle_gamma   59.99758530
_symmetry_Int_Tables_number   1
_chemical_formula_structural   Dy12YTh3(MgRh)4
_chemical_formula_sum   'Dy12 Y1 Th3 Mg4 Rh4'
_cell_volume   659.26854846
_cell_formula_units_Z   1
loop_
 _symmetry_equiv_pos_site_id
 _symmetry_equiv_pos_as_xyz
  1  'x, y, z'
loop_
 _atom_site_type_symbol
 _atom_site_label
 _atom_site_symmetry_multiplicity
 _atom_site_fract_x
 _atom_site_fract_y
 _atom_site_fract_z
 _atom_site_occupancy
  Dy  Dy0  1  0.203007  0.598783  0.599105  1
  Dy  Dy1  1  0.062720  0.437499  0.436766  1
  Dy  Dy2  1  0.436831  0.063416  0.063164  1
  Dy  Dy3  1  0.436831  0.063416  0.436588  1
  Dy  Dy4  1  0.062720  0.437499  0.063013  1
  Dy  Dy5  1  0.436285  0.436565  0.063574  1
  Dy  Dy6  1  0.062390  0.062798  0.437406  1
  Dy  Dy7  1  0.185420  0.814958  0.815229  1
  Dy  Dy8  1  0.816251  0.183326  0.184069  1
  Dy  Dy9  1  0.816251  0.183326  0.816354  1
  Dy  Dy10  1  0.185420  0.814958  0.184393  1
  Dy  Dy11  1  0.816511  0.816145  0.183672  1
  Y  Y12  1  0.185454  0.183590  0.815478  1
  Th  Th13  1  0.596432  0.597959  0.598444  1
  Th  Th14  1  0.596432  0.597959  0.207167  1
  Th  Th15  1  0.596417  0.207854  0.597865  1
  Mg  Mg16  1  0.829920  0.830309  0.829954  1
  Mg  Mg17  1  0.829920  0.830309  0.509816  1
  Mg  Mg18  1  0.830074  0.510091  0.829917  1
  Mg  Mg19  1  0.508797  0.830679  0.830262  1
  Rh  Rh20  1  0.396172  0.392499  0.391971  1
  Rh  Rh21  1  0.396172  0.392499  0.819360  1
  Rh  Rh22  1  0.396186  0.819187  0.392314  1
  Rh  Rh23  1  0.817388  0.394376  0.394118  1
