# generated using pymatgen
data_SrTh3(Al8Pd3)3
_symmetry_space_group_name_H-M   'P 1'
_cell_length_a   7.63348116
_cell_length_b   7.65532053
_cell_length_c   13.37974448
_cell_angle_alpha   84.54130142
_cell_angle_beta   79.10463225
_cell_angle_gamma   59.91083254
_symmetry_Int_Tables_number   1
_chemical_formula_structural   SrTh3(Al8Pd3)3
_chemical_formula_sum   'Sr1 Th3 Al24 Pd9'
_cell_volume   664.31413993
_cell_formula_units_Z   1
loop_
 _symmetry_equiv_pos_site_id
 _symmetry_equiv_pos_as_xyz
  1  'x, y, z'
loop_
 _atom_site_type_symbol
 _atom_site_label
 _atom_site_symmetry_multiplicity
 _atom_site_fract_x
 _atom_site_fract_y
 _atom_site_fract_z
 _atom_site_occupancy
  Sr  Sr0  1  0.265915  0.502027  0.192454  1
  Th  Th1  1  0.394478  0.168549  0.806482  1
  Th  Th2  1  0.604216  0.832206  0.194056  1
  Th  Th3  1  0.734757  0.497237  0.806344  1
  Al  Al4  1  0.687979  0.833744  0.947042  1
  Al  Al5  1  0.312187  0.166797  0.053150  1
  Al  Al6  1  0.145064  0.834218  0.559205  1
  Al  Al7  1  0.854626  0.165834  0.439606  1
  Al  Al8  1  0.480841  0.167062  0.557824  1
  Al  Al9  1  0.519077  0.833533  0.442096  1
  Al  Al10  1  0.212415  0.166710  0.336893  1
  Al  Al11  1  0.788093  0.834534  0.663561  1
  Al  Al12  1  0.435436  0.510102  0.663449  1
  Al  Al13  1  0.562469  0.490038  0.336604  1
  Al  Al14  1  0.111608  0.156051  0.662289  1
  Al  Al15  1  0.890334  0.841773  0.337887  1
  Al  Al16  1  0.347192  0.504370  0.947529  1
  Al  Al17  1  0.651754  0.496378  0.053128  1
  Al  Al18  1  0.014593  0.164268  0.958230  1
  Al  Al19  1  0.984128  0.836384  0.044019  1
  Al  Al20  1  0.186369  0.501013  0.441443  1
  Al  Al21  1  0.814539  0.498115  0.557914  1
  Al  Al22  1  0.740743  0.156784  0.184586  1
  Al  Al23  1  0.262996  0.836374  0.815441  1
  Al  Al24  1  0.062102  0.635409  0.813850  1
  Al  Al25  1  0.931531  0.368247  0.185940  1
  Al  Al26  1  0.862317  0.036347  0.815198  1
  Al  Al27  1  0.142038  0.966081  0.184468  1
  Pd  Pd28  1  0.120867  0.493032  0.637653  1
  Pd  Pd29  1  0.877411  0.506027  0.364445  1
  Pd  Pd30  1  0.657703  0.171218  0.997699  1
  Pd  Pd31  1  0.344396  0.829434  0.998294  1
  Pd  Pd32  1  0.540154  0.165263  0.364486  1
  Pd  Pd33  1  0.461303  0.832938  0.637247  1
  Pd  Pd34  1  0.779149  0.174139  0.637802  1
  Pd  Pd35  1  0.219287  0.827881  0.363770  1
  Pd  Pd36  1  0.999936  0.499880  0.997916  1
