# generated using pymatgen
data_Zr7ScSb16
_symmetry_space_group_name_H-M   'P 1'
_cell_length_a   3.93616800
_cell_length_b   10.12822908
_cell_length_c   15.01936889
_cell_angle_alpha   90.01698973
_cell_angle_beta   90.00000000
_cell_angle_gamma   90.00000000
_symmetry_Int_Tables_number   1
_chemical_formula_structural   Zr7ScSb16
_chemical_formula_sum   'Zr7 Sc1 Sb16'
_cell_volume   598.76830985
_cell_formula_units_Z   1
loop_
 _symmetry_equiv_pos_site_id
 _symmetry_equiv_pos_as_xyz
  1  'x, y, z'
loop_
 _atom_site_type_symbol
 _atom_site_label
 _atom_site_symmetry_multiplicity
 _atom_site_fract_x
 _atom_site_fract_y
 _atom_site_fract_z
 _atom_site_occupancy
  Zr  Zr0  1  0.500000  0.477049  0.750173  1
  Zr  Zr1  1  0.000000  0.023096  0.251329  1
  Zr  Zr2  1  0.000000  0.977021  0.749763  1
  Zr  Zr3  1  0.000000  0.831969  0.494777  1
  Zr  Zr4  1  0.000000  0.166954  0.506061  1
  Zr  Zr5  1  0.500000  0.332852  0.005595  1
  Zr  Zr6  1  0.500000  0.668283  0.992784  1
  Sc  Sc7  1  0.500000  0.522312  0.248112  1
  Sb  Sb8  1  0.000000  0.512218  0.103149  1
  Sb  Sb9  1  0.000000  0.488834  0.896591  1
  Sb  Sb10  1  0.500000  0.010675  0.397631  1
  Sb  Sb11  1  0.500000  0.988655  0.603745  1
  Sb  Sb12  1  0.000000  0.733099  0.300690  1
  Sb  Sb13  1  0.000000  0.266879  0.698209  1
  Sb  Sb14  1  0.500000  0.233955  0.200115  1
  Sb  Sb15  1  0.500000  0.767063  0.801240  1
  Sb  Sb16  1  0.000000  0.882904  0.943216  1
  Sb  Sb17  1  0.000000  0.117696  0.058103  1
  Sb  Sb18  1  0.500000  0.382655  0.556292  1
  Sb  Sb19  1  0.500000  0.620093  0.441505  1
  Sb  Sb20  1  0.000000  0.657266  0.656153  1
  Sb  Sb21  1  0.000000  0.337442  0.343352  1
  Sb  Sb22  1  0.500000  0.158214  0.843786  1
  Sb  Sb23  1  0.500000  0.842816  0.157627  1
