# generated using pymatgen
data_Hf3ZnSn2Ir2Pd
_symmetry_space_group_name_H-M   'P 1'
_cell_length_a   7.54911293
_cell_length_b   7.54911293
_cell_length_c   3.43026100
_cell_angle_alpha   90.00000000
_cell_angle_beta   90.00000000
_cell_angle_gamma   120.95370778
_symmetry_Int_Tables_number   1
_chemical_formula_structural   Hf3ZnSn2Ir2Pd
_chemical_formula_sum   'Hf3 Zn1 Sn2 Ir2 Pd1'
_cell_volume   167.64679212
_cell_formula_units_Z   1
loop_
 _symmetry_equiv_pos_site_id
 _symmetry_equiv_pos_as_xyz
  1  'x, y, z'
loop_
 _atom_site_type_symbol
 _atom_site_label
 _atom_site_symmetry_multiplicity
 _atom_site_fract_x
 _atom_site_fract_y
 _atom_site_fract_z
 _atom_site_occupancy
  Hf  Hf0  1  0.418386  0.418386  0.500000  1
  Hf  Hf1  1  0.601257  0.973951  0.500000  1
  Hf  Hf2  1  0.973951  0.601257  0.500000  1
  Zn  Zn3  1  0.725528  0.725528  0.000000  1
  Sn  Sn4  1  0.273618  0.000127  0.000000  1
  Sn  Sn5  1  0.000127  0.273618  0.000000  1
  Ir  Ir6  1  0.670948  0.342722  0.000000  1
  Ir  Ir7  1  0.342722  0.670948  0.000000  1
  Pd  Pd8  1  0.993462  0.993462  0.500000  1
