# generated using pymatgen
data_Tb3Th(Sc3Ga4)2
_symmetry_space_group_name_H-M   'P 1'
_cell_length_a   7.33079775
_cell_length_b   7.58740675
_cell_length_c   14.53852121
_cell_angle_alpha   90.01209747
_cell_angle_beta   90.06184947
_cell_angle_gamma   90.04967243
_symmetry_Int_Tables_number   1
_chemical_formula_structural   Tb3Th(Sc3Ga4)2
_chemical_formula_sum   'Tb6 Th2 Sc12 Ga16'
_cell_volume   808.65711716
_cell_formula_units_Z   2
loop_
 _symmetry_equiv_pos_site_id
 _symmetry_equiv_pos_as_xyz
  1  'x, y, z'
loop_
 _atom_site_type_symbol
 _atom_site_label
 _atom_site_symmetry_multiplicity
 _atom_site_fract_x
 _atom_site_fract_y
 _atom_site_fract_z
 _atom_site_occupancy
  Tb  Tb0  1  0.488935  0.677154  0.904131  1
  Tb  Tb1  1  0.988361  0.822478  0.595312  1
  Tb  Tb2  1  0.511065  0.322846  0.095869  1
  Tb  Tb3  1  0.011639  0.177522  0.404688  1
  Tb  Tb4  1  0.512146  0.321998  0.405361  1
  Tb  Tb5  1  0.487854  0.678002  0.594639  1
  Th  Th6  1  0.011814  0.177235  0.095878  1
  Th  Th7  1  0.988186  0.822765  0.904122  1
  Sc  Sc8  1  0.163826  0.501626  0.748982  1
  Sc  Sc9  1  0.836174  0.498374  0.251018  1
  Sc  Sc10  1  0.338423  0.001912  0.251041  1
  Sc  Sc11  1  0.661577  0.998088  0.748959  1
  Sc  Sc12  1  0.330165  0.172919  0.623451  1
  Sc  Sc13  1  0.669835  0.827081  0.376549  1
  Sc  Sc14  1  0.170923  0.673320  0.376438  1
  Sc  Sc15  1  0.669193  0.826713  0.124572  1
  Sc  Sc16  1  0.829077  0.326680  0.623562  1
  Sc  Sc17  1  0.330807  0.173287  0.875428  1
  Sc  Sc18  1  0.829201  0.327170  0.875349  1
  Sc  Sc19  1  0.170799  0.672830  0.124651  1
  Ga  Ga20  1  0.031466  0.119165  0.749182  1
  Ga  Ga21  1  0.968534  0.880835  0.250818  1
  Ga  Ga22  1  0.468073  0.618935  0.250166  1
  Ga  Ga23  1  0.531927  0.381065  0.749834  1
  Ga  Ga24  1  0.286786  0.873691  0.748843  1
  Ga  Ga25  1  0.713214  0.126309  0.251157  1
  Ga  Ga26  1  0.216021  0.374093  0.250333  1
  Ga  Ga27  1  0.783979  0.625907  0.749667  1
  Ga  Ga28  1  0.159753  0.465150  0.540148  1
  Ga  Ga29  1  0.840247  0.534850  0.459852  1
  Ga  Ga30  1  0.339700  0.964643  0.459677  1
  Ga  Ga31  1  0.837225  0.536552  0.040454  1
  Ga  Ga32  1  0.660300  0.035357  0.540323  1
  Ga  Ga33  1  0.162775  0.463448  0.959546  1
  Ga  Ga34  1  0.656375  0.037065  0.959792  1
  Ga  Ga35  1  0.343625  0.962935  0.040208  1
