# generated using pymatgen
data_Nd3Sm3Zn4Pd13
_symmetry_space_group_name_H-M   'P 1'
_cell_length_a   8.37709645
_cell_length_b   8.37709657
_cell_length_c   8.37636900
_cell_angle_alpha   109.46946126
_cell_angle_beta   109.46946156
_cell_angle_gamma   109.47297935
_symmetry_Int_Tables_number   1
_chemical_formula_structural   Nd3Sm3Zn4Pd13
_chemical_formula_sum   'Nd3 Sm3 Zn4 Pd13'
_cell_volume   452.51228981
_cell_formula_units_Z   1
loop_
 _symmetry_equiv_pos_site_id
 _symmetry_equiv_pos_as_xyz
  1  'x, y, z'
loop_
 _atom_site_type_symbol
 _atom_site_label
 _atom_site_symmetry_multiplicity
 _atom_site_fract_x
 _atom_site_fract_y
 _atom_site_fract_z
 _atom_site_occupancy
  Nd  Nd0  1  0.301335  0.301335  0.000365  1
  Nd  Nd1  1  0.698665  0.000000  0.699030  1
  Nd  Nd2  1  0.000000  0.698665  0.699030  1
  Sm  Sm3  1  0.697885  0.697885  0.000356  1
  Sm  Sm4  1  0.302115  0.000000  0.302470  1
  Sm  Sm5  1  0.000000  0.302115  0.302470  1
  Zn  Zn6  1  0.000000  0.000000  0.498548  1
  Zn  Zn7  1  0.000000  0.500486  0.000017  1
  Zn  Zn8  1  0.500486  0.000000  0.000017  1
  Zn  Zn9  1  0.499514  0.499514  0.499531  1
  Pd  Pd10  1  0.331457  0.331457  0.662242  1
  Pd  Pd11  1  0.668543  0.000000  0.330784  1
  Pd  Pd12  1  0.000000  0.668543  0.330784  1
  Pd  Pd13  1  0.668939  0.332036  0.000267  1
  Pd  Pd14  1  0.331061  0.663097  0.331328  1
  Pd  Pd15  1  0.000000  0.331607  0.667650  1
  Pd  Pd16  1  0.332036  0.668939  0.000267  1
  Pd  Pd17  1  0.331607  0.000000  0.667650  1
  Pd  Pd18  1  0.663097  0.331061  0.331328  1
  Pd  Pd19  1  0.668393  0.668393  0.336043  1
  Pd  Pd20  1  0.667964  0.336903  0.668231  1
  Pd  Pd21  1  0.336903  0.667964  0.668231  1
  Pd  Pd22  1  0.000000  0.000000  0.003361  1
