# generated using pymatgen
data_Cs8MnZn3Cl16
_symmetry_space_group_name_H-M   'P 1'
_cell_length_a   7.50255200
_cell_length_b   9.86039358
_cell_length_c   13.36183200
_cell_angle_alpha   89.91607023
_cell_angle_beta   90.00000000
_cell_angle_gamma   90.00000000
_symmetry_Int_Tables_number   1
_chemical_formula_structural   Cs8MnZn3Cl16
_chemical_formula_sum   'Cs8 Mn1 Zn3 Cl16'
_cell_volume   988.48209136
_cell_formula_units_Z   1
loop_
 _symmetry_equiv_pos_site_id
 _symmetry_equiv_pos_as_xyz
  1  'x, y, z'
loop_
 _atom_site_type_symbol
 _atom_site_label
 _atom_site_symmetry_multiplicity
 _atom_site_fract_x
 _atom_site_fract_y
 _atom_site_fract_z
 _atom_site_occupancy
  Cs  Cs0  1  0.250000  0.984576  0.172892  1
  Cs  Cs1  1  0.750000  0.017525  0.828177  1
  Cs  Cs2  1  0.750000  0.515054  0.674367  1
  Cs  Cs3  1  0.250000  0.482717  0.324487  1
  Cs  Cs4  1  0.250000  0.636701  0.915947  1
  Cs  Cs5  1  0.750000  0.363288  0.086555  1
  Cs  Cs6  1  0.750000  0.865280  0.411644  1
  Cs  Cs7  1  0.250000  0.135226  0.586790  1
  Mn  Mn8  1  0.250000  0.731288  0.577465  1
  Zn  Zn9  1  0.750000  0.267522  0.422398  1
  Zn  Zn10  1  0.750000  0.766264  0.077553  1
  Zn  Zn11  1  0.250000  0.233695  0.922182  1
  Cl  Cl12  1  0.996833  0.822575  0.654595  1
  Cl  Cl13  1  0.998121  0.180066  0.346935  1
  Cl  Cl14  1  0.998855  0.679261  0.152339  1
  Cl  Cl15  1  0.501879  0.180066  0.346935  1
  Cl  Cl16  1  0.001244  0.321381  0.847890  1
  Cl  Cl17  1  0.503167  0.822575  0.654595  1
  Cl  Cl18  1  0.498756  0.321381  0.847890  1
  Cl  Cl19  1  0.501145  0.679261  0.152339  1
  Cl  Cl20  1  0.250000  0.494231  0.590000  1
  Cl  Cl21  1  0.750000  0.498102  0.409518  1
  Cl  Cl22  1  0.750000  0.996674  0.091918  1
  Cl  Cl23  1  0.250000  0.003292  0.908834  1
  Cl  Cl24  1  0.250000  0.316606  0.083344  1
  Cl  Cl25  1  0.750000  0.683591  0.916623  1
  Cl  Cl26  1  0.750000  0.184286  0.583443  1
  Cl  Cl27  1  0.250000  0.817517  0.412349  1
