# generated using pymatgen
data_CePr11Mn2Br17
_symmetry_space_group_name_H-M   'P 1'
_cell_length_a   9.56046192
_cell_length_b   11.63990403
_cell_length_c   11.60362600
_cell_angle_alpha   74.06760967
_cell_angle_beta   75.59683325
_cell_angle_gamma   65.69157987
_symmetry_Int_Tables_number   1
_chemical_formula_structural   CePr11Mn2Br17
_chemical_formula_sum   'Ce1 Pr11 Mn2 Br17'
_cell_volume   1117.93928795
_cell_formula_units_Z   1
loop_
 _symmetry_equiv_pos_site_id
 _symmetry_equiv_pos_as_xyz
  1  'x, y, z'
loop_
 _atom_site_type_symbol
 _atom_site_label
 _atom_site_symmetry_multiplicity
 _atom_site_fract_x
 _atom_site_fract_y
 _atom_site_fract_z
 _atom_site_occupancy
  Ce  Ce0  1  0.159870  0.715975  0.149689  1
  Pr  Pr1  1  0.457833  0.469855  0.323282  1
  Pr  Pr2  1  0.569390  0.673753  0.994973  1
  Pr  Pr3  1  0.256723  0.004040  0.105118  1
  Pr  Pr4  1  0.873282  0.289491  0.852702  1
  Pr  Pr5  1  0.403112  0.239006  0.714823  1
  Pr  Pr6  1  0.735695  0.005957  0.895701  1
  Pr  Pr7  1  0.544046  0.516354  0.677582  1
  Pr  Pr8  1  0.448348  0.327454  0.995928  1
  Pr  Pr9  1  0.584024  0.758956  0.284261  1
  Pr  Pr10  1  0.828288  0.194150  0.579879  1
  Pr  Pr11  1  0.154512  0.807209  0.432460  1
  Mn  Mn12  1  0.340423  0.735370  0.206016  1
  Mn  Mn13  1  0.637591  0.261799  0.788824  1
  Br  Br14  1  0.054408  0.091021  0.329437  1
  Br  Br15  1  0.461951  0.953385  0.851985  1
  Br  Br16  1  0.413914  0.814965  0.527734  1
  Br  Br17  1  0.577811  0.182918  0.467860  1
  Br  Br18  1  0.838913  0.705151  0.059667  1
  Br  Br19  1  0.222300  0.428372  0.237311  1
  Br  Br20  1  0.687837  0.378600  0.097650  1
  Br  Br21  1  0.529176  0.044510  0.152978  1
  Br  Br22  1  0.726082  0.477885  0.418617  1
  Br  Br23  1  0.892947  0.780912  0.358253  1
  Br  Br24  1  0.945709  0.905667  0.675481  1
  Br  Br25  1  0.168039  0.293012  0.951414  1
  Br  Br26  1  0.329214  0.626453  0.902376  1
  Br  Br27  1  0.003012  0.999888  0.001928  1
  Br  Br28  1  0.108187  0.218718  0.634683  1
  Br  Br29  1  0.780238  0.577841  0.756696  1
  Br  Br30  1  0.267127  0.521331  0.574691  1
