# generated using pymatgen
data_Dy5Y(Er2Sb3)2
_symmetry_space_group_name_H-M   'P 1'
_cell_length_a   6.25126200
_cell_length_b   8.97787892
_cell_length_c   8.97848100
_cell_angle_alpha   120.00295106
_cell_angle_beta   89.99992504
_cell_angle_gamma   90.00081570
_symmetry_Int_Tables_number   1
_chemical_formula_structural   Dy5Y(Er2Sb3)2
_chemical_formula_sum   'Dy5 Y1 Er4 Sb6'
_cell_volume   436.37717808
_cell_formula_units_Z   1
loop_
 _symmetry_equiv_pos_site_id
 _symmetry_equiv_pos_as_xyz
  1  'x, y, z'
loop_
 _atom_site_type_symbol
 _atom_site_label
 _atom_site_symmetry_multiplicity
 _atom_site_fract_x
 _atom_site_fract_y
 _atom_site_fract_z
 _atom_site_occupancy
  Dy  Dy0  1  0.750005  0.247412  0.000053  1
  Dy  Dy1  1  0.750005  0.752642  0.752674  1
  Dy  Dy2  1  0.750004  0.000019  0.247309  1
  Dy  Dy3  1  0.250002  0.752622  0.000032  1
  Dy  Dy4  1  0.250001  0.247328  0.247375  1
  Y  Y5  1  0.250004  0.999983  0.752694  1
  Er  Er6  1  0.500034  0.333350  0.666678  1
  Er  Er7  1  0.500036  0.666644  0.333310  1
  Er  Er8  1  0.999949  0.666638  0.333303  1
  Er  Er9  1  0.999943  0.333357  0.666670  1
  Sb  Sb10  1  0.750003  0.611063  0.999976  1
  Sb  Sb11  1  0.750004  0.388960  0.388931  1
  Sb  Sb12  1  0.750005  0.000002  0.611022  1
  Sb  Sb13  1  0.250000  0.388961  0.000013  1
  Sb  Sb14  1  0.250004  0.611019  0.611033  1
  Sb  Sb15  1  0.250004  0.000000  0.388927  1
