# generated using pymatgen
data_Eu6AuO12
_symmetry_space_group_name_H-M   'P 1'
_cell_length_a   6.61853495
_cell_length_b   6.61853486
_cell_length_c   6.61853435
_cell_angle_alpha   98.65231430
_cell_angle_beta   98.65230855
_cell_angle_gamma   98.65230798
_symmetry_Int_Tables_number   1
_chemical_formula_structural   Eu6AuO12
_chemical_formula_sum   'Eu6 Au1 O12'
_cell_volume   278.88546331
_cell_formula_units_Z   1
loop_
 _symmetry_equiv_pos_site_id
 _symmetry_equiv_pos_as_xyz
  1  'x, y, z'
loop_
 _atom_site_type_symbol
 _atom_site_label
 _atom_site_symmetry_multiplicity
 _atom_site_fract_x
 _atom_site_fract_y
 _atom_site_fract_z
 _atom_site_occupancy
  Eu  Eu0  1  0.137925  0.298460  0.603759  1
  Eu  Eu1  1  0.396241  0.862075  0.701540  1
  Eu  Eu2  1  0.701540  0.396241  0.862075  1
  Eu  Eu3  1  0.298460  0.603759  0.137925  1
  Eu  Eu4  1  0.603759  0.137925  0.298460  1
  Eu  Eu5  1  0.862075  0.701540  0.396241  1
  Au  Au6  1  0.000000  0.000000  0.000000  1
  O  O7  1  0.056967  0.304139  0.955875  1
  O  O8  1  0.044125  0.943033  0.695861  1
  O  O9  1  0.407371  0.563319  0.823235  1
  O  O10  1  0.176765  0.592629  0.436681  1
  O  O11  1  0.695861  0.044125  0.943033  1
  O  O12  1  0.436681  0.176765  0.592629  1
  O  O13  1  0.563319  0.823235  0.407371  1
  O  O14  1  0.304139  0.955875  0.056967  1
  O  O15  1  0.823235  0.407371  0.563319  1
  O  O16  1  0.592629  0.436681  0.176765  1
  O  O17  1  0.955875  0.056967  0.304139  1
  O  O18  1  0.943033  0.695861  0.044125  1
