# generated using pymatgen
data_Ca11Ho(SiIr)8
_symmetry_space_group_name_H-M   'P 1'
_cell_length_a   5.82258800
_cell_length_b   7.65550199
_cell_length_c   13.37088500
_cell_angle_alpha   90.00000000
_cell_angle_beta   90.00000000
_cell_angle_gamma   90.05060110
_symmetry_Int_Tables_number   1
_chemical_formula_structural   Ca11Ho(SiIr)8
_chemical_formula_sum   'Ca11 Ho1 Si8 Ir8'
_cell_volume   596.00474681
_cell_formula_units_Z   1
loop_
 _symmetry_equiv_pos_site_id
 _symmetry_equiv_pos_as_xyz
  1  'x, y, z'
loop_
 _atom_site_type_symbol
 _atom_site_label
 _atom_site_symmetry_multiplicity
 _atom_site_fract_x
 _atom_site_fract_y
 _atom_site_fract_z
 _atom_site_occupancy
  Ca  Ca0  1  0.132026  0.610007  0.100773  1
  Ca  Ca1  1  0.131844  0.892494  0.900041  1
  Ca  Ca2  1  0.868815  0.109655  0.398328  1
  Ca  Ca3  1  0.870494  0.386587  0.600822  1
  Ca  Ca4  1  0.870494  0.386587  0.899178  1
  Ca  Ca5  1  0.868815  0.109655  0.101672  1
  Ca  Ca6  1  0.131844  0.892494  0.599959  1
  Ca  Ca7  1  0.132026  0.610007  0.399227  1
  Ca  Ca8  1  0.367420  0.274302  0.250000  1
  Ca  Ca9  1  0.368537  0.231684  0.750000  1
  Ca  Ca10  1  0.633055  0.773623  0.250000  1
  Ho  Ho11  1  0.622188  0.727163  0.750000  1
  Si  Si12  1  0.838439  0.425246  0.250000  1
  Si  Si13  1  0.837285  0.073471  0.750000  1
  Si  Si14  1  0.163095  0.924305  0.250000  1
  Si  Si15  1  0.149933  0.584707  0.750000  1
  Si  Si16  1  0.420721  0.249088  0.998259  1
  Si  Si17  1  0.580006  0.748731  0.499879  1
  Si  Si18  1  0.580006  0.748731  0.000121  1
  Si  Si19  1  0.420721  0.249088  0.501741  1
  Ir  Ir20  1  0.637931  0.475173  0.090025  1
  Ir  Ir21  1  0.638264  0.018211  0.907340  1
  Ir  Ir22  1  0.364383  0.976107  0.408807  1
  Ir  Ir23  1  0.365539  0.526699  0.593663  1
  Ir  Ir24  1  0.365539  0.526699  0.906337  1
  Ir  Ir25  1  0.364383  0.976107  0.091193  1
  Ir  Ir26  1  0.638264  0.018211  0.592660  1
  Ir  Ir27  1  0.637931  0.475173  0.409975  1
