# generated using pymatgen
data_ThGaTc4Ge
_symmetry_space_group_name_H-M   'P 1'
_cell_length_a   4.17998500
_cell_length_b   7.29266900
_cell_length_c   15.73875200
_cell_angle_alpha   90.00000000
_cell_angle_beta   90.00000000
_cell_angle_gamma   90.00000000
_symmetry_Int_Tables_number   1
_chemical_formula_structural   ThGaTc4Ge
_chemical_formula_sum   'Th4 Ga4 Tc16 Ge4'
_cell_volume   479.76826516
_cell_formula_units_Z   4
loop_
 _symmetry_equiv_pos_site_id
 _symmetry_equiv_pos_as_xyz
  1  'x, y, z'
loop_
 _atom_site_type_symbol
 _atom_site_label
 _atom_site_symmetry_multiplicity
 _atom_site_fract_x
 _atom_site_fract_y
 _atom_site_fract_z
 _atom_site_occupancy
  Th  Th0  1  0.000000  0.590921  0.119242  1
  Th  Th1  1  0.000000  0.409079  0.880758  1
  Th  Th2  1  0.500000  0.090921  0.380758  1
  Th  Th3  1  0.500000  0.909079  0.619242  1
  Ga  Ga4  1  0.000000  0.300385  0.270489  1
  Ga  Ga5  1  0.000000  0.699615  0.729511  1
  Ga  Ga6  1  0.500000  0.800385  0.229511  1
  Ga  Ga7  1  0.500000  0.199615  0.770489  1
  Tc  Tc8  1  0.000000  0.137172  0.052563  1
  Tc  Tc9  1  0.000000  0.862828  0.947437  1
  Tc  Tc10  1  0.500000  0.637172  0.447437  1
  Tc  Tc11  1  0.500000  0.362828  0.552563  1
  Tc  Tc12  1  0.000000  0.728920  0.320719  1
  Tc  Tc13  1  0.000000  0.271080  0.679281  1
  Tc  Tc14  1  0.500000  0.228920  0.179281  1
  Tc  Tc15  1  0.500000  0.771080  0.820719  1
  Tc  Tc16  1  0.000000  0.435614  0.421312  1
  Tc  Tc17  1  0.000000  0.564386  0.578688  1
  Tc  Tc18  1  0.500000  0.935614  0.078688  1
  Tc  Tc19  1  0.500000  0.064386  0.921312  1
  Tc  Tc20  1  0.000000  0.989297  0.202221  1
  Tc  Tc21  1  0.000000  0.010703  0.797779  1
  Tc  Tc22  1  0.500000  0.489297  0.297779  1
  Tc  Tc23  1  0.500000  0.510703  0.702221  1
  Ge  Ge24  1  0.000000  0.830397  0.474399  1
  Ge  Ge25  1  0.000000  0.169603  0.525601  1
  Ge  Ge26  1  0.500000  0.330397  0.025601  1
  Ge  Ge27  1  0.500000  0.669603  0.974399  1
