# generated using pymatgen
data_Sr8Zn4Ir3WO24
_symmetry_space_group_name_H-M   'P 1'
_cell_length_a   8.00296350
_cell_length_b   8.03939395
_cell_length_c   8.04441253
_cell_angle_alpha   90.01394312
_cell_angle_beta   89.77834928
_cell_angle_gamma   89.91798372
_symmetry_Int_Tables_number   1
_chemical_formula_structural   Sr8Zn4Ir3WO24
_chemical_formula_sum   'Sr8 Zn4 Ir3 W1 O24'
_cell_volume   517.56484815
_cell_formula_units_Z   1
loop_
 _symmetry_equiv_pos_site_id
 _symmetry_equiv_pos_as_xyz
  1  'x, y, z'
loop_
 _atom_site_type_symbol
 _atom_site_label
 _atom_site_symmetry_multiplicity
 _atom_site_fract_x
 _atom_site_fract_y
 _atom_site_fract_z
 _atom_site_occupancy
  Sr  Sr0  1  0.751745  0.483502  0.487483  1
  Sr  Sr1  1  0.250059  0.513700  0.512685  1
  Sr  Sr2  1  0.754237  0.990730  0.486205  1
  Sr  Sr3  1  0.250756  0.012128  0.519908  1
  Sr  Sr4  1  0.748976  0.487346  0.979805  1
  Sr  Sr5  1  0.245915  0.509808  0.014203  1
  Sr  Sr6  1  0.248296  0.019249  0.012610  1
  Sr  Sr7  1  0.750314  0.983486  0.987107  1
  Zn  Zn8  1  0.999811  0.249742  0.750252  1
  Zn  Zn9  1  0.000097  0.750310  0.249708  1
  Zn  Zn10  1  0.500398  0.250230  0.250097  1
  Zn  Zn11  1  0.499701  0.749689  0.749915  1
  Ir  Ir12  1  0.999844  0.250569  0.250403  1
  Ir  Ir13  1  0.000175  0.749470  0.749575  1
  Ir  Ir14  1  0.500130  0.249552  0.750168  1
  W  W15  1  0.499817  0.750465  0.249834  1
  O  O16  1  0.963945  0.011479  0.217697  1
  O  O17  1  0.034193  0.989534  0.782863  1
  O  O18  1  0.031814  0.280432  0.009694  1
  O  O19  1  0.966113  0.718301  0.989139  1
  O  O20  1  0.035864  0.489726  0.282747  1
  O  O21  1  0.966035  0.509351  0.716645  1
  O  O22  1  0.968010  0.220470  0.490912  1
  O  O23  1  0.033918  0.780921  0.510184  1
  O  O24  1  0.759929  0.290708  0.224561  1
  O  O25  1  0.240316  0.710765  0.775681  1
  O  O26  1  0.741219  0.220885  0.785907  1
  O  O27  1  0.259237  0.775799  0.216169  1
  O  O28  1  0.759784  0.787215  0.722873  1
  O  O29  1  0.239990  0.211384  0.276831  1
  O  O30  1  0.530177  0.990431  0.223985  1
  O  O31  1  0.465807  0.009968  0.780333  1
  O  O32  1  0.466478  0.282039  0.989634  1
  O  O33  1  0.530852  0.722513  0.009917  1
  O  O34  1  0.533312  0.217821  0.510748  1
  O  O35  1  0.469108  0.777476  0.489796  1
  O  O36  1  0.469682  0.510412  0.275764  1
  O  O37  1  0.534429  0.489055  0.719931  1
  O  O38  1  0.740699  0.726041  0.282873  1
  O  O39  1  0.258820  0.277299  0.715159  1
