# generated using pymatgen
data_LuOs3Pb4O13
_symmetry_space_group_name_H-M   'P 1'
_cell_length_a   7.56661617
_cell_length_b   7.56661524
_cell_length_c   7.56661400
_cell_angle_alpha   58.52114829
_cell_angle_beta   58.52115263
_cell_angle_gamma   58.52115099
_symmetry_Int_Tables_number   1
_chemical_formula_structural   LuOs3Pb4O13
_chemical_formula_sum   'Lu1 Os3 Pb4 O13'
_cell_volume   295.96837940
_cell_formula_units_Z   1
loop_
 _symmetry_equiv_pos_site_id
 _symmetry_equiv_pos_as_xyz
  1  'x, y, z'
loop_
 _atom_site_type_symbol
 _atom_site_label
 _atom_site_symmetry_multiplicity
 _atom_site_fract_x
 _atom_site_fract_y
 _atom_site_fract_z
 _atom_site_occupancy
  Lu  Lu0  1  0.501460  0.501460  0.501460  1
  Os  Os1  1  0.000724  0.501210  0.501210  1
  Os  Os2  1  0.501210  0.501210  0.000724  1
  Os  Os3  1  0.501210  0.000724  0.501210  1
  Pb  Pb4  1  0.997641  0.997641  0.997641  1
  Pb  Pb5  1  0.503555  0.003443  0.003443  1
  Pb  Pb6  1  0.003443  0.003443  0.503555  1
  Pb  Pb7  1  0.003443  0.503555  0.003443  1
  O  O8  1  0.862210  0.410158  0.410158  1
  O  O9  1  0.422989  0.803605  0.803605  1
  O  O10  1  0.410158  0.410158  0.862210  1
  O  O11  1  0.803605  0.803605  0.422989  1
  O  O12  1  0.803605  0.422989  0.803605  1
  O  O13  1  0.410158  0.862210  0.410158  1
  O  O14  1  0.149156  0.582298  0.582298  1
  O  O15  1  0.585673  0.190576  0.190576  1
  O  O16  1  0.582298  0.582298  0.149156  1
  O  O17  1  0.190576  0.190576  0.585673  1
  O  O18  1  0.190576  0.585673  0.190576  1
  O  O19  1  0.582298  0.149156  0.582298  1
  O  O20  1  0.119010  0.119010  0.119010  1
