# generated using pymatgen
data_Yb5BiPd2
_symmetry_space_group_name_H-M   'P 1'
_cell_length_a   9.18365079
_cell_length_b   9.18365125
_cell_length_c   9.18365112
_cell_angle_alpha   129.59387437
_cell_angle_beta   129.59387921
_cell_angle_gamma   74.05686105
_symmetry_Int_Tables_number   1
_chemical_formula_structural   Yb5BiPd2
_chemical_formula_sum   'Yb10 Bi2 Pd4'
_cell_volume   448.49742172
_cell_formula_units_Z   2
loop_
 _symmetry_equiv_pos_site_id
 _symmetry_equiv_pos_as_xyz
  1  'x, y, z'
loop_
 _atom_site_type_symbol
 _atom_site_label
 _atom_site_symmetry_multiplicity
 _atom_site_fract_x
 _atom_site_fract_y
 _atom_site_fract_z
 _atom_site_occupancy
  Yb  Yb0  1  0.000000  0.000000  0.000000  1
  Yb  Yb1  1  0.500000  0.500000  0.000000  1
  Yb  Yb2  1  0.796467  0.296467  0.831183  1
  Yb  Yb3  1  0.203533  0.703533  0.168817  1
  Yb  Yb4  1  0.465284  0.965284  0.168817  1
  Yb  Yb5  1  0.296467  0.465284  0.500000  1
  Yb  Yb6  1  0.034716  0.203533  0.500000  1
  Yb  Yb7  1  0.534716  0.034716  0.831183  1
  Yb  Yb8  1  0.703533  0.534716  0.500000  1
  Yb  Yb9  1  0.965284  0.796467  0.500000  1
  Bi  Bi10  1  0.250000  0.250000  0.000000  1
  Bi  Bi11  1  0.750000  0.750000  0.000000  1
  Pd  Pd12  1  0.129706  0.629706  0.759411  1
  Pd  Pd13  1  0.870294  0.370294  0.240589  1
  Pd  Pd14  1  0.629706  0.870294  0.500000  1
  Pd  Pd15  1  0.370294  0.129706  0.500000  1
