# generated using pymatgen
data_U2ZnF12
_symmetry_space_group_name_H-M   'P 1'
_cell_length_a   5.85145817
_cell_length_b   11.69550230
_cell_length_c   5.88302600
_cell_angle_alpha   56.83610366
_cell_angle_beta   56.99554615
_cell_angle_gamma   56.72477711
_symmetry_Int_Tables_number   1
_chemical_formula_structural   U2ZnF12
_chemical_formula_sum   'U2 Zn1 F12'
_cell_volume   264.00610819
_cell_formula_units_Z   1
loop_
 _symmetry_equiv_pos_site_id
 _symmetry_equiv_pos_as_xyz
  1  'x, y, z'
loop_
 _atom_site_type_symbol
 _atom_site_label
 _atom_site_symmetry_multiplicity
 _atom_site_fract_x
 _atom_site_fract_y
 _atom_site_fract_z
 _atom_site_occupancy
  U  U0  1  0.499759  0.243817  0.509446  1
  U  U1  1  0.500241  0.756183  0.490554  1
  Zn  Zn2  1  0.000000  0.500000  0.000000  1
  F  F3  1  0.131338  0.195933  0.738253  1
  F  F4  1  0.146272  0.671625  0.754946  1
  F  F5  1  0.345829  0.379979  0.144570  1
  F  F6  1  0.385163  0.869318  0.135151  1
  F  F7  1  0.742715  0.068277  0.383281  1
  F  F8  1  0.753814  0.570449  0.348770  1
  F  F9  1  0.246186  0.429551  0.651230  1
  F  F10  1  0.257285  0.931723  0.616719  1
  F  F11  1  0.614837  0.130682  0.864849  1
  F  F12  1  0.654171  0.620021  0.855430  1
  F  F13  1  0.853728  0.328375  0.245054  1
  F  F14  1  0.868662  0.804067  0.261747  1
