# generated using pymatgen
data_Hf6ZnAuN2
_symmetry_space_group_name_H-M   'P 1'
_cell_length_a   5.93080758
_cell_length_b   5.93080836
_cell_length_c   8.88284600
_cell_angle_alpha   90.00000000
_cell_angle_beta   90.00000000
_cell_angle_gamma   147.40195103
_symmetry_Int_Tables_number   1
_chemical_formula_structural   Hf6ZnAuN2
_chemical_formula_sum   'Hf6 Zn1 Au1 N2'
_cell_volume   168.32970853
_cell_formula_units_Z   1
loop_
 _symmetry_equiv_pos_site_id
 _symmetry_equiv_pos_as_xyz
  1  'x, y, z'
loop_
 _atom_site_type_symbol
 _atom_site_label
 _atom_site_symmetry_multiplicity
 _atom_site_fract_x
 _atom_site_fract_y
 _atom_site_fract_z
 _atom_site_occupancy
  Hf  Hf0  1  0.627402  0.372598  0.956820  1
  Hf  Hf1  1  0.373709  0.626291  0.450891  1
  Hf  Hf2  1  0.373709  0.626291  0.049109  1
  Hf  Hf3  1  0.627402  0.372598  0.543180  1
  Hf  Hf4  1  0.956975  0.043025  0.750000  1
  Hf  Hf5  1  0.047032  0.952968  0.250000  1
  Zn  Zn6  1  0.745109  0.254891  0.250000  1
  Au  Au7  1  0.250996  0.749004  0.750000  1
  N  N8  1  0.998833  0.001167  0.000812  1
  N  N9  1  0.998833  0.001167  0.499188  1
