# generated using pymatgen
data_CaMgPd3O8
_symmetry_space_group_name_H-M   'P 1'
_cell_length_a   6.16129027
_cell_length_b   10.67301444
_cell_length_c   6.54347407
_cell_angle_alpha   105.77777901
_cell_angle_beta   61.91116759
_cell_angle_gamma   89.99984565
_symmetry_Int_Tables_number   1
_chemical_formula_structural   CaMgPd3O8
_chemical_formula_sum   'Ca2 Mg2 Pd6 O16'
_cell_volume   361.13477523
_cell_formula_units_Z   2
loop_
 _symmetry_equiv_pos_site_id
 _symmetry_equiv_pos_as_xyz
  1  'x, y, z'
loop_
 _atom_site_type_symbol
 _atom_site_label
 _atom_site_symmetry_multiplicity
 _atom_site_fract_x
 _atom_site_fract_y
 _atom_site_fract_z
 _atom_site_occupancy
  Ca  Ca0  1  0.750021  0.749992  0.499955  1
  Ca  Ca1  1  0.250030  0.249991  0.499947  1
  Mg  Mg2  1  0.500007  0.499997  0.999986  1
  Mg  Mg3  1  0.000008  0.999998  0.999986  1
  Pd  Pd4  1  0.749952  0.750015  0.999996  1
  Pd  Pd5  1  0.750051  0.250017  0.000001  1
  Pd  Pd6  1  0.000001  0.499968  0.999999  1
  Pd  Pd7  1  0.249948  0.250017  0.000001  1
  Pd  Pd8  1  0.250053  0.750015  0.999996  1
  Pd  Pd9  1  0.500002  0.999967  0.999997  1
  O  O10  1  0.091093  0.636297  0.817842  1
  O  O11  1  0.591083  0.136297  0.817865  1
  O  O12  1  0.408778  0.863748  0.182412  1
  O  O13  1  0.908767  0.363748  0.182436  1
  O  O14  1  0.356405  0.881192  0.806486  1
  O  O15  1  0.856404  0.381193  0.806486  1
  O  O16  1  0.903253  0.859142  0.193477  1
  O  O17  1  0.403251  0.359145  0.193479  1
  O  O18  1  0.143636  0.618794  0.193445  1
  O  O19  1  0.643636  0.118794  0.193445  1
  O  O20  1  0.662903  0.618799  0.193457  1
  O  O21  1  0.162903  0.118800  0.193458  1
  O  O22  1  0.837125  0.881187  0.806475  1
  O  O23  1  0.337126  0.381188  0.806474  1
  O  O24  1  0.596784  0.640847  0.806452  1
  O  O25  1  0.096783  0.140851  0.806454  1
