# generated using pymatgen
data_Tb2NdEuY3RhI12
_symmetry_space_group_name_H-M   'P 1'
_cell_length_a   9.86300619
_cell_length_b   9.90119463
_cell_length_c   9.86389228
_cell_angle_alpha   106.38131641
_cell_angle_beta   106.69505021
_cell_angle_gamma   106.40878980
_symmetry_Int_Tables_number   1
_chemical_formula_structural   Tb2NdEuY3RhI12
_chemical_formula_sum   'Tb2 Nd1 Eu1 Y3 Rh1 I12'
_cell_volume   813.00645857
_cell_formula_units_Z   1
loop_
 _symmetry_equiv_pos_site_id
 _symmetry_equiv_pos_as_xyz
  1  'x, y, z'
loop_
 _atom_site_type_symbol
 _atom_site_label
 _atom_site_symmetry_multiplicity
 _atom_site_fract_x
 _atom_site_fract_y
 _atom_site_fract_z
 _atom_site_occupancy
  Tb  Tb0  1  0.020186  0.298591  0.092028  1
  Tb  Tb1  1  0.299578  0.094579  0.020200  1
  Nd  Nd2  1  0.092158  0.019026  0.294871  1
  Eu  Eu3  1  0.500219  0.500560  0.499703  1
  Y  Y4  1  0.909322  0.980552  0.711906  1
  Y  Y5  1  0.977926  0.699387  0.904307  1
  Y  Y6  1  0.699110  0.904436  0.979107  1
  Rh  Rh7  1  0.999895  0.999419  0.000426  1
  I  I8  1  0.553008  0.860835  0.630494  1
  I  I9  1  0.860169  0.632187  0.551650  1
  I  I10  1  0.630175  0.551049  0.860348  1
  I  I11  1  0.455663  0.144175  0.370805  1
  I  I12  1  0.141568  0.376013  0.449500  1
  I  I13  1  0.370014  0.448759  0.139112  1
  I  I14  1  0.676440  0.223121  0.074258  1
  I  I15  1  0.224149  0.075744  0.681120  1
  I  I16  1  0.074525  0.670688  0.220621  1
  I  I17  1  0.324084  0.775735  0.924764  1
  I  I18  1  0.767924  0.922825  0.321688  1
  I  I19  1  0.923885  0.322318  0.773092  1
