# generated using pymatgen
data_Gd7Er13(Sn3Pb5)2
_symmetry_space_group_name_H-M   'P 1'
_cell_length_a   8.31743719
_cell_length_b   15.87487726
_cell_length_c   8.37109100
_cell_angle_alpha   90.01095756
_cell_angle_beta   89.98789667
_cell_angle_gamma   90.06422823
_symmetry_Int_Tables_number   1
_chemical_formula_structural   Gd7Er13(Sn3Pb5)2
_chemical_formula_sum   'Gd7 Er13 Sn6 Pb10'
_cell_volume   1105.30383921
_cell_formula_units_Z   1
loop_
 _symmetry_equiv_pos_site_id
 _symmetry_equiv_pos_as_xyz
  1  'x, y, z'
loop_
 _atom_site_type_symbol
 _atom_site_label
 _atom_site_symmetry_multiplicity
 _atom_site_fract_x
 _atom_site_fract_y
 _atom_site_fract_z
 _atom_site_occupancy
  Gd  Gd0  1  0.963131  0.894499  0.824641  1
  Gd  Gd1  1  0.535096  0.099792  0.326239  1
  Gd  Gd2  1  0.035908  0.400611  0.173474  1
  Gd  Gd3  1  0.534935  0.400860  0.326536  1
  Gd  Gd4  1  0.034910  0.099704  0.173880  1
  Gd  Gd5  1  0.463505  0.895220  0.675526  1
  Gd  Gd6  1  0.963550  0.604119  0.824250  1
  Er  Er7  1  0.623844  0.624152  0.159236  1
  Er  Er8  1  0.124401  0.875052  0.340674  1
  Er  Er9  1  0.376380  0.122802  0.838890  1
  Er  Er10  1  0.877086  0.377931  0.661209  1
  Er  Er11  1  0.377344  0.378378  0.838673  1
  Er  Er12  1  0.876242  0.122873  0.661258  1
  Er  Er13  1  0.624280  0.874507  0.159033  1
  Er  Er14  1  0.123741  0.624288  0.341111  1
  Er  Er15  1  0.459818  0.606921  0.672853  1
  Er  Er16  1  0.789835  0.749231  0.496549  1
  Er  Er17  1  0.290453  0.749396  0.003393  1
  Er  Er18  1  0.211566  0.250568  0.508520  1
  Er  Er19  1  0.711356  0.250217  0.991601  1
  Sn  Sn20  1  0.427860  0.749216  0.372294  1
  Sn  Sn21  1  0.928308  0.749368  0.128465  1
  Sn  Sn22  1  0.572778  0.250443  0.628010  1
  Sn  Sn23  1  0.072938  0.250493  0.871715  1
  Sn  Sn24  1  0.653302  0.748193  0.850769  1
  Sn  Sn25  1  0.155649  0.749348  0.647918  1
  Pb  Pb26  1  0.715376  0.457923  0.966022  1
  Pb  Pb27  1  0.214114  0.042083  0.534904  1
  Pb  Pb28  1  0.285335  0.956228  0.034204  1
  Pb  Pb29  1  0.781362  0.543782  0.468937  1
  Pb  Pb30  1  0.285690  0.543682  0.032669  1
  Pb  Pb31  1  0.785193  0.956248  0.465438  1
  Pb  Pb32  1  0.714390  0.041705  0.965151  1
  Pb  Pb33  1  0.216481  0.459561  0.535893  1
  Pb  Pb34  1  0.346746  0.250233  0.150419  1
  Pb  Pb35  1  0.847095  0.250371  0.349648  1
