# generated using pymatgen
data_Ho2Tm6Ga3Fe
_symmetry_space_group_name_H-M   'P 1'
_cell_length_a   9.84997166
_cell_length_b   9.84998844
_cell_length_c   6.89493457
_cell_angle_alpha   90.04039347
_cell_angle_beta   89.95946914
_cell_angle_gamma   119.98940176
_symmetry_Int_Tables_number   1
_chemical_formula_structural   Ho2Tm6Ga3Fe
_chemical_formula_sum   'Ho4 Tm12 Ga6 Fe2'
_cell_volume   579.39895685
_cell_formula_units_Z   2
loop_
 _symmetry_equiv_pos_site_id
 _symmetry_equiv_pos_as_xyz
  1  'x, y, z'
loop_
 _atom_site_type_symbol
 _atom_site_label
 _atom_site_symmetry_multiplicity
 _atom_site_fract_x
 _atom_site_fract_y
 _atom_site_fract_z
 _atom_site_occupancy
  Ho  Ho0  1  0.927620  0.463952  0.707425  1
  Ho  Ho1  1  0.536047  0.072380  0.707425  1
  Ho  Ho2  1  0.000056  0.999945  0.231218  1
  Ho  Ho3  1  0.000039  0.999961  0.731463  1
  Tm  Tm4  1  0.173748  0.826251  0.510239  1
  Tm  Tm5  1  0.652248  0.825912  0.510531  1
  Tm  Tm6  1  0.174088  0.347752  0.510530  1
  Tm  Tm7  1  0.826546  0.173454  0.011444  1
  Tm  Tm8  1  0.347371  0.173871  0.011188  1
  Tm  Tm9  1  0.826129  0.652630  0.011188  1
  Tm  Tm10  1  0.333547  0.666453  0.829691  1
  Tm  Tm11  1  0.666523  0.333478  0.328661  1
  Tm  Tm12  1  0.463302  0.536699  0.207058  1
  Tm  Tm13  1  0.073494  0.536762  0.207283  1
  Tm  Tm14  1  0.463239  0.926506  0.207283  1
  Tm  Tm15  1  0.536321  0.463680  0.707082  1
  Ga  Ga16  1  0.163929  0.836071  0.959052  1
  Ga  Ga17  1  0.672040  0.835978  0.959052  1
  Ga  Ga18  1  0.164022  0.327960  0.959053  1
  Ga  Ga19  1  0.836216  0.163784  0.458510  1
  Ga  Ga20  1  0.327747  0.164064  0.458713  1
  Ga  Ga21  1  0.835935  0.672253  0.458714  1
  Fe  Fe22  1  0.333317  0.666683  0.445327  1
  Fe  Fe23  1  0.666477  0.333522  0.945904  1
