# generated using pymatgen
data_RbSrWN3
_symmetry_space_group_name_H-M   'P 1'
_cell_length_a   6.65835142
_cell_length_b   6.65835094
_cell_length_c   12.88014817
_cell_angle_alpha   90.06746829
_cell_angle_beta   90.06747172
_cell_angle_gamma   125.00262359
_symmetry_Int_Tables_number   1
_chemical_formula_structural   RbSrWN3
_chemical_formula_sum   'Rb4 Sr4 W4 N12'
_cell_volume   467.73884110
_cell_formula_units_Z   4
loop_
 _symmetry_equiv_pos_site_id
 _symmetry_equiv_pos_as_xyz
  1  'x, y, z'
loop_
 _atom_site_type_symbol
 _atom_site_label
 _atom_site_symmetry_multiplicity
 _atom_site_fract_x
 _atom_site_fract_y
 _atom_site_fract_z
 _atom_site_occupancy
  Rb  Rb0  1  0.967454  0.545054  0.361431  1
  Rb  Rb1  1  0.454946  0.032546  0.138569  1
  Rb  Rb2  1  0.032546  0.454946  0.638569  1
  Rb  Rb3  1  0.545054  0.967454  0.861431  1
  Sr  Sr4  1  0.130524  0.344561  0.079896  1
  Sr  Sr5  1  0.655439  0.869476  0.420104  1
  Sr  Sr6  1  0.869476  0.655439  0.920104  1
  Sr  Sr7  1  0.344561  0.130524  0.579896  1
  W  W8  1  0.771330  0.724178  0.164990  1
  W  W9  1  0.275822  0.228670  0.335010  1
  W  W10  1  0.228670  0.275822  0.835010  1
  W  W11  1  0.724178  0.771330  0.664990  1
  N  N12  1  0.478763  0.521237  0.250000  1
  N  N13  1  0.521237  0.478763  0.750000  1
  N  N14  1  0.912629  0.569926  0.119422  1
  N  N15  1  0.430074  0.087371  0.380578  1
  N  N16  1  0.087371  0.430074  0.880578  1
  N  N17  1  0.569926  0.912629  0.619422  1
  N  N18  1  0.824874  0.698211  0.548285  1
  N  N19  1  0.301789  0.175126  0.951715  1
  N  N20  1  0.175126  0.301789  0.451715  1
  N  N21  1  0.698211  0.824874  0.048285  1
  N  N22  1  0.989085  0.010915  0.250000  1
  N  N23  1  0.010915  0.989085  0.750000  1
