# generated using pymatgen
data_Er3Hf4(ZrSn2)3
_symmetry_space_group_name_H-M   'P 1'
_cell_length_a   8.57779335
_cell_length_b   8.68196006
_cell_length_c   5.91787900
_cell_angle_alpha   90.00000000
_cell_angle_beta   90.00000000
_cell_angle_gamma   119.97521890
_symmetry_Int_Tables_number   1
_chemical_formula_structural   Er3Hf4(ZrSn2)3
_chemical_formula_sum   'Er3 Hf4 Zr3 Sn6'
_cell_volume   381.76707427
_cell_formula_units_Z   1
loop_
 _symmetry_equiv_pos_site_id
 _symmetry_equiv_pos_as_xyz
  1  'x, y, z'
loop_
 _atom_site_type_symbol
 _atom_site_label
 _atom_site_symmetry_multiplicity
 _atom_site_fract_x
 _atom_site_fract_y
 _atom_site_fract_z
 _atom_site_occupancy
  Er  Er0  1  0.762404  0.999013  0.750000  1
  Er  Er1  1  0.242098  0.241948  0.750000  1
  Er  Er2  1  0.234746  0.999233  0.250000  1
  Hf  Hf3  1  0.334894  0.667672  0.499470  1
  Hf  Hf4  1  0.667977  0.333983  0.000528  1
  Hf  Hf5  1  0.667977  0.333983  0.499472  1
  Hf  Hf6  1  0.334894  0.667672  0.000530  1
  Zr  Zr7  1  0.998771  0.748837  0.750000  1
  Zr  Zr8  1  0.998965  0.253075  0.250000  1
  Zr  Zr9  1  0.753111  0.752552  0.250000  1
  Sn  Sn10  1  0.393530  0.996287  0.750000  1
  Sn  Sn11  1  0.394772  0.397426  0.250000  1
  Sn  Sn12  1  0.998518  0.605017  0.250000  1
  Sn  Sn13  1  0.000854  0.399618  0.750000  1
  Sn  Sn14  1  0.607333  0.603988  0.750000  1
  Sn  Sn15  1  0.609158  0.999695  0.250000  1
