# generated using pymatgen
data_Y12MgAl2Si5Rh8
_symmetry_space_group_name_H-M   'P 1'
_cell_length_a   5.57887700
_cell_length_b   7.92450112
_cell_length_c   13.30992608
_cell_angle_alpha   89.96865772
_cell_angle_beta   90.00000000
_cell_angle_gamma   90.00000000
_symmetry_Int_Tables_number   1
_chemical_formula_structural   Y12MgAl2Si5Rh8
_chemical_formula_sum   'Y12 Mg1 Al2 Si5 Rh8'
_cell_volume   588.42930890
_cell_formula_units_Z   1
loop_
 _symmetry_equiv_pos_site_id
 _symmetry_equiv_pos_as_xyz
  1  'x, y, z'
loop_
 _atom_site_type_symbol
 _atom_site_label
 _atom_site_symmetry_multiplicity
 _atom_site_fract_x
 _atom_site_fract_y
 _atom_site_fract_z
 _atom_site_occupancy
  Y  Y0  1  0.144584  0.602592  0.103493  1
  Y  Y1  1  0.144584  0.897408  0.896507  1
  Y  Y2  1  0.855554  0.107611  0.396741  1
  Y  Y3  1  0.855554  0.392389  0.603259  1
  Y  Y4  1  0.857599  0.400440  0.896591  1
  Y  Y5  1  0.857599  0.099560  0.103409  1
  Y  Y6  1  0.150308  0.906640  0.604311  1
  Y  Y7  1  0.150308  0.593360  0.395689  1
  Y  Y8  1  0.366802  0.242160  0.250036  1
  Y  Y9  1  0.366802  0.257840  0.749964  1
  Y  Y10  1  0.634472  0.740707  0.248131  1
  Y  Y11  1  0.634472  0.759293  0.751869  1
  Mg  Mg12  1  0.635793  0.750000  0.500000  1
  Al  Al13  1  0.375152  0.250000  0.000000  1
  Al  Al14  1  0.624262  0.750000  0.000000  1
  Si  Si15  1  0.863498  0.390010  0.247114  1
  Si  Si16  1  0.863498  0.109990  0.752886  1
  Si  Si17  1  0.140254  0.886856  0.252516  1
  Si  Si18  1  0.140254  0.613144  0.747484  1
  Si  Si19  1  0.376349  0.250000  0.500000  1
  Rh  Rh20  1  0.640851  0.468894  0.092749  1
  Rh  Rh21  1  0.640851  0.031106  0.907251  1
  Rh  Rh22  1  0.348544  0.981643  0.406330  1
  Rh  Rh23  1  0.348544  0.518357  0.593670  1
  Rh  Rh24  1  0.354637  0.531008  0.905645  1
  Rh  Rh25  1  0.354637  0.968992  0.094355  1
  Rh  Rh26  1  0.637119  0.046037  0.596771  1
  Rh  Rh27  1  0.637119  0.453963  0.403229  1
