# generated using pymatgen
data_CsVGaF6
_symmetry_space_group_name_H-M   'P 1'
_cell_length_a   7.51342221
_cell_length_b   7.51342212
_cell_length_c   7.51342209
_cell_angle_alpha   120.09769189
_cell_angle_beta   119.40114465
_cell_angle_gamma   90.43562889
_symmetry_Int_Tables_number   1
_chemical_formula_structural   CsVGaF6
_chemical_formula_sum   'Cs2 V2 Ga2 F12'
_cell_volume   301.02785269
_cell_formula_units_Z   2
loop_
 _symmetry_equiv_pos_site_id
 _symmetry_equiv_pos_as_xyz
  1  'x, y, z'
loop_
 _atom_site_type_symbol
 _atom_site_label
 _atom_site_symmetry_multiplicity
 _atom_site_fract_x
 _atom_site_fract_y
 _atom_site_fract_z
 _atom_site_occupancy
  Cs  Cs0  1  0.624246  0.874246  0.750000  1
  Cs  Cs1  1  0.375754  0.125754  0.250000  1
  V  V2  1  0.500000  0.500000  0.000000  1
  V  V3  1  0.000000  0.500000  0.500000  1
  Ga  Ga4  1  0.000000  0.500000  0.000000  1
  Ga  Ga5  1  0.000000  0.000000  0.500000  1
  F  F6  1  0.053358  0.803358  0.250000  1
  F  F7  1  0.666067  0.416067  0.250000  1
  F  F8  1  0.057545  0.836304  0.638583  1
  F  F9  1  0.697721  0.418961  0.861417  1
  F  F10  1  0.697721  0.836304  0.278760  1
  F  F11  1  0.057545  0.418961  0.221240  1
  F  F12  1  0.946642  0.196642  0.750000  1
  F  F13  1  0.333933  0.583933  0.750000  1
  F  F14  1  0.942455  0.163696  0.361417  1
  F  F15  1  0.302279  0.581039  0.138583  1
  F  F16  1  0.302279  0.163696  0.721240  1
  F  F17  1  0.942455  0.581039  0.778760  1
