# generated using pymatgen
data_Dy18Er2Co3Bi8Ru
_symmetry_space_group_name_H-M   'P 1'
_cell_length_a   8.01827117
_cell_length_b   8.92721756
_cell_length_c   12.45592246
_cell_angle_alpha   89.96947556
_cell_angle_beta   90.23349830
_cell_angle_gamma   89.93955653
_symmetry_Int_Tables_number   1
_chemical_formula_structural   Dy18Er2Co3Bi8Ru
_chemical_formula_sum   'Dy18 Er2 Co3 Bi8 Ru1'
_cell_volume   891.59750338
_cell_formula_units_Z   1
loop_
 _symmetry_equiv_pos_site_id
 _symmetry_equiv_pos_as_xyz
  1  'x, y, z'
loop_
 _atom_site_type_symbol
 _atom_site_label
 _atom_site_symmetry_multiplicity
 _atom_site_fract_x
 _atom_site_fract_y
 _atom_site_fract_z
 _atom_site_occupancy
  Dy  Dy0  1  0.846832  0.750205  0.800047  1
  Dy  Dy1  1  0.152418  0.249814  0.198622  1
  Dy  Dy2  1  0.347903  0.249327  0.698800  1
  Dy  Dy3  1  0.653483  0.750389  0.296354  1
  Dy  Dy4  1  0.379569  0.750881  0.692536  1
  Dy  Dy5  1  0.617610  0.249000  0.311092  1
  Dy  Dy6  1  0.881521  0.249778  0.811043  1
  Dy  Dy7  1  0.117674  0.750027  0.187278  1
  Dy  Dy8  1  0.948774  0.750734  0.503899  1
  Dy  Dy9  1  0.051032  0.249350  0.496738  1
  Dy  Dy10  1  0.450663  0.249961  0.997390  1
  Dy  Dy11  1  0.549482  0.750016  0.002347  1
  Dy  Dy12  1  0.175415  0.965205  0.936714  1
  Dy  Dy13  1  0.324167  0.533738  0.436433  1
  Dy  Dy14  1  0.823623  0.036757  0.063218  1
  Dy  Dy15  1  0.677002  0.457972  0.564657  1
  Dy  Dy16  1  0.823590  0.463295  0.063082  1
  Dy  Dy17  1  0.175370  0.534767  0.936956  1
  Er  Er18  1  0.675135  0.043483  0.564358  1
  Er  Er19  1  0.326159  0.965233  0.436697  1
  Co  Co20  1  0.434114  0.249274  0.491042  1
  Co  Co21  1  0.061396  0.249941  0.991984  1
  Co  Co22  1  0.936613  0.749968  0.007347  1
  Bi  Bi23  1  0.570979  0.491675  0.826814  1
  Bi  Bi24  1  0.428335  0.507954  0.173353  1
  Bi  Bi25  1  0.071660  0.507709  0.674125  1
  Bi  Bi26  1  0.427824  0.991819  0.173442  1
  Bi  Bi27  1  0.929868  0.492210  0.326261  1
  Bi  Bi28  1  0.571498  0.008371  0.826899  1
  Bi  Bi29  1  0.931257  0.007717  0.326221  1
  Bi  Bi30  1  0.070518  0.992173  0.674238  1
  Ru  Ru31  1  0.568515  0.751255  0.510014  1
