# generated using pymatgen
data_Tb6Zn21Rh2C
_symmetry_space_group_name_H-M   'P 1'
_cell_length_a   8.94343354
_cell_length_b   8.92557589
_cell_length_c   8.94343300
_cell_angle_alpha   60.06602907
_cell_angle_beta   59.47424535
_cell_angle_gamma   60.06602641
_symmetry_Int_Tables_number   1
_chemical_formula_structural   Tb6Zn21Rh2C
_chemical_formula_sum   'Tb6 Zn21 Rh2 C1'
_cell_volume   503.27310160
_cell_formula_units_Z   1
loop_
 _symmetry_equiv_pos_site_id
 _symmetry_equiv_pos_as_xyz
  1  'x, y, z'
loop_
 _atom_site_type_symbol
 _atom_site_label
 _atom_site_symmetry_multiplicity
 _atom_site_fract_x
 _atom_site_fract_y
 _atom_site_fract_z
 _atom_site_occupancy
  Tb  Tb0  1  0.694380  0.300367  0.305620  1
  Tb  Tb1  1  0.305620  0.699633  0.694380  1
  Tb  Tb2  1  0.300567  0.699433  0.300567  1
  Tb  Tb3  1  0.699433  0.300567  0.699433  1
  Tb  Tb4  1  0.305620  0.300367  0.694380  1
  Tb  Tb5  1  0.694380  0.699633  0.305620  1
  Zn  Zn6  1  0.118619  0.118432  0.118619  1
  Zn  Zn7  1  0.881381  0.881568  0.881381  1
  Zn  Zn8  1  0.124117  0.117263  0.641359  1
  Zn  Zn9  1  0.118619  0.644332  0.118619  1
  Zn  Zn10  1  0.875883  0.882737  0.358641  1
  Zn  Zn11  1  0.881381  0.355668  0.881381  1
  Zn  Zn12  1  0.641359  0.117263  0.124117  1
  Zn  Zn13  1  0.358641  0.882737  0.875883  1
  Zn  Zn14  1  0.500000  0.000000  0.000000  1
  Zn  Zn15  1  0.000000  0.500000  0.500000  1
  Zn  Zn16  1  0.000000  0.500000  0.000000  1
  Zn  Zn17  1  0.000000  0.000000  0.500000  1
  Zn  Zn18  1  0.500000  0.500000  0.000000  1
  Zn  Zn19  1  0.326172  0.326410  0.326172  1
  Zn  Zn20  1  0.673828  0.673590  0.673828  1
  Zn  Zn21  1  0.325170  0.329252  0.016328  1
  Zn  Zn22  1  0.326172  0.021246  0.326172  1
  Zn  Zn23  1  0.674830  0.670748  0.983672  1
  Zn  Zn24  1  0.673828  0.978754  0.673828  1
  Zn  Zn25  1  0.016328  0.329252  0.325170  1
  Zn  Zn26  1  0.983672  0.670748  0.674830  1
  Rh  Rh27  1  0.500000  0.000000  0.500000  1
  Rh  Rh28  1  0.000000  0.000000  0.000000  1
  C  C29  1  0.500000  0.500000  0.500000  1
