# generated using pymatgen
data_Lu2GaB2Ir4Rh
_symmetry_space_group_name_H-M   'P 1'
_cell_length_a   9.49330508
_cell_length_b   9.49479821
_cell_length_c   3.15670600
_cell_angle_alpha   90.00000000
_cell_angle_beta   90.00000000
_cell_angle_gamma   89.93841131
_symmetry_Int_Tables_number   1
_chemical_formula_structural   Lu2GaB2Ir4Rh
_chemical_formula_sum   'Lu4 Ga2 B4 Ir8 Rh2'
_cell_volume   284.53589529
_cell_formula_units_Z   2
loop_
 _symmetry_equiv_pos_site_id
 _symmetry_equiv_pos_as_xyz
  1  'x, y, z'
loop_
 _atom_site_type_symbol
 _atom_site_label
 _atom_site_symmetry_multiplicity
 _atom_site_fract_x
 _atom_site_fract_y
 _atom_site_fract_z
 _atom_site_occupancy
  Lu  Lu0  1  0.823395  0.324102  0.000000  1
  Lu  Lu1  1  0.323781  0.177413  0.000000  1
  Lu  Lu2  1  0.676219  0.822587  0.000000  1
  Lu  Lu3  1  0.176605  0.675898  0.000000  1
  Ga  Ga4  1  0.000000  0.000000  0.000000  1
  Ga  Ga5  1  0.500000  0.500000  0.000000  1
  B  B6  1  0.622817  0.122831  0.000000  1
  B  B7  1  0.120795  0.376209  0.000000  1
  B  B8  1  0.879205  0.623791  0.000000  1
  B  B9  1  0.377183  0.877169  0.000000  1
  Ir  Ir10  1  0.069713  0.219242  0.500000  1
  Ir  Ir11  1  0.218150  0.931414  0.500000  1
  Ir  Ir12  1  0.781850  0.068586  0.500000  1
  Ir  Ir13  1  0.930287  0.780758  0.500000  1
  Ir  Ir14  1  0.430286  0.718306  0.500000  1
  Ir  Ir15  1  0.569714  0.281694  0.500000  1
  Ir  Ir16  1  0.500000  0.000000  0.500000  1
  Ir  Ir17  1  0.000000  0.500000  0.500000  1
  Rh  Rh18  1  0.717900  0.569396  0.500000  1
  Rh  Rh19  1  0.282100  0.430604  0.500000  1
