# generated using pymatgen
data_Hf16Pt8C3O
_symmetry_space_group_name_H-M   'P 1'
_cell_length_a   8.75226383
_cell_length_b   8.76136959
_cell_length_c   8.76131000
_cell_angle_alpha   60.00042889
_cell_angle_beta   59.96608331
_cell_angle_gamma   59.96627388
_symmetry_Int_Tables_number   1
_chemical_formula_structural   Hf16Pt8C3O
_chemical_formula_sum   'Hf16 Pt8 C3 O1'
_cell_volume   474.81633574
_cell_formula_units_Z   1
loop_
 _symmetry_equiv_pos_site_id
 _symmetry_equiv_pos_as_xyz
  1  'x, y, z'
loop_
 _atom_site_type_symbol
 _atom_site_label
 _atom_site_symmetry_multiplicity
 _atom_site_fract_x
 _atom_site_fract_y
 _atom_site_fract_z
 _atom_site_occupancy
  Hf  Hf0  1  0.124995  0.625001  0.625003  1
  Hf  Hf1  1  0.624990  0.125000  0.625005  1
  Hf  Hf2  1  0.624991  0.625005  0.124998  1
  Hf  Hf3  1  0.624990  0.625005  0.625005  1
  Hf  Hf4  1  0.821718  0.811582  0.183350  1
  Hf  Hf5  1  0.182628  0.183087  0.817143  1
  Hf  Hf6  1  0.821715  0.183351  0.811582  1
  Hf  Hf7  1  0.182628  0.817143  0.183088  1
  Hf  Hf8  1  0.182628  0.817143  0.817142  1
  Hf  Hf9  1  0.821715  0.183351  0.183351  1
  Hf  Hf10  1  0.428281  0.438419  0.066651  1
  Hf  Hf11  1  0.067348  0.066900  0.432876  1
  Hf  Hf12  1  0.428281  0.066651  0.438418  1
  Hf  Hf13  1  0.067348  0.432874  0.066902  1
  Hf  Hf14  1  0.067348  0.432875  0.432876  1
  Hf  Hf15  1  0.428282  0.066650  0.066650  1
  Pt  Pt16  1  0.778477  0.407174  0.407174  1
  Pt  Pt17  1  0.409404  0.778438  0.406078  1
  Pt  Pt18  1  0.409405  0.406077  0.778438  1
  Pt  Pt19  1  0.409404  0.406079  0.406080  1
  Pt  Pt20  1  0.471500  0.842834  0.842833  1
  Pt  Pt21  1  0.840621  0.471574  0.843902  1
  Pt  Pt22  1  0.840620  0.843903  0.471576  1
  Pt  Pt23  1  0.840621  0.843903  0.843900  1
  C  C24  1  0.125023  0.624989  0.124993  1
  C  C25  1  0.125020  0.124995  0.624990  1
  C  C26  1  0.125021  0.124994  0.124995  1
  O  O27  1  0.625001  0.125001  0.124998  1
