# generated using pymatgen
data_Zr5Ti3Fe4(CoP)12
_symmetry_space_group_name_H-M   'P 1'
_cell_length_a   11.94825459
_cell_length_b   11.92650622
_cell_length_c   3.63142400
_cell_angle_alpha   90.00000000
_cell_angle_beta   90.00000000
_cell_angle_gamma   119.93979811
_symmetry_Int_Tables_number   1
_chemical_formula_structural   Zr5Ti3Fe4(CoP)12
_chemical_formula_sum   'Zr5 Ti3 Fe4 Co12 P12'
_cell_volume   448.42357463
_cell_formula_units_Z   1
loop_
 _symmetry_equiv_pos_site_id
 _symmetry_equiv_pos_as_xyz
  1  'x, y, z'
loop_
 _atom_site_type_symbol
 _atom_site_label
 _atom_site_symmetry_multiplicity
 _atom_site_fract_x
 _atom_site_fract_y
 _atom_site_fract_z
 _atom_site_occupancy
  Zr  Zr0  1  0.667610  0.334049  0.000000  1
  Zr  Zr1  1  0.332390  0.666440  0.000000  1
  Zr  Zr2  1  0.816430  0.816264  0.500000  1
  Zr  Zr3  1  0.183570  0.999834  0.500000  1
  Zr  Zr4  1  0.000000  0.184704  0.500000  1
  Ti  Ti5  1  0.441032  0.442215  0.000000  1
  Ti  Ti6  1  0.558968  0.001183  0.000000  1
  Ti  Ti7  1  0.000000  0.558761  0.000000  1
  Fe  Fe8  1  0.197663  0.374703  0.000000  1
  Fe  Fe9  1  0.178029  0.802572  0.000000  1
  Fe  Fe10  1  0.821971  0.624544  0.000000  1
  Fe  Fe11  1  0.802337  0.177040  0.000000  1
  Co  Co12  1  0.374605  0.196006  0.000000  1
  Co  Co13  1  0.126050  0.482938  0.500000  1
  Co  Co14  1  0.356708  0.875210  0.500000  1
  Co  Co15  1  0.517132  0.644352  0.500000  1
  Co  Co16  1  0.643292  0.518503  0.500000  1
  Co  Co17  1  0.873950  0.356889  0.500000  1
  Co  Co18  1  0.482868  0.127221  0.500000  1
  Co  Co19  1  0.000000  0.999169  0.000000  1
  Co  Co20  1  0.718037  0.997569  0.500000  1
  Co  Co21  1  0.000000  0.719272  0.500000  1
  Co  Co22  1  0.625395  0.821401  0.000000  1
  Co  Co23  1  0.281963  0.279533  0.500000  1
  P  P24  1  0.647247  0.644964  0.000000  1
  P  P25  1  0.352753  0.997718  0.000000  1
  P  P26  1  0.000000  0.354028  0.000000  1
  P  P27  1  0.483141  0.313588  0.500000  1
  P  P28  1  0.689043  0.170096  0.500000  1
  P  P29  1  0.830465  0.518880  0.500000  1
  P  P30  1  0.516859  0.830448  0.500000  1
  P  P31  1  0.169535  0.688416  0.500000  1
  P  P32  1  0.824295  0.001486  0.000000  1
  P  P33  1  0.000000  0.821761  0.000000  1
  P  P34  1  0.310957  0.481054  0.500000  1
  P  P35  1  0.175705  0.177191  0.000000  1
