# generated using pymatgen
data_DyHo19Pb16
_symmetry_space_group_name_H-M   'P 1'
_cell_length_a   8.19869685
_cell_length_b   8.25617433
_cell_length_c   15.59726653
_cell_angle_alpha   89.98611407
_cell_angle_beta   89.78635135
_cell_angle_gamma   89.84561553
_symmetry_Int_Tables_number   1
_chemical_formula_structural   DyHo19Pb16
_chemical_formula_sum   'Dy1 Ho19 Pb16'
_cell_volume   1055.76575005
_cell_formula_units_Z   1
loop_
 _symmetry_equiv_pos_site_id
 _symmetry_equiv_pos_as_xyz
  1  'x, y, z'
loop_
 _atom_site_type_symbol
 _atom_site_label
 _atom_site_symmetry_multiplicity
 _atom_site_fract_x
 _atom_site_fract_y
 _atom_site_fract_z
 _atom_site_occupancy
  Dy  Dy0  1  0.965665  0.823795  0.598756  1
  Ho  Ho1  1  0.623491  0.158037  0.621362  1
  Ho  Ho2  1  0.121698  0.341699  0.879503  1
  Ho  Ho3  1  0.378717  0.842307  0.121136  1
  Ho  Ho4  1  0.876519  0.658007  0.378313  1
  Ho  Ho5  1  0.376692  0.841511  0.378643  1
  Ho  Ho6  1  0.878428  0.657980  0.121104  1
  Ho  Ho7  1  0.621363  0.157959  0.879173  1
  Ho  Ho8  1  0.122699  0.341773  0.621275  1
  Ho  Ho9  1  0.463720  0.675188  0.599451  1
  Ho  Ho10  1  0.961931  0.824488  0.899597  1
  Ho  Ho11  1  0.537404  0.324642  0.100453  1
  Ho  Ho12  1  0.035926  0.175714  0.400329  1
  Ho  Ho13  1  0.536028  0.324286  0.400364  1
  Ho  Ho14  1  0.037981  0.175382  0.100303  1
  Ho  Ho15  1  0.462646  0.675233  0.900040  1
  Ho  Ho16  1  0.790089  0.495772  0.750211  1
  Ho  Ho17  1  0.290123  0.004358  0.750247  1
  Ho  Ho18  1  0.209445  0.504367  0.249929  1
  Ho  Ho19  1  0.709599  0.995475  0.249581  1
  Pb  Pb20  1  0.717505  0.966518  0.456572  1
  Pb  Pb21  1  0.219793  0.534109  0.042856  1
  Pb  Pb22  1  0.280296  0.032449  0.957565  1
  Pb  Pb23  1  0.781553  0.465324  0.542436  1
  Pb  Pb24  1  0.283984  0.035747  0.542460  1
  Pb  Pb25  1  0.780437  0.466651  0.957799  1
  Pb  Pb26  1  0.720054  0.967199  0.042871  1
  Pb  Pb27  1  0.217328  0.533812  0.457343  1
  Pb  Pb28  1  0.426927  0.374314  0.750366  1
  Pb  Pb29  1  0.927344  0.126318  0.750142  1
  Pb  Pb30  1  0.572412  0.625606  0.249661  1
  Pb  Pb31  1  0.073182  0.874664  0.249684  1
  Pb  Pb32  1  0.650241  0.845302  0.749766  1
  Pb  Pb33  1  0.151068  0.653825  0.750141  1
  Pb  Pb34  1  0.348872  0.154927  0.250554  1
  Pb  Pb35  1  0.848841  0.345265  0.250013  1
