# generated using pymatgen
data_Ta12V5Os7N4
_symmetry_space_group_name_H-M   'P 1'
_cell_length_a   8.29812802
_cell_length_b   8.29812831
_cell_length_c   8.29812705
_cell_angle_alpha   59.98703027
_cell_angle_beta   59.98702447
_cell_angle_gamma   59.98702871
_symmetry_Int_Tables_number   1
_chemical_formula_structural   Ta12V5Os7N4
_chemical_formula_sum   'Ta12 V5 Os7 N4'
_cell_volume   403.92208342
_cell_formula_units_Z   1
loop_
 _symmetry_equiv_pos_site_id
 _symmetry_equiv_pos_as_xyz
  1  'x, y, z'
loop_
 _atom_site_type_symbol
 _atom_site_label
 _atom_site_symmetry_multiplicity
 _atom_site_fract_x
 _atom_site_fract_y
 _atom_site_fract_z
 _atom_site_occupancy
  Ta  Ta0  1  0.808632  0.808632  0.187721  1
  Ta  Ta1  1  0.193279  0.193279  0.806923  1
  Ta  Ta2  1  0.808632  0.187721  0.808632  1
  Ta  Ta3  1  0.193279  0.806923  0.193279  1
  Ta  Ta4  1  0.187721  0.808632  0.808632  1
  Ta  Ta5  1  0.806923  0.193279  0.193279  1
  Ta  Ta6  1  0.442811  0.442811  0.056316  1
  Ta  Ta7  1  0.056816  0.056816  0.444666  1
  Ta  Ta8  1  0.442811  0.056316  0.442811  1
  Ta  Ta9  1  0.056816  0.444666  0.056816  1
  Ta  Ta10  1  0.056316  0.442811  0.442811  1
  Ta  Ta11  1  0.444666  0.056816  0.056816  1
  V  V12  1  0.120308  0.627805  0.627805  1
  V  V13  1  0.627805  0.120308  0.627805  1
  V  V14  1  0.627805  0.627805  0.120308  1
  V  V15  1  0.625323  0.625323  0.625323  1
  V  V16  1  0.833022  0.833022  0.833022  1
  Os  Os17  1  0.749092  0.416844  0.416844  1
  Os  Os18  1  0.416844  0.749092  0.416844  1
  Os  Os19  1  0.416844  0.416844  0.749092  1
  Os  Os20  1  0.416163  0.416163  0.416163  1
  Os  Os21  1  0.498340  0.834687  0.834687  1
  Os  Os22  1  0.834687  0.498340  0.834687  1
  Os  Os23  1  0.834687  0.834687  0.498340  1
  N  N24  1  0.625300  0.125297  0.125297  1
  N  N25  1  0.125297  0.625300  0.125297  1
  N  N26  1  0.125297  0.125297  0.625300  1
  N  N27  1  0.124482  0.124482  0.124482  1
