# generated using pymatgen
data_TbCe2Zn3Ir2Pd
_symmetry_space_group_name_H-M   'P 1'
_cell_length_a   7.35189714
_cell_length_b   7.23691814
_cell_length_c   3.87727100
_cell_angle_alpha   90.00000000
_cell_angle_beta   90.00000000
_cell_angle_gamma   119.48399581
_symmetry_Int_Tables_number   1
_chemical_formula_structural   TbCe2Zn3Ir2Pd
_chemical_formula_sum   'Tb1 Ce2 Zn3 Ir2 Pd1'
_cell_volume   179.57448391
_cell_formula_units_Z   1
loop_
 _symmetry_equiv_pos_site_id
 _symmetry_equiv_pos_as_xyz
  1  'x, y, z'
loop_
 _atom_site_type_symbol
 _atom_site_label
 _atom_site_symmetry_multiplicity
 _atom_site_fract_x
 _atom_site_fract_y
 _atom_site_fract_z
 _atom_site_occupancy
  Tb  Tb0  1  0.000000  0.411892  0.000000  1
  Ce  Ce1  1  0.580688  0.580238  0.000000  1
  Ce  Ce2  1  0.419312  0.999550  0.000000  1
  Zn  Zn3  1  0.000000  0.744749  0.500000  1
  Zn  Zn4  1  0.240647  0.246147  0.500000  1
  Zn  Zn5  1  0.759353  0.005500  0.500000  1
  Ir  Ir6  1  0.651481  0.332625  0.500000  1
  Ir  Ir7  1  0.348519  0.681145  0.500000  1
  Pd  Pd8  1  0.000000  0.998153  0.000000  1
