# generated using pymatgen
data_Cs4PrNd3(SiSe4)4
_symmetry_space_group_name_H-M   'P 1'
_cell_length_a   7.14857813
_cell_length_b   9.97900775
_cell_length_c   13.64076843
_cell_angle_alpha   71.32410182
_cell_angle_beta   90.01807435
_cell_angle_gamma   90.01777406
_symmetry_Int_Tables_number   1
_chemical_formula_structural   Cs4PrNd3(SiSe4)4
_chemical_formula_sum   'Cs4 Pr1 Nd3 Si4 Se16'
_cell_volume   921.83677159
_cell_formula_units_Z   1
loop_
 _symmetry_equiv_pos_site_id
 _symmetry_equiv_pos_as_xyz
  1  'x, y, z'
loop_
 _atom_site_type_symbol
 _atom_site_label
 _atom_site_symmetry_multiplicity
 _atom_site_fract_x
 _atom_site_fract_y
 _atom_site_fract_z
 _atom_site_occupancy
  Cs  Cs0  1  0.254264  0.434563  0.386443  1
  Cs  Cs1  1  0.754169  0.565479  0.113488  1
  Cs  Cs2  1  0.745760  0.565403  0.613606  1
  Cs  Cs3  1  0.245767  0.434578  0.886407  1
  Pr  Pr4  1  0.196713  0.953672  0.365282  1
  Nd  Nd5  1  0.695849  0.046503  0.134442  1
  Nd  Nd6  1  0.804186  0.046466  0.634698  1
  Nd  Nd7  1  0.304225  0.953560  0.865351  1
  Si  Si8  1  0.743688  0.166272  0.354414  1
  Si  Si9  1  0.243620  0.833819  0.145380  1
  Si  Si10  1  0.256377  0.833843  0.645740  1
  Si  Si11  1  0.756382  0.166012  0.854499  1
  Se  Se12  1  0.027882  0.196726  0.759009  1
  Se  Se13  1  0.775139  0.934344  0.454083  1
  Se  Se14  1  0.525846  0.207481  0.730817  1
  Se  Se15  1  0.723497  0.934167  0.953978  1
  Se  Se16  1  0.758741  0.311884  0.452359  1
  Se  Se17  1  0.971466  0.802809  0.240450  1
  Se  Se18  1  0.258669  0.688087  0.047582  1
  Se  Se19  1  0.223467  0.066093  0.546942  1
  Se  Se20  1  0.741339  0.311850  0.952299  1
  Se  Se21  1  0.475068  0.791825  0.268688  1
  Se  Se22  1  0.025719  0.792458  0.769250  1
  Se  Se23  1  0.241506  0.686882  0.548785  1
  Se  Se24  1  0.472730  0.197671  0.258445  1
  Se  Se25  1  0.973418  0.208444  0.230312  1
  Se  Se26  1  0.528022  0.803299  0.741097  1
  Se  Se27  1  0.276491  0.065806  0.046154  1
