# generated using pymatgen
data_Ca2Zn2GePd12
_symmetry_space_group_name_H-M   'P 1'
_cell_length_a   8.92293800
_cell_length_b   8.92293800
_cell_length_c   7.12839800
_cell_angle_alpha   90.00000000
_cell_angle_beta   90.00000000
_cell_angle_gamma   90.00000000
_symmetry_Int_Tables_number   1
_chemical_formula_structural   Ca2Zn2GePd12
_chemical_formula_sum   'Ca4 Zn4 Ge2 Pd24'
_cell_volume   567.55465544
_cell_formula_units_Z   2
loop_
 _symmetry_equiv_pos_site_id
 _symmetry_equiv_pos_as_xyz
  1  'x, y, z'
loop_
 _atom_site_type_symbol
 _atom_site_label
 _atom_site_symmetry_multiplicity
 _atom_site_fract_x
 _atom_site_fract_y
 _atom_site_fract_z
 _atom_site_occupancy
  Ca  Ca0  1  0.500000  0.000000  0.933696  1
  Ca  Ca1  1  0.000000  0.500000  0.066304  1
  Ca  Ca2  1  0.000000  0.000000  0.500000  1
  Ca  Ca3  1  0.500000  0.500000  0.500000  1
  Zn  Zn4  1  0.250000  0.750000  0.000000  1
  Zn  Zn5  1  0.250000  0.250000  0.000000  1
  Zn  Zn6  1  0.750000  0.750000  0.000000  1
  Zn  Zn7  1  0.750000  0.250000  0.000000  1
  Ge  Ge8  1  0.500000  0.000000  0.446915  1
  Ge  Ge9  1  0.000000  0.500000  0.553085  1
  Pd  Pd10  1  0.329441  0.829441  0.625299  1
  Pd  Pd11  1  0.329441  0.170559  0.625299  1
  Pd  Pd12  1  0.670559  0.829441  0.625299  1
  Pd  Pd13  1  0.670559  0.170559  0.625299  1
  Pd  Pd14  1  0.170559  0.670559  0.374701  1
  Pd  Pd15  1  0.170559  0.329441  0.374701  1
  Pd  Pd16  1  0.829441  0.670559  0.374701  1
  Pd  Pd17  1  0.829441  0.329441  0.374701  1
  Pd  Pd18  1  0.500000  0.764845  0.250156  1
  Pd  Pd19  1  0.500000  0.235155  0.250156  1
  Pd  Pd20  1  0.264845  0.000000  0.250156  1
  Pd  Pd21  1  0.735155  0.000000  0.250156  1
  Pd  Pd22  1  0.000000  0.735155  0.749844  1
  Pd  Pd23  1  0.000000  0.264845  0.749844  1
  Pd  Pd24  1  0.235155  0.500000  0.749844  1
  Pd  Pd25  1  0.764845  0.500000  0.749844  1
  Pd  Pd26  1  0.500000  0.341817  0.866788  1
  Pd  Pd27  1  0.500000  0.658183  0.866788  1
  Pd  Pd28  1  0.841817  0.000000  0.866788  1
  Pd  Pd29  1  0.158183  0.000000  0.866788  1
  Pd  Pd30  1  0.000000  0.158183  0.133212  1
  Pd  Pd31  1  0.000000  0.841817  0.133212  1
  Pd  Pd32  1  0.658183  0.500000  0.133212  1
  Pd  Pd33  1  0.341817  0.500000  0.133212  1
