# generated using pymatgen
data_TbTm3Al5Tc3
_symmetry_space_group_name_H-M   'P 1'
_cell_length_a   5.47860929
_cell_length_b   5.52038552
_cell_length_c   8.74498160
_cell_angle_alpha   89.99999678
_cell_angle_beta   89.96320087
_cell_angle_gamma   120.25257554
_symmetry_Int_Tables_number   1
_chemical_formula_structural   TbTm3Al5Tc3
_chemical_formula_sum   'Tb1 Tm3 Al5 Tc3'
_cell_volume   228.46421387
_cell_formula_units_Z   1
loop_
 _symmetry_equiv_pos_site_id
 _symmetry_equiv_pos_as_xyz
  1  'x, y, z'
loop_
 _atom_site_type_symbol
 _atom_site_label
 _atom_site_symmetry_multiplicity
 _atom_site_fract_x
 _atom_site_fract_y
 _atom_site_fract_z
 _atom_site_occupancy
  Tb  Tb0  1  0.335872  0.667937  0.442923  1
  Tm  Tm1  1  0.665284  0.332642  0.555699  1
  Tm  Tm2  1  0.665957  0.332979  0.944482  1
  Tm  Tm3  1  0.337751  0.668876  0.056109  1
  Al  Al4  1  0.837104  0.163619  0.249241  1
  Al  Al5  1  0.837104  0.673486  0.249241  1
  Al  Al6  1  0.323653  0.161826  0.249547  1
  Al  Al7  1  0.184462  0.841474  0.750931  1
  Al  Al8  1  0.184462  0.342988  0.750931  1
  Tc  Tc9  1  0.975763  0.987881  0.510405  1
  Tc  Tc10  1  0.976003  0.988001  0.990144  1
  Tc  Tc11  1  0.676585  0.838293  0.750347  1
