# generated using pymatgen
data_Ce2Al20Tc2IrRu
_symmetry_space_group_name_H-M   'P 1'
_cell_length_a   6.90120208
_cell_length_b   6.89706199
_cell_length_c   9.19485735
_cell_angle_alpha   90.00082119
_cell_angle_beta   89.93836143
_cell_angle_gamma   97.07476665
_symmetry_Int_Tables_number   1
_chemical_formula_structural   Ce2Al20Tc2IrRu
_chemical_formula_sum   'Ce2 Al20 Tc2 Ir1 Ru1'
_cell_volume   434.32453679
_cell_formula_units_Z   1
loop_
 _symmetry_equiv_pos_site_id
 _symmetry_equiv_pos_as_xyz
  1  'x, y, z'
loop_
 _atom_site_type_symbol
 _atom_site_label
 _atom_site_symmetry_multiplicity
 _atom_site_fract_x
 _atom_site_fract_y
 _atom_site_fract_z
 _atom_site_occupancy
  Ce  Ce0  1  0.867529  0.118731  0.749580  1
  Ce  Ce1  1  0.132471  0.881269  0.250420  1
  Al  Al2  1  0.590963  0.861317  0.250135  1
  Al  Al3  1  0.781350  0.521524  0.252022  1
  Al  Al4  1  0.159289  0.841413  0.898326  1
  Al  Al5  1  0.409037  0.138683  0.749865  1
  Al  Al6  1  0.620622  0.376087  0.949029  1
  Al  Al7  1  0.841812  0.160523  0.399148  1
  Al  Al8  1  0.773565  0.775177  0.998548  1
  Al  Al9  1  0.859496  0.588670  0.748704  1
  Al  Al10  1  0.840711  0.158587  0.101674  1
  Al  Al11  1  0.218650  0.478476  0.747978  1
  Al  Al12  1  0.158188  0.839477  0.600852  1
  Al  Al13  1  0.773671  0.773432  0.500015  1
  Al  Al14  1  0.482050  0.222160  0.249551  1
  Al  Al15  1  0.622621  0.376703  0.550245  1
  Al  Al16  1  0.226329  0.226568  0.499985  1
  Al  Al17  1  0.377379  0.623297  0.449755  1
  Al  Al18  1  0.140504  0.411330  0.251296  1
  Al  Al19  1  0.517950  0.777840  0.750449  1
  Al  Al20  1  0.379378  0.623913  0.050971  1
  Al  Al21  1  0.226435  0.224823  0.001452  1
  Tc  Tc22  1  0.500000  0.000000  0.000000  1
  Tc  Tc23  1  0.500000  0.000000  0.500000  1
  Ir  Ir24  1  0.000000  0.500000  0.000000  1
  Ru  Ru25  1  0.000000  0.500000  0.500000  1
