# generated using pymatgen
data_HoTh2In2SbIr3
_symmetry_space_group_name_H-M   'P 1'
_cell_length_a   7.58087904
_cell_length_b   7.53667083
_cell_length_c   4.08552900
_cell_angle_alpha   90.00000000
_cell_angle_beta   90.00000000
_cell_angle_gamma   119.80726570
_symmetry_Int_Tables_number   1
_chemical_formula_structural   HoTh2In2SbIr3
_chemical_formula_sum   'Ho1 Th2 In2 Sb1 Ir3'
_cell_volume   202.54345943
_cell_formula_units_Z   1
loop_
 _symmetry_equiv_pos_site_id
 _symmetry_equiv_pos_as_xyz
  1  'x, y, z'
loop_
 _atom_site_type_symbol
 _atom_site_label
 _atom_site_symmetry_multiplicity
 _atom_site_fract_x
 _atom_site_fract_y
 _atom_site_fract_z
 _atom_site_occupancy
  Ho  Ho0  1  0.000000  0.403368  0.000000  1
  Th  Th1  1  0.586599  0.589826  0.000000  1
  Th  Th2  1  0.413401  0.003228  0.000000  1
  In  In3  1  0.240241  0.254519  0.500000  1
  In  In4  1  0.759759  0.014278  0.500000  1
  Sb  Sb5  1  0.000000  0.736824  0.500000  1
  Ir  Ir6  1  0.000000  0.988274  0.000000  1
  Ir  Ir7  1  0.655299  0.332489  0.500000  1
  Ir  Ir8  1  0.344701  0.677192  0.500000  1
