# generated using pymatgen
data_Sb5TeRu2
_symmetry_space_group_name_H-M   'P 1'
_cell_length_a   8.15248296
_cell_length_b   8.14782196
_cell_length_c   8.14867053
_cell_angle_alpha   109.88846302
_cell_angle_beta   109.40573821
_cell_angle_gamma   109.06409503
_symmetry_Int_Tables_number   1
_chemical_formula_structural   Sb5TeRu2
_chemical_formula_sum   'Sb10 Te2 Ru4'
_cell_volume   416.94201015
_cell_formula_units_Z   2
loop_
 _symmetry_equiv_pos_site_id
 _symmetry_equiv_pos_as_xyz
  1  'x, y, z'
loop_
 _atom_site_type_symbol
 _atom_site_label
 _atom_site_symmetry_multiplicity
 _atom_site_fract_x
 _atom_site_fract_y
 _atom_site_fract_z
 _atom_site_occupancy
  Sb  Sb0  1  0.505612  0.659597  0.846051  1
  Sb  Sb1  1  0.662676  0.167048  0.831799  1
  Sb  Sb2  1  0.846752  0.176871  0.329049  1
  Sb  Sb3  1  0.161484  0.819232  0.657792  1
  Sb  Sb4  1  0.182874  0.335520  0.846285  1
  Sb  Sb5  1  0.155545  0.492614  0.337018  1
  Sb  Sb6  1  0.344598  0.159301  0.505486  1
  Sb  Sb7  1  0.439836  0.291117  0.148303  1
  Sb  Sb8  1  0.338873  0.845390  0.185835  1
  Sb  Sb9  1  0.854494  0.704795  0.148843  1
  Te  Te10  1  0.661743  0.845835  0.508121  1
  Te  Te11  1  0.847531  0.504077  0.656058  1
  Ru  Ru12  1  0.501546  0.497852  0.498664  1
  Ru  Ru13  1  0.496831  0.999113  0.003794  1
  Ru  Ru14  1  0.997674  0.997129  0.496569  1
  Ru  Ru15  1  0.001929  0.504508  0.000335  1
