# generated using pymatgen
data_Eu2NO
_symmetry_space_group_name_H-M   'P 1'
_cell_length_a   6.21306165
_cell_length_b   6.21306193
_cell_length_c   6.21306134
_cell_angle_alpha   131.94098715
_cell_angle_beta   131.94099293
_cell_angle_gamma   70.32224306
_symmetry_Int_Tables_number   1
_chemical_formula_structural   Eu2NO
_chemical_formula_sum   'Eu4 N2 O2'
_cell_volume   130.05118534
_cell_formula_units_Z   2
loop_
 _symmetry_equiv_pos_site_id
 _symmetry_equiv_pos_as_xyz
  1  'x, y, z'
loop_
 _atom_site_type_symbol
 _atom_site_label
 _atom_site_symmetry_multiplicity
 _atom_site_fract_x
 _atom_site_fract_y
 _atom_site_fract_z
 _atom_site_occupancy
  Eu  Eu0  1  0.252776  0.252776  0.000000  1
  Eu  Eu1  1  0.002776  0.502776  0.500000  1
  Eu  Eu2  1  0.747224  0.747224  0.000000  1
  Eu  Eu3  1  0.497224  0.997224  0.500000  1
  N  N4  1  0.500000  0.500000  0.000000  1
  N  N5  1  0.250000  0.750000  0.500000  1
  O  O6  1  0.750000  0.250000  0.500000  1
  O  O7  1  0.000000  0.000000  0.000000  1
