# generated using pymatgen
data_Dy2Ho10Co4CuSn
_symmetry_space_group_name_H-M   'P 1'
_cell_length_a   8.26865604
_cell_length_b   8.26865527
_cell_length_c   8.26134918
_cell_angle_alpha   106.85762776
_cell_angle_beta   110.34530993
_cell_angle_gamma   111.27789327
_symmetry_Int_Tables_number   1
_chemical_formula_structural   Dy2Ho10Co4CuSn
_chemical_formula_sum   'Dy2 Ho10 Co4 Cu1 Sn1'
_cell_volume   433.91475135
_cell_formula_units_Z   1
loop_
 _symmetry_equiv_pos_site_id
 _symmetry_equiv_pos_as_xyz
  1  'x, y, z'
loop_
 _atom_site_type_symbol
 _atom_site_label
 _atom_site_symmetry_multiplicity
 _atom_site_fract_x
 _atom_site_fract_y
 _atom_site_fract_z
 _atom_site_occupancy
  Dy  Dy0  1  0.199861  0.784730  0.984590  1
  Dy  Dy1  1  0.800139  0.215270  0.015410  1
  Ho  Ho2  1  0.476726  0.291267  0.185971  1
  Ho  Ho3  1  0.105296  0.290755  0.814029  1
  Ho  Ho4  1  0.894704  0.709245  0.185971  1
  Ho  Ho5  1  0.523274  0.708733  0.814029  1
  Ho  Ho6  1  0.305431  0.619684  0.315207  1
  Ho  Ho7  1  0.304476  0.990223  0.684793  1
  Ho  Ho8  1  0.694569  0.380316  0.684793  1
  Ho  Ho9  1  0.695524  0.009777  0.315207  1
  Ho  Ho10  1  0.200128  0.215570  0.415696  1
  Ho  Ho11  1  0.799872  0.784430  0.584304  1
  Co  Co12  1  0.500254  0.613125  0.113380  1
  Co  Co13  1  0.499746  0.386875  0.886620  1
  Co  Co14  1  0.376536  0.000438  0.376974  1
  Co  Co15  1  0.623464  0.999562  0.623026  1
  Cu  Cu16  1  0.000000  0.000000  0.000000  1
  Sn  Sn17  1  0.000000  0.500000  0.500000  1
