# generated using pymatgen
data_NdTm7(Sc3Sn4)4
_symmetry_space_group_name_H-M   'P 1'
_cell_length_a   7.66230204
_cell_length_b   7.91718197
_cell_length_c   14.78547700
_cell_angle_alpha   89.99425391
_cell_angle_beta   90.10156108
_cell_angle_gamma   89.95999748
_symmetry_Int_Tables_number   1
_chemical_formula_structural   NdTm7(Sc3Sn4)4
_chemical_formula_sum   'Nd1 Tm7 Sc12 Sn16'
_cell_volume   896.94217197
_cell_formula_units_Z   1
loop_
 _symmetry_equiv_pos_site_id
 _symmetry_equiv_pos_as_xyz
  1  'x, y, z'
loop_
 _atom_site_type_symbol
 _atom_site_label
 _atom_site_symmetry_multiplicity
 _atom_site_fract_x
 _atom_site_fract_y
 _atom_site_fract_z
 _atom_site_occupancy
  Nd  Nd0  1  0.506603  0.677272  0.593143  1
  Tm  Tm1  1  0.991841  0.178309  0.093559  1
  Tm  Tm2  1  0.008214  0.821841  0.907545  1
  Tm  Tm3  1  0.509239  0.678146  0.906047  1
  Tm  Tm4  1  0.008432  0.822548  0.593556  1
  Tm  Tm5  1  0.491299  0.321956  0.093543  1
  Tm  Tm6  1  0.990816  0.177869  0.405490  1
  Tm  Tm7  1  0.492202  0.321310  0.405634  1
  Sc  Sc8  1  0.168791  0.495033  0.750630  1
  Sc  Sc9  1  0.831476  0.504244  0.249586  1
  Sc  Sc10  1  0.331154  0.995840  0.249688  1
  Sc  Sc11  1  0.668976  0.004227  0.750478  1
  Sc  Sc12  1  0.340022  0.160197  0.627343  1
  Sc  Sc13  1  0.660649  0.840621  0.372341  1
  Sc  Sc14  1  0.160189  0.660725  0.372077  1
  Sc  Sc15  1  0.659614  0.839310  0.127212  1
  Sc  Sc16  1  0.840299  0.338730  0.627813  1
  Sc  Sc17  1  0.340537  0.160762  0.873379  1
  Sc  Sc18  1  0.841077  0.339592  0.873050  1
  Sc  Sc19  1  0.159521  0.660312  0.127442  1
  Sn  Sn20  1  0.031802  0.122310  0.750379  1
  Sn  Sn21  1  0.968410  0.877753  0.249596  1
  Sn  Sn22  1  0.468678  0.622742  0.250070  1
  Sn  Sn23  1  0.531828  0.375371  0.750412  1
  Sn  Sn24  1  0.308858  0.849410  0.752256  1
  Sn  Sn25  1  0.687930  0.153022  0.249570  1
  Sn  Sn26  1  0.188469  0.347152  0.249749  1
  Sn  Sn27  1  0.814049  0.652524  0.751244  1
  Sn  Sn28  1  0.179780  0.455145  0.541586  1
  Sn  Sn29  1  0.818616  0.541104  0.456469  1
  Sn  Sn30  1  0.313556  0.959746  0.456937  1
  Sn  Sn31  1  0.814419  0.542165  0.042313  1
  Sn  Sn32  1  0.686256  0.044936  0.541707  1
  Sn  Sn33  1  0.186436  0.458006  0.957904  1
  Sn  Sn34  1  0.685524  0.042632  0.957900  1
  Sn  Sn35  1  0.314437  0.957145  0.042349  1
