# generated using pymatgen
data_Y4Tm3ScAu4
_symmetry_space_group_name_H-M   'P 1'
_cell_length_a   4.85126000
_cell_length_b   7.29329593
_cell_length_c   8.81769800
_cell_angle_alpha   90.19887381
_cell_angle_beta   90.00000000
_cell_angle_gamma   90.00000000
_symmetry_Int_Tables_number   1
_chemical_formula_structural   Y4Tm3ScAu4
_chemical_formula_sum   'Y4 Tm3 Sc1 Au4'
_cell_volume   311.98304405
_cell_formula_units_Z   1
loop_
 _symmetry_equiv_pos_site_id
 _symmetry_equiv_pos_as_xyz
  1  'x, y, z'
loop_
 _atom_site_type_symbol
 _atom_site_label
 _atom_site_symmetry_multiplicity
 _atom_site_fract_x
 _atom_site_fract_y
 _atom_site_fract_z
 _atom_site_occupancy
  Y  Y0  1  0.250000  0.978154  0.324634  1
  Y  Y1  1  0.250000  0.488556  0.179493  1
  Y  Y2  1  0.750000  0.011769  0.669443  1
  Y  Y3  1  0.750000  0.516155  0.824614  1
  Tm  Tm4  1  0.250000  0.854109  0.919029  1
  Tm  Tm5  1  0.250000  0.354116  0.577411  1
  Tm  Tm6  1  0.750000  0.146484  0.079272  1
  Sc  Sc7  1  0.750000  0.643770  0.423031  1
  Au  Au8  1  0.250000  0.250941  0.900299  1
  Au  Au9  1  0.250000  0.745535  0.596352  1
  Au  Au10  1  0.750000  0.751692  0.108253  1
  Au  Au11  1  0.750000  0.258723  0.398170  1
