# generated using pymatgen
data_CsAgS6
_symmetry_space_group_name_H-M   'P 1'
_cell_length_a   7.76916394
_cell_length_b   11.33885509
_cell_length_c   11.74696235
_cell_angle_alpha   74.34419956
_cell_angle_beta   85.20773489
_cell_angle_gamma   78.25535175
_symmetry_Int_Tables_number   1
_chemical_formula_structural   CsAgS6
_chemical_formula_sum   'Cs4 Ag4 S24'
_cell_volume   975.12774854
_cell_formula_units_Z   4
loop_
 _symmetry_equiv_pos_site_id
 _symmetry_equiv_pos_as_xyz
  1  'x, y, z'
loop_
 _atom_site_type_symbol
 _atom_site_label
 _atom_site_symmetry_multiplicity
 _atom_site_fract_x
 _atom_site_fract_y
 _atom_site_fract_z
 _atom_site_occupancy
  Cs  Cs0  1  0.834259  0.698537  0.578827  1
  Cs  Cs1  1  0.165741  0.301463  0.421173  1
  Cs  Cs2  1  0.684092  0.296953  0.929200  1
  Cs  Cs3  1  0.315908  0.703047  0.070800  1
  Ag  Ag4  1  0.598854  0.496676  0.387269  1
  Ag  Ag5  1  0.401146  0.503324  0.612731  1
  Ag  Ag6  1  0.160243  0.501808  0.870878  1
  Ag  Ag7  1  0.839757  0.498192  0.129122  1
  S  S8  1  0.383718  0.634807  0.763210  1
  S  S9  1  0.616282  0.365193  0.236790  1
  S  S10  1  0.202243  0.801780  0.725048  1
  S  S11  1  0.797757  0.198220  0.274952  1
  S  S12  1  0.313004  0.928062  0.596571  1
  S  S13  1  0.686996  0.071938  0.403429  1
  S  S14  1  0.223716  0.931159  0.431273  1
  S  S15  1  0.776284  0.068841  0.568727  1
  S  S16  1  0.395152  0.804989  0.360478  1
  S  S17  1  0.604848  0.195011  0.639522  1
  S  S18  1  0.703388  0.358984  0.597680  1
  S  S19  1  0.296612  0.641016  0.402320  1
  S  S20  1  0.137445  0.391169  0.710267  1
  S  S21  1  0.862555  0.608831  0.289733  1
  S  S22  1  0.101380  0.206955  0.760274  1
  S  S23  1  0.898620  0.793045  0.239726  1
  S  S24  1  0.278912  0.096841  0.884025  1
  S  S25  1  0.721088  0.903159  0.115975  1
  S  S26  1  0.169060  0.097518  0.054187  1
  S  S27  1  0.830940  0.902482  0.945813  1
  S  S28  1  0.705580  0.797069  0.873821  1
  S  S29  1  0.294420  0.202931  0.126179  1
  S  S30  1  0.832234  0.612226  0.912874  1
  S  S31  1  0.167766  0.387774  0.087126  1
