# generated using pymatgen
data_Hf17Zr(Re4Ni)2
_symmetry_space_group_name_H-M   'P 1'
_cell_length_a   8.60107692
_cell_length_b   8.60107727
_cell_length_c   8.47921200
_cell_angle_alpha   90.00000000
_cell_angle_beta   90.00000000
_cell_angle_gamma   119.87743768
_symmetry_Int_Tables_number   1
_chemical_formula_structural   Hf17Zr(Re4Ni)2
_chemical_formula_sum   'Hf17 Zr1 Re8 Ni2'
_cell_volume   543.90975052
_cell_formula_units_Z   1
loop_
 _symmetry_equiv_pos_site_id
 _symmetry_equiv_pos_as_xyz
  1  'x, y, z'
loop_
 _atom_site_type_symbol
 _atom_site_label
 _atom_site_symmetry_multiplicity
 _atom_site_fract_x
 _atom_site_fract_y
 _atom_site_fract_z
 _atom_site_occupancy
  Hf  Hf0  1  0.197678  0.802322  0.443656  1
  Hf  Hf1  1  0.196914  0.394899  0.443715  1
  Hf  Hf2  1  0.605101  0.803086  0.443715  1
  Hf  Hf3  1  0.802258  0.197742  0.556365  1
  Hf  Hf4  1  0.803189  0.605641  0.557409  1
  Hf  Hf5  1  0.394359  0.196811  0.557409  1
  Hf  Hf6  1  0.802258  0.197742  0.943635  1
  Hf  Hf7  1  0.803189  0.605641  0.942591  1
  Hf  Hf8  1  0.394359  0.196811  0.942591  1
  Hf  Hf9  1  0.197678  0.802322  0.056344  1
  Hf  Hf10  1  0.196914  0.394899  0.056285  1
  Hf  Hf11  1  0.605101  0.803086  0.056285  1
  Hf  Hf12  1  0.541270  0.082366  0.250000  1
  Hf  Hf13  1  0.917634  0.458730  0.250000  1
  Hf  Hf14  1  0.458746  0.541254  0.750000  1
  Hf  Hf15  1  0.458249  0.916365  0.750000  1
  Hf  Hf16  1  0.083635  0.541751  0.750000  1
  Zr  Zr17  1  0.542149  0.457851  0.250000  1
  Re  Re18  1  0.889085  0.110915  0.250000  1
  Re  Re19  1  0.890590  0.779643  0.250000  1
  Re  Re20  1  0.220357  0.109410  0.250000  1
  Re  Re21  1  0.110649  0.889351  0.750000  1
  Re  Re22  1  0.110402  0.221313  0.750000  1
  Re  Re23  1  0.778687  0.889598  0.750000  1
  Re  Re24  1  0.999910  0.000090  0.499925  1
  Re  Re25  1  0.999910  0.000090  0.000075  1
  Ni  Ni26  1  0.333015  0.666985  0.250000  1
  Ni  Ni27  1  0.666714  0.333286  0.750000  1
