# generated using pymatgen
data_Dy6Tm4In8Pt3Rh
_symmetry_space_group_name_H-M   'P 1'
_cell_length_a   3.61943800
_cell_length_b   8.12775430
_cell_length_c   18.19595315
_cell_angle_alpha   90.03961792
_cell_angle_beta   90.00000000
_cell_angle_gamma   90.00000000
_symmetry_Int_Tables_number   1
_chemical_formula_structural   Dy6Tm4In8Pt3Rh
_chemical_formula_sum   'Dy6 Tm4 In8 Pt3 Rh1'
_cell_volume   535.28665220
_cell_formula_units_Z   1
loop_
 _symmetry_equiv_pos_site_id
 _symmetry_equiv_pos_as_xyz
  1  'x, y, z'
loop_
 _atom_site_type_symbol
 _atom_site_label
 _atom_site_symmetry_multiplicity
 _atom_site_fract_x
 _atom_site_fract_y
 _atom_site_fract_z
 _atom_site_occupancy
  Dy  Dy0  1  0.000000  0.239556  0.221715  1
  Dy  Dy1  1  0.000000  0.757266  0.779596  1
  Dy  Dy2  1  0.000000  0.256873  0.720831  1
  Dy  Dy3  1  0.000000  0.750378  0.279256  1
  Dy  Dy4  1  0.000000  0.999808  0.000059  1
  Dy  Dy5  1  0.000000  0.500163  0.499798  1
  Tm  Tm6  1  0.000000  0.114620  0.412094  1
  Tm  Tm7  1  0.000000  0.882775  0.585310  1
  Tm  Tm8  1  0.000000  0.383301  0.914787  1
  Tm  Tm9  1  0.000000  0.616772  0.086113  1
  In  In10  1  0.500000  0.422513  0.351478  1
  In  In11  1  0.500000  0.576281  0.648480  1
  In  In12  1  0.500000  0.076488  0.851642  1
  In  In13  1  0.500000  0.926669  0.149346  1
  In  In14  1  0.500000  0.293207  0.066456  1
  In  In15  1  0.500000  0.706350  0.933905  1
  In  In16  1  0.500000  0.206124  0.566059  1
  In  In17  1  0.500000  0.794513  0.432023  1
  Pt  Pt18  1  0.500000  0.974285  0.695558  1
  Pt  Pt19  1  0.500000  0.474465  0.804357  1
  Pt  Pt20  1  0.500000  0.524072  0.196105  1
  Rh  Rh21  1  0.500000  0.023520  0.305030  1
