# generated using pymatgen
data_Pr4Ga10Pt5Au
_symmetry_space_group_name_H-M   'P 1'
_cell_length_a   8.66156761
_cell_length_b   8.66156795
_cell_length_c   8.66156610
_cell_angle_alpha   138.43257773
_cell_angle_beta   106.37106415
_cell_angle_gamma   88.27900996
_symmetry_Int_Tables_number   1
_chemical_formula_structural   Pr4Ga10Pt5Au
_chemical_formula_sum   'Pr4 Ga10 Pt5 Au1'
_cell_volume   396.62892749
_cell_formula_units_Z   1
loop_
 _symmetry_equiv_pos_site_id
 _symmetry_equiv_pos_as_xyz
  1  'x, y, z'
loop_
 _atom_site_type_symbol
 _atom_site_label
 _atom_site_symmetry_multiplicity
 _atom_site_fract_x
 _atom_site_fract_y
 _atom_site_fract_z
 _atom_site_occupancy
  Pr  Pr0  1  0.863372  0.630928  0.231339  1
  Pr  Pr1  1  0.136628  0.367968  0.767557  1
  Pr  Pr2  1  0.399589  0.132032  0.268661  1
  Pr  Pr3  1  0.600411  0.869072  0.732443  1
  Ga  Ga4  1  0.500000  0.750000  0.250000  1
  Ga  Ga5  1  0.500000  0.250000  0.750000  1
  Ga  Ga6  1  0.228835  0.978835  0.750000  1
  Ga  Ga7  1  0.771165  0.521165  0.750000  1
  Ga  Ga8  1  0.774411  0.024411  0.250000  1
  Ga  Ga9  1  0.225589  0.475589  0.250000  1
  Ga  Ga10  1  0.046077  0.898065  0.160201  1
  Ga  Ga11  1  0.953923  0.114125  0.851989  1
  Ga  Ga12  1  0.737863  0.385875  0.339799  1
  Ga  Ga13  1  0.262137  0.601935  0.648011  1
  Pt  Pt14  1  0.000000  0.250000  0.250000  1
  Pt  Pt15  1  0.251253  0.861079  0.387903  1
  Pt  Pt16  1  0.748747  0.136648  0.609823  1
  Pt  Pt17  1  0.473176  0.363352  0.112097  1
  Pt  Pt18  1  0.526824  0.638921  0.890177  1
  Au  Au19  1  0.000000  0.750000  0.750000  1
