# generated using pymatgen
data_RbPa2F11
_symmetry_space_group_name_H-M   'P 1'
_cell_length_a   9.47569639
_cell_length_b   9.47575306
_cell_length_c   9.47570253
_cell_angle_alpha   125.64416724
_cell_angle_beta   109.12157840
_cell_angle_gamma   95.14507788
_symmetry_Int_Tables_number   1
_chemical_formula_structural   RbPa2F11
_chemical_formula_sum   'Rb2 Pa4 F22'
_cell_volume   608.09235442
_cell_formula_units_Z   2
loop_
 _symmetry_equiv_pos_site_id
 _symmetry_equiv_pos_as_xyz
  1  'x, y, z'
loop_
 _atom_site_type_symbol
 _atom_site_label
 _atom_site_symmetry_multiplicity
 _atom_site_fract_x
 _atom_site_fract_y
 _atom_site_fract_z
 _atom_site_occupancy
  Rb  Rb0  1  0.750000  0.750001  0.000001  1
  Rb  Rb1  1  0.250000  0.249999  0.999999  1
  Pa  Pa2  1  0.679751  0.140800  0.820550  1
  Pa  Pa3  1  0.320249  0.859200  0.179450  1
  Pa  Pa4  1  0.179752  0.359201  0.538952  1
  Pa  Pa5  1  0.820248  0.640799  0.461048  1
  F  F6  1  0.500000  0.000000  0.500000  1
  F  F7  1  0.000000  0.500000  0.500000  1
  F  F8  1  0.778182  0.368045  0.146227  1
  F  F9  1  0.221818  0.631955  0.853773  1
  F  F10  1  0.278181  0.131956  0.410139  1
  F  F11  1  0.721819  0.868044  0.589861  1
  F  F12  1  0.692919  0.363262  0.823259  1
  F  F13  1  0.540004  0.869659  0.176741  1
  F  F14  1  0.959995  0.136738  0.329657  1
  F  F15  1  0.807081  0.630340  0.670344  1
  F  F16  1  0.307081  0.636738  0.176741  1
  F  F17  1  0.459996  0.130341  0.823259  1
  F  F18  1  0.040005  0.863262  0.670343  1
  F  F19  1  0.192919  0.369660  0.329656  1
  F  F20  1  0.923235  0.220818  0.898979  1
  F  F21  1  0.321838  0.024253  0.101021  1
  F  F22  1  0.178161  0.279181  0.702416  1
  F  F23  1  0.576765  0.475745  0.297585  1
  F  F24  1  0.076765  0.779182  0.101021  1
  F  F25  1  0.678162  0.975747  0.898979  1
  F  F26  1  0.821839  0.720819  0.297584  1
  F  F27  1  0.423235  0.524255  0.702415  1
