# generated using pymatgen
data_K4Hf7ZrSe16
_symmetry_space_group_name_H-M   'P 1'
_cell_length_a   6.53462400
_cell_length_b   7.55259400
_cell_length_c   16.46540001
_cell_angle_alpha   90.00004712
_cell_angle_beta   89.99586195
_cell_angle_gamma   90.00004906
_symmetry_Int_Tables_number   1
_chemical_formula_structural   K4Hf7ZrSe16
_chemical_formula_sum   'K4 Hf7 Zr1 Se16'
_cell_volume   812.62284586
_cell_formula_units_Z   1
loop_
 _symmetry_equiv_pos_site_id
 _symmetry_equiv_pos_as_xyz
  1  'x, y, z'
loop_
 _atom_site_type_symbol
 _atom_site_label
 _atom_site_symmetry_multiplicity
 _atom_site_fract_x
 _atom_site_fract_y
 _atom_site_fract_z
 _atom_site_occupancy
  K  K0  1  0.343688  0.000000  0.999908  1
  K  K1  1  0.657621  0.500000  0.500157  1
  K  K2  1  0.026867  0.000000  0.500177  1
  K  K3  1  0.973447  0.500000  0.999595  1
  Hf  Hf4  1  0.000922  0.000000  0.248996  1
  Hf  Hf5  1  0.000816  0.000000  0.750987  1
  Hf  Hf6  1  0.999103  0.500000  0.251004  1
  Hf  Hf7  1  0.500004  0.250053  0.250007  1
  Hf  Hf8  1  0.500083  0.748423  0.749978  1
  Hf  Hf9  1  0.500003  0.749947  0.250007  1
  Hf  Hf10  1  0.500083  0.251577  0.749978  1
  Zr  Zr11  1  0.998919  0.500000  0.749012  1
  Se  Se12  1  0.833828  0.248593  0.347435  1
  Se  Se13  1  0.831795  0.754437  0.651575  1
  Se  Se14  1  0.166174  0.748591  0.152566  1
  Se  Se15  1  0.167880  0.248483  0.848389  1
  Se  Se16  1  0.166174  0.251409  0.152567  1
  Se  Se17  1  0.167880  0.751516  0.848389  1
  Se  Se18  1  0.833828  0.751406  0.347435  1
  Se  Se19  1  0.831795  0.245564  0.651575  1
  Se  Se20  1  0.669112  0.000000  0.153246  1
  Se  Se21  1  0.669272  0.000000  0.846457  1
  Se  Se22  1  0.330852  0.500000  0.346814  1
  Se  Se23  1  0.334998  0.500000  0.652065  1
  Se  Se24  1  0.336132  0.000000  0.345837  1
  Se  Se25  1  0.335631  0.000000  0.654556  1
  Se  Se26  1  0.663945  0.500000  0.154129  1
  Se  Se27  1  0.659149  0.500000  0.847160  1
