# generated using pymatgen
data_Y4Al5ZnPt8
_symmetry_space_group_name_H-M   'P 1'
_cell_length_a   8.10967433
_cell_length_b   8.10967468
_cell_length_c   7.62211500
_cell_angle_alpha   89.98372198
_cell_angle_beta   89.98372198
_cell_angle_gamma   139.98219587
_symmetry_Int_Tables_number   1
_chemical_formula_structural   Y4Al5ZnPt8
_chemical_formula_sum   'Y4 Al5 Zn1 Pt8'
_cell_volume   322.33723088
_cell_formula_units_Z   1
loop_
 _symmetry_equiv_pos_site_id
 _symmetry_equiv_pos_as_xyz
  1  'x, y, z'
loop_
 _atom_site_type_symbol
 _atom_site_label
 _atom_site_symmetry_multiplicity
 _atom_site_fract_x
 _atom_site_fract_y
 _atom_site_fract_z
 _atom_site_occupancy
  Y  Y0  1  0.106492  0.890457  0.406672  1
  Y  Y1  1  0.893894  0.108599  0.590887  1
  Y  Y2  1  0.391401  0.606106  0.909113  1
  Y  Y3  1  0.609543  0.393508  0.093328  1
  Al  Al4  1  0.999974  0.999420  0.999933  1
  Al  Al5  1  0.500580  0.500026  0.500067  1
  Al  Al6  1  0.476437  0.023563  0.750000  1
  Al  Al7  1  0.976676  0.523324  0.750000  1
  Al  Al8  1  0.523468  0.976532  0.250000  1
  Zn  Zn9  1  0.022147  0.477853  0.250000  1
  Pt  Pt10  1  0.193894  0.306106  0.250000  1
  Pt  Pt11  1  0.308513  0.191487  0.750000  1
  Pt  Pt12  1  0.809029  0.690971  0.750000  1
  Pt  Pt13  1  0.690433  0.809567  0.250000  1
  Pt  Pt14  1  0.189680  0.825395  0.023545  1
  Pt  Pt15  1  0.812190  0.178955  0.967880  1
  Pt  Pt16  1  0.321045  0.687810  0.532120  1
  Pt  Pt17  1  0.674605  0.310320  0.476455  1
