# generated using pymatgen
data_Tb3Np(BRu)16
_symmetry_space_group_name_H-M   'P 1'
_cell_length_a   9.20354681
_cell_length_b   7.48299146
_cell_length_c   7.48288372
_cell_angle_alpha   90.17407296
_cell_angle_beta   113.89344856
_cell_angle_gamma   113.93917438
_symmetry_Int_Tables_number   1
_chemical_formula_structural   Tb3Np(BRu)16
_chemical_formula_sum   'Tb3 Np1 B16 Ru16'
_cell_volume   421.92089738
_cell_formula_units_Z   1
loop_
 _symmetry_equiv_pos_site_id
 _symmetry_equiv_pos_as_xyz
  1  'x, y, z'
loop_
 _atom_site_type_symbol
 _atom_site_label
 _atom_site_symmetry_multiplicity
 _atom_site_fract_x
 _atom_site_fract_y
 _atom_site_fract_z
 _atom_site_occupancy
  Tb  Tb0  1  0.249996  0.625047  0.374852  1
  Tb  Tb1  1  0.750005  0.374842  0.625114  1
  Tb  Tb2  1  0.249988  0.125140  0.874666  1
  Np  Np3  1  0.749995  0.874666  0.124554  1
  B  B4  1  0.918990  0.290537  0.073247  1
  B  B5  1  0.410175  0.563182  0.122752  1
  B  B6  1  0.090529  0.212818  0.152952  1
  B  B7  1  0.583811  0.151499  0.212822  1
  B  B8  1  0.413007  0.063125  0.291874  1
  B  B9  1  0.918430  0.628027  0.346328  1
  B  B10  1  0.581677  0.653892  0.371948  1
  B  B11  1  0.089772  0.877310  0.436952  1
  B  B12  1  0.916523  0.129186  0.567819  1
  B  B13  1  0.412900  0.350321  0.621012  1
  B  B14  1  0.087161  0.378973  0.649664  1
  B  B15  1  0.580905  0.926896  0.709301  1
  B  B16  1  0.409539  0.847223  0.787300  1
  B  B17  1  0.916144  0.787070  0.848578  1
  B  B18  1  0.583522  0.432275  0.870734  1
  B  B19  1  0.086922  0.708041  0.936802  1
  Ru  Ru20  1  0.869293  0.549397  0.034979  1
  Ru  Ru21  1  0.376424  0.833134  0.053512  1
  Ru  Ru22  1  0.123563  0.946559  0.166966  1
  Ru  Ru23  1  0.629143  0.474329  0.175370  1
  Ru  Ru24  1  0.376010  0.332869  0.321750  1
  Ru  Ru25  1  0.869202  0.319919  0.334285  1
  Ru  Ru26  1  0.630718  0.965003  0.450631  1
  Ru  Ru27  1  0.123133  0.176646  0.456114  1
  Ru  Ru28  1  0.870853  0.824592  0.525850  1
  Ru  Ru29  1  0.375733  0.043099  0.554442  1
  Ru  Ru30  1  0.124139  0.678328  0.667187  1
  Ru  Ru31  1  0.630798  0.665711  0.680145  1
  Ru  Ru32  1  0.376882  0.543995  0.823432  1
  Ru  Ru33  1  0.870480  0.046320  0.845601  1
  Ru  Ru34  1  0.629517  0.154544  0.953636  1
  Ru  Ru35  1  0.124122  0.445485  0.956825  1
