# generated using pymatgen
data_NaLiLaPt3
_symmetry_space_group_name_H-M   'P 1'
_cell_length_a   5.55117069
_cell_length_b   5.55117097
_cell_length_c   5.29203389
_cell_angle_alpha   58.36650875
_cell_angle_beta   58.36651597
_cell_angle_gamma   59.99999671
_symmetry_Int_Tables_number   1
_chemical_formula_structural   NaLiLaPt3
_chemical_formula_sum   'Na1 Li1 La1 Pt3'
_cell_volume   112.38299852
_cell_formula_units_Z   1
loop_
 _symmetry_equiv_pos_site_id
 _symmetry_equiv_pos_as_xyz
  1  'x, y, z'
loop_
 _atom_site_type_symbol
 _atom_site_label
 _atom_site_symmetry_multiplicity
 _atom_site_fract_x
 _atom_site_fract_y
 _atom_site_fract_z
 _atom_site_occupancy
  Na  Na0  1  0.253450  0.253450  0.239649  1
  Li  Li1  1  0.621590  0.621590  0.135229  1
  La  La2  1  0.005391  0.005391  0.983828  1
  Pt  Pt3  1  0.622750  0.124068  0.630431  1
  Pt  Pt4  1  0.124068  0.622750  0.630431  1
  Pt  Pt5  1  0.622750  0.622750  0.630431  1
