# generated using pymatgen
data_Dy4Sn6Ir7
_symmetry_space_group_name_H-M   'P 1'
_cell_length_a   7.60227757
_cell_length_b   7.60227753
_cell_length_c   7.60227759
_cell_angle_alpha   109.19464723
_cell_angle_beta   109.60968605
_cell_angle_gamma   109.60968410
_symmetry_Int_Tables_number   1
_chemical_formula_structural   Dy4Sn6Ir7
_chemical_formula_sum   'Dy4 Sn6 Ir7'
_cell_volume   338.22186470
_cell_formula_units_Z   1
loop_
 _symmetry_equiv_pos_site_id
 _symmetry_equiv_pos_as_xyz
  1  'x, y, z'
loop_
 _atom_site_type_symbol
 _atom_site_label
 _atom_site_symmetry_multiplicity
 _atom_site_fract_x
 _atom_site_fract_y
 _atom_site_fract_z
 _atom_site_occupancy
  Dy  Dy0  1  0.000000  0.999331  0.511958  1
  Dy  Dy1  1  0.000000  0.511958  0.999331  1
  Dy  Dy2  1  0.487373  0.999331  0.999331  1
  Dy  Dy3  1  0.512627  0.511958  0.511958  1
  Sn  Sn4  1  0.685822  0.693292  0.007470  1
  Sn  Sn5  1  0.314178  0.007470  0.321648  1
  Sn  Sn6  1  0.000000  0.303607  0.303607  1
  Sn  Sn7  1  0.314178  0.321648  0.007470  1
  Sn  Sn8  1  0.685822  0.007470  0.693292  1
  Sn  Sn9  1  0.000000  0.674520  0.674520  1
  Ir  Ir10  1  0.750016  0.242893  0.492877  1
  Ir  Ir11  1  0.750016  0.492877  0.242893  1
  Ir  Ir12  1  0.500000  0.254982  0.754982  1
  Ir  Ir13  1  0.249984  0.492877  0.742861  1
  Ir  Ir14  1  0.249984  0.742861  0.492877  1
  Ir  Ir15  1  0.500000  0.754982  0.254982  1
  Ir  Ir16  1  0.000000  0.987944  0.987944  1
