# generated using pymatgen
data_Ce2BeSi4Ir
_symmetry_space_group_name_H-M   'P 1'
_cell_length_a   8.55201586
_cell_length_b   8.55201682
_cell_length_c   4.09836200
_cell_angle_alpha   90.00000000
_cell_angle_beta   90.00000000
_cell_angle_gamma   151.64648324
_symmetry_Int_Tables_number   1
_chemical_formula_structural   Ce2BeSi4Ir
_chemical_formula_sum   'Ce2 Be1 Si4 Ir1'
_cell_volume   142.35051617
_cell_formula_units_Z   1
loop_
 _symmetry_equiv_pos_site_id
 _symmetry_equiv_pos_as_xyz
  1  'x, y, z'
loop_
 _atom_site_type_symbol
 _atom_site_label
 _atom_site_symmetry_multiplicity
 _atom_site_fract_x
 _atom_site_fract_y
 _atom_site_fract_z
 _atom_site_occupancy
  Ce  Ce0  1  0.899825  0.100175  0.750000  1
  Ce  Ce1  1  0.111219  0.888781  0.250000  1
  Be  Be2  1  0.673168  0.326832  0.750000  1
  Si  Si3  1  0.538960  0.461040  0.750000  1
  Si  Si4  1  0.463730  0.536270  0.250000  1
  Si  Si5  1  0.244767  0.755233  0.750000  1
  Si  Si6  1  0.748637  0.251363  0.250000  1
  Ir  Ir7  1  0.319695  0.680305  0.250000  1
