# generated using pymatgen
data_Er8CoSi16Tc11
_symmetry_space_group_name_H-M   'P 1'
_cell_length_a   6.76131095
_cell_length_b   6.74201055
_cell_length_c   12.64142508
_cell_angle_alpha   90.04217435
_cell_angle_beta   89.46257240
_cell_angle_gamma   89.95072956
_symmetry_Int_Tables_number   1
_chemical_formula_structural   Er8CoSi16Tc11
_chemical_formula_sum   'Er8 Co1 Si16 Tc11'
_cell_volume   576.23148819
_cell_formula_units_Z   1
loop_
 _symmetry_equiv_pos_site_id
 _symmetry_equiv_pos_as_xyz
  1  'x, y, z'
loop_
 _atom_site_type_symbol
 _atom_site_label
 _atom_site_symmetry_multiplicity
 _atom_site_fract_x
 _atom_site_fract_y
 _atom_site_fract_z
 _atom_site_occupancy
  Er  Er0  1  0.339979  0.993987  0.468663  1
  Er  Er1  1  0.501855  0.837719  0.720524  1
  Er  Er2  1  0.497329  0.166102  0.219145  1
  Er  Er3  1  0.842316  0.509175  0.282954  1
  Er  Er4  1  0.158867  0.491457  0.779070  1
  Er  Er5  1  0.663756  0.005101  0.966943  1
  Er  Er6  1  0.995132  0.338219  0.529137  1
  Er  Er7  1  0.008700  0.664192  0.030044  1
  Co  Co8  1  0.028526  0.801276  0.628839  1
  Si  Si9  1  0.182399  0.098159  0.686156  1
  Si  Si10  1  0.385774  0.693976  0.933934  1
  Si  Si11  1  0.612695  0.306855  0.436639  1
  Si  Si12  1  0.696603  0.384222  0.063997  1
  Si  Si13  1  0.301447  0.617729  0.566490  1
  Si  Si14  1  0.806794  0.884187  0.185232  1
  Si  Si15  1  0.118284  0.196570  0.314702  1
  Si  Si16  1  0.891150  0.808686  0.807610  1
  Si  Si17  1  0.281791  0.977856  0.064806  1
  Si  Si18  1  0.519986  0.774313  0.310375  1
  Si  Si19  1  0.476448  0.230303  0.812022  1
  Si  Si20  1  0.764025  0.513161  0.686039  1
  Si  Si21  1  0.227980  0.482753  0.188040  1
  Si  Si22  1  0.736066  0.013016  0.563337  1
  Si  Si23  1  0.977347  0.280753  0.938348  1
  Si  Si24  1  0.013959  0.737791  0.443972  1
  Tc  Tc25  1  0.336682  0.338100  0.000028  1
  Tc  Tc26  1  0.167338  0.838122  0.249180  1
  Tc  Tc27  1  0.831718  0.161228  0.743602  1
  Tc  Tc28  1  0.663902  0.662966  0.504397  1
  Tc  Tc29  1  0.180564  0.987067  0.876284  1
  Tc  Tc30  1  0.524143  0.684909  0.119215  1
  Tc  Tc31  1  0.462468  0.307658  0.619553  1
  Tc  Tc32  1  0.689288  0.521036  0.879858  1
  Tc  Tc33  1  0.314667  0.486263  0.382013  1
  Tc  Tc34  1  0.817431  0.023864  0.369258  1
  Tc  Tc35  1  0.982593  0.181229  0.129597  1
