# generated using pymatgen
data_Tm2Lu6In3Cu
_symmetry_space_group_name_H-M   'P 1'
_cell_length_a   10.34539500
_cell_length_b   10.34539399
_cell_length_c   6.73699400
_cell_angle_alpha   90.00000000
_cell_angle_beta   90.00000000
_cell_angle_gamma   120.00000004
_symmetry_Int_Tables_number   1
_chemical_formula_structural   Tm2Lu6In3Cu
_chemical_formula_sum   'Tm4 Lu12 In6 Cu2'
_cell_volume   624.44027159
_cell_formula_units_Z   2
loop_
 _symmetry_equiv_pos_site_id
 _symmetry_equiv_pos_as_xyz
  1  'x, y, z'
loop_
 _atom_site_type_symbol
 _atom_site_label
 _atom_site_symmetry_multiplicity
 _atom_site_fract_x
 _atom_site_fract_y
 _atom_site_fract_z
 _atom_site_occupancy
  Tm  Tm0  1  0.666667  0.333333  0.889636  1
  Tm  Tm1  1  0.333333  0.666667  0.389636  1
  Tm  Tm2  1  0.000000  0.000000  0.496466  1
  Tm  Tm3  1  0.000000  0.000000  0.996466  1
  Lu  Lu4  1  0.525629  0.051260  0.518236  1
  Lu  Lu5  1  0.948740  0.474371  0.518236  1
  Lu  Lu6  1  0.525629  0.474371  0.518236  1
  Lu  Lu7  1  0.474371  0.948740  0.018236  1
  Lu  Lu8  1  0.051260  0.525629  0.018236  1
  Lu  Lu9  1  0.474371  0.525629  0.018236  1
  Lu  Lu10  1  0.175942  0.351883  0.729069  1
  Lu  Lu11  1  0.648117  0.824058  0.729069  1
  Lu  Lu12  1  0.175942  0.824058  0.729069  1
  Lu  Lu13  1  0.824058  0.648117  0.229069  1
  Lu  Lu14  1  0.351883  0.175942  0.229069  1
  Lu  Lu15  1  0.824058  0.175942  0.229069  1
  In  In16  1  0.836259  0.672518  0.752670  1
  In  In17  1  0.327482  0.163741  0.752670  1
  In  In18  1  0.836259  0.163741  0.752670  1
  In  In19  1  0.163741  0.327482  0.252670  1
  In  In20  1  0.672518  0.836259  0.252670  1
  In  In21  1  0.163741  0.836259  0.252670  1
  Cu  Cu22  1  0.666667  0.333333  0.292976  1
  Cu  Cu23  1  0.333333  0.666667  0.792976  1
