# generated using pymatgen
data_Tb3Eu2HoTa2O14
_symmetry_space_group_name_H-M   'P 1'
_cell_length_a   6.51135539
_cell_length_b   6.51390115
_cell_length_c   7.57767768
_cell_angle_alpha   89.95805830
_cell_angle_beta   90.03681350
_cell_angle_gamma   108.76720471
_symmetry_Int_Tables_number   1
_chemical_formula_structural   Tb3Eu2HoTa2O14
_chemical_formula_sum   'Tb3 Eu2 Ho1 Ta2 O14'
_cell_volume   304.31417406
_cell_formula_units_Z   1
loop_
 _symmetry_equiv_pos_site_id
 _symmetry_equiv_pos_as_xyz
  1  'x, y, z'
loop_
 _atom_site_type_symbol
 _atom_site_label
 _atom_site_symmetry_multiplicity
 _atom_site_fract_x
 _atom_site_fract_y
 _atom_site_fract_z
 _atom_site_occupancy
  Tb  Tb0  1  0.000079  0.465189  0.748541  1
  Tb  Tb1  1  0.999646  0.534968  0.248498  1
  Tb  Tb2  1  0.534382  0.999790  0.751478  1
  Eu  Eu3  1  0.503106  0.502989  0.499565  1
  Eu  Eu4  1  0.495302  0.495012  0.000414  1
  Ho  Ho5  1  0.466071  0.999640  0.251411  1
  Ta  Ta6  1  0.999848  0.999890  0.499447  1
  Ta  Ta7  1  0.000025  0.000083  0.000510  1
  O  O8  1  0.638202  0.360961  0.749914  1
  O  O9  1  0.361385  0.641468  0.250056  1
  O  O10  1  0.934237  0.064371  0.749982  1
  O  O11  1  0.066449  0.934456  0.250005  1
  O  O12  1  0.930292  0.680040  0.531396  1
  O  O13  1  0.069692  0.320483  0.030975  1
  O  O14  1  0.320593  0.068046  0.970105  1
  O  O15  1  0.680690  0.933611  0.466168  1
  O  O16  1  0.367479  0.632869  0.750088  1
  O  O17  1  0.631188  0.363892  0.250011  1
  O  O18  1  0.934787  0.683314  0.965344  1
  O  O19  1  0.065223  0.317216  0.465565  1
  O  O20  1  0.317247  0.063471  0.533386  1
  O  O21  1  0.684076  0.938235  0.037141  1
