# generated using pymatgen
data_Tm11Th8Si16Au
_symmetry_space_group_name_H-M   'P 1'
_cell_length_a   7.60180538
_cell_length_b   7.60180481
_cell_length_c   13.84340700
_cell_angle_alpha   89.55978214
_cell_angle_beta   90.44021782
_cell_angle_gamma   89.76566757
_symmetry_Int_Tables_number   1
_chemical_formula_structural   Tm11Th8Si16Au
_chemical_formula_sum   'Tm11 Th8 Si16 Au1'
_cell_volume   799.92095131
_cell_formula_units_Z   1
loop_
 _symmetry_equiv_pos_site_id
 _symmetry_equiv_pos_as_xyz
  1  'x, y, z'
loop_
 _atom_site_type_symbol
 _atom_site_label
 _atom_site_symmetry_multiplicity
 _atom_site_fract_x
 _atom_site_fract_y
 _atom_site_fract_z
 _atom_site_occupancy
  Tm  Tm0  1  0.822818  0.822818  0.500000  1
  Tm  Tm1  1  0.319820  0.681193  0.248666  1
  Tm  Tm2  1  0.681193  0.319820  0.751334  1
  Tm  Tm3  1  0.143889  0.003142  0.375659  1
  Tm  Tm4  1  0.865727  0.998209  0.882768  1
  Tm  Tm5  1  0.497503  0.647222  0.629755  1
  Tm  Tm6  1  0.356468  0.490144  0.877734  1
  Tm  Tm7  1  0.490144  0.356468  0.122266  1
  Tm  Tm8  1  0.647222  0.497503  0.370245  1
  Tm  Tm9  1  0.003142  0.143889  0.624341  1
  Tm  Tm10  1  0.998209  0.865727  0.117232  1
  Th  Th11  1  0.998045  0.351136  0.206276  1
  Th  Th12  1  0.006187  0.649157  0.715517  1
  Th  Th13  1  0.149717  0.495407  0.462863  1
  Th  Th14  1  0.494719  0.856326  0.034817  1
  Th  Th15  1  0.856326  0.494719  0.965183  1
  Th  Th16  1  0.495407  0.149717  0.537137  1
  Th  Th17  1  0.351136  0.998045  0.793724  1
  Th  Th18  1  0.649157  0.006187  0.284483  1
  Si  Si19  1  0.356135  0.293414  0.315482  1
  Si  Si20  1  0.643471  0.707311  0.822570  1
  Si  Si21  1  0.209000  0.856921  0.568716  1
  Si  Si22  1  0.138967  0.768893  0.926885  1
  Si  Si23  1  0.768893  0.138967  0.073115  1
  Si  Si24  1  0.856921  0.209000  0.431284  1
  Si  Si25  1  0.293414  0.356135  0.684518  1
  Si  Si26  1  0.707311  0.643471  0.177430  1
  Si  Si27  1  0.289370  0.058992  0.187866  1
  Si  Si28  1  0.705975  0.944961  0.690387  1
  Si  Si29  1  0.446534  0.793225  0.436282  1
  Si  Si30  1  0.206636  0.570608  0.062949  1
  Si  Si31  1  0.570608  0.206636  0.937051  1
  Si  Si32  1  0.793225  0.446534  0.563718  1
  Si  Si33  1  0.058992  0.289370  0.812134  1
  Si  Si34  1  0.944961  0.705975  0.309613  1
  Au  Au35  1  0.182757  0.182757  0.000000  1
