# generated using pymatgen
data_DySc4Si7(Pt2Rh)3
_symmetry_space_group_name_H-M   'P 1'
_cell_length_a   10.03382500
_cell_length_b   10.03382532
_cell_length_c   3.90462600
_cell_angle_alpha   90.00000000
_cell_angle_beta   90.00000000
_cell_angle_gamma   119.99999566
_symmetry_Int_Tables_number   1
_chemical_formula_structural   DySc4Si7(Pt2Rh)3
_chemical_formula_sum   'Dy1 Sc4 Si7 Pt6 Rh3'
_cell_volume   340.44201363
_cell_formula_units_Z   1
loop_
 _symmetry_equiv_pos_site_id
 _symmetry_equiv_pos_as_xyz
  1  'x, y, z'
loop_
 _atom_site_type_symbol
 _atom_site_label
 _atom_site_symmetry_multiplicity
 _atom_site_fract_x
 _atom_site_fract_y
 _atom_site_fract_z
 _atom_site_occupancy
  Dy  Dy0  1  0.333333  0.666667  0.500000  1
  Sc  Sc1  1  0.000000  0.000000  0.000000  1
  Sc  Sc2  1  0.895902  0.458210  0.500000  1
  Sc  Sc3  1  0.562307  0.104098  0.500000  1
  Sc  Sc4  1  0.541790  0.437693  0.500000  1
  Si  Si5  1  0.238160  0.190270  0.500000  1
  Si  Si6  1  0.809730  0.047892  0.500000  1
  Si  Si7  1  0.952108  0.761840  0.500000  1
  Si  Si8  1  0.559623  0.650593  0.000000  1
  Si  Si9  1  0.349407  0.909029  0.000000  1
  Si  Si10  1  0.090971  0.440377  0.000000  1
  Si  Si11  1  0.666667  0.333333  0.000000  1
  Pt  Pt12  1  0.313869  0.411284  0.000000  1
  Pt  Pt13  1  0.588716  0.902585  0.000000  1
  Pt  Pt14  1  0.097415  0.686131  0.000000  1
  Pt  Pt15  1  0.382782  0.172497  0.000000  1
  Pt  Pt16  1  0.827503  0.210284  0.000000  1
  Pt  Pt17  1  0.789716  0.617218  0.000000  1
  Rh  Rh18  1  0.219543  0.937597  0.500000  1
  Rh  Rh19  1  0.062403  0.281947  0.500000  1
  Rh  Rh20  1  0.718053  0.780457  0.500000  1
