# generated using pymatgen
data_NdSmHo4(Co3P2)6
_symmetry_space_group_name_H-M   'P 1'
_cell_length_a   3.71815600
_cell_length_b   10.54601700
_cell_length_c   12.21916600
_cell_angle_alpha   90.00000000
_cell_angle_beta   90.00000000
_cell_angle_gamma   90.00000000
_symmetry_Int_Tables_number   1
_chemical_formula_structural   NdSmHo4(Co3P2)6
_chemical_formula_sum   'Nd1 Sm1 Ho4 Co18 P12'
_cell_volume   479.13471603
_cell_formula_units_Z   1
loop_
 _symmetry_equiv_pos_site_id
 _symmetry_equiv_pos_as_xyz
  1  'x, y, z'
loop_
 _atom_site_type_symbol
 _atom_site_label
 _atom_site_symmetry_multiplicity
 _atom_site_fract_x
 _atom_site_fract_y
 _atom_site_fract_z
 _atom_site_occupancy
  Nd  Nd0  1  0.000000  0.500000  0.522333  1
  Sm  Sm1  1  0.500000  0.000000  0.478080  1
  Ho  Ho2  1  0.500000  0.817828  0.205145  1
  Ho  Ho3  1  0.500000  0.182172  0.205145  1
  Ho  Ho4  1  0.000000  0.682386  0.795071  1
  Ho  Ho5  1  0.000000  0.317614  0.795071  1
  Co  Co6  1  0.000000  0.500000  0.986706  1
  Co  Co7  1  0.500000  0.000000  0.013403  1
  Co  Co8  1  0.500000  0.295727  0.429136  1
  Co  Co9  1  0.500000  0.704273  0.429136  1
  Co  Co10  1  0.000000  0.202271  0.570875  1
  Co  Co11  1  0.000000  0.797729  0.570875  1
  Co  Co12  1  0.500000  0.879609  0.712303  1
  Co  Co13  1  0.500000  0.120391  0.712303  1
  Co  Co14  1  0.000000  0.620894  0.287506  1
  Co  Co15  1  0.000000  0.379106  0.287506  1
  Co  Co16  1  0.500000  0.333125  0.995053  1
  Co  Co17  1  0.500000  0.666875  0.995053  1
  Co  Co18  1  0.000000  0.166745  0.004842  1
  Co  Co19  1  0.000000  0.833255  0.004842  1
  Co  Co20  1  0.500000  0.500000  0.156447  1
  Co  Co21  1  0.000000  0.000000  0.842802  1
  Co  Co22  1  0.500000  0.500000  0.706679  1
  Co  Co23  1  0.000000  0.000000  0.294066  1
  P  P24  1  0.500000  0.307197  0.617562  1
  P  P25  1  0.500000  0.692803  0.617562  1
  P  P26  1  0.000000  0.191142  0.382967  1
  P  P27  1  0.000000  0.808858  0.382967  1
  P  P28  1  0.500000  0.500000  0.883870  1
  P  P29  1  0.000000  0.000000  0.116399  1
  P  P30  1  0.500000  0.846549  0.893880  1
  P  P31  1  0.500000  0.153451  0.893880  1
  P  P32  1  0.000000  0.653693  0.105997  1
  P  P33  1  0.000000  0.346307  0.105997  1
  P  P34  1  0.500000  0.500000  0.339626  1
  P  P35  1  0.000000  0.000000  0.658914  1
