# generated using pymatgen
data_Lu4(CuPd3)3
_symmetry_space_group_name_H-M   'P 1'
_cell_length_a   6.99194726
_cell_length_b   6.99194740
_cell_length_c   6.99194708
_cell_angle_alpha   107.98248712
_cell_angle_beta   107.98248277
_cell_angle_gamma   112.49157938
_symmetry_Int_Tables_number   1
_chemical_formula_structural   Lu4(CuPd3)3
_chemical_formula_sum   'Lu4 Cu3 Pd9'
_cell_volume   262.57974314
_cell_formula_units_Z   1
loop_
 _symmetry_equiv_pos_site_id
 _symmetry_equiv_pos_as_xyz
  1  'x, y, z'
loop_
 _atom_site_type_symbol
 _atom_site_label
 _atom_site_symmetry_multiplicity
 _atom_site_fract_x
 _atom_site_fract_y
 _atom_site_fract_z
 _atom_site_occupancy
  Lu  Lu0  1  0.244389  0.244389  0.488780  1
  Lu  Lu1  1  0.755611  0.755611  0.511220  1
  Lu  Lu2  1  0.244389  0.755611  0.000000  1
  Lu  Lu3  1  0.755611  0.244389  0.000000  1
  Cu  Cu4  1  0.500000  0.000000  0.500000  1
  Cu  Cu5  1  0.000000  0.500000  0.500000  1
  Cu  Cu6  1  0.500000  0.500000  0.000000  1
  Pd  Pd7  1  0.510882  0.258623  0.252258  1
  Pd  Pd8  1  0.489118  0.741377  0.747742  1
  Pd  Pd9  1  0.006366  0.258623  0.747742  1
  Pd  Pd10  1  0.258623  0.006366  0.747742  1
  Pd  Pd11  1  0.993634  0.741377  0.252258  1
  Pd  Pd12  1  0.741377  0.993634  0.252258  1
  Pd  Pd13  1  0.258623  0.510882  0.252258  1
  Pd  Pd14  1  0.741377  0.489118  0.747742  1
  Pd  Pd15  1  0.000000  0.000000  0.000000  1
