# generated using pymatgen
data_Pr2Nd3FeRuO12
_symmetry_space_group_name_H-M   'P 1'
_cell_length_a   7.07739952
_cell_length_b   7.07862549
_cell_length_c   7.62234637
_cell_angle_alpha   74.40075748
_cell_angle_beta   74.41137473
_cell_angle_gamma   50.83937831
_symmetry_Int_Tables_number   1
_chemical_formula_structural   Pr2Nd3FeRuO12
_chemical_formula_sum   'Pr2 Nd3 Fe1 Ru1 O12'
_cell_volume   282.67231191
_cell_formula_units_Z   1
loop_
 _symmetry_equiv_pos_site_id
 _symmetry_equiv_pos_as_xyz
  1  'x, y, z'
loop_
 _atom_site_type_symbol
 _atom_site_label
 _atom_site_symmetry_multiplicity
 _atom_site_fract_x
 _atom_site_fract_y
 _atom_site_fract_z
 _atom_site_occupancy
  Pr  Pr0  1  0.305842  0.307056  0.834487  1
  Pr  Pr1  1  0.003861  0.996310  0.499707  1
  Nd  Nd2  1  0.309393  0.302769  0.357132  1
  Nd  Nd3  1  0.697165  0.690692  0.641912  1
  Nd  Nd4  1  0.692680  0.693829  0.165973  1
  Fe  Fe5  1  0.752382  0.247513  0.000362  1
  Ru  Ru6  1  0.240002  0.760011  0.000408  1
  O  O7  1  0.096238  0.593260  0.576433  1
  O  O8  1  0.009727  0.989238  0.175173  1
  O  O9  1  0.407868  0.902771  0.421680  1
  O  O10  1  0.486612  0.514244  0.176928  1
  O  O11  1  0.098652  0.581503  0.079912  1
  O  O12  1  0.906422  0.403052  0.421401  1
  O  O13  1  0.011142  0.990621  0.824664  1
  O  O14  1  0.598028  0.092551  0.576791  1
  O  O15  1  0.486002  0.513719  0.823883  1
  O  O16  1  0.583559  0.103682  0.078161  1
  O  O17  1  0.420701  0.898707  0.921526  1
  O  O18  1  0.893724  0.418472  0.923467  1
