# generated using pymatgen
data_TbFeCo(PIr)3
_symmetry_space_group_name_H-M   'P 1'
_cell_length_a   3.86753800
_cell_length_b   10.57197700
_cell_length_c   12.25510200
_cell_angle_alpha   90.00000000
_cell_angle_beta   90.00000000
_cell_angle_gamma   90.00000000
_symmetry_Int_Tables_number   1
_chemical_formula_structural   TbFeCo(PIr)3
_chemical_formula_sum   'Tb4 Fe4 Co4 P12 Ir12'
_cell_volume   501.08076223
_cell_formula_units_Z   4
loop_
 _symmetry_equiv_pos_site_id
 _symmetry_equiv_pos_as_xyz
  1  'x, y, z'
loop_
 _atom_site_type_symbol
 _atom_site_label
 _atom_site_symmetry_multiplicity
 _atom_site_fract_x
 _atom_site_fract_y
 _atom_site_fract_z
 _atom_site_occupancy
  Tb  Tb0  1  0.250000  0.582708  0.710785  1
  Tb  Tb1  1  0.250000  0.917292  0.210785  1
  Tb  Tb2  1  0.750000  0.417292  0.289215  1
  Tb  Tb3  1  0.750000  0.082708  0.789215  1
  Fe  Fe4  1  0.250000  0.881380  0.694983  1
  Fe  Fe5  1  0.250000  0.618620  0.194983  1
  Fe  Fe6  1  0.750000  0.118620  0.305017  1
  Fe  Fe7  1  0.750000  0.381380  0.805017  1
  Co  Co8  1  0.250000  0.462144  0.934595  1
  Co  Co9  1  0.250000  0.037856  0.434595  1
  Co  Co10  1  0.750000  0.537856  0.065405  1
  Co  Co11  1  0.750000  0.962144  0.565405  1
  P  P12  1  0.250000  0.434587  0.111490  1
  P  P13  1  0.250000  0.065413  0.611490  1
  P  P14  1  0.750000  0.565413  0.888510  1
  P  P15  1  0.750000  0.934587  0.388510  1
  P  P16  1  0.250000  0.274739  0.868024  1
  P  P17  1  0.250000  0.225261  0.368024  1
  P  P18  1  0.750000  0.725261  0.131976  1
  P  P19  1  0.750000  0.774739  0.631976  1
  P  P20  1  0.250000  0.598291  0.375632  1
  P  P21  1  0.250000  0.901709  0.875632  1
  P  P22  1  0.750000  0.401709  0.624368  1
  P  P23  1  0.750000  0.098291  0.124368  1
  Ir  Ir24  1  0.250000  0.722824  0.990410  1
  Ir  Ir25  1  0.250000  0.777176  0.490410  1
  Ir  Ir26  1  0.750000  0.277176  0.009590  1
  Ir  Ir27  1  0.750000  0.222824  0.509590  1
  Ir  Ir28  1  0.250000  0.409749  0.476275  1
  Ir  Ir29  1  0.250000  0.090251  0.976275  1
  Ir  Ir30  1  0.750000  0.590251  0.523725  1
  Ir  Ir31  1  0.750000  0.909749  0.023725  1
  Ir  Ir32  1  0.250000  0.227879  0.177056  1
  Ir  Ir33  1  0.250000  0.272121  0.677056  1
  Ir  Ir34  1  0.750000  0.772121  0.822944  1
  Ir  Ir35  1  0.750000  0.727879  0.322944  1
