# generated using pymatgen
data_Dy7Hg10
_symmetry_space_group_name_H-M   'P 1'
_cell_length_a   9.14020737
_cell_length_b   9.14020865
_cell_length_c   10.72780800
_cell_angle_alpha   90.00000000
_cell_angle_beta   90.00000000
_cell_angle_gamma   108.04801398
_symmetry_Int_Tables_number   1
_chemical_formula_structural   Dy7Hg10
_chemical_formula_sum   'Dy14 Hg20'
_cell_volume   852.14020567
_cell_formula_units_Z   2
loop_
 _symmetry_equiv_pos_site_id
 _symmetry_equiv_pos_as_xyz
  1  'x, y, z'
loop_
 _atom_site_type_symbol
 _atom_site_label
 _atom_site_symmetry_multiplicity
 _atom_site_fract_x
 _atom_site_fract_y
 _atom_site_fract_z
 _atom_site_occupancy
  Dy  Dy0  1  0.692761  0.307239  0.000000  1
  Dy  Dy1  1  0.307239  0.692761  0.000000  1
  Dy  Dy2  1  0.807239  0.192761  0.500000  1
  Dy  Dy3  1  0.192761  0.807239  0.500000  1
  Dy  Dy4  1  0.000000  0.000000  0.000000  1
  Dy  Dy5  1  0.500000  0.500000  0.500000  1
  Dy  Dy6  1  0.007932  0.507932  0.250000  1
  Dy  Dy7  1  0.992068  0.492068  0.750000  1
  Dy  Dy8  1  0.492068  0.992068  0.750000  1
  Dy  Dy9  1  0.507932  0.007932  0.250000  1
  Dy  Dy10  1  0.308938  0.308938  0.193136  1
  Dy  Dy11  1  0.691062  0.691062  0.806864  1
  Dy  Dy12  1  0.191062  0.191062  0.693136  1
  Dy  Dy13  1  0.808938  0.808938  0.306864  1
  Hg  Hg14  1  0.859087  0.149148  0.208647  1
  Hg  Hg15  1  0.140913  0.850852  0.791353  1
  Hg  Hg16  1  0.640913  0.350852  0.708647  1
  Hg  Hg17  1  0.649148  0.359087  0.291353  1
  Hg  Hg18  1  0.359087  0.649148  0.291353  1
  Hg  Hg19  1  0.350852  0.640913  0.708647  1
  Hg  Hg20  1  0.850852  0.140913  0.791353  1
  Hg  Hg21  1  0.149148  0.859087  0.208647  1
  Hg  Hg22  1  0.936662  0.645805  0.998527  1
  Hg  Hg23  1  0.063338  0.354195  0.001473  1
  Hg  Hg24  1  0.563338  0.854195  0.498527  1
  Hg  Hg25  1  0.145805  0.436662  0.501473  1
  Hg  Hg26  1  0.436662  0.145805  0.501473  1
  Hg  Hg27  1  0.854195  0.563338  0.498527  1
  Hg  Hg28  1  0.354195  0.063338  0.001473  1
  Hg  Hg29  1  0.645805  0.936662  0.998527  1
  Hg  Hg30  1  0.102498  0.102498  0.399403  1
  Hg  Hg31  1  0.897502  0.897502  0.600597  1
  Hg  Hg32  1  0.397502  0.397502  0.899403  1
  Hg  Hg33  1  0.602498  0.602498  0.100597  1
