# generated using pymatgen
data_Cu30Si7P
_symmetry_space_group_name_H-M   'P 1'
_cell_length_a   8.39886852
_cell_length_b   8.39886926
_cell_length_c   8.39886966
_cell_angle_alpha   109.43519415
_cell_angle_beta   109.43519665
_cell_angle_gamma   109.43518276
_symmetry_Int_Tables_number   1
_chemical_formula_structural   Cu30Si7P
_chemical_formula_sum   'Cu30 Si7 P1'
_cell_volume   456.68687891
_cell_formula_units_Z   1
loop_
 _symmetry_equiv_pos_site_id
 _symmetry_equiv_pos_as_xyz
  1  'x, y, z'
loop_
 _atom_site_type_symbol
 _atom_site_label
 _atom_site_symmetry_multiplicity
 _atom_site_fract_x
 _atom_site_fract_y
 _atom_site_fract_z
 _atom_site_occupancy
  Cu  Cu0  1  0.626385  0.374152  0.248555  1
  Cu  Cu1  1  0.248555  0.626385  0.374152  1
  Cu  Cu2  1  0.749478  0.874950  0.124795  1
  Cu  Cu3  1  0.124795  0.749478  0.874950  1
  Cu  Cu4  1  0.374152  0.248555  0.626385  1
  Cu  Cu5  1  0.874950  0.124795  0.749478  1
  Cu  Cu6  1  0.071493  0.273924  0.121758  1
  Cu  Cu7  1  0.700797  0.049088  0.926033  1
  Cu  Cu8  1  0.877643  0.450603  0.151875  1
  Cu  Cu9  1  0.151875  0.877643  0.450603  1
  Cu  Cu10  1  0.347477  0.798931  0.725019  1
  Cu  Cu11  1  0.725019  0.347477  0.798931  1
  Cu  Cu12  1  0.049088  0.926033  0.700797  1
  Cu  Cu13  1  0.224910  0.298697  0.848734  1
  Cu  Cu14  1  0.202136  0.426389  0.549034  1
  Cu  Cu15  1  0.950437  0.376599  0.651769  1
  Cu  Cu16  1  0.298697  0.848734  0.224910  1
  Cu  Cu17  1  0.549034  0.202136  0.426389  1
  Cu  Cu18  1  0.376599  0.651769  0.950437  1
  Cu  Cu19  1  0.121758  0.071493  0.273924  1
  Cu  Cu20  1  0.273924  0.121758  0.071493  1
  Cu  Cu21  1  0.848734  0.224910  0.298697  1
  Cu  Cu22  1  0.426389  0.549034  0.202136  1
  Cu  Cu23  1  0.651769  0.950437  0.376599  1
  Cu  Cu24  1  0.624246  0.776106  0.574131  1
  Cu  Cu25  1  0.574131  0.624246  0.776106  1
  Cu  Cu26  1  0.776106  0.574131  0.624246  1
  Cu  Cu27  1  0.798931  0.725019  0.347477  1
  Cu  Cu28  1  0.926033  0.700797  0.049088  1
  Cu  Cu29  1  0.450603  0.151875  0.877643  1
  Si  Si30  1  0.499912  0.999991  0.588023  1
  Si  Si31  1  0.588023  0.499912  0.999991  1
  Si  Si32  1  0.999991  0.588023  0.499912  1
  Si  Si33  1  0.088401  0.500339  0.000666  1
  Si  Si34  1  0.000666  0.088401  0.500339  1
  Si  Si35  1  0.500339  0.000666  0.088401  1
  Si  Si36  1  0.912452  0.912452  0.912452  1
  P  P37  1  0.414070  0.414070  0.414070  1
