# generated using pymatgen
data_ThSi2Ni9
_symmetry_space_group_name_H-M   'P 1'
_cell_length_a   7.60709639
_cell_length_b   7.60709746
_cell_length_c   7.60709683
_cell_angle_alpha   99.55664796
_cell_angle_beta   99.55665537
_cell_angle_gamma   131.90939569
_symmetry_Int_Tables_number   1
_chemical_formula_structural   ThSi2Ni9
_chemical_formula_sum   'Th2 Si4 Ni18'
_cell_volume   299.17465007
_cell_formula_units_Z   2
loop_
 _symmetry_equiv_pos_site_id
 _symmetry_equiv_pos_as_xyz
  1  'x, y, z'
loop_
 _atom_site_type_symbol
 _atom_site_label
 _atom_site_symmetry_multiplicity
 _atom_site_fract_x
 _atom_site_fract_y
 _atom_site_fract_z
 _atom_site_occupancy
  Th  Th0  1  0.500000  0.500000  0.000000  1
  Th  Th1  1  0.750000  0.250000  0.500000  1
  Si  Si2  1  0.625000  0.875000  0.750000  1
  Si  Si3  1  0.125000  0.375000  0.250000  1
  Si  Si4  1  0.125000  0.875000  0.750000  1
  Si  Si5  1  0.125000  0.875000  0.250000  1
  Ni  Ni6  1  0.250000  0.750000  0.500000  1
  Ni  Ni7  1  0.000000  0.000000  0.000000  1
  Ni  Ni8  1  0.687698  0.014614  0.078700  1
  Ni  Ni9  1  0.687698  0.608999  0.673085  1
  Ni  Ni10  1  0.264614  0.437698  0.578700  1
  Ni  Ni11  1  0.264614  0.685914  0.826915  1
  Ni  Ni12  1  0.935914  0.014614  0.326915  1
  Ni  Ni13  1  0.935914  0.608999  0.921300  1
  Ni  Ni14  1  0.858999  0.437698  0.173085  1
  Ni  Ni15  1  0.858999  0.685914  0.421300  1
  Ni  Ni16  1  0.562302  0.735386  0.421300  1
  Ni  Ni17  1  0.562302  0.141001  0.826915  1
  Ni  Ni18  1  0.985386  0.312302  0.921300  1
  Ni  Ni19  1  0.985386  0.064086  0.673085  1
  Ni  Ni20  1  0.314086  0.735386  0.173085  1
  Ni  Ni21  1  0.314086  0.141001  0.578700  1
  Ni  Ni22  1  0.391001  0.312302  0.326915  1
  Ni  Ni23  1  0.391001  0.064086  0.078700  1
