# generated using pymatgen
data_DyY6Tm13(Cd3Ru)2
_symmetry_space_group_name_H-M   'P 1'
_cell_length_a   9.52734817
_cell_length_b   9.52734757
_cell_length_c   9.74031516
_cell_angle_alpha   89.98184447
_cell_angle_beta   90.01815772
_cell_angle_gamma   120.01171431
_symmetry_Int_Tables_number   1
_chemical_formula_structural   DyY6Tm13(Cd3Ru)2
_chemical_formula_sum   'Dy1 Y6 Tm13 Cd6 Ru2'
_cell_volume   765.59022694
_cell_formula_units_Z   1
loop_
 _symmetry_equiv_pos_site_id
 _symmetry_equiv_pos_as_xyz
  1  'x, y, z'
loop_
 _atom_site_type_symbol
 _atom_site_label
 _atom_site_symmetry_multiplicity
 _atom_site_fract_x
 _atom_site_fract_y
 _atom_site_fract_z
 _atom_site_occupancy
  Dy  Dy0  1  0.209756  0.790244  0.440042  1
  Y  Y1  1  0.540463  0.459537  0.250025  1
  Y  Y2  1  0.540802  0.081279  0.249797  1
  Y  Y3  1  0.918721  0.459198  0.249797  1
  Y  Y4  1  0.459501  0.540499  0.750048  1
  Y  Y5  1  0.459705  0.919114  0.750241  1
  Y  Y6  1  0.080886  0.540295  0.750241  1
  Tm  Tm7  1  0.999838  0.000162  0.500058  1
  Tm  Tm8  1  0.999986  0.000014  0.000061  1
  Tm  Tm9  1  0.209899  0.419400  0.440108  1
  Tm  Tm10  1  0.580600  0.790101  0.440108  1
  Tm  Tm11  1  0.790058  0.209942  0.559949  1
  Tm  Tm12  1  0.789860  0.580056  0.560034  1
  Tm  Tm13  1  0.419944  0.210140  0.560034  1
  Tm  Tm14  1  0.790070  0.209930  0.940044  1
  Tm  Tm15  1  0.790100  0.580151  0.940075  1
  Tm  Tm16  1  0.419849  0.209900  0.940075  1
  Tm  Tm17  1  0.209864  0.790136  0.059647  1
  Tm  Tm18  1  0.210056  0.419881  0.059933  1
  Tm  Tm19  1  0.580119  0.789944  0.059933  1
  Cd  Cd20  1  0.885874  0.114126  0.250003  1
  Cd  Cd21  1  0.885759  0.771711  0.249923  1
  Cd  Cd22  1  0.228289  0.114241  0.249923  1
  Cd  Cd23  1  0.114069  0.885931  0.750179  1
  Cd  Cd24  1  0.114118  0.228295  0.750051  1
  Cd  Cd25  1  0.771705  0.885882  0.750051  1
  Ru  Ru26  1  0.333458  0.666542  0.249656  1
  Ru  Ru27  1  0.666649  0.333351  0.749966  1
