# generated using pymatgen
data_TbHo7Mg2(SiB4)4
_symmetry_space_group_name_H-M   'P 1'
_cell_length_a   7.15468604
_cell_length_b   7.15468604
_cell_length_c   7.82350300
_cell_angle_alpha   89.99806440
_cell_angle_beta   90.00193560
_cell_angle_gamma   89.98880463
_symmetry_Int_Tables_number   1
_chemical_formula_structural   TbHo7Mg2(SiB4)4
_chemical_formula_sum   'Tb1 Ho7 Mg2 Si4 B16'
_cell_volume   400.48145123
_cell_formula_units_Z   1
loop_
 _symmetry_equiv_pos_site_id
 _symmetry_equiv_pos_as_xyz
  1  'x, y, z'
loop_
 _atom_site_type_symbol
 _atom_site_label
 _atom_site_symmetry_multiplicity
 _atom_site_fract_x
 _atom_site_fract_y
 _atom_site_fract_z
 _atom_site_occupancy
  Tb  Tb0  1  0.183065  0.316935  0.234306  1
  Ho  Ho1  1  0.683065  0.182997  0.232786  1
  Ho  Ho2  1  0.316985  0.816898  0.767277  1
  Ho  Ho3  1  0.317003  0.816935  0.232786  1
  Ho  Ho4  1  0.816841  0.683159  0.232617  1
  Ho  Ho5  1  0.816898  0.683102  0.767370  1
  Ho  Ho6  1  0.683102  0.183015  0.767277  1
  Ho  Ho7  1  0.183006  0.316994  0.767287  1
  Mg  Mg8  1  0.999792  0.999632  0.500329  1
  Mg  Mg9  1  0.500368  0.500208  0.500329  1
  Si  Si10  1  0.115120  0.616189  0.500656  1
  Si  Si11  1  0.883811  0.384880  0.500656  1
  Si  Si12  1  0.385148  0.114852  0.500853  1
  Si  Si13  1  0.615717  0.884283  0.500113  1
  B  B14  1  0.173659  0.039525  0.999721  1
  B  B15  1  0.826045  0.960035  0.999785  1
  B  B16  1  0.959859  0.173677  0.999648  1
  B  B17  1  0.326323  0.540141  0.999648  1
  B  B18  1  0.039696  0.826007  0.999738  1
  B  B19  1  0.673993  0.460304  0.999738  1
  B  B20  1  0.539965  0.673955  0.999785  1
  B  B21  1  0.460475  0.326341  0.999721  1
  B  B22  1  0.089452  0.589650  0.999496  1
  B  B23  1  0.910350  0.410548  0.999496  1
  B  B24  1  0.410510  0.089490  0.999891  1
  B  B25  1  0.589554  0.910446  0.999845  1
  B  B26  1  0.999707  0.999450  0.162733  1
  B  B27  1  0.999893  0.999954  0.836688  1
  B  B28  1  0.500046  0.500107  0.836688  1
  B  B29  1  0.500550  0.500293  0.162733  1
