# generated using pymatgen
data_Ho7Tm3(Sn3P)2
_symmetry_space_group_name_H-M   'P 1'
_cell_length_a   9.00934600
_cell_length_b   9.00934593
_cell_length_c   6.62786900
_cell_angle_alpha   90.00000000
_cell_angle_beta   90.00000000
_cell_angle_gamma   119.99999293
_symmetry_Int_Tables_number   1
_chemical_formula_structural   Ho7Tm3(Sn3P)2
_chemical_formula_sum   'Ho7 Tm3 Sn6 P2'
_cell_volume   465.89828025
_cell_formula_units_Z   1
loop_
 _symmetry_equiv_pos_site_id
 _symmetry_equiv_pos_as_xyz
  1  'x, y, z'
loop_
 _atom_site_type_symbol
 _atom_site_label
 _atom_site_symmetry_multiplicity
 _atom_site_fract_x
 _atom_site_fract_y
 _atom_site_fract_z
 _atom_site_occupancy
  Ho  Ho0  1  0.666667  0.333333  0.000000  1
  Ho  Ho1  1  0.757828  0.757979  0.749916  1
  Ho  Ho2  1  0.242021  0.999848  0.749916  1
  Ho  Ho3  1  0.000152  0.242172  0.749916  1
  Ho  Ho4  1  0.242021  0.242172  0.250084  1
  Ho  Ho5  1  0.757828  0.999848  0.250084  1
  Ho  Ho6  1  0.000152  0.757979  0.250084  1
  Tm  Tm7  1  0.333333  0.666667  0.000000  1
  Tm  Tm8  1  0.333333  0.666667  0.500000  1
  Tm  Tm9  1  0.666667  0.333333  0.500000  1
  Sn  Sn10  1  0.398859  0.399150  0.749739  1
  Sn  Sn11  1  0.600850  0.999709  0.749739  1
  Sn  Sn12  1  0.000291  0.601141  0.749739  1
  Sn  Sn13  1  0.600850  0.601141  0.250261  1
  Sn  Sn14  1  0.398859  0.999709  0.250261  1
  Sn  Sn15  1  0.000291  0.399150  0.250261  1
  P  P16  1  0.000000  0.000000  0.000000  1
  P  P17  1  0.000000  0.000000  0.500000  1
