# generated using pymatgen
data_Tb3Be2(PPd5)4
_symmetry_space_group_name_H-M   'P 1'
_cell_length_a   8.67307305
_cell_length_b   8.59722907
_cell_length_c   8.59722846
_cell_angle_alpha   60.58451659
_cell_angle_beta   59.70773669
_cell_angle_gamma   59.70774035
_symmetry_Int_Tables_number   1
_chemical_formula_structural   Tb3Be2(PPd5)4
_chemical_formula_sum   'Tb3 Be2 P4 Pd20'
_cell_volume   453.21757613
_cell_formula_units_Z   1
loop_
 _symmetry_equiv_pos_site_id
 _symmetry_equiv_pos_as_xyz
  1  'x, y, z'
loop_
 _atom_site_type_symbol
 _atom_site_label
 _atom_site_symmetry_multiplicity
 _atom_site_fract_x
 _atom_site_fract_y
 _atom_site_fract_z
 _atom_site_occupancy
  Tb  Tb0  1  0.250000  0.250000  0.250000  1
  Tb  Tb1  1  0.750000  0.750000  0.750000  1
  Tb  Tb2  1  0.000000  0.000000  0.000000  1
  Be  Be3  1  0.733334  0.266666  0.266666  1
  Be  Be4  1  0.266666  0.733334  0.733334  1
  P  P5  1  0.266347  0.733653  0.266347  1
  P  P6  1  0.733653  0.266347  0.733653  1
  P  P7  1  0.266347  0.266347  0.733653  1
  P  P8  1  0.733653  0.733653  0.266347  1
  Pd  Pd9  1  0.387789  0.382455  0.382455  1
  Pd  Pd10  1  0.612211  0.617545  0.617545  1
  Pd  Pd11  1  0.382455  0.387789  0.847302  1
  Pd  Pd12  1  0.382455  0.847302  0.387789  1
  Pd  Pd13  1  0.617545  0.612211  0.152698  1
  Pd  Pd14  1  0.617545  0.152698  0.612211  1
  Pd  Pd15  1  0.847302  0.382455  0.382455  1
  Pd  Pd16  1  0.152698  0.617545  0.617545  1
  Pd  Pd17  1  0.344580  0.000000  0.000000  1
  Pd  Pd18  1  0.655420  0.000000  0.000000  1
  Pd  Pd19  1  0.000000  0.344580  0.655420  1
  Pd  Pd20  1  0.000000  0.655420  0.344580  1
  Pd  Pd21  1  0.997045  0.343743  0.002955  1
  Pd  Pd22  1  0.656257  0.002955  0.343743  1
  Pd  Pd23  1  0.002955  0.656257  0.997045  1
  Pd  Pd24  1  0.343743  0.997045  0.656257  1
  Pd  Pd25  1  0.997045  0.002955  0.343743  1
  Pd  Pd26  1  0.002955  0.997045  0.656257  1
  Pd  Pd27  1  0.656257  0.343743  0.002955  1
  Pd  Pd28  1  0.343743  0.656257  0.997045  1
