# generated using pymatgen
data_LaSmPa2(Al3Ir)6
_symmetry_space_group_name_H-M   'P 1'
_cell_length_a   7.62909605
_cell_length_b   7.62800826
_cell_length_c   9.42600300
_cell_angle_alpha   90.00000000
_cell_angle_beta   90.00000000
_cell_angle_gamma   119.60774567
_symmetry_Int_Tables_number   1
_chemical_formula_structural   LaSmPa2(Al3Ir)6
_chemical_formula_sum   'La1 Sm1 Pa2 Al18 Ir6'
_cell_volume   476.91996887
_cell_formula_units_Z   1
loop_
 _symmetry_equiv_pos_site_id
 _symmetry_equiv_pos_as_xyz
  1  'x, y, z'
loop_
 _atom_site_type_symbol
 _atom_site_label
 _atom_site_symmetry_multiplicity
 _atom_site_fract_x
 _atom_site_fract_y
 _atom_site_fract_z
 _atom_site_occupancy
  La  La0  1  0.330465  0.005987  0.750000  1
  Sm  Sm1  1  0.669972  0.993585  0.250000  1
  Pa  Pa2  1  0.998120  0.671804  0.250000  1
  Pa  Pa3  1  0.001825  0.328297  0.750000  1
  Al  Al4  1  0.130713  0.128123  0.250000  1
  Al  Al5  1  0.866371  0.871314  0.750000  1
  Al  Al6  1  0.001049  0.332678  0.076539  1
  Al  Al7  1  0.996958  0.665336  0.924870  1
  Al  Al8  1  0.996958  0.665336  0.575130  1
  Al  Al9  1  0.337914  0.003958  0.423328  1
  Al  Al10  1  0.001049  0.332678  0.423461  1
  Al  Al11  1  0.664217  0.996437  0.573525  1
  Al  Al12  1  0.664217  0.996437  0.926475  1
  Al  Al13  1  0.337914  0.003958  0.076672  1
  Al  Al14  1  0.334975  0.335448  0.550074  1
  Al  Al15  1  0.665037  0.666110  0.447889  1
  Al  Al16  1  0.665037  0.666110  0.052111  1
  Al  Al17  1  0.334975  0.335448  0.949926  1
  Al  Al18  1  0.339454  0.547155  0.250000  1
  Al  Al19  1  0.662609  0.455516  0.750000  1
  Al  Al20  1  0.550493  0.344370  0.250000  1
  Al  Al21  1  0.450282  0.654293  0.750000  1
  Ir  Ir22  1  0.676280  0.330818  0.000000  1
  Ir  Ir23  1  0.323953  0.669332  0.000906  1
  Ir  Ir24  1  0.323953  0.669332  0.499094  1
  Ir  Ir25  1  0.676280  0.330818  0.500000  1
  Ir  Ir26  1  0.999465  0.999661  0.000552  1
  Ir  Ir27  1  0.999465  0.999661  0.499448  1
