# generated using pymatgen
data_HoEr2ZnSn3Ir2
_symmetry_space_group_name_H-M   'P 1'
_cell_length_a   7.45518028
_cell_length_b   7.46649197
_cell_length_c   4.01512100
_cell_angle_alpha   90.00000000
_cell_angle_beta   90.00000000
_cell_angle_gamma   120.01704751
_symmetry_Int_Tables_number   1
_chemical_formula_structural   HoEr2ZnSn3Ir2
_chemical_formula_sum   'Ho1 Er2 Zn1 Sn3 Ir2'
_cell_volume   193.52157609
_cell_formula_units_Z   1
loop_
 _symmetry_equiv_pos_site_id
 _symmetry_equiv_pos_as_xyz
  1  'x, y, z'
loop_
 _atom_site_type_symbol
 _atom_site_label
 _atom_site_symmetry_multiplicity
 _atom_site_fract_x
 _atom_site_fract_y
 _atom_site_fract_z
 _atom_site_occupancy
  Ho  Ho0  1  0.393643  0.409849  0.500000  1
  Er  Er1  1  0.590029  0.982953  0.500000  1
  Er  Er2  1  0.017095  0.607235  0.500000  1
  Zn  Zn3  1  0.666901  0.333362  0.000000  1
  Sn  Sn4  1  0.743994  0.742178  0.000000  1
  Sn  Sn5  1  0.257706  0.001497  0.000000  1
  Sn  Sn6  1  0.998058  0.256019  0.000000  1
  Ir  Ir7  1  0.332997  0.667164  0.000000  1
  Ir  Ir8  1  0.999579  0.999742  0.500000  1
