# generated using pymatgen
data_DyTc3As4Rh3
_symmetry_space_group_name_H-M   'P 1'
_cell_length_a   7.20536678
_cell_length_b   7.21462119
_cell_length_c   3.89746200
_cell_angle_alpha   90.00000000
_cell_angle_beta   90.00000000
_cell_angle_gamma   120.04248730
_symmetry_Int_Tables_number   1
_chemical_formula_structural   DyTc3As4Rh3
_chemical_formula_sum   'Dy1 Tc3 As4 Rh3'
_cell_volume   175.38645633
_cell_formula_units_Z   1
loop_
 _symmetry_equiv_pos_site_id
 _symmetry_equiv_pos_as_xyz
  1  'x, y, z'
loop_
 _atom_site_type_symbol
 _atom_site_label
 _atom_site_symmetry_multiplicity
 _atom_site_fract_x
 _atom_site_fract_y
 _atom_site_fract_z
 _atom_site_occupancy
  Dy  Dy0  1  0.999967  0.999984  0.000000  1
  Tc  Tc1  1  0.535947  0.072097  0.000000  1
  Tc  Tc2  1  0.535947  0.463850  0.000000  1
  Tc  Tc3  1  0.927773  0.463886  0.000000  1
  As  As4  1  0.808169  0.616281  0.500000  1
  As  As5  1  0.333231  0.666616  0.000000  1
  As  As6  1  0.383533  0.191766  0.500000  1
  As  As7  1  0.808169  0.191887  0.500000  1
  Rh  Rh8  1  0.606984  0.803492  0.500000  1
  Rh  Rh9  1  0.196806  0.393231  0.500000  1
  Rh  Rh10  1  0.196806  0.803575  0.500000  1
