# generated using pymatgen
data_Pr3Zn4Cl
_symmetry_space_group_name_H-M   'P 1'
_cell_length_a   8.05211211
_cell_length_b   8.05211205
_cell_length_c   8.05211235
_cell_angle_alpha   119.56789326
_cell_angle_beta   119.56789182
_cell_angle_gamma   90.75007751
_symmetry_Int_Tables_number   1
_chemical_formula_structural   Pr3Zn4Cl
_chemical_formula_sum   'Pr6 Zn8 Cl2'
_cell_volume   371.53646017
_cell_formula_units_Z   2
loop_
 _symmetry_equiv_pos_site_id
 _symmetry_equiv_pos_as_xyz
  1  'x, y, z'
loop_
 _atom_site_type_symbol
 _atom_site_label
 _atom_site_symmetry_multiplicity
 _atom_site_fract_x
 _atom_site_fract_y
 _atom_site_fract_z
 _atom_site_occupancy
  Pr  Pr0  1  0.659546  0.159546  0.819092  1
  Pr  Pr1  1  0.159546  0.340454  0.500000  1
  Pr  Pr2  1  0.840454  0.659546  0.500000  1
  Pr  Pr3  1  0.750000  0.750000  0.000000  1
  Pr  Pr4  1  0.340454  0.840454  0.180908  1
  Pr  Pr5  1  0.250000  0.250000  0.000000  1
  Zn  Zn6  1  0.943010  0.443010  0.783058  1
  Zn  Zn7  1  0.840048  0.056990  0.500000  1
  Zn  Zn8  1  0.340048  0.840048  0.783058  1
  Zn  Zn9  1  0.443010  0.659952  0.500000  1
  Zn  Zn10  1  0.556990  0.340048  0.500000  1
  Zn  Zn11  1  0.056990  0.556990  0.216942  1
  Zn  Zn12  1  0.159952  0.943010  0.500000  1
  Zn  Zn13  1  0.659952  0.159952  0.216942  1
  Cl  Cl14  1  0.500000  0.500000  0.000000  1
  Cl  Cl15  1  0.000000  0.000000  0.000000  1
