# generated using pymatgen
data_Tb3Ho3Th2(ZnIr)2
_symmetry_space_group_name_H-M   'P 1'
_cell_length_a   9.68514062
_cell_length_b   9.68514133
_cell_length_c   9.68514200
_cell_angle_alpha   60.00000453
_cell_angle_beta   60.00000213
_cell_angle_gamma   59.99999988
_symmetry_Int_Tables_number   1
_chemical_formula_structural   Tb3Ho3Th2(ZnIr)2
_chemical_formula_sum   'Tb6 Ho6 Th4 Zn4 Ir4'
_cell_volume   642.39612039
_cell_formula_units_Z   2
loop_
 _symmetry_equiv_pos_site_id
 _symmetry_equiv_pos_as_xyz
  1  'x, y, z'
loop_
 _atom_site_type_symbol
 _atom_site_label
 _atom_site_symmetry_multiplicity
 _atom_site_fract_x
 _atom_site_fract_y
 _atom_site_fract_z
 _atom_site_occupancy
  Tb  Tb0  1  0.185495  0.814505  0.814505  1
  Tb  Tb1  1  0.814505  0.185495  0.185495  1
  Tb  Tb2  1  0.814505  0.185495  0.814505  1
  Tb  Tb3  1  0.185495  0.814505  0.185495  1
  Tb  Tb4  1  0.814505  0.814505  0.185495  1
  Tb  Tb5  1  0.185495  0.185495  0.814505  1
  Ho  Ho6  1  0.061956  0.438044  0.438044  1
  Ho  Ho7  1  0.438044  0.061956  0.061956  1
  Ho  Ho8  1  0.438044  0.061956  0.438044  1
  Ho  Ho9  1  0.061956  0.438044  0.061956  1
  Ho  Ho10  1  0.438044  0.438044  0.061956  1
  Ho  Ho11  1  0.061956  0.061956  0.438044  1
  Th  Th12  1  0.602769  0.602769  0.602769  1
  Th  Th13  1  0.602769  0.602769  0.191694  1
  Th  Th14  1  0.602769  0.191694  0.602769  1
  Th  Th15  1  0.191694  0.602769  0.602769  1
  Zn  Zn16  1  0.832361  0.832361  0.832361  1
  Zn  Zn17  1  0.832361  0.832361  0.502916  1
  Zn  Zn18  1  0.832361  0.502916  0.832361  1
  Zn  Zn19  1  0.502916  0.832361  0.832361  1
  Ir  Ir20  1  0.393492  0.393492  0.393492  1
  Ir  Ir21  1  0.393492  0.393492  0.819523  1
  Ir  Ir22  1  0.393492  0.819523  0.393492  1
  Ir  Ir23  1  0.819523  0.393492  0.393492  1
