# generated using pymatgen
data_Li8Dy2Ho6Sn7Sb
_symmetry_space_group_name_H-M   'P 1'
_cell_length_a   9.37196201
_cell_length_b   9.37261087
_cell_length_c   7.25083201
_cell_angle_alpha   90.06534782
_cell_angle_beta   89.99514872
_cell_angle_gamma   120.00174304
_symmetry_Int_Tables_number   1
_chemical_formula_structural   Li8Dy2Ho6Sn7Sb
_chemical_formula_sum   'Li8 Dy2 Ho6 Sn7 Sb1'
_cell_volume   551.57122648
_cell_formula_units_Z   1
loop_
 _symmetry_equiv_pos_site_id
 _symmetry_equiv_pos_as_xyz
  1  'x, y, z'
loop_
 _atom_site_type_symbol
 _atom_site_label
 _atom_site_symmetry_multiplicity
 _atom_site_fract_x
 _atom_site_fract_y
 _atom_site_fract_z
 _atom_site_occupancy
  Li  Li0  1  0.166705  0.333587  0.288174  1
  Li  Li1  1  0.166986  0.833198  0.288479  1
  Li  Li2  1  0.666257  0.833305  0.288416  1
  Li  Li3  1  0.833353  0.666585  0.788269  1
  Li  Li4  1  0.832356  0.166233  0.789345  1
  Li  Li5  1  0.333879  0.166178  0.789344  1
  Li  Li6  1  0.333509  0.667211  0.670861  1
  Li  Li7  1  0.666805  0.333520  0.171841  1
  Dy  Dy8  1  0.512071  0.024085  0.493969  1
  Dy  Dy9  1  0.514552  0.490002  0.492000  1
  Ho  Ho10  1  0.975445  0.490021  0.491864  1
  Ho  Ho11  1  0.487917  0.975925  0.994340  1
  Ho  Ho12  1  0.490266  0.512311  0.994986  1
  Ho  Ho13  1  0.022023  0.512336  0.994986  1
  Ho  Ho14  1  0.998876  0.997739  0.498500  1
  Ho  Ho15  1  0.999074  0.998136  0.001363  1
  Sn  Sn16  1  0.166203  0.832473  0.730087  1
  Sn  Sn17  1  0.666296  0.832603  0.730290  1
  Sn  Sn18  1  0.833587  0.666871  0.230930  1
  Sn  Sn19  1  0.834149  0.167485  0.230372  1
  Sn  Sn20  1  0.333303  0.167367  0.230141  1
  Sn  Sn21  1  0.332607  0.665554  0.260025  1
  Sn  Sn22  1  0.667220  0.333950  0.761224  1
  Sb  Sb23  1  0.166558  0.333327  0.732165  1
