# generated using pymatgen
data_Tb3Dy2Hf5(Si5Ir2)4
_symmetry_space_group_name_H-M   'P 1'
_cell_length_a   12.49704920
_cell_length_b   12.49718620
_cell_length_c   4.17121700
_cell_angle_alpha   90.00000000
_cell_angle_beta   90.00000000
_cell_angle_gamma   90.02050287
_symmetry_Int_Tables_number   1
_chemical_formula_structural   Tb3Dy2Hf5(Si5Ir2)4
_chemical_formula_sum   'Tb3 Dy2 Hf5 Si20 Ir8'
_cell_volume   651.45208171
_cell_formula_units_Z   1
loop_
 _symmetry_equiv_pos_site_id
 _symmetry_equiv_pos_as_xyz
  1  'x, y, z'
loop_
 _atom_site_type_symbol
 _atom_site_label
 _atom_site_symmetry_multiplicity
 _atom_site_fract_x
 _atom_site_fract_y
 _atom_site_fract_z
 _atom_site_occupancy
  Tb  Tb0  1  0.884192  0.384879  0.500000  1
  Tb  Tb1  1  0.115818  0.615114  0.500000  1
  Tb  Tb2  1  0.384882  0.115816  0.500000  1
  Dy  Dy3  1  0.999970  0.999999  0.000000  1
  Dy  Dy4  1  0.615153  0.884177  0.500000  1
  Hf  Hf5  1  0.500004  0.500018  0.000000  1
  Hf  Hf6  1  0.673657  0.175362  0.500000  1
  Hf  Hf7  1  0.326413  0.824576  0.500000  1
  Hf  Hf8  1  0.175438  0.326324  0.500000  1
  Hf  Hf9  1  0.824522  0.673713  0.500000  1
  Si  Si10  1  0.565873  0.067986  0.000000  1
  Si  Si11  1  0.434211  0.931934  0.000000  1
  Si  Si12  1  0.068076  0.434110  0.000000  1
  Si  Si13  1  0.931917  0.565893  0.000000  1
  Si  Si14  1  0.665208  0.701570  0.000000  1
  Si  Si15  1  0.334810  0.298525  0.000000  1
  Si  Si16  1  0.163703  0.800370  0.000000  1
  Si  Si17  1  0.836261  0.199578  0.000000  1
  Si  Si18  1  0.298582  0.665224  0.000000  1
  Si  Si19  1  0.701471  0.334809  0.000000  1
  Si  Si20  1  0.199636  0.163694  0.000000  1
  Si  Si21  1  0.800274  0.836288  0.000000  1
  Si  Si22  1  0.650994  0.507763  0.500000  1
  Si  Si23  1  0.349014  0.492252  0.500000  1
  Si  Si24  1  0.157087  0.992695  0.500000  1
  Si  Si25  1  0.842835  0.007302  0.500000  1
  Si  Si26  1  0.492253  0.651067  0.500000  1
  Si  Si27  1  0.507742  0.348998  0.500000  1
  Si  Si28  1  0.007317  0.157068  0.500000  1
  Si  Si29  1  0.992673  0.842915  0.500000  1
  Ir  Ir30  1  0.741405  0.522251  0.000000  1
  Ir  Ir31  1  0.258587  0.477803  0.000000  1
  Ir  Ir32  1  0.246329  0.977213  0.000000  1
  Ir  Ir33  1  0.753506  0.022526  0.000000  1
  Ir  Ir34  1  0.478016  0.741684  0.000000  1
  Ir  Ir35  1  0.522225  0.258501  0.000000  1
  Ir  Ir36  1  0.022751  0.246234  0.000000  1
  Ir  Ir37  1  0.977197  0.753768  0.000000  1
