# generated using pymatgen
data_LiMg3(SiPd5)2
_symmetry_space_group_name_H-M   'P 1'
_cell_length_a   4.13258400
_cell_length_b   5.44257427
_cell_length_c   10.55509948
_cell_angle_alpha   90.55207554
_cell_angle_beta   90.00000000
_cell_angle_gamma   90.00000000
_symmetry_Int_Tables_number   1
_chemical_formula_structural   LiMg3(SiPd5)2
_chemical_formula_sum   'Li1 Mg3 Si2 Pd10'
_cell_volume   237.39317219
_cell_formula_units_Z   1
loop_
 _symmetry_equiv_pos_site_id
 _symmetry_equiv_pos_as_xyz
  1  'x, y, z'
loop_
 _atom_site_type_symbol
 _atom_site_label
 _atom_site_symmetry_multiplicity
 _atom_site_fract_x
 _atom_site_fract_y
 _atom_site_fract_z
 _atom_site_occupancy
  Li  Li0  1  0.500000  0.161311  0.143252  1
  Mg  Mg1  1  0.500000  0.842909  0.860333  1
  Mg  Mg2  1  0.500000  0.340555  0.643646  1
  Mg  Mg3  1  0.500000  0.656732  0.353096  1
  Si  Si4  1  0.000000  0.000332  0.497601  1
  Si  Si5  1  0.000000  0.494233  0.003219  1
  Pd  Pd6  1  0.500000  0.173227  0.396742  1
  Pd  Pd7  1  0.500000  0.825400  0.599153  1
  Pd  Pd8  1  0.500000  0.326076  0.901307  1
  Pd  Pd9  1  0.500000  0.681089  0.100499  1
  Pd  Pd10  1  0.000000  0.408353  0.228407  1
  Pd  Pd11  1  0.000000  0.583039  0.770905  1
  Pd  Pd12  1  0.000000  0.081095  0.731748  1
  Pd  Pd13  1  0.000000  0.913852  0.266836  1
  Pd  Pd14  1  0.000000  0.012136  0.004462  1
  Pd  Pd15  1  0.000000  0.499661  0.498794  1
