# generated using pymatgen
data_Tb3Er3Al24(Ir3Ru)2
_symmetry_space_group_name_H-M   'P 1'
_cell_length_a   8.82009300
_cell_length_b   8.82009223
_cell_length_c   9.48869900
_cell_angle_alpha   90.00000000
_cell_angle_beta   90.00000000
_cell_angle_gamma   119.99999914
_symmetry_Int_Tables_number   1
_chemical_formula_structural   Tb3Er3Al24(Ir3Ru)2
_chemical_formula_sum   'Tb3 Er3 Al24 Ir6 Ru2'
_cell_volume   639.26892894
_cell_formula_units_Z   1
loop_
 _symmetry_equiv_pos_site_id
 _symmetry_equiv_pos_as_xyz
  1  'x, y, z'
loop_
 _atom_site_type_symbol
 _atom_site_label
 _atom_site_symmetry_multiplicity
 _atom_site_fract_x
 _atom_site_fract_y
 _atom_site_fract_z
 _atom_site_occupancy
  Tb  Tb0  1  0.616674  0.808337  0.750000  1
  Tb  Tb1  1  0.191663  0.808337  0.750000  1
  Tb  Tb2  1  0.191663  0.383326  0.750000  1
  Er  Er3  1  0.386579  0.193289  0.250000  1
  Er  Er4  1  0.806711  0.193289  0.250000  1
  Er  Er5  1  0.806711  0.613421  0.250000  1
  Al  Al6  1  0.437983  0.875965  0.250000  1
  Al  Al7  1  0.124035  0.562017  0.250000  1
  Al  Al8  1  0.437983  0.562017  0.250000  1
  Al  Al9  1  0.562426  0.124852  0.750000  1
  Al  Al10  1  0.875148  0.437574  0.750000  1
  Al  Al11  1  0.562426  0.437574  0.750000  1
  Al  Al12  1  0.162998  0.837002  0.423422  1
  Al  Al13  1  0.162998  0.325998  0.423422  1
  Al  Al14  1  0.674002  0.837002  0.423422  1
  Al  Al15  1  0.836872  0.163128  0.575561  1
  Al  Al16  1  0.836872  0.673742  0.575561  1
  Al  Al17  1  0.326258  0.163128  0.575561  1
  Al  Al18  1  0.836872  0.163128  0.924439  1
  Al  Al19  1  0.836872  0.673742  0.924439  1
  Al  Al20  1  0.326258  0.163128  0.924439  1
  Al  Al21  1  0.162998  0.837002  0.076578  1
  Al  Al22  1  0.162998  0.325998  0.076578  1
  Al  Al23  1  0.674002  0.837002  0.076578  1
  Al  Al24  1  0.333333  0.666667  0.529544  1
  Al  Al25  1  0.666667  0.333333  0.469746  1
  Al  Al26  1  0.666667  0.333333  0.030254  1
  Al  Al27  1  0.333333  0.666667  0.970456  1
  Al  Al28  1  0.000000  0.000000  0.250000  1
  Al  Al29  1  0.000000  0.000000  0.750000  1
  Ir  Ir30  1  0.500430  0.000860  0.499015  1
  Ir  Ir31  1  0.999140  0.499570  0.499015  1
  Ir  Ir32  1  0.500430  0.499570  0.499015  1
  Ir  Ir33  1  0.500430  0.000860  0.000985  1
  Ir  Ir34  1  0.999140  0.499570  0.000985  1
  Ir  Ir35  1  0.500430  0.499570  0.000985  1
  Ru  Ru36  1  0.000000  0.000000  0.499218  1
  Ru  Ru37  1  0.000000  0.000000  0.000782  1
