# generated using pymatgen
data_Y3ErPd4F28
_symmetry_space_group_name_H-M   'P 1'
_cell_length_a   5.52004867
_cell_length_b   8.83317006
_cell_length_c   11.93164103
_cell_angle_alpha   62.53739132
_cell_angle_beta   89.97184893
_cell_angle_gamma   89.99179854
_symmetry_Int_Tables_number   1
_chemical_formula_structural   Y3ErPd4F28
_chemical_formula_sum   'Y3 Er1 Pd4 F28'
_cell_volume   516.22135846
_cell_formula_units_Z   1
loop_
 _symmetry_equiv_pos_site_id
 _symmetry_equiv_pos_as_xyz
  1  'x, y, z'
loop_
 _atom_site_type_symbol
 _atom_site_label
 _atom_site_symmetry_multiplicity
 _atom_site_fract_x
 _atom_site_fract_y
 _atom_site_fract_z
 _atom_site_occupancy
  Y  Y0  1  0.762125  0.812699  0.764497  1
  Y  Y1  1  0.262074  0.187193  0.735489  1
  Y  Y2  1  0.238000  0.185314  0.235714  1
  Er  Er3  1  0.737830  0.812472  0.264380  1
  Pd  Pd4  1  0.758743  0.271752  0.957327  1
  Pd  Pd5  1  0.259206  0.727797  0.542194  1
  Pd  Pd6  1  0.240574  0.727667  0.044285  1
  Pd  Pd7  1  0.740920  0.273666  0.456165  1
  F  F8  1  0.432654  0.701529  0.917676  1
  F  F9  1  0.932272  0.299126  0.583156  1
  F  F10  1  0.567129  0.298287  0.083800  1
  F  F11  1  0.065628  0.702148  0.415829  1
  F  F12  1  0.439177  0.278720  0.539835  1
  F  F13  1  0.939949  0.721753  0.960203  1
  F  F14  1  0.560974  0.723088  0.457666  1
  F  F15  1  0.060483  0.277589  0.040584  1
  F  F16  1  0.776932  0.519690  0.859171  1
  F  F17  1  0.277608  0.480118  0.640420  1
  F  F18  1  0.222914  0.479662  0.141590  1
  F  F19  1  0.723405  0.522065  0.358503  1
  F  F20  1  0.753221  0.024211  0.049386  1
  F  F21  1  0.252817  0.975154  0.451463  1
  F  F22  1  0.246528  0.974995  0.952475  1
  F  F23  1  0.746642  0.026281  0.547510  1
  F  F24  1  0.965859  0.722777  0.634462  1
  F  F25  1  0.464813  0.276983  0.865569  1
  F  F26  1  0.034792  0.277307  0.364746  1
  F  F27  1  0.534204  0.724084  0.136319  1
  F  F28  1  0.051903  0.746017  0.176399  1
  F  F29  1  0.555150  0.255693  0.323492  1
  F  F30  1  0.944438  0.254646  0.824240  1
  F  F31  1  0.445405  0.744946  0.675236  1
  F  F32  1  0.416339  0.967272  0.232285  1
  F  F33  1  0.911581  0.027431  0.267945  1
  F  F34  1  0.588887  0.031302  0.768392  1
  F  F35  1  0.088825  0.968567  0.731597  1
