# generated using pymatgen
data_Tb3HoIn4
_symmetry_space_group_name_H-M   'P 1'
_cell_length_a   6.56454237
_cell_length_b   6.56454221
_cell_length_c   10.01420400
_cell_angle_alpha   90.00000000
_cell_angle_beta   90.00000000
_cell_angle_gamma   98.06598266
_symmetry_Int_Tables_number   1
_chemical_formula_structural   Tb3HoIn4
_chemical_formula_sum   'Tb6 Ho2 In8'
_cell_volume   427.27504331
_cell_formula_units_Z   2
loop_
 _symmetry_equiv_pos_site_id
 _symmetry_equiv_pos_as_xyz
  1  'x, y, z'
loop_
 _atom_site_type_symbol
 _atom_site_label
 _atom_site_symmetry_multiplicity
 _atom_site_fract_x
 _atom_site_fract_y
 _atom_site_fract_z
 _atom_site_occupancy
  Tb  Tb0  1  0.523907  0.523907  0.250000  1
  Tb  Tb1  1  0.476093  0.476093  0.750000  1
  Tb  Tb2  1  0.248818  0.751182  0.500000  1
  Tb  Tb3  1  0.248818  0.751182  0.000000  1
  Tb  Tb4  1  0.751182  0.248818  0.500000  1
  Tb  Tb5  1  0.751182  0.248818  0.000000  1
  Ho  Ho6  1  0.979733  0.979733  0.250000  1
  Ho  Ho7  1  0.020267  0.020267  0.750000  1
  In  In8  1  0.250424  0.250424  0.016570  1
  In  In9  1  0.749576  0.749576  0.983430  1
  In  In10  1  0.250424  0.250424  0.483430  1
  In  In11  1  0.749576  0.749576  0.516570  1
  In  In12  1  0.483431  0.018141  0.250000  1
  In  In13  1  0.981859  0.516569  0.750000  1
  In  In14  1  0.516569  0.981859  0.750000  1
  In  In15  1  0.018141  0.483431  0.250000  1
