# generated using pymatgen
data_Ca4Ta2CrFeO12
_symmetry_space_group_name_H-M   'P 1'
_cell_length_a   5.46920110
_cell_length_b   5.60417506
_cell_length_c   7.80754409
_cell_angle_alpha   89.98385985
_cell_angle_beta   89.81352267
_cell_angle_gamma   90.00336805
_symmetry_Int_Tables_number   1
_chemical_formula_structural   Ca4Ta2CrFeO12
_chemical_formula_sum   'Ca4 Ta2 Cr1 Fe1 O12'
_cell_volume   239.30276280
_cell_formula_units_Z   1
loop_
 _symmetry_equiv_pos_site_id
 _symmetry_equiv_pos_as_xyz
  1  'x, y, z'
loop_
 _atom_site_type_symbol
 _atom_site_label
 _atom_site_symmetry_multiplicity
 _atom_site_fract_x
 _atom_site_fract_y
 _atom_site_fract_z
 _atom_site_occupancy
  Ca  Ca0  1  0.988754  0.952285  0.248764  1
  Ca  Ca1  1  0.510952  0.452120  0.251959  1
  Ca  Ca2  1  0.489049  0.547881  0.748040  1
  Ca  Ca3  1  0.011247  0.047716  0.751237  1
  Ta  Ta4  1  0.500000  0.000000  0.000000  1
  Ta  Ta5  1  0.000000  0.500000  0.500000  1
  Cr  Cr6  1  0.500000  0.000000  0.500000  1
  Fe  Fe7  1  0.000000  0.500000  0.000000  1
  O  O8  1  0.793712  0.202832  0.045108  1
  O  O9  1  0.701201  0.708688  0.047920  1
  O  O10  1  0.411613  0.026477  0.248567  1
  O  O11  1  0.088800  0.526458  0.252243  1
  O  O12  1  0.797054  0.208869  0.452336  1
  O  O13  1  0.706525  0.704699  0.455345  1
  O  O14  1  0.293474  0.295301  0.544655  1
  O  O15  1  0.202945  0.791131  0.547663  1
  O  O16  1  0.911201  0.473540  0.747757  1
  O  O17  1  0.588388  0.973524  0.751432  1
  O  O18  1  0.298800  0.291311  0.952081  1
  O  O19  1  0.206287  0.797168  0.954891  1
