# generated using pymatgen
data_Y7ThAlPt24
_symmetry_space_group_name_H-M   'P 1'
_cell_length_a   8.38309092
_cell_length_b   8.38309084
_cell_length_c   8.38309100
_cell_angle_alpha   89.97312602
_cell_angle_beta   90.02686714
_cell_angle_gamma   90.02686607
_symmetry_Int_Tables_number   1
_chemical_formula_structural   Y7ThAlPt24
_chemical_formula_sum   'Y7 Th1 Al1 Pt24'
_cell_volume   589.13169226
_cell_formula_units_Z   1
loop_
 _symmetry_equiv_pos_site_id
 _symmetry_equiv_pos_as_xyz
  1  'x, y, z'
loop_
 _atom_site_type_symbol
 _atom_site_label
 _atom_site_symmetry_multiplicity
 _atom_site_fract_x
 _atom_site_fract_y
 _atom_site_fract_z
 _atom_site_occupancy
  Y  Y0  1  0.250681  0.251078  0.251078  1
  Y  Y1  1  0.749537  0.748831  0.748831  1
  Y  Y2  1  0.748922  0.749319  0.251078  1
  Y  Y3  1  0.748922  0.251078  0.749319  1
  Y  Y4  1  0.251169  0.250463  0.748831  1
  Y  Y5  1  0.251169  0.748831  0.250463  1
  Y  Y6  1  0.250693  0.749307  0.749307  1
  Th  Th7  1  0.748201  0.251799  0.251799  1
  Al  Al8  1  0.001073  0.998927  0.998927  1
  Pt  Pt9  1  0.260945  0.500169  0.999344  1
  Pt  Pt10  1  0.738983  0.500888  0.998858  1
  Pt  Pt11  1  0.001142  0.261017  0.500888  1
  Pt  Pt12  1  0.499112  0.261017  0.998858  1
  Pt  Pt13  1  0.000656  0.739055  0.500169  1
  Pt  Pt14  1  0.499831  0.739055  0.999344  1
  Pt  Pt15  1  0.499112  0.998858  0.261017  1
  Pt  Pt16  1  0.260945  0.999344  0.500169  1
  Pt  Pt17  1  0.499831  0.999344  0.739055  1
  Pt  Pt18  1  0.738983  0.998858  0.500888  1
  Pt  Pt19  1  0.001142  0.500888  0.261017  1
  Pt  Pt20  1  0.000656  0.500169  0.739055  1
  Pt  Pt21  1  0.253391  0.500449  0.500449  1
  Pt  Pt22  1  0.746017  0.501652  0.501652  1
  Pt  Pt23  1  0.498348  0.253983  0.501652  1
  Pt  Pt24  1  0.499551  0.746609  0.500449  1
  Pt  Pt25  1  0.498348  0.501652  0.253983  1
  Pt  Pt26  1  0.499551  0.500449  0.746609  1
  Pt  Pt27  1  0.292246  0.999867  0.999867  1
  Pt  Pt28  1  0.707807  0.998617  0.998617  1
  Pt  Pt29  1  0.001383  0.292193  0.998617  1
  Pt  Pt30  1  0.000133  0.707754  0.999867  1
  Pt  Pt31  1  0.001383  0.998617  0.292193  1
  Pt  Pt32  1  0.000133  0.999867  0.707754  1
