# generated using pymatgen
data_Tb8GeAsI12
_symmetry_space_group_name_H-M   'P 1'
_cell_length_a   4.25018700
_cell_length_b   14.02784280
_cell_length_c   14.82119920
_cell_angle_alpha   90.02336512
_cell_angle_beta   90.00000000
_cell_angle_gamma   90.00000000
_symmetry_Int_Tables_number   1
_chemical_formula_structural   Tb8GeAsI12
_chemical_formula_sum   'Tb8 Ge1 As1 I12'
_cell_volume   883.65397848
_cell_formula_units_Z   1
loop_
 _symmetry_equiv_pos_site_id
 _symmetry_equiv_pos_as_xyz
  1  'x, y, z'
loop_
 _atom_site_type_symbol
 _atom_site_label
 _atom_site_symmetry_multiplicity
 _atom_site_fract_x
 _atom_site_fract_y
 _atom_site_fract_z
 _atom_site_occupancy
  Tb  Tb0  1  0.500000  0.114396  0.347249  1
  Tb  Tb1  1  0.500000  0.885604  0.652751  1
  Tb  Tb2  1  0.500000  0.615473  0.153933  1
  Tb  Tb3  1  0.500000  0.384527  0.846067  1
  Tb  Tb4  1  0.000000  0.109929  0.573322  1
  Tb  Tb5  1  0.000000  0.890071  0.426678  1
  Tb  Tb6  1  0.000000  0.612674  0.924612  1
  Tb  Tb7  1  0.000000  0.387326  0.075388  1
  Ge  Ge8  1  0.500000  0.500000  0.000000  1
  As  As9  1  0.500000  0.000000  0.500000  1
  I  I10  1  0.500000  0.244533  0.162126  1
  I  I11  1  0.500000  0.755467  0.837874  1
  I  I12  1  0.500000  0.746610  0.340131  1
  I  I13  1  0.500000  0.253390  0.659869  1
  I  I14  1  0.000000  0.257772  0.414373  1
  I  I15  1  0.000000  0.742228  0.585627  1
  I  I16  1  0.000000  0.758943  0.085900  1
  I  I17  1  0.000000  0.241057  0.914100  1
  I  I18  1  0.000000  0.999181  0.241629  1
  I  I19  1  0.000000  0.000819  0.758371  1
  I  I20  1  0.000000  0.499431  0.259725  1
  I  I21  1  0.000000  0.500569  0.740275  1
