# generated using pymatgen
data_BeNbB3Mo2W
_symmetry_space_group_name_H-M   'P 1'
_cell_length_a   4.62038858
_cell_length_b   4.62038760
_cell_length_c   6.29188200
_cell_angle_alpha   90.00000000
_cell_angle_beta   90.00000000
_cell_angle_gamma   139.22263224
_symmetry_Int_Tables_number   1
_chemical_formula_structural   BeNbB3Mo2W
_chemical_formula_sum   'Be1 Nb1 B3 Mo2 W1'
_cell_volume   87.72663745
_cell_formula_units_Z   1
loop_
 _symmetry_equiv_pos_site_id
 _symmetry_equiv_pos_as_xyz
  1  'x, y, z'
loop_
 _atom_site_type_symbol
 _atom_site_label
 _atom_site_symmetry_multiplicity
 _atom_site_fract_x
 _atom_site_fract_y
 _atom_site_fract_z
 _atom_site_occupancy
  Be  Be0  1  0.567166  0.432834  0.500000  1
  Nb  Nb1  1  0.850896  0.149104  0.000000  1
  B  B2  1  0.558419  0.441581  0.000000  1
  B  B3  1  0.438096  0.561904  0.249441  1
  B  B4  1  0.438096  0.561904  0.750559  1
  Mo  Mo5  1  0.145899  0.854101  0.245279  1
  Mo  Mo6  1  0.145899  0.854101  0.754721  1
  W  W7  1  0.855528  0.144472  0.500000  1
