# generated using pymatgen
data_Y7ErTi12Si15Ge
_symmetry_space_group_name_H-M   'P 1'
_cell_length_a   7.06995259
_cell_length_b   7.06143234
_cell_length_c   12.98149195
_cell_angle_alpha   89.99678541
_cell_angle_beta   89.90058557
_cell_angle_gamma   89.95463789
_symmetry_Int_Tables_number   1
_chemical_formula_structural   Y7ErTi12Si15Ge
_chemical_formula_sum   'Y7 Er1 Ti12 Si15 Ge1'
_cell_volume   648.08671842
_cell_formula_units_Z   1
loop_
 _symmetry_equiv_pos_site_id
 _symmetry_equiv_pos_as_xyz
  1  'x, y, z'
loop_
 _atom_site_type_symbol
 _atom_site_label
 _atom_site_symmetry_multiplicity
 _atom_site_fract_x
 _atom_site_fract_y
 _atom_site_fract_z
 _atom_site_occupancy
  Y  Y0  1  0.341564  0.001774  0.465495  1
  Y  Y1  1  0.498751  0.840174  0.717120  1
  Y  Y2  1  0.502519  0.159266  0.216292  1
  Y  Y3  1  0.840866  0.497439  0.283046  1
  Y  Y4  1  0.159097  0.503492  0.784031  1
  Y  Y5  1  0.659911  0.996964  0.967315  1
  Y  Y6  1  0.000607  0.342306  0.532357  1
  Er  Er7  1  0.998493  0.658773  0.033416  1
  Ti  Ti8  1  0.325785  0.326811  0.000096  1
  Ti  Ti9  1  0.173429  0.825981  0.249766  1
  Ti  Ti10  1  0.823327  0.174187  0.750751  1
  Ti  Ti11  1  0.673612  0.673618  0.499988  1
  Ti  Ti12  1  0.151450  0.009124  0.878164  1
  Ti  Ti13  1  0.491453  0.651445  0.126433  1
  Ti  Ti14  1  0.510817  0.349398  0.626865  1
  Ti  Ti15  1  0.652596  0.492259  0.874003  1
  Ti  Ti16  1  0.348103  0.508863  0.373060  1
  Ti  Ti17  1  0.847996  0.991117  0.376295  1
  Ti  Ti18  1  0.008823  0.151427  0.123206  1
  Ti  Ti19  1  0.988713  0.845295  0.622686  1
  Si  Si20  1  0.368923  0.702094  0.935154  1
  Si  Si21  1  0.629847  0.297659  0.434580  1
  Si  Si22  1  0.703416  0.370842  0.065481  1
  Si  Si23  1  0.298080  0.630166  0.565258  1
  Si  Si24  1  0.798332  0.868896  0.184021  1
  Si  Si25  1  0.129961  0.202033  0.314996  1
  Si  Si26  1  0.870034  0.797714  0.816009  1
  Si  Si27  1  0.289852  0.951288  0.065188  1
  Si  Si28  1  0.548444  0.790152  0.314364  1
  Si  Si29  1  0.455240  0.210327  0.816684  1
  Si  Si30  1  0.790968  0.547766  0.685624  1
  Si  Si31  1  0.209035  0.452708  0.184745  1
  Si  Si32  1  0.709234  0.047843  0.564774  1
  Si  Si33  1  0.952420  0.291749  0.935552  1
  Si  Si34  1  0.047912  0.709938  0.434829  1
  Ge  Ge35  1  0.200391  0.129113  0.682356  1
