# generated using pymatgen
data_CaZrH5
_symmetry_space_group_name_H-M   'P 1'
_cell_length_a   3.44749900
_cell_length_b   5.24053400
_cell_length_c   14.18032000
_cell_angle_alpha   90.00000000
_cell_angle_beta   90.00000000
_cell_angle_gamma   90.00000000
_symmetry_Int_Tables_number   1
_chemical_formula_structural   CaZrH5
_chemical_formula_sum   'Ca4 Zr4 H20'
_cell_volume   256.19209393
_cell_formula_units_Z   4
loop_
 _symmetry_equiv_pos_site_id
 _symmetry_equiv_pos_as_xyz
  1  'x, y, z'
loop_
 _atom_site_type_symbol
 _atom_site_label
 _atom_site_symmetry_multiplicity
 _atom_site_fract_x
 _atom_site_fract_y
 _atom_site_fract_z
 _atom_site_occupancy
  Ca  Ca0  1  0.758387  0.492873  0.185715  1
  Ca  Ca1  1  0.258387  0.007127  0.814285  1
  Ca  Ca2  1  0.241613  0.992873  0.314285  1
  Ca  Ca3  1  0.741613  0.507127  0.685715  1
  Zr  Zr4  1  0.237320  0.005701  0.567020  1
  Zr  Zr5  1  0.262680  0.994299  0.067020  1
  Zr  Zr6  1  0.762680  0.505701  0.932980  1
  Zr  Zr7  1  0.737320  0.494299  0.432980  1
  H  H8  1  0.261509  0.258553  0.950949  1
  H  H9  1  0.241125  0.764048  0.676801  1
  H  H10  1  0.263270  0.753845  0.949497  1
  H  H11  1  0.759509  0.751741  0.825030  1
  H  H12  1  0.237505  0.491870  0.342945  1
  H  H13  1  0.740491  0.248259  0.325030  1
  H  H14  1  0.763270  0.746155  0.050503  1
  H  H15  1  0.240491  0.251741  0.674970  1
  H  H16  1  0.741125  0.735952  0.323199  1
  H  H17  1  0.238491  0.741447  0.450949  1
  H  H18  1  0.736730  0.253845  0.550503  1
  H  H19  1  0.738491  0.758553  0.549051  1
  H  H20  1  0.762495  0.991870  0.157055  1
  H  H21  1  0.737505  0.008130  0.657055  1
  H  H22  1  0.262495  0.508130  0.842945  1
  H  H23  1  0.258875  0.235952  0.176801  1
  H  H24  1  0.761509  0.241447  0.049051  1
  H  H25  1  0.758875  0.264048  0.823199  1
  H  H26  1  0.236730  0.246155  0.449497  1
  H  H27  1  0.259509  0.748259  0.174970  1
