# generated using pymatgen
data_Tb2B(IrPd2)2
_symmetry_space_group_name_H-M   'P 1'
_cell_length_a   5.92301702
_cell_length_b   5.88551753
_cell_length_c   5.92301719
_cell_angle_alpha   60.20921133
_cell_angle_beta   59.77380808
_cell_angle_gamma   60.20921925
_symmetry_Int_Tables_number   1
_chemical_formula_structural   Tb2B(IrPd2)2
_chemical_formula_sum   'Tb2 B1 Ir2 Pd4'
_cell_volume   146.20736271
_cell_formula_units_Z   1
loop_
 _symmetry_equiv_pos_site_id
 _symmetry_equiv_pos_as_xyz
  1  'x, y, z'
loop_
 _atom_site_type_symbol
 _atom_site_label
 _atom_site_symmetry_multiplicity
 _atom_site_fract_x
 _atom_site_fract_y
 _atom_site_fract_z
 _atom_site_occupancy
  Tb  Tb0  1  0.252994  0.250687  0.245633  1
  Tb  Tb1  1  0.754367  0.749313  0.747006  1
  B  B2  1  0.483444  0.500000  0.516556  1
  Ir  Ir3  1  0.246156  0.758986  0.753843  1
  Ir  Ir4  1  0.246156  0.241013  0.753843  1
  Pd  Pd5  1  0.244375  0.758550  0.238523  1
  Pd  Pd6  1  0.755515  0.752254  0.244484  1
  Pd  Pd7  1  0.755515  0.247745  0.244484  1
  Pd  Pd8  1  0.761476  0.241449  0.755624  1
