# generated using pymatgen
data_Lu6ReB14Ru
_symmetry_space_group_name_H-M   'P 1'
_cell_length_a   7.88831190
_cell_length_b   7.88831062
_cell_length_c   9.19908900
_cell_angle_alpha   90.00000000
_cell_angle_beta   90.00000000
_cell_angle_gamma   154.55667489
_symmetry_Int_Tables_number   1
_chemical_formula_structural   Lu6ReB14Ru
_chemical_formula_sum   'Lu6 Re1 B14 Ru1'
_cell_volume   245.92090585
_cell_formula_units_Z   1
loop_
 _symmetry_equiv_pos_site_id
 _symmetry_equiv_pos_as_xyz
  1  'x, y, z'
loop_
 _atom_site_type_symbol
 _atom_site_label
 _atom_site_symmetry_multiplicity
 _atom_site_fract_x
 _atom_site_fract_y
 _atom_site_fract_z
 _atom_site_occupancy
  Lu  Lu0  1  0.894055  0.105945  0.059166  1
  Lu  Lu1  1  0.106103  0.893897  0.559946  1
  Lu  Lu2  1  0.106103  0.893897  0.940054  1
  Lu  Lu3  1  0.894055  0.105945  0.440834  1
  Lu  Lu4  1  0.244361  0.755639  0.250000  1
  Lu  Lu5  1  0.755851  0.244149  0.750000  1
  Re  Re6  1  0.947911  0.052088  0.750000  1
  B  B7  1  0.452705  0.547295  0.250000  1
  B  B8  1  0.548374  0.451626  0.750000  1
  B  B9  1  0.727384  0.272616  0.035231  1
  B  B10  1  0.271814  0.728186  0.533676  1
  B  B11  1  0.271814  0.728186  0.966324  1
  B  B12  1  0.727384  0.272616  0.464769  1
  B  B13  1  0.632065  0.367935  0.349237  1
  B  B14  1  0.367079  0.632921  0.849799  1
  B  B15  1  0.367079  0.632921  0.650201  1
  B  B16  1  0.632065  0.367935  0.150763  1
  B  B17  1  0.519377  0.480623  0.404603  1
  B  B18  1  0.480941  0.519059  0.905961  1
  B  B19  1  0.480941  0.519059  0.594039  1
  B  B20  1  0.519377  0.480623  0.095397  1
  Ru  Ru21  1  0.053165  0.946835  0.250000  1
