# generated using pymatgen
data_La4PrHo(RuI3)2
_symmetry_space_group_name_H-M   'P 1'
_cell_length_a   4.36886100
_cell_length_b   9.51676343
_cell_length_c   12.51928415
_cell_angle_alpha   86.80255877
_cell_angle_beta   90.00000000
_cell_angle_gamma   90.00000000
_symmetry_Int_Tables_number   1
_chemical_formula_structural   La4PrHo(RuI3)2
_chemical_formula_sum   'La4 Pr1 Ho1 Ru2 I6'
_cell_volume   519.70917701
_cell_formula_units_Z   1
loop_
 _symmetry_equiv_pos_site_id
 _symmetry_equiv_pos_as_xyz
  1  'x, y, z'
loop_
 _atom_site_type_symbol
 _atom_site_label
 _atom_site_symmetry_multiplicity
 _atom_site_fract_x
 _atom_site_fract_y
 _atom_site_fract_z
 _atom_site_occupancy
  La  La0  1  0.750000  0.686710  0.115591  1
  La  La1  1  0.250000  0.313475  0.881929  1
  La  La2  1  0.250000  0.884448  0.329108  1
  La  La3  1  0.750000  0.111312  0.671235  1
  Pr  Pr4  1  0.750000  0.095853  0.103114  1
  Ho  Ho5  1  0.250000  0.913874  0.898857  1
  Ru  Ru6  1  0.250000  0.885770  0.125991  1
  Ru  Ru7  1  0.750000  0.110028  0.871266  1
  I  I8  1  0.250000  0.862258  0.623362  1
  I  I9  1  0.750000  0.135254  0.379833  1
  I  I10  1  0.750000  0.632902  0.377846  1
  I  I11  1  0.250000  0.365770  0.622219  1
  I  I12  1  0.250000  0.392749  0.137732  1
  I  I13  1  0.750000  0.609597  0.861919  1
