# generated using pymatgen
data_Na2NiMoF7
_symmetry_space_group_name_H-M   'P 1'
_cell_length_a   7.54952743
_cell_length_b   7.54952677
_cell_length_c   7.54952718
_cell_angle_alpha   120.37367004
_cell_angle_beta   119.34499551
_cell_angle_gamma   90.24611169
_symmetry_Int_Tables_number   1
_chemical_formula_structural   Na2NiMoF7
_chemical_formula_sum   'Na4 Ni2 Mo2 F14'
_cell_volume   304.87289481
_cell_formula_units_Z   2
loop_
 _symmetry_equiv_pos_site_id
 _symmetry_equiv_pos_as_xyz
  1  'x, y, z'
loop_
 _atom_site_type_symbol
 _atom_site_label
 _atom_site_symmetry_multiplicity
 _atom_site_fract_x
 _atom_site_fract_y
 _atom_site_fract_z
 _atom_site_occupancy
  Na  Na0  1  0.500000  0.000000  0.000000  1
  Na  Na1  1  0.500000  0.500000  0.500000  1
  Na  Na2  1  0.000000  0.000000  0.000000  1
  Na  Na3  1  0.500000  0.500000  0.000000  1
  Ni  Ni4  1  0.000000  0.000000  0.500000  1
  Ni  Ni5  1  0.000000  0.500000  0.000000  1
  Mo  Mo6  1  0.500000  0.000000  0.500000  1
  Mo  Mo7  1  0.000000  0.500000  0.500000  1
  F  F8  1  0.075133  0.250000  0.825133  1
  F  F9  1  0.924867  0.750000  0.174867  1
  F  F10  1  0.660735  0.399218  0.261516  1
  F  F11  1  0.339265  0.600782  0.738484  1
  F  F12  1  0.637703  0.899218  0.738484  1
  F  F13  1  0.362297  0.100782  0.261516  1
  F  F14  1  0.940270  0.165399  0.343051  1
  F  F15  1  0.059730  0.402781  0.225129  1
  F  F16  1  0.322348  0.665399  0.225129  1
  F  F17  1  0.677652  0.902781  0.343051  1
  F  F18  1  0.059730  0.834601  0.656949  1
  F  F19  1  0.940270  0.597219  0.774871  1
  F  F20  1  0.677652  0.334601  0.774871  1
  F  F21  1  0.322348  0.097219  0.656949  1
