# generated using pymatgen
data_LaTb9Nd6(CdPd)4
_symmetry_space_group_name_H-M   'P 1'
_cell_length_a   9.84287739
_cell_length_b   9.84287808
_cell_length_c   9.84287834
_cell_angle_alpha   60.26105744
_cell_angle_beta   60.26105574
_cell_angle_gamma   60.26105422
_symmetry_Int_Tables_number   1
_chemical_formula_structural   LaTb9Nd6(CdPd)4
_chemical_formula_sum   'La1 Tb9 Nd6 Cd4 Pd4'
_cell_volume   678.28151385
_cell_formula_units_Z   1
loop_
 _symmetry_equiv_pos_site_id
 _symmetry_equiv_pos_as_xyz
  1  'x, y, z'
loop_
 _atom_site_type_symbol
 _atom_site_label
 _atom_site_symmetry_multiplicity
 _atom_site_fract_x
 _atom_site_fract_y
 _atom_site_fract_z
 _atom_site_occupancy
  La  La0  1  0.349832  0.349832  0.349832  1
  Tb  Tb1  1  0.353091  0.353091  0.939376  1
  Tb  Tb2  1  0.353091  0.939376  0.353091  1
  Tb  Tb3  1  0.939376  0.353091  0.353091  1
  Tb  Tb4  1  0.814848  0.188083  0.188083  1
  Tb  Tb5  1  0.189243  0.811601  0.811601  1
  Tb  Tb6  1  0.188083  0.814848  0.188083  1
  Tb  Tb7  1  0.811601  0.189243  0.811601  1
  Tb  Tb8  1  0.188083  0.188083  0.814848  1
  Tb  Tb9  1  0.811601  0.811601  0.189243  1
  Nd  Nd10  1  0.938543  0.563539  0.563539  1
  Nd  Nd11  1  0.561822  0.936615  0.936615  1
  Nd  Nd12  1  0.563539  0.938543  0.563539  1
  Nd  Nd13  1  0.936615  0.561822  0.936615  1
  Nd  Nd14  1  0.563539  0.563539  0.938543  1
  Nd  Nd15  1  0.936615  0.936615  0.561822  1
  Cd  Cd16  1  0.580194  0.580194  0.580194  1
  Cd  Cd17  1  0.582770  0.582770  0.258966  1
  Cd  Cd18  1  0.582770  0.258966  0.582770  1
  Cd  Cd19  1  0.258966  0.582770  0.582770  1
  Pd  Pd20  1  0.144928  0.144928  0.144928  1
  Pd  Pd21  1  0.139642  0.139642  0.571564  1
  Pd  Pd22  1  0.139642  0.571564  0.139642  1
  Pd  Pd23  1  0.571564  0.139642  0.139642  1
