# generated using pymatgen
data_TbNd9(IrPt2)2
_symmetry_space_group_name_H-M   'P 1'
_cell_length_a   11.43168300
_cell_length_b   11.43168300
_cell_length_c   6.51993700
_cell_angle_alpha   90.00000000
_cell_angle_beta   90.00000000
_cell_angle_gamma   90.00000000
_symmetry_Int_Tables_number   1
_chemical_formula_structural   TbNd9(IrPt2)2
_chemical_formula_sum   'Tb2 Nd18 Ir4 Pt8'
_cell_volume   852.04737985
_cell_formula_units_Z   2
loop_
 _symmetry_equiv_pos_site_id
 _symmetry_equiv_pos_as_xyz
  1  'x, y, z'
loop_
 _atom_site_type_symbol
 _atom_site_label
 _atom_site_symmetry_multiplicity
 _atom_site_fract_x
 _atom_site_fract_y
 _atom_site_fract_z
 _atom_site_occupancy
  Tb  Tb0  1  0.500000  0.500000  0.000000  1
  Tb  Tb1  1  0.500000  0.500000  0.500000  1
  Nd  Nd2  1  0.295471  0.088852  0.372885  1
  Nd  Nd3  1  0.295471  0.911148  0.872885  1
  Nd  Nd4  1  0.704529  0.088852  0.872885  1
  Nd  Nd5  1  0.704529  0.911148  0.372885  1
  Nd  Nd6  1  0.588263  0.792850  0.874688  1
  Nd  Nd7  1  0.588263  0.207150  0.374688  1
  Nd  Nd8  1  0.411737  0.792850  0.374688  1
  Nd  Nd9  1  0.411737  0.207150  0.874688  1
  Nd  Nd10  1  0.207150  0.411737  0.625312  1
  Nd  Nd11  1  0.207150  0.588263  0.125312  1
  Nd  Nd12  1  0.792850  0.411737  0.125312  1
  Nd  Nd13  1  0.792850  0.588263  0.625312  1
  Nd  Nd14  1  0.911148  0.704529  0.127115  1
  Nd  Nd15  1  0.911148  0.295471  0.627115  1
  Nd  Nd16  1  0.088852  0.704529  0.627115  1
  Nd  Nd17  1  0.088852  0.295471  0.127115  1
  Nd  Nd18  1  0.000000  0.000000  0.500000  1
  Nd  Nd19  1  0.000000  0.000000  0.000000  1
  Ir  Ir20  1  0.500000  0.000000  0.115265  1
  Ir  Ir21  1  0.500000  0.000000  0.615265  1
  Ir  Ir22  1  0.000000  0.500000  0.884735  1
  Ir  Ir23  1  0.000000  0.500000  0.384735  1
  Pt  Pt24  1  0.845767  0.154233  0.250000  1
  Pt  Pt25  1  0.845767  0.845767  0.750000  1
  Pt  Pt26  1  0.154233  0.154233  0.750000  1
  Pt  Pt27  1  0.154233  0.845767  0.250000  1
  Pt  Pt28  1  0.648296  0.351704  0.750000  1
  Pt  Pt29  1  0.648296  0.648296  0.250000  1
  Pt  Pt30  1  0.351704  0.351704  0.250000  1
  Pt  Pt31  1  0.351704  0.648296  0.750000  1
