# generated using pymatgen
data_GdDyV6O18
_symmetry_space_group_name_H-M   'P 1'
_cell_length_a   7.46537331
_cell_length_b   8.53563337
_cell_length_c   9.61405646
_cell_angle_alpha   105.79001238
_cell_angle_beta   112.79651727
_cell_angle_gamma   63.93789697
_symmetry_Int_Tables_number   1
_chemical_formula_structural   GdDyV6O18
_chemical_formula_sum   'Gd1 Dy1 V6 O18'
_cell_volume   503.48904275
_cell_formula_units_Z   1
loop_
 _symmetry_equiv_pos_site_id
 _symmetry_equiv_pos_as_xyz
  1  'x, y, z'
loop_
 _atom_site_type_symbol
 _atom_site_label
 _atom_site_symmetry_multiplicity
 _atom_site_fract_x
 _atom_site_fract_y
 _atom_site_fract_z
 _atom_site_occupancy
  Gd  Gd0  1  0.681507  0.357077  0.241655  1
  Dy  Dy1  1  0.203621  0.857457  0.741992  1
  V  V2  1  0.750680  0.609614  0.007900  1
  V  V3  1  0.997386  0.903775  0.073675  1
  V  V4  1  0.416570  0.810212  0.416503  1
  V  V5  1  0.649527  0.107277  0.510241  1
  V  V6  1  0.175772  0.406099  0.576052  1
  V  V7  1  0.186138  0.308985  0.914230  1
  O  O8  1  0.363436  0.384030  0.053659  1
  O  O9  1  0.835725  0.117346  0.088292  1
  O  O10  1  0.872982  0.768547  0.081496  1
  O  O11  1  0.683602  0.573141  0.141305  1
  O  O12  1  0.227028  0.874724  0.237008  1
  O  O13  1  0.642259  0.177502  0.358991  1
  O  O14  1  0.006094  0.350018  0.413764  1
  O  O15  1  0.529745  0.588858  0.401740  1
  O  O16  1  0.608096  0.903845  0.456581  1
  O  O17  1  0.303040  0.885860  0.556086  1
  O  O18  1  0.138314  0.619993  0.592982  1
  O  O19  1  0.444360  0.269507  0.585722  1
  O  O20  1  0.888018  0.067996  0.641965  1
  O  O21  1  0.133161  0.375011  0.735988  1
  O  O22  1  0.535365  0.681220  0.857542  1
  O  O23  1  0.064451  0.846963  0.912483  1
  O  O24  1  0.280119  0.087451  0.898636  1
  O  O25  1  0.939796  0.404096  0.953713  1
