# generated using pymatgen
data_MnGa6Ir
_symmetry_space_group_name_H-M   'P 1'
_cell_length_a   6.44343222
_cell_length_b   6.44343222
_cell_length_c   6.73113600
_cell_angle_alpha   90.00000000
_cell_angle_beta   90.00000000
_cell_angle_gamma   90.64231684
_symmetry_Int_Tables_number   1
_chemical_formula_structural   MnGa6Ir
_chemical_formula_sum   'Mn2 Ga12 Ir2'
_cell_volume   279.44452416
_cell_formula_units_Z   2
loop_
 _symmetry_equiv_pos_site_id
 _symmetry_equiv_pos_as_xyz
  1  'x, y, z'
loop_
 _atom_site_type_symbol
 _atom_site_label
 _atom_site_symmetry_multiplicity
 _atom_site_fract_x
 _atom_site_fract_y
 _atom_site_fract_z
 _atom_site_occupancy
  Mn  Mn0  1  0.159720  0.840280  0.500000  1
  Mn  Mn1  1  0.840280  0.159720  0.500000  1
  Ga  Ga2  1  0.000000  0.500000  0.500000  1
  Ga  Ga3  1  0.500000  0.000000  0.000000  1
  Ga  Ga4  1  0.500000  0.000000  0.500000  1
  Ga  Ga5  1  0.000000  0.500000  0.000000  1
  Ga  Ga6  1  0.342207  0.657793  0.248437  1
  Ga  Ga7  1  0.657793  0.342207  0.248437  1
  Ga  Ga8  1  0.151837  0.151837  0.723885  1
  Ga  Ga9  1  0.848163  0.848163  0.723885  1
  Ga  Ga10  1  0.657793  0.342207  0.751563  1
  Ga  Ga11  1  0.342207  0.657793  0.751563  1
  Ga  Ga12  1  0.848163  0.848163  0.276115  1
  Ga  Ga13  1  0.151837  0.151837  0.276115  1
  Ir  Ir14  1  0.340404  0.340404  0.000000  1
  Ir  Ir15  1  0.659596  0.659596  0.000000  1
