# generated using pymatgen
data_NdHf2Zr6(In2Co)7
_symmetry_space_group_name_H-M   'P 1'
_cell_length_a   9.47886713
_cell_length_b   9.47885302
_cell_length_c   9.45831200
_cell_angle_alpha   60.07165913
_cell_angle_beta   60.07170825
_cell_angle_gamma   60.13921825
_symmetry_Int_Tables_number   1
_chemical_formula_structural   NdHf2Zr6(In2Co)7
_chemical_formula_sum   'Nd1 Hf2 Zr6 In14 Co7'
_cell_volume   602.19399236
_cell_formula_units_Z   1
loop_
 _symmetry_equiv_pos_site_id
 _symmetry_equiv_pos_as_xyz
  1  'x, y, z'
loop_
 _atom_site_type_symbol
 _atom_site_label
 _atom_site_symmetry_multiplicity
 _atom_site_fract_x
 _atom_site_fract_y
 _atom_site_fract_z
 _atom_site_occupancy
  Nd  Nd0  1  0.500389  0.499583  0.500014  1
  Hf  Hf1  1  0.119765  0.642653  0.118791  1
  Hf  Hf2  1  0.357266  0.880337  0.881199  1
  Zr  Zr3  1  0.879530  0.878091  0.878540  1
  Zr  Zr4  1  0.636271  0.120909  0.121410  1
  Zr  Zr5  1  0.879530  0.878091  0.363839  1
  Zr  Zr6  1  0.121911  0.120472  0.121399  1
  Zr  Zr7  1  0.879164  0.363657  0.878590  1
  Zr  Zr8  1  0.121911  0.120472  0.636217  1
  In  In9  1  0.500786  0.845606  0.152691  1
  In  In10  1  0.500786  0.845606  0.500917  1
  In  In11  1  0.499961  0.153034  0.500236  1
  In  In12  1  0.499886  0.500100  0.846721  1
  In  In13  1  0.154396  0.499135  0.499154  1
  In  In14  1  0.847017  0.152943  0.500020  1
  In  In15  1  0.153521  0.846410  0.500035  1
  In  In16  1  0.499961  0.153034  0.846769  1
  In  In17  1  0.154396  0.499135  0.847315  1
  In  In18  1  0.499886  0.500100  0.153292  1
  In  In19  1  0.846968  0.499972  0.499832  1
  In  In20  1  0.846968  0.499972  0.153228  1
  In  In21  1  0.248660  0.255297  0.248022  1
  In  In22  1  0.744692  0.751332  0.751988  1
  Co  Co23  1  0.782428  0.780743  0.218415  1
  Co  Co24  1  0.002871  0.997187  0.999971  1
  Co  Co25  1  0.219489  0.780508  0.218040  1
  Co  Co26  1  0.219489  0.780508  0.781962  1
  Co  Co27  1  0.219468  0.217757  0.781388  1
  Co  Co28  1  0.781317  0.218679  0.781051  1
  Co  Co29  1  0.781317  0.218679  0.218953  1
