# generated using pymatgen
data_Tm16In4Ru3Au
_symmetry_space_group_name_H-M   'P 1'
_cell_length_a   9.58592034
_cell_length_b   9.58577178
_cell_length_c   9.57294940
_cell_angle_alpha   59.77206628
_cell_angle_beta   59.77343133
_cell_angle_gamma   60.05412875
_symmetry_Int_Tables_number   1
_chemical_formula_structural   Tm16In4Ru3Au
_chemical_formula_sum   'Tm16 In4 Ru3 Au1'
_cell_volume   620.10816329
_cell_formula_units_Z   1
loop_
 _symmetry_equiv_pos_site_id
 _symmetry_equiv_pos_as_xyz
  1  'x, y, z'
loop_
 _atom_site_type_symbol
 _atom_site_label
 _atom_site_symmetry_multiplicity
 _atom_site_fract_x
 _atom_site_fract_y
 _atom_site_fract_z
 _atom_site_occupancy
  Tm  Tm0  1  0.059656  0.059657  0.445417  1
  Tm  Tm1  1  0.434018  0.060152  0.445469  1
  Tm  Tm2  1  0.057898  0.440634  0.061997  1
  Tm  Tm3  1  0.051183  0.644151  0.658115  1
  Tm  Tm4  1  0.439002  0.438995  0.063381  1
  Tm  Tm5  1  0.644150  0.051192  0.658105  1
  Tm  Tm6  1  0.203280  0.808586  0.181714  1
  Tm  Tm7  1  0.190936  0.190932  0.811770  1
  Tm  Tm8  1  0.808635  0.808629  0.182098  1
  Tm  Tm9  1  0.440652  0.057889  0.061993  1
  Tm  Tm10  1  0.808591  0.203274  0.181716  1
  Tm  Tm11  1  0.060148  0.434021  0.445477  1
  Tm  Tm12  1  0.808118  0.191617  0.810948  1
  Tm  Tm13  1  0.191611  0.808120  0.810951  1
  Tm  Tm14  1  0.653193  0.653180  0.038494  1
  Tm  Tm15  1  0.645093  0.645087  0.656772  1
  In  In16  1  0.417842  0.417846  0.414892  1
  In  In17  1  0.748530  0.417854  0.416010  1
  In  In18  1  0.417847  0.748529  0.416018  1
  In  In19  1  0.415305  0.415310  0.752821  1
  Ru  Ru20  1  0.862472  0.862511  0.853665  1
  Ru  Ru21  1  0.423408  0.859768  0.853794  1
  Ru  Ru22  1  0.859781  0.423411  0.853791  1
  Au  Au23  1  0.858655  0.858655  0.424592  1
