# generated using pymatgen
data_Dy3Y7Hg3Ru
_symmetry_space_group_name_H-M   'P 1'
_cell_length_a   9.64537300
_cell_length_b   9.64537321
_cell_length_c   9.67963700
_cell_angle_alpha   90.00000000
_cell_angle_beta   90.00000000
_cell_angle_gamma   120.00000271
_symmetry_Int_Tables_number   1
_chemical_formula_structural   Dy3Y7Hg3Ru
_chemical_formula_sum   'Dy6 Y14 Hg6 Ru2'
_cell_volume   779.87994856
_cell_formula_units_Z   2
loop_
 _symmetry_equiv_pos_site_id
 _symmetry_equiv_pos_as_xyz
  1  'x, y, z'
loop_
 _atom_site_type_symbol
 _atom_site_label
 _atom_site_symmetry_multiplicity
 _atom_site_fract_x
 _atom_site_fract_y
 _atom_site_fract_z
 _atom_site_occupancy
  Dy  Dy0  1  0.209576  0.790424  0.439741  1
  Dy  Dy1  1  0.209576  0.419155  0.439741  1
  Dy  Dy2  1  0.580845  0.790424  0.439741  1
  Dy  Dy3  1  0.790424  0.209576  0.560259  1
  Dy  Dy4  1  0.790424  0.580845  0.560259  1
  Dy  Dy5  1  0.419155  0.209576  0.560259  1
  Y  Y6  1  0.000000  0.000000  0.500000  1
  Y  Y7  1  0.000000  0.000000  0.000000  1
  Y  Y8  1  0.790685  0.209315  0.939629  1
  Y  Y9  1  0.790685  0.581369  0.939629  1
  Y  Y10  1  0.418631  0.209315  0.939629  1
  Y  Y11  1  0.209315  0.790685  0.060371  1
  Y  Y12  1  0.209315  0.418631  0.060371  1
  Y  Y13  1  0.581369  0.790685  0.060371  1
  Y  Y14  1  0.541074  0.458926  0.250840  1
  Y  Y15  1  0.541074  0.082147  0.250840  1
  Y  Y16  1  0.917853  0.458926  0.250840  1
  Y  Y17  1  0.458926  0.541074  0.749160  1
  Y  Y18  1  0.458926  0.917853  0.749160  1
  Y  Y19  1  0.082147  0.541074  0.749160  1
  Hg  Hg20  1  0.881332  0.118668  0.249830  1
  Hg  Hg21  1  0.881332  0.762664  0.249830  1
  Hg  Hg22  1  0.237336  0.118668  0.249830  1
  Hg  Hg23  1  0.118668  0.881332  0.750170  1
  Hg  Hg24  1  0.118668  0.237336  0.750170  1
  Hg  Hg25  1  0.762664  0.881332  0.750170  1
  Ru  Ru26  1  0.333333  0.666667  0.252354  1
  Ru  Ru27  1  0.666667  0.333333  0.747646  1
