# generated using pymatgen
data_Ca2Si2PtRh3
_symmetry_space_group_name_H-M   'P 1'
_cell_length_a   9.06202300
_cell_length_b   9.06202267
_cell_length_c   4.08936100
_cell_angle_alpha   90.00000000
_cell_angle_beta   90.00000000
_cell_angle_gamma   154.55022474
_symmetry_Int_Tables_number   1
_chemical_formula_structural   Ca2Si2PtRh3
_chemical_formula_sum   'Ca2 Si2 Pt1 Rh3'
_cell_volume   144.30821563
_cell_formula_units_Z   1
loop_
 _symmetry_equiv_pos_site_id
 _symmetry_equiv_pos_as_xyz
  1  'x, y, z'
loop_
 _atom_site_type_symbol
 _atom_site_label
 _atom_site_symmetry_multiplicity
 _atom_site_fract_x
 _atom_site_fract_y
 _atom_site_fract_z
 _atom_site_occupancy
  Ca  Ca0  1  0.097788  0.902212  0.750000  1
  Ca  Ca1  1  0.903215  0.096785  0.250000  1
  Si  Si2  1  0.322328  0.677672  0.750000  1
  Si  Si3  1  0.678603  0.321397  0.250000  1
  Pt  Pt4  1  0.546130  0.453870  0.250000  1
  Rh  Rh5  1  0.452223  0.547777  0.750000  1
  Rh  Rh6  1  0.250095  0.749905  0.250000  1
  Rh  Rh7  1  0.749619  0.250381  0.750000  1
