# generated using pymatgen
data_NaPrY5PtBr12
_symmetry_space_group_name_H-M   'P 1'
_cell_length_a   9.33387794
_cell_length_b   9.31228769
_cell_length_c   9.37581961
_cell_angle_alpha   106.90806626
_cell_angle_beta   106.73238890
_cell_angle_gamma   107.52097003
_symmetry_Int_Tables_number   1
_chemical_formula_structural   NaPrY5PtBr12
_chemical_formula_sum   'Na1 Pr1 Y5 Pt1 Br12'
_cell_volume   677.66704919
_cell_formula_units_Z   1
loop_
 _symmetry_equiv_pos_site_id
 _symmetry_equiv_pos_as_xyz
  1  'x, y, z'
loop_
 _atom_site_type_symbol
 _atom_site_label
 _atom_site_symmetry_multiplicity
 _atom_site_fract_x
 _atom_site_fract_y
 _atom_site_fract_z
 _atom_site_occupancy
  Na  Na0  1  0.499977  0.500763  0.499064  1
  Pr  Pr1  1  0.887062  0.678799  0.970930  1
  Y  Y2  1  0.110419  0.311606  0.029512  1
  Y  Y3  1  0.324991  0.031016  0.114715  1
  Y  Y4  1  0.031627  0.115480  0.324164  1
  Y  Y5  1  0.970029  0.889743  0.679070  1
  Y  Y6  1  0.674873  0.966982  0.885566  1
  Pt  Pt7  1  0.000556  0.999945  0.001853  1
  Br  Br8  1  0.225454  0.682216  0.076273  1
  Br  Br9  1  0.451666  0.368735  0.149175  1
  Br  Br10  1  0.680669  0.073642  0.214713  1
  Br  Br11  1  0.928407  0.791262  0.327847  1
  Br  Br12  1  0.149451  0.451446  0.366222  1
  Br  Br13  1  0.369137  0.150529  0.451036  1
  Br  Br14  1  0.631668  0.852059  0.549871  1
  Br  Br15  1  0.849432  0.549542  0.621679  1
  Br  Br16  1  0.075377  0.218026  0.684193  1
  Br  Br17  1  0.319625  0.928643  0.786375  1
  Br  Br18  1  0.535707  0.630364  0.843175  1
  Br  Br19  1  0.783877  0.309203  0.924572  1
