# generated using pymatgen
data_K4PrNb5O15
_symmetry_space_group_name_H-M   'P 1'
_cell_length_a   9.07474898
_cell_length_b   9.07474921
_cell_length_c   7.02940682
_cell_angle_alpha   75.09879912
_cell_angle_beta   75.09880126
_cell_angle_gamma   36.94235087
_symmetry_Int_Tables_number   1
_chemical_formula_structural   K4PrNb5O15
_chemical_formula_sum   'K4 Pr1 Nb5 O15'
_cell_volume   334.88193599
_cell_formula_units_Z   1
loop_
 _symmetry_equiv_pos_site_id
 _symmetry_equiv_pos_as_xyz
  1  'x, y, z'
loop_
 _atom_site_type_symbol
 _atom_site_label
 _atom_site_symmetry_multiplicity
 _atom_site_fract_x
 _atom_site_fract_y
 _atom_site_fract_z
 _atom_site_occupancy
  K  K0  1  0.600256  0.600256  0.597420  1
  K  K1  1  0.200909  0.200909  0.200322  1
  K  K2  1  0.799091  0.799091  0.799678  1
  K  K3  1  0.399744  0.399744  0.402580  1
  Pr  Pr4  1  0.000000  0.000000  0.000000  1
  Nb  Nb5  1  0.201299  0.201299  0.696363  1
  Nb  Nb6  1  0.798701  0.798701  0.303637  1
  Nb  Nb7  1  0.398561  0.398561  0.901099  1
  Nb  Nb8  1  0.000000  0.000000  0.500000  1
  Nb  Nb9  1  0.601439  0.601439  0.098901  1
  O  O10  1  0.385601  0.901358  0.902747  1
  O  O11  1  0.000000  0.500000  0.500000  1
  O  O12  1  0.614399  0.098642  0.097253  1
  O  O13  1  0.194670  0.709979  0.710081  1
  O  O14  1  0.805330  0.290021  0.289919  1
  O  O15  1  0.299591  0.299591  0.803215  1
  O  O16  1  0.903257  0.903257  0.388898  1
  O  O17  1  0.500000  0.500000  0.000000  1
  O  O18  1  0.096743  0.096743  0.611102  1
  O  O19  1  0.700409  0.700409  0.196785  1
  O  O20  1  0.500000  0.000000  0.500000  1
  O  O21  1  0.098642  0.614399  0.097253  1
  O  O22  1  0.709979  0.194670  0.710081  1
  O  O23  1  0.290021  0.805330  0.289919  1
  O  O24  1  0.901358  0.385601  0.902747  1
