# generated using pymatgen
data_TmNp3(NiAs)4
_symmetry_space_group_name_H-M   'P 1'
_cell_length_a   4.08538400
_cell_length_b   4.08538372
_cell_length_c   15.23166800
_cell_angle_alpha   90.00000000
_cell_angle_beta   90.00000000
_cell_angle_gamma   120.00000230
_symmetry_Int_Tables_number   1
_chemical_formula_structural   TmNp3(NiAs)4
_chemical_formula_sum   'Tm1 Np3 Ni4 As4'
_cell_volume   220.16274113
_cell_formula_units_Z   1
loop_
 _symmetry_equiv_pos_site_id
 _symmetry_equiv_pos_as_xyz
  1  'x, y, z'
loop_
 _atom_site_type_symbol
 _atom_site_label
 _atom_site_symmetry_multiplicity
 _atom_site_fract_x
 _atom_site_fract_y
 _atom_site_fract_z
 _atom_site_occupancy
  Tm  Tm0  1  0.000000  0.000000  0.750000  1
  Np  Np1  1  0.000000  0.000000  0.250000  1
  Np  Np2  1  0.000000  0.000000  0.998372  1
  Np  Np3  1  0.000000  0.000000  0.501628  1
  Ni  Ni4  1  0.333333  0.666667  0.148475  1
  Ni  Ni5  1  0.666667  0.333333  0.860338  1
  Ni  Ni6  1  0.666667  0.333333  0.639662  1
  Ni  Ni7  1  0.333333  0.666667  0.351525  1
  As  As8  1  0.333333  0.666667  0.620952  1
  As  As9  1  0.666667  0.333333  0.381654  1
  As  As10  1  0.666667  0.333333  0.118346  1
  As  As11  1  0.333333  0.666667  0.879048  1
