# generated using pymatgen
data_Yb5(Pr5Ir4)3
_symmetry_space_group_name_H-M   'P 1'
_cell_length_a   11.25295051
_cell_length_b   11.30420047
_cell_length_c   6.49791423
_cell_angle_alpha   89.92011390
_cell_angle_beta   90.10294576
_cell_angle_gamma   89.65257314
_symmetry_Int_Tables_number   1
_chemical_formula_structural   Yb5(Pr5Ir4)3
_chemical_formula_sum   'Yb5 Pr15 Ir12'
_cell_volume   826.55378677
_cell_formula_units_Z   1
loop_
 _symmetry_equiv_pos_site_id
 _symmetry_equiv_pos_as_xyz
  1  'x, y, z'
loop_
 _atom_site_type_symbol
 _atom_site_label
 _atom_site_symmetry_multiplicity
 _atom_site_fract_x
 _atom_site_fract_y
 _atom_site_fract_z
 _atom_site_occupancy
  Yb  Yb0  1  0.290954  0.087486  0.380672  1
  Yb  Yb1  1  0.003987  0.001143  0.499491  1
  Yb  Yb2  1  0.999719  0.000423  0.999695  1
  Yb  Yb3  1  0.499767  0.499941  0.998892  1
  Yb  Yb4  1  0.499029  0.500502  0.498199  1
  Pr  Pr5  1  0.287979  0.913443  0.883277  1
  Pr  Pr6  1  0.711106  0.088280  0.883968  1
  Pr  Pr7  1  0.711603  0.911722  0.383925  1
  Pr  Pr8  1  0.587648  0.788951  0.883004  1
  Pr  Pr9  1  0.583915  0.211032  0.382547  1
  Pr  Pr10  1  0.409758  0.791367  0.383802  1
  Pr  Pr11  1  0.409551  0.210791  0.882985  1
  Pr  Pr12  1  0.211639  0.410551  0.617691  1
  Pr  Pr13  1  0.213215  0.588149  0.117181  1
  Pr  Pr14  1  0.788590  0.411201  0.116937  1
  Pr  Pr15  1  0.787790  0.588402  0.617694  1
  Pr  Pr16  1  0.912314  0.711944  0.118043  1
  Pr  Pr17  1  0.911107  0.287611  0.618339  1
  Pr  Pr18  1  0.088482  0.711534  0.616619  1
  Pr  Pr19  1  0.092025  0.285606  0.118569  1
  Ir  Ir20  1  0.845926  0.154791  0.251061  1
  Ir  Ir21  1  0.846304  0.845144  0.749213  1
  Ir  Ir22  1  0.154478  0.155807  0.750381  1
  Ir  Ir23  1  0.152746  0.842635  0.247902  1
  Ir  Ir24  1  0.653566  0.344084  0.749416  1
  Ir  Ir25  1  0.654810  0.654833  0.249853  1
  Ir  Ir26  1  0.345364  0.348811  0.247332  1
  Ir  Ir27  1  0.344611  0.655609  0.748137  1
  Ir  Ir28  1  0.500196  0.000087  0.116236  1
  Ir  Ir29  1  0.501206  0.999285  0.616431  1
  Ir  Ir30  1  0.000538  0.499554  0.885567  1
  Ir  Ir31  1  0.000078  0.499281  0.386942  1
