# generated using pymatgen
data_MnAlVGaCo4
_symmetry_space_group_name_H-M   'P 1'
_cell_length_a   7.03041936
_cell_length_b   7.03041947
_cell_length_c   7.03042018
_cell_angle_alpha   33.58236851
_cell_angle_beta   33.58236373
_cell_angle_gamma   33.58236729
_symmetry_Int_Tables_number   1
_chemical_formula_structural   MnAlVGaCo4
_chemical_formula_sum   'Mn1 Al1 V1 Ga1 Co4'
_cell_volume   94.70374376
_cell_formula_units_Z   1
loop_
 _symmetry_equiv_pos_site_id
 _symmetry_equiv_pos_as_xyz
  1  'x, y, z'
loop_
 _atom_site_type_symbol
 _atom_site_label
 _atom_site_symmetry_multiplicity
 _atom_site_fract_x
 _atom_site_fract_y
 _atom_site_fract_z
 _atom_site_occupancy
  Mn  Mn0  1  0.999641  0.999641  0.999641  1
  Al  Al1  1  0.251766  0.251766  0.251766  1
  V  V2  1  0.500076  0.500076  0.500076  1
  Ga  Ga3  1  0.748492  0.748492  0.748492  1
  Co  Co4  1  0.622211  0.622211  0.622211  1
  Co  Co5  1  0.127528  0.127528  0.127528  1
  Co  Co6  1  0.873662  0.873662  0.873662  1
  Co  Co7  1  0.376624  0.376624  0.376624  1
