# generated using pymatgen
data_NaLu(PS3)2
_symmetry_space_group_name_H-M   'P 1'
_cell_length_a   6.43348800
_cell_length_b   6.43348969
_cell_length_c   14.69871600
_cell_angle_alpha   90.00000000
_cell_angle_beta   90.00000000
_cell_angle_gamma   119.99999129
_symmetry_Int_Tables_number   1
_chemical_formula_structural   NaLu(PS3)2
_chemical_formula_sum   'Na2 Lu2 P4 S12'
_cell_volume   526.86963966
_cell_formula_units_Z   2
loop_
 _symmetry_equiv_pos_site_id
 _symmetry_equiv_pos_as_xyz
  1  'x, y, z'
loop_
 _atom_site_type_symbol
 _atom_site_label
 _atom_site_symmetry_multiplicity
 _atom_site_fract_x
 _atom_site_fract_y
 _atom_site_fract_z
 _atom_site_occupancy
  Na  Na0  1  0.333333  0.666667  0.750000  1
  Na  Na1  1  0.666667  0.333333  0.250000  1
  Lu  Lu2  1  0.000000  0.000000  0.750000  1
  Lu  Lu3  1  0.000000  0.000000  0.250000  1
  P  P4  1  0.666667  0.333333  0.673965  1
  P  P5  1  0.666667  0.333333  0.826035  1
  P  P6  1  0.333333  0.666667  0.326035  1
  P  P7  1  0.333333  0.666667  0.173965  1
  S  S8  1  0.951677  0.297925  0.865769  1
  S  S9  1  0.346249  0.297925  0.634231  1
  S  S10  1  0.951677  0.653751  0.634231  1
  S  S11  1  0.702075  0.048323  0.634231  1
  S  S12  1  0.297925  0.346249  0.134231  1
  S  S13  1  0.653751  0.951677  0.134231  1
  S  S14  1  0.048323  0.702075  0.134231  1
  S  S15  1  0.653751  0.702075  0.365769  1
  S  S16  1  0.048323  0.346249  0.365769  1
  S  S17  1  0.297925  0.951677  0.365769  1
  S  S18  1  0.702075  0.653751  0.865769  1
  S  S19  1  0.346249  0.048323  0.865769  1
