# generated using pymatgen
data_Hf3Ti5(V3Si4)4
_symmetry_space_group_name_H-M   'P 1'
_cell_length_a   6.52153053
_cell_length_b   6.52045122
_cell_length_c   12.05319784
_cell_angle_alpha   89.96847230
_cell_angle_beta   90.00206141
_cell_angle_gamma   90.01248990
_symmetry_Int_Tables_number   1
_chemical_formula_structural   Hf3Ti5(V3Si4)4
_chemical_formula_sum   'Hf3 Ti5 V12 Si16'
_cell_volume   512.54191883
_cell_formula_units_Z   1
loop_
 _symmetry_equiv_pos_site_id
 _symmetry_equiv_pos_as_xyz
  1  'x, y, z'
loop_
 _atom_site_type_symbol
 _atom_site_label
 _atom_site_symmetry_multiplicity
 _atom_site_fract_x
 _atom_site_fract_y
 _atom_site_fract_z
 _atom_site_occupancy
  Hf  Hf0  1  0.001473  0.663917  0.029783  1
  Hf  Hf1  1  0.836057  0.501488  0.279838  1
  Hf  Hf2  1  0.163992  0.498987  0.779646  1
  Ti  Ti3  1  0.504011  0.838903  0.718626  1
  Ti  Ti4  1  0.494420  0.161537  0.221071  1
  Ti  Ti5  1  0.995426  0.338193  0.529580  1
  Ti  Ti6  1  0.661006  0.005064  0.970065  1
  Ti  Ti7  1  0.337778  0.995898  0.471140  1
  V  V8  1  0.334665  0.333179  0.999448  1
  V  V9  1  0.166356  0.835227  0.250808  1
  V  V10  1  0.833257  0.165814  0.748902  1
  V  V11  1  0.665402  0.666377  0.499660  1
  V  V12  1  0.008797  0.158087  0.127946  1
  V  V13  1  0.344061  0.507410  0.378137  1
  V  V14  1  0.657613  0.490605  0.875936  1
  V  V15  1  0.502769  0.341832  0.622347  1
  V  V16  1  0.498665  0.658389  0.122873  1
  V  V17  1  0.992633  0.842563  0.626771  1
  V  V18  1  0.157704  0.001127  0.871246  1
  V  V19  1  0.843835  0.997115  0.373423  1
  Si  Si20  1  0.300876  0.963862  0.065190  1
  Si  Si21  1  0.535971  0.801955  0.315778  1
  Si  Si22  1  0.462467  0.197914  0.813974  1
  Si  Si23  1  0.791813  0.539186  0.683372  1
  Si  Si24  1  0.212237  0.458541  0.186619  1
  Si  Si25  1  0.702307  0.038279  0.564804  1
  Si  Si26  1  0.958630  0.287621  0.935893  1
  Si  Si27  1  0.040721  0.706114  0.437214  1
  Si  Si28  1  0.701998  0.362636  0.073529  1
  Si  Si29  1  0.135694  0.204709  0.326627  1
  Si  Si30  1  0.861819  0.797017  0.822609  1
  Si  Si31  1  0.206983  0.126937  0.672885  1
  Si  Si32  1  0.788107  0.879360  0.176784  1
  Si  Si33  1  0.295201  0.633670  0.573653  1
  Si  Si34  1  0.379389  0.711615  0.926292  1
  Si  Si35  1  0.625870  0.288869  0.427530  1
