# generated using pymatgen
data_Tm20OsPt11
_symmetry_space_group_name_H-M   'P 1'
_cell_length_a   10.90974200
_cell_length_b   10.90974200
_cell_length_c   6.34826700
_cell_angle_alpha   90.00000000
_cell_angle_beta   90.00000000
_cell_angle_gamma   90.00000000
_symmetry_Int_Tables_number   1
_chemical_formula_structural   Tm20OsPt11
_chemical_formula_sum   'Tm20 Os1 Pt11'
_cell_volume   755.58642178
_cell_formula_units_Z   1
loop_
 _symmetry_equiv_pos_site_id
 _symmetry_equiv_pos_as_xyz
  1  'x, y, z'
loop_
 _atom_site_type_symbol
 _atom_site_label
 _atom_site_symmetry_multiplicity
 _atom_site_fract_x
 _atom_site_fract_y
 _atom_site_fract_z
 _atom_site_occupancy
  Tm  Tm0  1  0.292490  0.087291  0.377355  1
  Tm  Tm1  1  0.292469  0.911518  0.876235  1
  Tm  Tm2  1  0.707531  0.088482  0.876235  1
  Tm  Tm3  1  0.707510  0.912709  0.377355  1
  Tm  Tm4  1  0.588482  0.792469  0.876235  1
  Tm  Tm5  1  0.587291  0.207510  0.377355  1
  Tm  Tm6  1  0.412709  0.792490  0.377355  1
  Tm  Tm7  1  0.411518  0.207531  0.876235  1
  Tm  Tm8  1  0.205516  0.412746  0.619090  1
  Tm  Tm9  1  0.206484  0.587350  0.129497  1
  Tm  Tm10  1  0.793516  0.412650  0.129497  1
  Tm  Tm11  1  0.794484  0.587254  0.619090  1
  Tm  Tm12  1  0.912650  0.706484  0.129497  1
  Tm  Tm13  1  0.912746  0.294484  0.619090  1
  Tm  Tm14  1  0.087254  0.705516  0.619090  1
  Tm  Tm15  1  0.087350  0.293516  0.129497  1
  Tm  Tm16  1  0.000000  0.000000  0.501048  1
  Tm  Tm17  1  0.000000  0.000000  0.000343  1
  Tm  Tm18  1  0.500000  0.500000  0.000343  1
  Tm  Tm19  1  0.500000  0.500000  0.501048  1
  Os  Os20  1  0.000000  0.500000  0.376643  1
  Pt  Pt21  1  0.845358  0.152382  0.249615  1
  Pt  Pt22  1  0.846040  0.846869  0.750011  1
  Pt  Pt23  1  0.153960  0.153131  0.750011  1
  Pt  Pt24  1  0.154642  0.847618  0.249615  1
  Pt  Pt25  1  0.653131  0.346040  0.750011  1
  Pt  Pt26  1  0.652382  0.654642  0.249615  1
  Pt  Pt27  1  0.347618  0.345358  0.249615  1
  Pt  Pt28  1  0.346869  0.653960  0.750011  1
  Pt  Pt29  1  0.500000  0.000000  0.116116  1
  Pt  Pt30  1  0.500000  0.000000  0.617254  1
  Pt  Pt31  1  0.000000  0.500000  0.879986  1
