# generated using pymatgen
data_Ho2Ni17H3
_symmetry_space_group_name_H-M   'P 1'
_cell_length_a   6.26711733
_cell_length_b   6.26711754
_cell_length_c   6.26711766
_cell_angle_alpha   83.51844909
_cell_angle_beta   83.51844689
_cell_angle_gamma   83.51843578
_symmetry_Int_Tables_number   1
_chemical_formula_structural   Ho2Ni17H3
_chemical_formula_sum   'Ho2 Ni17 H3'
_cell_volume   241.76206161
_cell_formula_units_Z   1
loop_
 _symmetry_equiv_pos_site_id
 _symmetry_equiv_pos_as_xyz
  1  'x, y, z'
loop_
 _atom_site_type_symbol
 _atom_site_label
 _atom_site_symmetry_multiplicity
 _atom_site_fract_x
 _atom_site_fract_y
 _atom_site_fract_z
 _atom_site_occupancy
  Ho  Ho0  1  0.659682  0.659682  0.659682  1
  Ho  Ho1  1  0.340318  0.340318  0.340318  1
  Ni  Ni2  1  0.000000  0.000000  0.500000  1
  Ni  Ni3  1  0.000000  0.500000  0.000000  1
  Ni  Ni4  1  0.500000  0.000000  0.000000  1
  Ni  Ni5  1  0.290539  0.709461  0.000000  1
  Ni  Ni6  1  0.709461  0.000000  0.290539  1
  Ni  Ni7  1  0.000000  0.290539  0.709461  1
  Ni  Ni8  1  0.290539  0.000000  0.709461  1
  Ni  Ni9  1  0.000000  0.709461  0.290539  1
  Ni  Ni10  1  0.709461  0.290539  0.000000  1
  Ni  Ni11  1  0.346753  0.346753  0.849221  1
  Ni  Ni12  1  0.346753  0.849221  0.346753  1
  Ni  Ni13  1  0.849221  0.346753  0.346753  1
  Ni  Ni14  1  0.653247  0.653247  0.150779  1
  Ni  Ni15  1  0.653247  0.150779  0.653247  1
  Ni  Ni16  1  0.150779  0.653247  0.653247  1
  Ni  Ni17  1  0.900190  0.900190  0.900190  1
  Ni  Ni18  1  0.099810  0.099810  0.099810  1
  H  H19  1  0.500000  0.500000  0.000000  1
  H  H20  1  0.500000  0.000000  0.500000  1
  H  H21  1  0.000000  0.500000  0.500000  1
