# generated using pymatgen
data_Tb2Dy5Ho8Th(CdPt)4
_symmetry_space_group_name_H-M   'P 1'
_cell_length_a   9.67803416
_cell_length_b   9.67085843
_cell_length_c   9.67085761
_cell_angle_alpha   60.25455872
_cell_angle_beta   60.29748199
_cell_angle_gamma   60.29748489
_symmetry_Int_Tables_number   1
_chemical_formula_structural   Tb2Dy5Ho8Th(CdPt)4
_chemical_formula_sum   'Tb2 Dy5 Ho8 Th1 Cd4 Pt4'
_cell_volume   644.13426279
_cell_formula_units_Z   1
loop_
 _symmetry_equiv_pos_site_id
 _symmetry_equiv_pos_as_xyz
  1  'x, y, z'
loop_
 _atom_site_type_symbol
 _atom_site_label
 _atom_site_symmetry_multiplicity
 _atom_site_fract_x
 _atom_site_fract_y
 _atom_site_fract_z
 _atom_site_occupancy
  Tb  Tb0  1  0.354219  0.354306  0.937533  1
  Tb  Tb1  1  0.354219  0.937533  0.354306  1
  Dy  Dy2  1  0.564657  0.936776  0.936776  1
  Dy  Dy3  1  0.567024  0.935488  0.566915  1
  Dy  Dy4  1  0.936775  0.564521  0.936739  1
  Dy  Dy5  1  0.567024  0.566915  0.935488  1
  Dy  Dy6  1  0.936775  0.936739  0.564521  1
  Ho  Ho7  1  0.938665  0.354149  0.354149  1
  Ho  Ho8  1  0.812431  0.188996  0.188996  1
  Ho  Ho9  1  0.190592  0.811412  0.811412  1
  Ho  Ho10  1  0.188528  0.812725  0.188832  1
  Ho  Ho11  1  0.811211  0.190976  0.810802  1
  Ho  Ho12  1  0.188528  0.188832  0.812725  1
  Ho  Ho13  1  0.811211  0.810802  0.190976  1
  Ho  Ho14  1  0.935997  0.566814  0.566814  1
  Th  Th15  1  0.348721  0.348986  0.348986  1
  Cd  Cd16  1  0.582882  0.581582  0.581582  1
  Cd  Cd17  1  0.582641  0.581664  0.252883  1
  Cd  Cd18  1  0.582641  0.252883  0.581664  1
  Cd  Cd19  1  0.252552  0.581927  0.581927  1
  Pt  Pt20  1  0.142652  0.144319  0.144319  1
  Pt  Pt21  1  0.139151  0.140534  0.571147  1
  Pt  Pt22  1  0.139151  0.571147  0.140534  1
  Pt  Pt23  1  0.571761  0.139971  0.139971  1
