# generated using pymatgen
data_Tb8Si7GePt8
_symmetry_space_group_name_H-M   'P 1'
_cell_length_a   4.29788000
_cell_length_b   7.48147135
_cell_length_c   14.00413300
_cell_angle_alpha   89.98244705
_cell_angle_beta   90.00000000
_cell_angle_gamma   90.00000000
_symmetry_Int_Tables_number   1
_chemical_formula_structural   Tb8Si7GePt8
_chemical_formula_sum   'Tb8 Si7 Ge1 Pt8'
_cell_volume   450.29539854
_cell_formula_units_Z   1
loop_
 _symmetry_equiv_pos_site_id
 _symmetry_equiv_pos_as_xyz
  1  'x, y, z'
loop_
 _atom_site_type_symbol
 _atom_site_label
 _atom_site_symmetry_multiplicity
 _atom_site_fract_x
 _atom_site_fract_y
 _atom_site_fract_z
 _atom_site_occupancy
  Tb  Tb0  1  0.000000  0.204443  0.750453  1
  Tb  Tb1  1  0.000000  0.205428  0.249766  1
  Tb  Tb2  1  0.500000  0.793814  0.748115  1
  Tb  Tb3  1  0.500000  0.793947  0.251604  1
  Tb  Tb4  1  0.000000  0.293338  0.499954  1
  Tb  Tb5  1  0.500000  0.706699  0.000444  1
  Tb  Tb6  1  0.000000  0.301461  0.000854  1
  Tb  Tb7  1  0.500000  0.699261  0.499876  1
  Si  Si8  1  0.000000  0.590423  0.852134  1
  Si  Si9  1  0.000000  0.592755  0.147865  1
  Si  Si10  1  0.500000  0.407417  0.648974  1
  Si  Si11  1  0.500000  0.407631  0.351641  1
  Si  Si12  1  0.000000  0.907803  0.407760  1
  Si  Si13  1  0.000000  0.907877  0.591950  1
  Si  Si14  1  0.500000  0.093324  0.095797  1
  Ge  Ge15  1  0.500000  0.094813  0.907227  1
  Pt  Pt16  1  0.000000  0.913338  0.890504  1
  Pt  Pt17  1  0.000000  0.924001  0.108550  1
  Pt  Pt18  1  0.500000  0.076685  0.608440  1
  Pt  Pt19  1  0.500000  0.076331  0.391759  1
  Pt  Pt20  1  0.000000  0.579963  0.346825  1
  Pt  Pt21  1  0.000000  0.579768  0.651853  1
  Pt  Pt22  1  0.500000  0.420606  0.154477  1
  Pt  Pt23  1  0.500000  0.428880  0.843180  1
