# generated using pymatgen
data_Hf3Zr2InRh10
_symmetry_space_group_name_H-M   'P 1'
_cell_length_a   4.19635200
_cell_length_b   5.65807095
_cell_length_c   11.10774659
_cell_angle_alpha   88.91284391
_cell_angle_beta   90.00000000
_cell_angle_gamma   90.00000000
_symmetry_Int_Tables_number   1
_chemical_formula_structural   Hf3Zr2InRh10
_chemical_formula_sum   'Hf3 Zr2 In1 Rh10'
_cell_volume   263.68661128
_cell_formula_units_Z   1
loop_
 _symmetry_equiv_pos_site_id
 _symmetry_equiv_pos_as_xyz
  1  'x, y, z'
loop_
 _atom_site_type_symbol
 _atom_site_label
 _atom_site_symmetry_multiplicity
 _atom_site_fract_x
 _atom_site_fract_y
 _atom_site_fract_z
 _atom_site_occupancy
  Hf  Hf0  1  0.500000  0.666970  0.854870  1
  Hf  Hf1  1  0.500000  0.333030  0.145130  1
  Hf  Hf2  1  0.000000  0.000000  0.000000  1
  Zr  Zr3  1  0.500000  0.181391  0.640850  1
  Zr  Zr4  1  0.500000  0.818609  0.359150  1
  In  In5  1  0.000000  0.500000  0.500000  1
  Rh  Rh6  1  0.500000  0.191825  0.891835  1
  Rh  Rh7  1  0.500000  0.808175  0.108165  1
  Rh  Rh8  1  0.500000  0.706543  0.616858  1
  Rh  Rh9  1  0.500000  0.293457  0.383142  1
  Rh  Rh10  1  0.000000  0.429628  0.749692  1
  Rh  Rh11  1  0.000000  0.570372  0.250308  1
  Rh  Rh12  1  0.000000  0.000000  0.500000  1
  Rh  Rh13  1  0.000000  0.500000  0.000000  1
  Rh  Rh14  1  0.000000  0.075775  0.242986  1
  Rh  Rh15  1  0.000000  0.924225  0.757014  1
