# generated using pymatgen
data_BaTa2Fe2(PO4)6
_symmetry_space_group_name_H-M   'P 1'
_cell_length_a   8.58812000
_cell_length_b   9.27004806
_cell_length_c   12.65056315
_cell_angle_alpha   84.69932395
_cell_angle_beta   90.00000000
_cell_angle_gamma   90.00000000
_symmetry_Int_Tables_number   1
_chemical_formula_structural   BaTa2Fe2(PO4)6
_chemical_formula_sum   'Ba2 Ta4 Fe4 P12 O48'
_cell_volume   1002.83331471
_cell_formula_units_Z   2
loop_
 _symmetry_equiv_pos_site_id
 _symmetry_equiv_pos_as_xyz
  1  'x, y, z'
loop_
 _atom_site_type_symbol
 _atom_site_label
 _atom_site_symmetry_multiplicity
 _atom_site_fract_x
 _atom_site_fract_y
 _atom_site_fract_z
 _atom_site_occupancy
  Ba  Ba0  1  0.000000  0.000000  0.500000  1
  Ba  Ba1  1  0.500000  0.500000  0.500000  1
  Ta  Ta2  1  0.499259  0.211362  0.852251  1
  Ta  Ta3  1  0.999259  0.288638  0.147749  1
  Ta  Ta4  1  0.500741  0.788638  0.147749  1
  Ta  Ta5  1  0.000741  0.711362  0.852251  1
  Fe  Fe6  1  0.500964  0.806708  0.648896  1
  Fe  Fe7  1  0.000964  0.693292  0.351104  1
  Fe  Fe8  1  0.499036  0.193292  0.351104  1
  Fe  Fe9  1  0.999036  0.306708  0.648896  1
  P  P10  1  0.354342  0.856557  0.393701  1
  P  P11  1  0.283739  0.503207  0.744349  1
  P  P12  1  0.145658  0.356557  0.393701  1
  P  P13  1  0.861406  0.362571  0.889648  1
  P  P14  1  0.361406  0.137429  0.110352  1
  P  P15  1  0.783739  0.996793  0.255651  1
  P  P16  1  0.216261  0.003207  0.744349  1
  P  P17  1  0.638594  0.862571  0.889648  1
  P  P18  1  0.138594  0.637429  0.110352  1
  P  P19  1  0.854342  0.643443  0.606299  1
  P  P20  1  0.716261  0.496793  0.255651  1
  P  P21  1  0.645658  0.143443  0.606299  1
  O  O22  1  0.307946  0.921531  0.665051  1
  O  O23  1  0.180641  0.818391  0.391811  1
  O  O24  1  0.434266  0.785700  0.494074  1
  O  O25  1  0.435992  0.788317  0.297947  1
  O  O26  1  0.395196  0.607217  0.682381  1
  O  O27  1  0.133838  0.521845  0.384427  1
  O  O28  1  0.192054  0.421531  0.665051  1
  O  O29  1  0.379497  0.389257  0.817972  1
  O  O30  1  0.126029  0.470069  0.116475  1
  O  O31  1  0.821289  0.415431  0.180825  1
  O  O32  1  0.319359  0.318391  0.391811  1
  O  O33  1  0.065734  0.285700  0.494074  1
  O  O34  1  0.064008  0.288317  0.297947  1
  O  O35  1  0.685049  0.323373  0.887078  1
  O  O36  1  0.925582  0.301672  0.999905  1
  O  O37  1  0.950544  0.296746  0.803217  1
  O  O38  1  0.450544  0.203254  0.196783  1
  O  O39  1  0.425582  0.198328  0.000095  1
  O  O40  1  0.185049  0.176627  0.112922  1
  O  O41  1  0.879497  0.110743  0.182028  1
  O  O42  1  0.366162  0.021845  0.384427  1
  O  O43  1  0.104804  0.107217  0.682381  1
  O  O44  1  0.321289  0.084569  0.819175  1
  O  O45  1  0.626029  0.029931  0.883525  1
  O  O46  1  0.373971  0.970069  0.116475  1
  O  O47  1  0.678711  0.915431  0.180825  1
  O  O48  1  0.895196  0.892783  0.317619  1
  O  O49  1  0.633838  0.978155  0.615573  1
  O  O50  1  0.120503  0.889257  0.817972  1
  O  O51  1  0.814951  0.823373  0.887078  1
  O  O52  1  0.574418  0.801672  0.999905  1
  O  O53  1  0.549456  0.796746  0.803217  1
  O  O54  1  0.049456  0.703254  0.196783  1
  O  O55  1  0.074418  0.698328  0.000095  1
  O  O56  1  0.314951  0.676627  0.112922  1
  O  O57  1  0.935992  0.711683  0.702053  1
  O  O58  1  0.934266  0.714300  0.505926  1
  O  O59  1  0.680641  0.681609  0.608189  1
  O  O60  1  0.178711  0.584569  0.819175  1
  O  O61  1  0.873971  0.529931  0.883525  1
  O  O62  1  0.620503  0.610743  0.182028  1
  O  O63  1  0.807946  0.578469  0.334949  1
  O  O64  1  0.866162  0.478155  0.615573  1
  O  O65  1  0.604804  0.392783  0.317619  1
  O  O66  1  0.564008  0.211683  0.702053  1
  O  O67  1  0.565734  0.214300  0.505926  1
  O  O68  1  0.819359  0.181609  0.608189  1
  O  O69  1  0.692054  0.078469  0.334949  1
