# generated using pymatgen
data_Pr4Y12Cd4OsPt3
_symmetry_space_group_name_H-M   'P 1'
_cell_length_a   9.81186155
_cell_length_b   9.80633034
_cell_length_c   9.80633061
_cell_angle_alpha   59.75215115
_cell_angle_beta   59.72761038
_cell_angle_gamma   59.72760243
_symmetry_Int_Tables_number   1
_chemical_formula_structural   Pr4Y12Cd4OsPt3
_chemical_formula_sum   'Pr4 Y12 Cd4 Os1 Pt3'
_cell_volume   663.18652971
_cell_formula_units_Z   1
loop_
 _symmetry_equiv_pos_site_id
 _symmetry_equiv_pos_as_xyz
  1  'x, y, z'
loop_
 _atom_site_type_symbol
 _atom_site_label
 _atom_site_symmetry_multiplicity
 _atom_site_fract_x
 _atom_site_fract_y
 _atom_site_fract_z
 _atom_site_occupancy
  Pr  Pr0  1  0.565112  0.935244  0.566015  1
  Pr  Pr1  1  0.938152  0.559245  0.935748  1
  Pr  Pr2  1  0.565112  0.566015  0.935244  1
  Pr  Pr3  1  0.938152  0.935748  0.559245  1
  Y  Y4  1  0.352660  0.351390  0.351390  1
  Y  Y5  1  0.347152  0.349800  0.953259  1
  Y  Y6  1  0.347152  0.953259  0.349800  1
  Y  Y7  1  0.951114  0.348202  0.348202  1
  Y  Y8  1  0.816943  0.186600  0.186600  1
  Y  Y9  1  0.187935  0.810422  0.810422  1
  Y  Y10  1  0.188661  0.815798  0.188092  1
  Y  Y11  1  0.809831  0.184891  0.810118  1
  Y  Y12  1  0.188661  0.188092  0.815798  1
  Y  Y13  1  0.809831  0.810118  0.184891  1
  Y  Y14  1  0.941513  0.557380  0.557380  1
  Y  Y15  1  0.551524  0.944649  0.944649  1
  Cd  Cd16  1  0.583516  0.577540  0.577540  1
  Cd  Cd17  1  0.577620  0.583932  0.258608  1
  Cd  Cd18  1  0.577620  0.258608  0.583932  1
  Cd  Cd19  1  0.259062  0.578227  0.578227  1
  Os  Os20  1  0.145123  0.141417  0.141417  1
  Pt  Pt21  1  0.142019  0.146887  0.574181  1
  Pt  Pt22  1  0.142019  0.574181  0.146887  1
  Pt  Pt23  1  0.573516  0.142360  0.142360  1
