# generated using pymatgen
data_Eu2Ga2SiO7
_symmetry_space_group_name_H-M   'P 1'
_cell_length_a   5.34631719
_cell_length_b   8.06242105
_cell_length_c   8.03767000
_cell_angle_alpha   90.00000000
_cell_angle_beta   90.00000000
_cell_angle_gamma   90.13342777
_symmetry_Int_Tables_number   1
_chemical_formula_structural   Eu2Ga2SiO7
_chemical_formula_sum   'Eu4 Ga4 Si2 O14'
_cell_volume   346.45687967
_cell_formula_units_Z   2
loop_
 _symmetry_equiv_pos_site_id
 _symmetry_equiv_pos_as_xyz
  1  'x, y, z'
loop_
 _atom_site_type_symbol
 _atom_site_label
 _atom_site_symmetry_multiplicity
 _atom_site_fract_x
 _atom_site_fract_y
 _atom_site_fract_z
 _atom_site_occupancy
  Eu  Eu0  1  0.513900  0.827025  0.341675  1
  Eu  Eu1  1  0.486100  0.672975  0.841675  1
  Eu  Eu2  1  0.503602  0.153479  0.666039  1
  Eu  Eu3  1  0.496398  0.346521  0.166039  1
  Ga  Ga4  1  0.000584  0.496982  0.500721  1
  Ga  Ga5  1  0.999416  0.003018  0.000721  1
  Ga  Ga6  1  0.971778  0.643136  0.142644  1
  Ga  Ga7  1  0.028222  0.856864  0.642644  1
  Si  Si8  1  0.952676  0.357810  0.858502  1
  Si  Si9  1  0.047324  0.142190  0.358502  1
  O  O10  1  0.174478  0.005052  0.486343  1
  O  O11  1  0.825522  0.494948  0.986343  1
  O  O12  1  0.189423  0.319118  0.413666  1
  O  O13  1  0.810577  0.180882  0.913666  1
  O  O14  1  0.205420  0.664243  0.581129  1
  O  O15  1  0.794580  0.835757  0.081129  1
  O  O16  1  0.791095  0.571278  0.332600  1
  O  O17  1  0.208905  0.928722  0.832600  1
  O  O18  1  0.817918  0.401141  0.676588  1
  O  O19  1  0.182082  0.098859  0.176588  1
  O  O20  1  0.310132  0.635940  0.140407  1
  O  O21  1  0.689868  0.864060  0.640407  1
  O  O22  1  0.255217  0.354171  0.859688  1
  O  O23  1  0.744783  0.145829  0.359688  1
