# generated using pymatgen
data_TaNiSbF12
_symmetry_space_group_name_H-M   'P 1'
_cell_length_a   5.24210983
_cell_length_b   5.58533760
_cell_length_c   9.26790600
_cell_angle_alpha   104.79991729
_cell_angle_beta   90.67967043
_cell_angle_gamma   118.99631227
_symmetry_Int_Tables_number   1
_chemical_formula_structural   TaNiSbF12
_chemical_formula_sum   'Ta1 Ni1 Sb1 F12'
_cell_volume   226.49314636
_cell_formula_units_Z   1
loop_
 _symmetry_equiv_pos_site_id
 _symmetry_equiv_pos_as_xyz
  1  'x, y, z'
loop_
 _atom_site_type_symbol
 _atom_site_label
 _atom_site_symmetry_multiplicity
 _atom_site_fract_x
 _atom_site_fract_y
 _atom_site_fract_z
 _atom_site_occupancy
  Ta  Ta0  1  0.223886  0.496081  0.742314  1
  Ni  Ni1  1  0.003808  0.000954  0.001570  1
  Sb  Sb2  1  0.777530  0.502030  0.253905  1
  F  F3  1  0.813139  0.259945  0.707087  1
  F  F4  1  0.191696  0.739776  0.290882  1
  F  F5  1  0.179067  0.753179  0.925594  1
  F  F6  1  0.701803  0.725718  0.416973  1
  F  F7  1  0.303412  0.279646  0.580930  1
  F  F8  1  0.774167  0.253739  0.359371  1
  F  F9  1  0.224713  0.742041  0.638555  1
  F  F10  1  0.350682  0.255596  0.178888  1
  F  F11  1  0.651383  0.745957  0.830978  1
  F  F12  1  0.763898  0.725490  0.122972  1
  F  F13  1  0.224117  0.267223  0.878378  1
  F  F14  1  0.816698  0.252627  0.071602  1
