# generated using pymatgen
data_Tb5DyBCCl6
_symmetry_space_group_name_H-M   'P 1'
_cell_length_a   9.35819683
_cell_length_b   9.35819129
_cell_length_c   9.43169237
_cell_angle_alpha   109.48368437
_cell_angle_beta   109.51077056
_cell_angle_gamma   109.10102520
_symmetry_Int_Tables_number   1
_chemical_formula_structural   Tb5DyBCCl6
_chemical_formula_sum   'Tb10 Dy2 B2 C2 Cl12'
_cell_volume   638.32279880
_cell_formula_units_Z   2
loop_
 _symmetry_equiv_pos_site_id
 _symmetry_equiv_pos_as_xyz
  1  'x, y, z'
loop_
 _atom_site_type_symbol
 _atom_site_label
 _atom_site_symmetry_multiplicity
 _atom_site_fract_x
 _atom_site_fract_y
 _atom_site_fract_z
 _atom_site_occupancy
  Tb  Tb0  1  0.744229  0.014560  0.479441  1
  Tb  Tb1  1  0.235280  0.465054  0.479457  1
  Tb  Tb2  1  0.268414  0.757013  0.236194  1
  Tb  Tb3  1  0.035121  0.264789  0.020559  1
  Tb  Tb4  1  0.020821  0.032221  0.263807  1
  Tb  Tb5  1  0.485596  0.755823  0.020543  1
  Tb  Tb6  1  0.481050  0.231035  0.462047  1
  Tb  Tb7  1  0.014179  0.485908  0.750082  1
  Tb  Tb8  1  0.268987  0.019002  0.037953  1
  Tb  Tb9  1  0.235826  0.264096  0.749918  1
  Dy  Dy10  1  0.466901  0.478763  0.235733  1
  Dy  Dy11  1  0.743030  0.231168  0.264267  1
  B  B12  1  0.999000  0.249414  0.498411  1
  B  B13  1  0.251004  0.500588  0.001589  1
  C  C14  1  0.250352  0.250850  0.250016  1
  C  C15  1  0.500834  0.000337  0.249984  1
  Cl  Cl16  1  0.252058  0.758748  0.746389  1
  Cl  Cl17  1  0.512361  0.505671  0.753612  1
  Cl  Cl18  1  0.988343  0.746085  0.994292  1
  Cl  Cl19  1  0.741256  0.247936  0.753591  1
  Cl  Cl20  1  0.994343  0.987663  0.746408  1
  Cl  Cl21  1  0.251791  0.994051  0.505707  1
  Cl  Cl22  1  0.753360  0.511127  0.504516  1
  Cl  Cl23  1  0.506612  0.248844  0.995485  1
  Cl  Cl24  1  0.754988  0.744307  0.250062  1
  Cl  Cl25  1  0.744141  0.994734  0.988854  1
  Cl  Cl26  1  0.994244  0.504926  0.249938  1
  Cl  Cl27  1  0.505880  0.755287  0.511146  1
