# generated using pymatgen
data_HoTm4P12IrRu18
_symmetry_space_group_name_H-M   'P 1'
_cell_length_a   12.50081500
_cell_length_b   12.50081481
_cell_length_c   3.96620600
_cell_angle_alpha   90.00000000
_cell_angle_beta   90.00000000
_cell_angle_gamma   119.99999257
_symmetry_Int_Tables_number   1
_chemical_formula_structural   HoTm4P12IrRu18
_chemical_formula_sum   'Ho1 Tm4 P12 Ir1 Ru18'
_cell_volume   536.76301148
_cell_formula_units_Z   1
loop_
 _symmetry_equiv_pos_site_id
 _symmetry_equiv_pos_as_xyz
  1  'x, y, z'
loop_
 _atom_site_type_symbol
 _atom_site_label
 _atom_site_symmetry_multiplicity
 _atom_site_fract_x
 _atom_site_fract_y
 _atom_site_fract_z
 _atom_site_occupancy
  Ho  Ho0  1  0.333333  0.666667  0.500000  1
  Tm  Tm1  1  0.666667  0.333333  0.500000  1
  Tm  Tm2  1  0.186149  0.186149  0.000000  1
  Tm  Tm3  1  0.813851  0.000001  0.000000  1
  Tm  Tm4  1  0.999999  0.813851  0.000000  1
  P  P5  1  0.307025  0.829316  0.000000  1
  P  P6  1  0.170684  0.477710  0.000000  1
  P  P7  1  0.522290  0.692975  0.000000  1
  P  P8  1  0.829151  0.307110  0.000000  1
  P  P9  1  0.477958  0.170849  0.000000  1
  P  P10  1  0.692890  0.522042  0.000000  1
  P  P11  1  0.372423  0.372471  0.500000  1
  P  P12  1  0.627529  0.999952  0.500000  1
  P  P13  1  0.000048  0.627577  0.500000  1
  P  P14  1  0.815308  0.815307  0.500000  1
  P  P15  1  0.184693  0.000001  0.500000  1
  P  P16  1  0.999999  0.184692  0.500000  1
  Ir  Ir17  1  0.000000  0.000000  0.500000  1
  Ru  Ru18  1  0.191610  0.815044  0.500000  1
  Ru  Ru19  1  0.184956  0.376567  0.500000  1
  Ru  Ru20  1  0.623433  0.808390  0.500000  1
  Ru  Ru21  1  0.814900  0.191694  0.500000  1
  Ru  Ru22  1  0.376794  0.185100  0.500000  1
  Ru  Ru23  1  0.808306  0.623206  0.500000  1
  Ru  Ru24  1  0.126309  0.634584  0.000000  1
  Ru  Ru25  1  0.365416  0.491724  0.000000  1
  Ru  Ru26  1  0.508276  0.873691  0.000000  1
  Ru  Ru27  1  0.634618  0.126733  0.000000  1
  Ru  Ru28  1  0.492114  0.365382  0.000000  1
  Ru  Ru29  1  0.873267  0.507886  0.000000  1
  Ru  Ru30  1  0.554957  0.554988  0.500000  1
  Ru  Ru31  1  0.445012  0.999969  0.500000  1
  Ru  Ru32  1  0.000031  0.445043  0.500000  1
  Ru  Ru33  1  0.718645  0.718634  0.000000  1
  Ru  Ru34  1  0.281366  0.000012  0.000000  1
  Ru  Ru35  1  0.999988  0.281355  0.000000  1
