# generated using pymatgen
data_DyHo15In3AgIrPt3
_symmetry_space_group_name_H-M   'P 1'
_cell_length_a   9.65678237
_cell_length_b   9.65968333
_cell_length_c   9.66437000
_cell_angle_alpha   60.13901113
_cell_angle_beta   60.12412027
_cell_angle_gamma   60.07312655
_symmetry_Int_Tables_number   1
_chemical_formula_structural   DyHo15In3AgIrPt3
_chemical_formula_sum   'Dy1 Ho15 In3 Ag1 Ir1 Pt3'
_cell_volume   639.07973750
_cell_formula_units_Z   1
loop_
 _symmetry_equiv_pos_site_id
 _symmetry_equiv_pos_as_xyz
  1  'x, y, z'
loop_
 _atom_site_type_symbol
 _atom_site_label
 _atom_site_symmetry_multiplicity
 _atom_site_fract_x
 _atom_site_fract_y
 _atom_site_fract_z
 _atom_site_occupancy
  Dy  Dy0  1  0.435795  0.435580  0.067431  1
  Ho  Ho1  1  0.645198  0.645229  0.061772  1
  Ho  Ho2  1  0.186473  0.809669  0.193044  1
  Ho  Ho3  1  0.062464  0.438785  0.061266  1
  Ho  Ho4  1  0.191469  0.809044  0.807604  1
  Ho  Ho5  1  0.066833  0.437929  0.434429  1
  Ho  Ho6  1  0.809758  0.186514  0.192976  1
  Ho  Ho7  1  0.653102  0.653098  0.648757  1
  Ho  Ho8  1  0.809227  0.191434  0.807501  1
  Ho  Ho9  1  0.190964  0.191000  0.807578  1
  Ho  Ho10  1  0.055501  0.649608  0.644456  1
  Ho  Ho11  1  0.439013  0.062301  0.061179  1
  Ho  Ho12  1  0.061934  0.061868  0.436593  1
  Ho  Ho13  1  0.649435  0.055901  0.644378  1
  Ho  Ho14  1  0.809342  0.809112  0.193511  1
  Ho  Ho15  1  0.438286  0.066519  0.434510  1
  In  In16  1  0.416935  0.417065  0.745822  1
  In  In17  1  0.416115  0.746471  0.417916  1
  In  In18  1  0.746531  0.416195  0.417821  1
  Ag  Ag19  1  0.415231  0.415398  0.416278  1
  Ir  Ir20  1  0.858790  0.859201  0.426713  1
  Pt  Pt21  1  0.427708  0.858380  0.860187  1
  Pt  Pt22  1  0.855704  0.856001  0.858038  1
  Pt  Pt23  1  0.858194  0.427695  0.860237  1
