# generated using pymatgen
data_Lu4Hf5Zr3Pb10
_symmetry_space_group_name_H-M   'P 1'
_cell_length_a   6.04187391
_cell_length_b   9.19544967
_cell_length_c   11.26929949
_cell_angle_alpha   114.03976229
_cell_angle_beta   105.54932891
_cell_angle_gamma   90.00000101
_symmetry_Int_Tables_number   1
_chemical_formula_structural   Lu4Hf5Zr3Pb10
_chemical_formula_sum   'Lu4 Hf5 Zr3 Pb10'
_cell_volume   546.60404733
_cell_formula_units_Z   1
loop_
 _symmetry_equiv_pos_site_id
 _symmetry_equiv_pos_as_xyz
  1  'x, y, z'
loop_
 _atom_site_type_symbol
 _atom_site_label
 _atom_site_symmetry_multiplicity
 _atom_site_fract_x
 _atom_site_fract_y
 _atom_site_fract_z
 _atom_site_occupancy
  Lu  Lu0  1  0.145285  0.253336  0.290569  1
  Lu  Lu1  1  0.854601  0.744842  0.709202  1
  Lu  Lu2  1  0.645246  0.035778  0.290491  1
  Lu  Lu3  1  0.355423  0.965755  0.710846  1
  Hf  Hf4  1  0.558013  0.310035  0.616241  1
  Hf  Hf5  1  0.442109  0.693085  0.383885  1
  Hf  Hf6  1  0.941776  0.693085  0.383885  1
  Hf  Hf7  1  0.058229  0.310035  0.616241  1
  Hf  Hf8  1  0.437058  0.672465  0.874116  1
  Zr  Zr9  1  0.561841  0.324181  0.123681  1
  Zr  Zr10  1  0.937897  0.201071  0.875795  1
  Zr  Zr11  1  0.062907  0.797923  0.125813  1
  Pb  Pb12  1  0.291055  0.592371  0.582111  1
  Pb  Pb13  1  0.708950  0.410102  0.417898  1
  Pb  Pb14  1  0.790714  0.992659  0.581428  1
  Pb  Pb15  1  0.210012  0.009397  0.420025  1
  Pb  Pb16  1  0.249762  0.997340  0.998940  1
  Pb  Pb17  1  0.749179  0.997340  0.998940  1
  Pb  Pb18  1  0.071328  0.465832  0.142658  1
  Pb  Pb19  1  0.929289  0.533193  0.858578  1
  Pb  Pb20  1  0.570281  0.674255  0.140563  1
  Pb  Pb21  1  0.429047  0.325920  0.858094  1
