# generated using pymatgen
data_YHo3ReB12Ir
_symmetry_space_group_name_H-M   'P 1'
_cell_length_a   3.66416400
_cell_length_b   9.14948031
_cell_length_c   11.53846901
_cell_angle_alpha   90.33163080
_cell_angle_beta   90.00000000
_cell_angle_gamma   90.00000000
_symmetry_Int_Tables_number   1
_chemical_formula_structural   YHo3ReB12Ir
_chemical_formula_sum   'Y2 Ho6 Re2 B24 Ir2'
_cell_volume   386.82295984
_cell_formula_units_Z   2
loop_
 _symmetry_equiv_pos_site_id
 _symmetry_equiv_pos_as_xyz
  1  'x, y, z'
loop_
 _atom_site_type_symbol
 _atom_site_label
 _atom_site_symmetry_multiplicity
 _atom_site_fract_x
 _atom_site_fract_y
 _atom_site_fract_z
 _atom_site_occupancy
  Y  Y0  1  0.000000  0.317073  0.409886  1
  Y  Y1  1  0.000000  0.682927  0.590114  1
  Ho  Ho2  1  0.000000  0.826653  0.082219  1
  Ho  Ho3  1  0.000000  0.173347  0.917781  1
  Ho  Ho4  1  0.000000  0.946080  0.372112  1
  Ho  Ho5  1  0.000000  0.053920  0.627888  1
  Ho  Ho6  1  0.000000  0.441698  0.125788  1
  Ho  Ho7  1  0.000000  0.558302  0.874212  1
  Re  Re8  1  0.000000  0.137979  0.179372  1
  Re  Re9  1  0.000000  0.862021  0.820628  1
  B  B10  1  0.500000  0.554253  0.433749  1
  B  B11  1  0.500000  0.445747  0.566251  1
  B  B12  1  0.500000  0.053261  0.067136  1
  B  B13  1  0.500000  0.946739  0.932864  1
  B  B14  1  0.500000  0.749468  0.420893  1
  B  B15  1  0.500000  0.250532  0.579107  1
  B  B16  1  0.500000  0.247771  0.080593  1
  B  B17  1  0.500000  0.752229  0.919407  1
  B  B18  1  0.500000  0.790972  0.265892  1
  B  B19  1  0.500000  0.209028  0.734108  1
  B  B20  1  0.500000  0.292198  0.234007  1
  B  B21  1  0.500000  0.707802  0.765993  1
  B  B22  1  0.500000  0.631913  0.183945  1
  B  B23  1  0.500000  0.368087  0.816055  1
  B  B24  1  0.500000  0.131444  0.314493  1
  B  B25  1  0.500000  0.868556  0.685507  1
  B  B26  1  0.500000  0.982827  0.212937  1
  B  B27  1  0.500000  0.017173  0.787063  1
  B  B28  1  0.500000  0.482736  0.287065  1
  B  B29  1  0.500000  0.517264  0.712935  1
  B  B30  1  0.500000  0.607175  0.030043  1
  B  B31  1  0.500000  0.392825  0.969957  1
  B  B32  1  0.500000  0.107423  0.470850  1
  B  B33  1  0.500000  0.892577  0.529150  1
  Ir  Ir34  1  0.000000  0.636909  0.321937  1
  Ir  Ir35  1  0.000000  0.363091  0.678063  1
