# generated using pymatgen
data_Er4Cd2Ni3Au
_symmetry_space_group_name_H-M   'P 1'
_cell_length_a   7.50333302
_cell_length_b   7.50333316
_cell_length_c   3.63465200
_cell_angle_alpha   90.00000000
_cell_angle_beta   90.00000000
_cell_angle_gamma   90.99220885
_symmetry_Int_Tables_number   1
_chemical_formula_structural   Er4Cd2Ni3Au
_chemical_formula_sum   'Er4 Cd2 Ni3 Au1'
_cell_volume   204.60025208
_cell_formula_units_Z   1
loop_
 _symmetry_equiv_pos_site_id
 _symmetry_equiv_pos_as_xyz
  1  'x, y, z'
loop_
 _atom_site_type_symbol
 _atom_site_label
 _atom_site_symmetry_multiplicity
 _atom_site_fract_x
 _atom_site_fract_y
 _atom_site_fract_z
 _atom_site_occupancy
  Er  Er0  1  0.691407  0.166466  0.500000  1
  Er  Er1  1  0.333534  0.808593  0.500000  1
  Er  Er2  1  0.153197  0.346803  0.500000  1
  Er  Er3  1  0.826925  0.673075  0.500000  1
  Cd  Cd4  1  0.999542  0.994251  0.000000  1
  Cd  Cd5  1  0.505749  0.500458  0.000000  1
  Ni  Ni6  1  0.114567  0.628593  0.000000  1
  Ni  Ni7  1  0.871407  0.385433  0.000000  1
  Ni  Ni8  1  0.628128  0.871872  0.000000  1
  Au  Au9  1  0.375543  0.124457  0.000000  1
