# generated using pymatgen
data_Hf16Zr2CuRe8Ni
_symmetry_space_group_name_H-M   'P 1'
_cell_length_a   8.63194984
_cell_length_b   8.61982128
_cell_length_c   8.49228000
_cell_angle_alpha   90.00000000
_cell_angle_beta   90.00000000
_cell_angle_gamma   119.95353263
_symmetry_Int_Tables_number   1
_chemical_formula_structural   Hf16Zr2CuRe8Ni
_chemical_formula_sum   'Hf16 Zr2 Cu1 Re8 Ni1'
_cell_volume   547.47623016
_cell_formula_units_Z   1
loop_
 _symmetry_equiv_pos_site_id
 _symmetry_equiv_pos_as_xyz
  1  'x, y, z'
loop_
 _atom_site_type_symbol
 _atom_site_label
 _atom_site_symmetry_multiplicity
 _atom_site_fract_x
 _atom_site_fract_y
 _atom_site_fract_z
 _atom_site_occupancy
  Hf  Hf0  1  0.194190  0.804509  0.447516  1
  Hf  Hf1  1  0.194190  0.389680  0.447516  1
  Hf  Hf2  1  0.610611  0.805305  0.447910  1
  Hf  Hf3  1  0.802793  0.197942  0.556643  1
  Hf  Hf4  1  0.802793  0.604852  0.556643  1
  Hf  Hf5  1  0.394612  0.197306  0.557179  1
  Hf  Hf6  1  0.802793  0.197942  0.943357  1
  Hf  Hf7  1  0.802793  0.604852  0.943357  1
  Hf  Hf8  1  0.394612  0.197306  0.942821  1
  Hf  Hf9  1  0.194190  0.804509  0.052484  1
  Hf  Hf10  1  0.194190  0.389680  0.052484  1
  Hf  Hf11  1  0.610611  0.805305  0.052090  1
  Hf  Hf12  1  0.918900  0.459450  0.250000  1
  Hf  Hf13  1  0.458699  0.541010  0.750000  1
  Hf  Hf14  1  0.458699  0.917689  0.750000  1
  Hf  Hf15  1  0.082767  0.541383  0.750000  1
  Zr  Zr16  1  0.541377  0.458987  0.250000  1
  Zr  Zr17  1  0.541377  0.082389  0.250000  1
  Cu  Cu18  1  0.333155  0.666578  0.250000  1
  Re  Re19  1  0.890221  0.111579  0.250000  1
  Re  Re20  1  0.890221  0.778641  0.250000  1
  Re  Re21  1  0.219911  0.109955  0.250000  1
  Re  Re22  1  0.110687  0.889213  0.750000  1
  Re  Re23  1  0.110687  0.221475  0.750000  1
  Re  Re24  1  0.778610  0.889305  0.750000  1
  Re  Re25  1  0.999928  0.999964  0.499946  1
  Re  Re26  1  0.999928  0.999964  0.000054  1
  Ni  Ni27  1  0.666457  0.333228  0.750000  1
