# generated using pymatgen
data_PtRhPb2O7
_symmetry_space_group_name_H-M   'P 1'
_cell_length_a   7.38020125
_cell_length_b   7.35774379
_cell_length_c   7.35774500
_cell_angle_alpha   59.79715694
_cell_angle_beta   59.89898455
_cell_angle_gamma   59.89898844
_symmetry_Int_Tables_number   1
_chemical_formula_structural   PtRhPb2O7
_chemical_formula_sum   'Pt2 Rh2 Pb4 O14'
_cell_volume   281.64993900
_cell_formula_units_Z   2
loop_
 _symmetry_equiv_pos_site_id
 _symmetry_equiv_pos_as_xyz
  1  'x, y, z'
loop_
 _atom_site_type_symbol
 _atom_site_label
 _atom_site_symmetry_multiplicity
 _atom_site_fract_x
 _atom_site_fract_y
 _atom_site_fract_z
 _atom_site_occupancy
  Pt  Pt0  1  0.625000  0.625000  0.125000  1
  Pt  Pt1  1  0.625000  0.125000  0.625000  1
  Rh  Rh2  1  0.625000  0.625000  0.625000  1
  Rh  Rh3  1  0.125000  0.625000  0.625000  1
  Pb  Pb4  1  0.125000  0.125000  0.125000  1
  Pb  Pb5  1  0.625000  0.125000  0.125000  1
  Pb  Pb6  1  0.125000  0.625000  0.125000  1
  Pb  Pb7  1  0.125000  0.125000  0.625000  1
  O  O8  1  0.706766  0.293234  0.293234  1
  O  O9  1  0.706259  0.293332  0.706553  1
  O  O10  1  0.997569  0.002431  0.002431  1
  O  O11  1  0.293855  0.706553  0.293332  1
  O  O12  1  0.706259  0.706553  0.293332  1
  O  O13  1  0.956210  0.543790  0.543790  1
  O  O14  1  0.293790  0.706210  0.706210  1
  O  O15  1  0.252431  0.247569  0.247569  1
  O  O16  1  0.956145  0.543447  0.956668  1
  O  O17  1  0.543741  0.956668  0.543447  1
  O  O18  1  0.543741  0.543447  0.956668  1
  O  O19  1  0.956145  0.956668  0.543447  1
  O  O20  1  0.543234  0.956766  0.956766  1
  O  O21  1  0.293855  0.293332  0.706553  1
