# generated using pymatgen
data_TbTh3(PdPt)6
_symmetry_space_group_name_H-M   'P 1'
_cell_length_a   5.92758700
_cell_length_b   5.92758731
_cell_length_c   9.80557000
_cell_angle_alpha   90.00000000
_cell_angle_beta   90.00000000
_cell_angle_gamma   120.00000382
_symmetry_Int_Tables_number   1
_chemical_formula_structural   TbTh3(PdPt)6
_chemical_formula_sum   'Tb1 Th3 Pd6 Pt6'
_cell_volume   298.37288682
_cell_formula_units_Z   1
loop_
 _symmetry_equiv_pos_site_id
 _symmetry_equiv_pos_as_xyz
  1  'x, y, z'
loop_
 _atom_site_type_symbol
 _atom_site_label
 _atom_site_symmetry_multiplicity
 _atom_site_fract_x
 _atom_site_fract_y
 _atom_site_fract_z
 _atom_site_occupancy
  Tb  Tb0  1  0.000000  0.000000  0.500000  1
  Th  Th1  1  0.000000  0.000000  0.000000  1
  Th  Th2  1  0.333333  0.666667  0.253790  1
  Th  Th3  1  0.666667  0.333333  0.746210  1
  Pd  Pd4  1  0.825786  0.651574  0.250258  1
  Pd  Pd5  1  0.348426  0.174214  0.250258  1
  Pd  Pd6  1  0.825786  0.174214  0.250258  1
  Pd  Pd7  1  0.174214  0.348426  0.749742  1
  Pd  Pd8  1  0.651574  0.825786  0.749742  1
  Pd  Pd9  1  0.174214  0.825786  0.749742  1
  Pt  Pt10  1  0.500000  0.500000  0.500000  1
  Pt  Pt11  1  0.500000  0.000000  0.500000  1
  Pt  Pt12  1  0.000000  0.500000  0.500000  1
  Pt  Pt13  1  0.500000  0.500000  0.000000  1
  Pt  Pt14  1  0.500000  0.000000  0.000000  1
  Pt  Pt15  1  0.000000  0.500000  0.000000  1
