# generated using pymatgen
data_Ho2Lu11Th3(CdIr)4
_symmetry_space_group_name_H-M   'P 1'
_cell_length_a   9.58683246
_cell_length_b   9.58651163
_cell_length_c   9.59302100
_cell_angle_alpha   59.97753932
_cell_angle_beta   59.97864735
_cell_angle_gamma   59.90044411
_symmetry_Int_Tables_number   1
_chemical_formula_structural   Ho2Lu11Th3(CdIr)4
_chemical_formula_sum   'Ho2 Lu11 Th3 Cd4 Ir4'
_cell_volume   622.73696512
_cell_formula_units_Z   1
loop_
 _symmetry_equiv_pos_site_id
 _symmetry_equiv_pos_as_xyz
  1  'x, y, z'
loop_
 _atom_site_type_symbol
 _atom_site_label
 _atom_site_symmetry_multiplicity
 _atom_site_fract_x
 _atom_site_fract_y
 _atom_site_fract_z
 _atom_site_occupancy
  Ho  Ho0  1  0.817421  0.817078  0.182751  1
  Ho  Ho1  1  0.185386  0.186032  0.814292  1
  Lu  Lu2  1  0.197892  0.601471  0.600320  1
  Lu  Lu3  1  0.062196  0.438360  0.438937  1
  Lu  Lu4  1  0.435877  0.063506  0.064052  1
  Lu  Lu5  1  0.435877  0.063506  0.436565  1
  Lu  Lu6  1  0.062196  0.438360  0.060508  1
  Lu  Lu7  1  0.436362  0.437111  0.063264  1
  Lu  Lu8  1  0.062979  0.060843  0.438090  1
  Lu  Lu9  1  0.186364  0.813779  0.813335  1
  Lu  Lu10  1  0.815685  0.184975  0.184040  1
  Lu  Lu11  1  0.815685  0.184975  0.815299  1
  Lu  Lu12  1  0.186364  0.813779  0.186523  1
  Th  Th13  1  0.598552  0.600956  0.600467  1
  Th  Th14  1  0.598552  0.600956  0.200026  1
  Th  Th15  1  0.599206  0.198713  0.601041  1
  Cd  Cd16  1  0.835878  0.830804  0.830648  1
  Cd  Cd17  1  0.835878  0.830804  0.502669  1
  Cd  Cd18  1  0.834765  0.501611  0.831812  1
  Cd  Cd19  1  0.499617  0.832030  0.834177  1
  Ir  Ir20  1  0.391003  0.392265  0.391925  1
  Ir  Ir21  1  0.391003  0.392265  0.824808  1
  Ir  Ir22  1  0.390259  0.824933  0.392405  1
  Ir  Ir23  1  0.825005  0.390894  0.392052  1
