# generated using pymatgen
data_Tb12Th4MgCd3Ir4
_symmetry_space_group_name_H-M   'P 1'
_cell_length_a   9.80591350
_cell_length_b   9.80591442
_cell_length_c   9.80591364
_cell_angle_alpha   59.88318663
_cell_angle_beta   59.88318061
_cell_angle_gamma   59.88318501
_symmetry_Int_Tables_number   1
_chemical_formula_structural   Tb12Th4MgCd3Ir4
_chemical_formula_sum   'Tb12 Th4 Mg1 Cd3 Ir4'
_cell_volume   664.96168113
_cell_formula_units_Z   1
loop_
 _symmetry_equiv_pos_site_id
 _symmetry_equiv_pos_as_xyz
  1  'x, y, z'
loop_
 _atom_site_type_symbol
 _atom_site_label
 _atom_site_symmetry_multiplicity
 _atom_site_fract_x
 _atom_site_fract_y
 _atom_site_fract_z
 _atom_site_occupancy
  Tb  Tb0  1  0.061271  0.438981  0.438981  1
  Tb  Tb1  1  0.437150  0.063265  0.063265  1
  Tb  Tb2  1  0.438981  0.061271  0.438981  1
  Tb  Tb3  1  0.063265  0.437150  0.063265  1
  Tb  Tb4  1  0.438981  0.438981  0.061271  1
  Tb  Tb5  1  0.063265  0.063265  0.437150  1
  Tb  Tb6  1  0.188221  0.815360  0.815360  1
  Tb  Tb7  1  0.813166  0.186854  0.186854  1
  Tb  Tb8  1  0.815360  0.188221  0.815360  1
  Tb  Tb9  1  0.186854  0.813166  0.186854  1
  Tb  Tb10  1  0.815360  0.815360  0.188221  1
  Tb  Tb11  1  0.186854  0.186854  0.813166  1
  Th  Th12  1  0.598219  0.598219  0.598219  1
  Th  Th13  1  0.599276  0.599276  0.202712  1
  Th  Th14  1  0.599276  0.202712  0.599276  1
  Th  Th15  1  0.202712  0.599276  0.599276  1
  Mg  Mg16  1  0.827191  0.827191  0.827191  1
  Cd  Cd17  1  0.831337  0.831337  0.502889  1
  Cd  Cd18  1  0.831337  0.502889  0.831337  1
  Cd  Cd19  1  0.502889  0.831337  0.831337  1
  Ir  Ir20  1  0.393679  0.393679  0.393679  1
  Ir  Ir21  1  0.393029  0.393029  0.819300  1
  Ir  Ir22  1  0.393029  0.819300  0.393029  1
  Ir  Ir23  1  0.819300  0.393029  0.393029  1
