# generated using pymatgen
data_Er4ReSi4Rh
_symmetry_space_group_name_H-M   'P 1'
_cell_length_a   5.68036622
_cell_length_b   5.68036640
_cell_length_c   10.00260305
_cell_angle_alpha   63.46488533
_cell_angle_beta   63.46488287
_cell_angle_gamma   43.59399027
_symmetry_Int_Tables_number   1
_chemical_formula_structural   Er4ReSi4Rh
_chemical_formula_sum   'Er4 Re1 Si4 Rh1'
_cell_volume   195.09631835
_cell_formula_units_Z   1
loop_
 _symmetry_equiv_pos_site_id
 _symmetry_equiv_pos_as_xyz
  1  'x, y, z'
loop_
 _atom_site_type_symbol
 _atom_site_label
 _atom_site_symmetry_multiplicity
 _atom_site_fract_x
 _atom_site_fract_y
 _atom_site_fract_z
 _atom_site_occupancy
  Er  Er0  1  0.813954  0.813954  0.110351  1
  Er  Er1  1  0.184979  0.184979  0.891503  1
  Er  Er2  1  0.007434  0.007434  0.320717  1
  Er  Er3  1  0.995163  0.995163  0.678514  1
  Re  Re4  1  0.727230  0.727230  0.626558  1
  Si  Si5  1  0.509364  0.509364  0.122620  1
  Si  Si6  1  0.495145  0.495145  0.878438  1
  Si  Si7  1  0.639404  0.639404  0.437909  1
  Si  Si8  1  0.356274  0.356274  0.561726  1
  Rh  Rh9  1  0.271055  0.271055  0.371661  1
