# generated using pymatgen
data_Ba(ZrSe2)3
_symmetry_space_group_name_H-M   'P 1'
_cell_length_a   6.58332474
_cell_length_b   6.58332502
_cell_length_c   8.28949630
_cell_angle_alpha   97.63220784
_cell_angle_beta   97.63221217
_cell_angle_gamma   119.98258648
_symmetry_Int_Tables_number   1
_chemical_formula_structural   Ba(ZrSe2)3
_chemical_formula_sum   'Ba1 Zr3 Se6'
_cell_volume   300.01667408
_cell_formula_units_Z   1
loop_
 _symmetry_equiv_pos_site_id
 _symmetry_equiv_pos_as_xyz
  1  'x, y, z'
loop_
 _atom_site_type_symbol
 _atom_site_label
 _atom_site_symmetry_multiplicity
 _atom_site_fract_x
 _atom_site_fract_y
 _atom_site_fract_z
 _atom_site_occupancy
  Ba  Ba0  1  0.000000  0.000000  0.500000  1
  Zr  Zr1  1  0.834095  0.165906  0.000000  1
  Zr  Zr2  1  0.500001  0.500001  0.000000  1
  Zr  Zr3  1  0.165906  0.834095  0.000000  1
  Se  Se4  1  0.239377  0.239377  0.204383  1
  Se  Se5  1  0.901562  0.563730  0.203930  1
  Se  Se6  1  0.563730  0.901562  0.203930  1
  Se  Se7  1  0.436269  0.098438  0.796069  1
  Se  Se8  1  0.098438  0.436269  0.796069  1
  Se  Se9  1  0.760624  0.760624  0.795616  1
