# generated using pymatgen
data_YbSmAg2(Ru2O7)2
_symmetry_space_group_name_H-M   'P 1'
_cell_length_a   7.15266993
_cell_length_b   7.22810836
_cell_length_c   7.24708923
_cell_angle_alpha   61.13790174
_cell_angle_beta   60.41946248
_cell_angle_gamma   60.31879836
_symmetry_Int_Tables_number   1
_chemical_formula_structural   YbSmAg2(Ru2O7)2
_chemical_formula_sum   'Yb1 Sm1 Ag2 Ru4 O14'
_cell_volume   268.64552741
_cell_formula_units_Z   1
loop_
 _symmetry_equiv_pos_site_id
 _symmetry_equiv_pos_as_xyz
  1  'x, y, z'
loop_
 _atom_site_type_symbol
 _atom_site_label
 _atom_site_symmetry_multiplicity
 _atom_site_fract_x
 _atom_site_fract_y
 _atom_site_fract_z
 _atom_site_occupancy
  Yb  Yb0  1  0.625000  0.625000  0.125000  1
  Sm  Sm1  1  0.625000  0.125000  0.625000  1
  Ag  Ag2  1  0.625000  0.625000  0.625000  1
  Ag  Ag3  1  0.125000  0.625000  0.625000  1
  Ru  Ru4  1  0.125000  0.125000  0.125000  1
  Ru  Ru5  1  0.625000  0.125000  0.125000  1
  Ru  Ru6  1  0.125000  0.125000  0.625000  1
  Ru  Ru7  1  0.125000  0.625000  0.125000  1
  O  O8  1  0.487926  0.512978  0.511106  1
  O  O9  1  0.762074  0.737022  0.738894  1
  O  O10  1  0.049662  0.056865  0.445434  1
  O  O11  1  0.803557  0.807962  0.192608  1
  O  O12  1  0.448324  0.056606  0.445724  1
  O  O13  1  0.457706  0.042690  0.041910  1
  O  O14  1  0.061949  0.438313  0.438104  1
  O  O15  1  0.054398  0.441679  0.057848  1
  O  O16  1  0.446443  0.442038  0.057392  1
  O  O17  1  0.188051  0.811687  0.811896  1
  O  O18  1  0.792294  0.207310  0.208090  1
  O  O19  1  0.200338  0.193135  0.804566  1
  O  O20  1  0.195602  0.808321  0.192152  1
  O  O21  1  0.801676  0.193394  0.804276  1
