# generated using pymatgen
data_ZrBe8Re3
_symmetry_space_group_name_H-M   'P 1'
_cell_length_a   4.45222000
_cell_length_b   4.45222083
_cell_length_c   7.44083200
_cell_angle_alpha   90.00000000
_cell_angle_beta   90.00000000
_cell_angle_gamma   120.00000872
_symmetry_Int_Tables_number   1
_chemical_formula_structural   ZrBe8Re3
_chemical_formula_sum   'Zr1 Be8 Re3'
_cell_volume   127.73367451
_cell_formula_units_Z   1
loop_
 _symmetry_equiv_pos_site_id
 _symmetry_equiv_pos_as_xyz
  1  'x, y, z'
loop_
 _atom_site_type_symbol
 _atom_site_label
 _atom_site_symmetry_multiplicity
 _atom_site_fract_x
 _atom_site_fract_y
 _atom_site_fract_z
 _atom_site_occupancy
  Zr  Zr0  1  0.333333  0.666667  0.063358  1
  Be  Be1  1  0.000000  0.000000  0.992204  1
  Be  Be2  1  0.000000  0.000000  0.504562  1
  Be  Be3  1  0.831308  0.662616  0.264553  1
  Be  Be4  1  0.168237  0.831763  0.741234  1
  Be  Be5  1  0.663527  0.831763  0.741234  1
  Be  Be6  1  0.337384  0.168692  0.264553  1
  Be  Be7  1  0.831308  0.168692  0.264553  1
  Be  Be8  1  0.168237  0.336473  0.741234  1
  Re  Re9  1  0.666667  0.333333  0.563393  1
  Re  Re10  1  0.666667  0.333333  0.916924  1
  Re  Re11  1  0.333333  0.666667  0.442199  1
