# generated using pymatgen
data_Cs2Pr2InAgTe6
_symmetry_space_group_name_H-M   'P 1'
_cell_length_a   9.00650378
_cell_length_b   9.00650511
_cell_length_c   12.18067600
_cell_angle_alpha   90.00000000
_cell_angle_beta   90.00000000
_cell_angle_gamma   150.03784553
_symmetry_Int_Tables_number   1
_chemical_formula_structural   Cs2Pr2InAgTe6
_chemical_formula_sum   'Cs2 Pr2 In1 Ag1 Te6'
_cell_volume   493.46537937
_cell_formula_units_Z   1
loop_
 _symmetry_equiv_pos_site_id
 _symmetry_equiv_pos_as_xyz
  1  'x, y, z'
loop_
 _atom_site_type_symbol
 _atom_site_label
 _atom_site_symmetry_multiplicity
 _atom_site_fract_x
 _atom_site_fract_y
 _atom_site_fract_z
 _atom_site_occupancy
  Cs  Cs0  1  0.244982  0.755016  0.250000  1
  Cs  Cs1  1  0.747814  0.252184  0.750000  1
  Pr  Pr2  1  0.506014  0.493984  0.978520  1
  Pr  Pr3  1  0.506014  0.493984  0.521480  1
  In  In4  1  0.960757  0.039242  0.250000  1
  Ag  Ag5  1  0.034869  0.965130  0.750000  1
  Te  Te6  1  0.878914  0.121085  0.054941  1
  Te  Te7  1  0.561359  0.438639  0.250000  1
  Te  Te8  1  0.878914  0.121085  0.445059  1
  Te  Te9  1  0.125023  0.874976  0.553998  1
  Te  Te10  1  0.430306  0.569692  0.750000  1
  Te  Te11  1  0.125023  0.874976  0.946002  1
