# generated using pymatgen
data_Pr2CuSiI2
_symmetry_space_group_name_H-M   'P 1'
_cell_length_a   4.22677100
_cell_length_b   4.22677020
_cell_length_c   11.90611300
_cell_angle_alpha   90.00000000
_cell_angle_beta   90.00000000
_cell_angle_gamma   119.99998281
_symmetry_Int_Tables_number   1
_chemical_formula_structural   Pr2CuSiI2
_chemical_formula_sum   'Pr2 Cu1 Si1 I2'
_cell_volume   184.21206142
_cell_formula_units_Z   1
loop_
 _symmetry_equiv_pos_site_id
 _symmetry_equiv_pos_as_xyz
  1  'x, y, z'
loop_
 _atom_site_type_symbol
 _atom_site_label
 _atom_site_symmetry_multiplicity
 _atom_site_fract_x
 _atom_site_fract_y
 _atom_site_fract_z
 _atom_site_occupancy
  Pr  Pr0  1  0.000000  0.000000  0.167720  1
  Pr  Pr1  1  0.000000  0.000000  0.832154  1
  Cu  Cu2  1  0.333333  0.666667  0.005406  1
  Si  Si3  1  0.666667  0.333333  0.993881  1
  I  I4  1  0.333333  0.666667  0.653013  1
  I  I5  1  0.666667  0.333333  0.347827  1
