# generated using pymatgen
data_Tm3TlF10
_symmetry_space_group_name_H-M   'P 1'
_cell_length_a   8.11957816
_cell_length_b   8.11957819
_cell_length_c   8.11957900
_cell_angle_alpha   60.00000076
_cell_angle_beta   60.00000065
_cell_angle_gamma   60.00000290
_symmetry_Int_Tables_number   1
_chemical_formula_structural   Tm3TlF10
_chemical_formula_sum   'Tm6 Tl2 F20'
_cell_volume   378.51706401
_cell_formula_units_Z   2
loop_
 _symmetry_equiv_pos_site_id
 _symmetry_equiv_pos_as_xyz
  1  'x, y, z'
loop_
 _atom_site_type_symbol
 _atom_site_label
 _atom_site_symmetry_multiplicity
 _atom_site_fract_x
 _atom_site_fract_y
 _atom_site_fract_z
 _atom_site_occupancy
  Tm  Tm0  1  0.759160  0.240840  0.240840  1
  Tm  Tm1  1  0.240840  0.759160  0.759160  1
  Tm  Tm2  1  0.240840  0.759160  0.240840  1
  Tm  Tm3  1  0.759160  0.240840  0.759160  1
  Tm  Tm4  1  0.240840  0.240840  0.759160  1
  Tm  Tm5  1  0.759160  0.759160  0.240840  1
  Tl  Tl6  1  0.250000  0.250000  0.250000  1
  Tl  Tl7  1  0.750000  0.750000  0.750000  1
  F  F8  1  0.829158  0.500000  0.500000  1
  F  F9  1  0.170842  0.500000  0.500000  1
  F  F10  1  0.500000  0.829158  0.170842  1
  F  F11  1  0.500000  0.170842  0.829158  1
  F  F12  1  0.500000  0.829158  0.500000  1
  F  F13  1  0.170842  0.500000  0.829158  1
  F  F14  1  0.500000  0.170842  0.500000  1
  F  F15  1  0.829158  0.500000  0.170842  1
  F  F16  1  0.500000  0.500000  0.829158  1
  F  F17  1  0.500000  0.500000  0.170842  1
  F  F18  1  0.170842  0.829158  0.500000  1
  F  F19  1  0.829158  0.170842  0.500000  1
  F  F20  1  0.110409  0.110409  0.110409  1
  F  F21  1  0.889591  0.889591  0.889591  1
  F  F22  1  0.110409  0.110409  0.668772  1
  F  F23  1  0.110409  0.668772  0.110409  1
  F  F24  1  0.889591  0.889591  0.331228  1
  F  F25  1  0.889591  0.331228  0.889591  1
  F  F26  1  0.668772  0.110409  0.110409  1
  F  F27  1  0.331228  0.889591  0.889591  1
