# generated using pymatgen
data_SrTbPr5IrBr12
_symmetry_space_group_name_H-M   'P 1'
_cell_length_a   9.68537870
_cell_length_b   9.60665141
_cell_length_c   9.52840027
_cell_angle_alpha   106.38316735
_cell_angle_beta   106.61356635
_cell_angle_gamma   106.01122459
_symmetry_Int_Tables_number   1
_chemical_formula_structural   SrTbPr5IrBr12
_chemical_formula_sum   'Sr1 Tb1 Pr5 Ir1 Br12'
_cell_volume   751.29287224
_cell_formula_units_Z   1
loop_
 _symmetry_equiv_pos_site_id
 _symmetry_equiv_pos_as_xyz
  1  'x, y, z'
loop_
 _atom_site_type_symbol
 _atom_site_label
 _atom_site_symmetry_multiplicity
 _atom_site_fract_x
 _atom_site_fract_y
 _atom_site_fract_z
 _atom_site_occupancy
  Sr  Sr0  1  0.499476  0.500836  0.498027  1
  Tb  Tb1  1  0.103573  0.308184  0.020839  1
  Pr  Pr2  1  0.315377  0.016316  0.106653  1
  Pr  Pr3  1  0.021127  0.105057  0.307989  1
  Pr  Pr4  1  0.980292  0.899875  0.694564  1
  Pr  Pr5  1  0.684846  0.981386  0.893804  1
  Pr  Pr6  1  0.894491  0.681451  0.980577  1
  Ir  Ir7  1  0.000770  0.000524  0.001583  1
  Br  Br8  1  0.215376  0.671165  0.071050  1
  Br  Br9  1  0.438336  0.365668  0.143281  1
  Br  Br10  1  0.682333  0.075939  0.220854  1
  Br  Br11  1  0.927706  0.783696  0.322302  1
  Br  Br12  1  0.151740  0.451622  0.358938  1
  Br  Br13  1  0.368399  0.154816  0.454258  1
  Br  Br14  1  0.632183  0.847745  0.546171  1
  Br  Br15  1  0.846408  0.549445  0.629869  1
  Br  Br16  1  0.075739  0.226127  0.690830  1
  Br  Br17  1  0.317550  0.925457  0.779553  1
  Br  Br18  1  0.550710  0.633544  0.849708  1
  Br  Br19  1  0.793573  0.321148  0.929151  1
