# generated using pymatgen
data_TbY3GeI6
_symmetry_space_group_name_H-M   'P 1'
_cell_length_a   4.23243600
_cell_length_b   14.04899146
_cell_length_c   14.82302749
_cell_angle_alpha   90.02946151
_cell_angle_beta   90.00000000
_cell_angle_gamma   90.00000000
_symmetry_Int_Tables_number   1
_chemical_formula_structural   TbY3GeI6
_chemical_formula_sum   'Tb2 Y6 Ge2 I12'
_cell_volume   881.39869870
_cell_formula_units_Z   2
loop_
 _symmetry_equiv_pos_site_id
 _symmetry_equiv_pos_as_xyz
  1  'x, y, z'
loop_
 _atom_site_type_symbol
 _atom_site_label
 _atom_site_symmetry_multiplicity
 _atom_site_fract_x
 _atom_site_fract_y
 _atom_site_fract_z
 _atom_site_occupancy
  Tb  Tb0  1  0.000000  0.612410  0.924921  1
  Tb  Tb1  1  0.000000  0.387590  0.075079  1
  Y  Y2  1  0.500000  0.114787  0.346538  1
  Y  Y3  1  0.500000  0.885213  0.653462  1
  Y  Y4  1  0.500000  0.614770  0.153426  1
  Y  Y5  1  0.500000  0.385230  0.846574  1
  Y  Y6  1  0.000000  0.112268  0.574985  1
  Y  Y7  1  0.000000  0.887732  0.425015  1
  Ge  Ge8  1  0.500000  0.000000  0.500000  1
  Ge  Ge9  1  0.500000  0.500000  0.000000  1
  I  I10  1  0.500000  0.244517  0.161482  1
  I  I11  1  0.500000  0.755483  0.838518  1
  I  I12  1  0.500000  0.744658  0.338616  1
  I  I13  1  0.500000  0.255342  0.661384  1
  I  I14  1  0.000000  0.258215  0.413632  1
  I  I15  1  0.000000  0.741785  0.586368  1
  I  I16  1  0.000000  0.758248  0.086440  1
  I  I17  1  0.000000  0.241752  0.913560  1
  I  I18  1  0.000000  0.999348  0.240843  1
  I  I19  1  0.000000  0.000652  0.759157  1
  I  I20  1  0.000000  0.499408  0.259222  1
  I  I21  1  0.000000  0.500592  0.740778  1
