# generated using pymatgen
data_DyEr11(LuSn2)8
_symmetry_space_group_name_H-M   'P 1'
_cell_length_a   7.93952516
_cell_length_b   8.06958502
_cell_length_c   15.26698132
_cell_angle_alpha   90.00564045
_cell_angle_beta   89.97736928
_cell_angle_gamma   89.99457486
_symmetry_Int_Tables_number   1
_chemical_formula_structural   DyEr11(LuSn2)8
_chemical_formula_sum   'Dy1 Er11 Lu8 Sn16'
_cell_volume   978.13515307
_cell_formula_units_Z   1
loop_
 _symmetry_equiv_pos_site_id
 _symmetry_equiv_pos_as_xyz
  1  'x, y, z'
loop_
 _atom_site_type_symbol
 _atom_site_label
 _atom_site_symmetry_multiplicity
 _atom_site_fract_x
 _atom_site_fract_y
 _atom_site_fract_z
 _atom_site_occupancy
  Dy  Dy0  1  0.019128  0.178913  0.904090  1
  Er  Er1  1  0.633494  0.162523  0.122810  1
  Er  Er2  1  0.133440  0.337434  0.377191  1
  Er  Er3  1  0.366582  0.837372  0.622807  1
  Er  Er4  1  0.866525  0.662588  0.877178  1
  Er  Er5  1  0.520730  0.320908  0.903650  1
  Er  Er6  1  0.020790  0.179169  0.596406  1
  Er  Er7  1  0.479252  0.679118  0.403700  1
  Er  Er8  1  0.979299  0.820830  0.096344  1
  Er  Er9  1  0.480771  0.678885  0.095956  1
  Er  Er10  1  0.980764  0.821170  0.404039  1
  Er  Er11  1  0.519253  0.321181  0.595951  1
  Lu  Lu12  1  0.364552  0.838309  0.876471  1
  Lu  Lu13  1  0.864517  0.661623  0.623506  1
  Lu  Lu14  1  0.635455  0.161594  0.376452  1
  Lu  Lu15  1  0.135551  0.338462  0.123629  1
  Lu  Lu16  1  0.196434  0.504450  0.750677  1
  Lu  Lu17  1  0.696283  0.995561  0.749181  1
  Lu  Lu18  1  0.803641  0.495639  0.250764  1
  Lu  Lu19  1  0.303653  0.004340  0.249250  1
  Sn  Sn20  1  0.293047  0.038254  0.041150  1
  Sn  Sn21  1  0.792570  0.461510  0.459040  1
  Sn  Sn22  1  0.707422  0.961562  0.540954  1
  Sn  Sn23  1  0.207555  0.538723  0.959091  1
  Sn  Sn24  1  0.701874  0.961789  0.957592  1
  Sn  Sn25  1  0.202363  0.537812  0.542508  1
  Sn  Sn26  1  0.297605  0.037805  0.457484  1
  Sn  Sn27  1  0.797588  0.462210  0.042538  1
  Sn  Sn28  1  0.562148  0.618803  0.750090  1
  Sn  Sn29  1  0.062149  0.880940  0.749861  1
  Sn  Sn30  1  0.437906  0.381197  0.250091  1
  Sn  Sn31  1  0.937889  0.118862  0.249936  1
  Sn  Sn32  1  0.330727  0.150785  0.750018  1
  Sn  Sn33  1  0.830033  0.349639  0.749591  1
  Sn  Sn34  1  0.669513  0.849211  0.250116  1
  Sn  Sn35  1  0.169496  0.650830  0.249889  1
