# generated using pymatgen
data_Dy19Y(Bi2Ir)4
_symmetry_space_group_name_H-M   'P 1'
_cell_length_a   8.03006504
_cell_length_b   9.01746800
_cell_length_c   12.51492506
_cell_angle_alpha   90.00000000
_cell_angle_beta   89.98898207
_cell_angle_gamma   90.00000000
_symmetry_Int_Tables_number   1
_chemical_formula_structural   Dy19Y(Bi2Ir)4
_chemical_formula_sum   'Dy19 Y1 Bi8 Ir4'
_cell_volume   906.21640081
_cell_formula_units_Z   1
loop_
 _symmetry_equiv_pos_site_id
 _symmetry_equiv_pos_as_xyz
  1  'x, y, z'
loop_
 _atom_site_type_symbol
 _atom_site_label
 _atom_site_symmetry_multiplicity
 _atom_site_fract_x
 _atom_site_fract_y
 _atom_site_fract_z
 _atom_site_occupancy
  Dy  Dy0  1  0.159672  0.250000  0.206484  1
  Dy  Dy1  1  0.340383  0.250000  0.706460  1
  Dy  Dy2  1  0.659784  0.750000  0.293480  1
  Dy  Dy3  1  0.377292  0.750000  0.693125  1
  Dy  Dy4  1  0.622577  0.250000  0.306878  1
  Dy  Dy5  1  0.877352  0.250000  0.806897  1
  Dy  Dy6  1  0.122636  0.750000  0.193193  1
  Dy  Dy7  1  0.946475  0.750000  0.501201  1
  Dy  Dy8  1  0.053482  0.250000  0.498598  1
  Dy  Dy9  1  0.446490  0.250000  0.998710  1
  Dy  Dy10  1  0.553504  0.750000  0.001537  1
  Dy  Dy11  1  0.676641  0.041932  0.566033  1
  Dy  Dy12  1  0.323445  0.958074  0.433945  1
  Dy  Dy13  1  0.176624  0.957915  0.934117  1
  Dy  Dy14  1  0.323445  0.541926  0.433945  1
  Dy  Dy15  1  0.823411  0.041692  0.065977  1
  Dy  Dy16  1  0.676641  0.458068  0.566033  1
  Dy  Dy17  1  0.823411  0.458308  0.065977  1
  Dy  Dy18  1  0.176624  0.542085  0.934117  1
  Y  Y19  1  0.839888  0.750000  0.792369  1
  Bi  Bi20  1  0.569042  0.490748  0.827354  1
  Bi  Bi21  1  0.430939  0.509135  0.172715  1
  Bi  Bi22  1  0.069177  0.509135  0.672667  1
  Bi  Bi23  1  0.430939  0.990865  0.172715  1
  Bi  Bi24  1  0.930882  0.490778  0.327252  1
  Bi  Bi25  1  0.569042  0.009252  0.827354  1
  Bi  Bi26  1  0.930882  0.009222  0.327252  1
  Bi  Bi27  1  0.069177  0.990865  0.672667  1
  Ir  Ir28  1  0.570550  0.750000  0.509094  1
  Ir  Ir29  1  0.429366  0.250000  0.490965  1
  Ir  Ir30  1  0.070531  0.250000  0.990930  1
  Ir  Ir31  1  0.929693  0.750000  0.009960  1
