# generated using pymatgen
data_Yb6Zn4CuRu7
_symmetry_space_group_name_H-M   'P 1'
_cell_length_a   5.31809143
_cell_length_b   5.33947689
_cell_length_c   12.84192747
_cell_angle_alpha   90.32099380
_cell_angle_beta   91.81882615
_cell_angle_gamma   120.15139221
_symmetry_Int_Tables_number   1
_chemical_formula_structural   Yb6Zn4CuRu7
_chemical_formula_sum   'Yb6 Zn4 Cu1 Ru7'
_cell_volume   315.06268124
_cell_formula_units_Z   1
loop_
 _symmetry_equiv_pos_site_id
 _symmetry_equiv_pos_as_xyz
  1  'x, y, z'
loop_
 _atom_site_type_symbol
 _atom_site_label
 _atom_site_symmetry_multiplicity
 _atom_site_fract_x
 _atom_site_fract_y
 _atom_site_fract_z
 _atom_site_occupancy
  Yb  Yb0  1  0.327379  0.670707  0.914042  1
  Yb  Yb1  1  0.993579  0.000316  0.255815  1
  Yb  Yb2  1  0.659343  0.332957  0.586255  1
  Yb  Yb3  1  0.335427  0.658956  0.663844  1
  Yb  Yb4  1  0.009999  0.004259  0.993977  1
  Yb  Yb5  1  0.682066  0.340318  0.334724  1
  Zn  Zn6  1  0.499442  0.498656  0.126107  1
  Zn  Zn7  1  0.171334  0.838000  0.458461  1
  Zn  Zn8  1  0.825661  0.160066  0.790912  1
  Zn  Zn9  1  0.501302  0.001405  0.125140  1
  Cu  Cu10  1  0.167590  0.333751  0.457799  1
  Ru  Ru11  1  0.822269  0.653696  0.794780  1
  Ru  Ru12  1  0.338476  0.671020  0.292936  1
  Ru  Ru13  1  0.993214  0.989860  0.620998  1
  Ru  Ru14  1  0.679572  0.350139  0.962874  1
  Ru  Ru15  1  0.004641  0.502186  0.127853  1
  Ru  Ru16  1  0.665495  0.832017  0.458366  1
  Ru  Ru17  1  0.323212  0.161692  0.785117  1
