# generated using pymatgen
data_TaBr4F
_symmetry_space_group_name_H-M   'P 1'
_cell_length_a   10.67353501
_cell_length_b   10.67353558
_cell_length_c   10.67353598
_cell_angle_alpha   100.85428531
_cell_angle_beta   100.85428156
_cell_angle_gamma   128.56311228
_symmetry_Int_Tables_number   1
_chemical_formula_structural   TaBr4F
_chemical_formula_sum   'Ta4 Br16 F4'
_cell_volume   856.60953555
_cell_formula_units_Z   4
loop_
 _symmetry_equiv_pos_site_id
 _symmetry_equiv_pos_as_xyz
  1  'x, y, z'
loop_
 _atom_site_type_symbol
 _atom_site_label
 _atom_site_symmetry_multiplicity
 _atom_site_fract_x
 _atom_site_fract_y
 _atom_site_fract_z
 _atom_site_occupancy
  Ta  Ta0  1  0.966219  0.797739  0.738677  1
  Ta  Ta1  1  0.772458  0.033781  0.831520  1
  Ta  Ta2  1  0.202261  0.940939  0.168480  1
  Ta  Ta3  1  0.059061  0.227542  0.261323  1
  Br  Br4  1  0.703796  0.538346  0.751861  1
  Br  Br5  1  0.786484  0.951935  0.248139  1
  Br  Br6  1  0.461654  0.213516  0.165450  1
  Br  Br7  1  0.048065  0.296204  0.834550  1
  Br  Br8  1  0.225927  0.322186  0.503396  1
  Br  Br9  1  0.277470  0.774073  0.096259  1
  Br  Br10  1  0.677814  0.181211  0.903741  1
  Br  Br11  1  0.818789  0.722530  0.496604  1
  Br  Br12  1  0.613415  0.912310  0.581499  1
  Br  Br13  1  0.968085  0.386585  0.298895  1
  Br  Br14  1  0.087690  0.669190  0.701105  1
  Br  Br15  1  0.330810  0.031915  0.418501  1
  Br  Br16  1  0.314844  0.454476  0.219170  1
  Br  Br17  1  0.904326  0.685156  0.139631  1
  Br  Br18  1  0.545524  0.764694  0.860369  1
  Br  Br19  1  0.235306  0.095674  0.780830  1
  F  F20  1  0.118491  0.076104  0.197698  1
  F  F21  1  0.878406  0.920793  0.802302  1
  F  F22  1  0.923896  0.121594  0.042387  1
  F  F23  1  0.079207  0.881509  0.957613  1
