# generated using pymatgen
data_K3Ca2MgAl6F27
_symmetry_space_group_name_H-M   'P 1'
_cell_length_a   7.19509910
_cell_length_b   7.21733845
_cell_length_c   22.70335905
_cell_angle_alpha   90.28589915
_cell_angle_beta   89.64834331
_cell_angle_gamma   119.88586203
_symmetry_Int_Tables_number   1
_chemical_formula_structural   K3Ca2MgAl6F27
_chemical_formula_sum   'K6 Ca4 Mg2 Al12 F54'
_cell_volume   1022.17131603
_cell_formula_units_Z   2
loop_
 _symmetry_equiv_pos_site_id
 _symmetry_equiv_pos_as_xyz
  1  'x, y, z'
loop_
 _atom_site_type_symbol
 _atom_site_label
 _atom_site_symmetry_multiplicity
 _atom_site_fract_x
 _atom_site_fract_y
 _atom_site_fract_z
 _atom_site_occupancy
  K  K0  1  0.010058  0.988536  0.250922  1
  K  K1  1  0.964741  0.006106  0.083165  1
  K  K2  1  0.991758  0.015849  0.749367  1
  K  K3  1  0.999798  0.960081  0.914904  1
  K  K4  1  0.984128  0.027137  0.418172  1
  K  K5  1  0.024155  0.983839  0.583513  1
  Ca  Ca6  1  0.987697  0.499969  0.166819  1
  Ca  Ca7  1  0.485699  0.484214  0.999188  1
  Ca  Ca8  1  0.006470  0.498410  0.666488  1
  Ca  Ca9  1  0.498036  0.011928  0.334129  1
  Mg  Mg10  1  0.499299  0.985297  0.832364  1
  Mg  Mg11  1  0.514703  0.514724  0.500675  1
  Al  Al12  1  0.001462  0.482004  0.834990  1
  Al  Al13  1  0.521087  0.018285  0.504026  1
  Al  Al14  1  0.986149  0.479864  0.995455  1
  Al  Al15  1  0.483164  0.001747  0.162672  1
  Al  Al16  1  0.498275  0.512514  0.335935  1
  Al  Al17  1  0.999383  0.515199  0.337977  1
  Al  Al18  1  0.484659  0.982798  0.997897  1
  Al  Al19  1  0.018464  0.520922  0.497986  1
  Al  Al20  1  0.486977  0.503627  0.171597  1
  Al  Al21  1  0.508022  0.498261  0.665783  1
  Al  Al22  1  0.504659  0.486057  0.828757  1
  Al  Al23  1  0.509303  0.998799  0.667024  1
  F  F24  1  0.458172  0.522271  0.093573  1
  F  F25  1  0.222015  0.328644  0.660411  1
  F  F26  1  0.792751  0.667002  0.675817  1
  F  F27  1  0.543481  0.473350  0.905733  1
  F  F28  1  0.255017  0.712280  0.006619  1
  F  F29  1  0.434056  0.968625  0.919567  1
  F  F30  1  0.472047  0.502115  0.748373  1
  F  F31  1  0.830248  0.613950  0.485412  1
  F  F32  1  0.483445  0.538286  0.414421  1
  F  F33  1  0.201069  0.337654  0.179787  1
  F  F34  1  0.791894  0.120544  0.651494  1
  F  F35  1  0.541853  0.494025  0.587403  1
  F  F36  1  0.797462  0.245206  0.515484  1
  F  F37  1  0.651149  0.862719  0.990450  1
  F  F38  1  0.224254  0.424283  0.845535  1
  F  F39  1  0.009031  0.457102  0.418078  1
  F  F40  1  0.728692  0.473607  0.347309  1
  F  F41  1  0.587441  0.033699  0.427129  1
  F  F42  1  0.224668  0.879796  0.677772  1
  F  F43  1  0.515106  0.487233  0.252960  1
  F  F44  1  0.522155  0.271999  0.154947  1
  F  F45  1  0.618627  0.832358  0.514349  1
  F  F46  1  0.188795  0.762015  0.823320  1
  F  F47  1  0.991719  0.576386  0.261479  1
  F  F48  1  0.786780  0.547313  0.817898  1
  F  F49  1  0.808455  0.204824  0.849318  1
  F  F50  1  0.465030  0.727203  0.658324  1
  F  F51  1  0.665770  0.798028  0.327597  1
  F  F52  1  0.773893  0.667072  0.166378  1
  F  F53  1  0.876768  0.232524  0.323352  1
  F  F54  1  0.551979  0.270435  0.674636  1
  F  F55  1  0.245754  0.796501  0.486731  1
  F  F56  1  0.715458  0.251143  0.987469  1
  F  F57  1  0.127234  0.796395  0.355331  1
  F  F58  1  0.975306  0.415659  0.072428  1
  F  F59  1  0.997882  0.541651  0.914846  1
  F  F60  1  0.324812  0.107622  0.011291  1
  F  F61  1  0.460833  0.005417  0.584639  1
  F  F62  1  0.028220  0.589768  0.574307  1
  F  F63  1  0.005712  0.417081  0.758889  1
  F  F64  1  0.766985  0.124999  0.175356  1
  F  F65  1  0.604016  0.771084  0.835012  1
  F  F66  1  0.416955  0.198881  0.495278  1
  F  F67  1  0.330493  0.226269  0.338936  1
  F  F68  1  0.864681  0.643157  0.008053  1
  F  F69  1  0.450838  0.737408  0.179640  1
  F  F70  1  0.400764  0.200781  0.820964  1
  F  F71  1  0.113954  0.323998  0.979903  1
  F  F72  1  0.199638  0.418466  0.508093  1
  F  F73  1  0.201571  0.869317  0.146444  1
  F  F74  1  0.425214  0.016263  0.239784  1
  F  F75  1  0.557429  0.993947  0.744898  1
  F  F76  1  0.536143  0.993125  0.081260  1
  F  F77  1  0.268133  0.552347  0.325718  1
