# generated using pymatgen
data_YbYMg2(SiIr2)2
_symmetry_space_group_name_H-M   'P 1'
_cell_length_a   4.10019600
_cell_length_b   4.10019600
_cell_length_c   10.80099200
_cell_angle_alpha   90.00000000
_cell_angle_beta   90.00000000
_cell_angle_gamma   90.00000000
_symmetry_Int_Tables_number   1
_chemical_formula_structural   YbYMg2(SiIr2)2
_chemical_formula_sum   'Yb1 Y1 Mg2 Si2 Ir4'
_cell_volume   181.58203529
_cell_formula_units_Z   1
loop_
 _symmetry_equiv_pos_site_id
 _symmetry_equiv_pos_as_xyz
  1  'x, y, z'
loop_
 _atom_site_type_symbol
 _atom_site_label
 _atom_site_symmetry_multiplicity
 _atom_site_fract_x
 _atom_site_fract_y
 _atom_site_fract_z
 _atom_site_occupancy
  Yb  Yb0  1  0.500000  0.000000  0.239478  1
  Y  Y1  1  0.000000  0.500000  0.762935  1
  Mg  Mg2  1  0.500000  0.500000  0.497314  1
  Mg  Mg3  1  0.000000  0.000000  0.497314  1
  Si  Si4  1  0.000000  0.500000  0.117742  1
  Si  Si5  1  0.500000  0.000000  0.883946  1
  Ir  Ir6  1  0.000000  0.500000  0.333902  1
  Ir  Ir7  1  0.500000  0.000000  0.667575  1
  Ir  Ir8  1  0.500000  0.500000  0.999897  1
  Ir  Ir9  1  0.000000  0.000000  0.999897  1
