# generated using pymatgen
data_Ce3DyHf4O14
_symmetry_space_group_name_H-M   'P 1'
_cell_length_a   7.56785279
_cell_length_b   7.55004233
_cell_length_c   7.56785300
_cell_angle_alpha   59.92193806
_cell_angle_beta   60.00000347
_cell_angle_gamma   59.92193690
_symmetry_Int_Tables_number   1
_chemical_formula_structural   Ce3DyHf4O14
_chemical_formula_sum   'Ce3 Dy1 Hf4 O14'
_cell_volume   305.39809544
_cell_formula_units_Z   1
loop_
 _symmetry_equiv_pos_site_id
 _symmetry_equiv_pos_as_xyz
  1  'x, y, z'
loop_
 _atom_site_type_symbol
 _atom_site_label
 _atom_site_symmetry_multiplicity
 _atom_site_fract_x
 _atom_site_fract_y
 _atom_site_fract_z
 _atom_site_occupancy
  Ce  Ce0  1  0.125000  0.125000  0.625000  1
  Ce  Ce1  1  0.625000  0.125000  0.125000  1
  Ce  Ce2  1  0.125000  0.125000  0.125000  1
  Dy  Dy3  1  0.125000  0.625000  0.125000  1
  Hf  Hf4  1  0.625000  0.125000  0.625000  1
  Hf  Hf5  1  0.625000  0.625000  0.125000  1
  Hf  Hf6  1  0.125000  0.625000  0.625000  1
  Hf  Hf7  1  0.625000  0.625000  0.625000  1
  O  O8  1  0.003646  0.989063  0.003646  1
  O  O9  1  0.246354  0.260937  0.246354  1
  O  O10  1  0.292388  0.292331  0.707641  1
  O  O11  1  0.539285  0.543897  0.958409  1
  O  O12  1  0.707641  0.292331  0.707641  1
  O  O13  1  0.707641  0.292331  0.292388  1
  O  O14  1  0.291591  0.706103  0.710715  1
  O  O15  1  0.291591  0.706103  0.291591  1
  O  O16  1  0.710715  0.706103  0.291591  1
  O  O17  1  0.958409  0.543897  0.539285  1
  O  O18  1  0.542359  0.957669  0.957612  1
  O  O19  1  0.957612  0.957669  0.542359  1
  O  O20  1  0.958409  0.543897  0.958409  1
  O  O21  1  0.542359  0.957669  0.542359  1
