# generated using pymatgen
data_Ti8Al14GePt3Rh4
_symmetry_space_group_name_H-M   'P 1'
_cell_length_a   8.67847160
_cell_length_b   8.66266761
_cell_length_c   8.67847204
_cell_angle_alpha   120.01289771
_cell_angle_beta   119.98218475
_cell_angle_gamma   90.05655593
_symmetry_Int_Tables_number   1
_chemical_formula_structural   Ti8Al14GePt3Rh4
_chemical_formula_sum   'Ti8 Al14 Ge1 Pt3 Rh4'
_cell_volume   461.14829323
_cell_formula_units_Z   1
loop_
 _symmetry_equiv_pos_site_id
 _symmetry_equiv_pos_as_xyz
  1  'x, y, z'
loop_
 _atom_site_type_symbol
 _atom_site_label
 _atom_site_symmetry_multiplicity
 _atom_site_fract_x
 _atom_site_fract_y
 _atom_site_fract_z
 _atom_site_occupancy
  Ti  Ti0  1  0.792305  0.293997  0.082761  1
  Ti  Ti1  1  0.211236  0.293997  0.501692  1
  Ti  Ti2  1  0.206279  0.707017  0.500738  1
  Ti  Ti3  1  0.209639  0.710168  0.915072  1
  Ti  Ti4  1  0.795096  0.710168  0.500529  1
  Ti  Ti5  1  0.789048  0.289435  0.500387  1
  Ti  Ti6  1  0.380153  0.121566  0.741412  1
  Ti  Ti7  1  0.377202  0.637570  0.260368  1
  Al  Al8  1  0.158449  0.340347  0.181897  1
  Al  Al9  1  0.159116  0.981635  0.822519  1
  Al  Al10  1  0.155652  0.341864  0.818133  1
  Al  Al11  1  0.523730  0.341864  0.186212  1
  Al  Al12  1  0.841141  0.657780  0.816641  1
  Al  Al13  1  0.844037  0.025061  0.181024  1
  Al  Al14  1  0.842215  0.657042  0.177769  1
  Al  Al15  1  0.479273  0.657042  0.814827  1
  Al  Al16  1  0.377241  0.122765  0.263771  1
  Al  Al17  1  0.858995  0.122765  0.745524  1
  Al  Al18  1  0.619518  0.879277  0.259759  1
  Al  Al19  1  0.622308  0.361287  0.738981  1
  Al  Al20  1  0.623531  0.876965  0.739014  1
  Al  Al21  1  0.137950  0.876965  0.253433  1
  Ge  Ge22  1  0.997692  0.496594  0.498901  1
  Pt  Pt23  1  0.998439  0.998920  0.498306  1
  Pt  Pt24  1  0.500614  0.998920  0.000480  1
  Pt  Pt25  1  0.499988  0.501214  0.001226  1
  Rh  Rh26  1  0.499529  0.499574  0.499049  1
  Rh  Rh27  1  0.000525  0.499574  0.000045  1
  Rh  Rh28  1  0.000978  0.000302  0.999324  1
  Rh  Rh29  1  0.498118  0.998325  0.500207  1
