# generated using pymatgen
data_Dy4Y7Er5(CdPt)4
_symmetry_space_group_name_H-M   'P 1'
_cell_length_a   9.67478105
_cell_length_b   9.67478053
_cell_length_c   9.67555000
_cell_angle_alpha   59.99736900
_cell_angle_beta   59.99737078
_cell_angle_gamma   60.11180351
_symmetry_Int_Tables_number   1
_chemical_formula_structural   Dy4Y7Er5(CdPt)4
_chemical_formula_sum   'Dy4 Y7 Er5 Cd4 Pt4'
_cell_volume   640.90144578
_cell_formula_units_Z   1
loop_
 _symmetry_equiv_pos_site_id
 _symmetry_equiv_pos_as_xyz
  1  'x, y, z'
loop_
 _atom_site_type_symbol
 _atom_site_label
 _atom_site_symmetry_multiplicity
 _atom_site_fract_x
 _atom_site_fract_y
 _atom_site_fract_z
 _atom_site_occupancy
  Dy  Dy0  1  0.352606  0.352606  0.351586  1
  Dy  Dy1  1  0.352606  0.352606  0.943202  1
  Dy  Dy2  1  0.353151  0.941592  0.352628  1
  Dy  Dy3  1  0.941592  0.353151  0.352628  1
  Y  Y4  1  0.811433  0.811433  0.188567  1
  Y  Y5  1  0.936350  0.563342  0.564640  1
  Y  Y6  1  0.563342  0.936350  0.935668  1
  Y  Y7  1  0.563342  0.936350  0.564640  1
  Y  Y8  1  0.936350  0.563342  0.935668  1
  Y  Y9  1  0.564263  0.564263  0.935737  1
  Y  Y10  1  0.936406  0.936406  0.563594  1
  Er  Er11  1  0.811479  0.189017  0.188862  1
  Er  Er12  1  0.189017  0.811479  0.810641  1
  Er  Er13  1  0.189017  0.811479  0.188862  1
  Er  Er14  1  0.811479  0.189017  0.810641  1
  Er  Er15  1  0.189314  0.189314  0.810686  1
  Cd  Cd16  1  0.581376  0.581376  0.582055  1
  Cd  Cd17  1  0.581376  0.581376  0.255193  1
  Cd  Cd18  1  0.581369  0.254528  0.582052  1
  Cd  Cd19  1  0.254528  0.581369  0.582052  1
  Pt  Pt20  1  0.142367  0.142367  0.143966  1
  Pt  Pt21  1  0.142367  0.142367  0.571299  1
  Pt  Pt22  1  0.144174  0.570694  0.142565  1
  Pt  Pt23  1  0.570694  0.144174  0.142565  1
