# generated using pymatgen
data_Gd5HgRh2
_symmetry_space_group_name_H-M   'P 1'
_cell_length_a   8.75248235
_cell_length_b   8.75248230
_cell_length_c   8.75248336
_cell_angle_alpha   126.78004462
_cell_angle_beta   126.78005548
_cell_angle_gamma   78.60981480
_symmetry_Int_Tables_number   1
_chemical_formula_structural   Gd5HgRh2
_chemical_formula_sum   'Gd10 Hg2 Rh4'
_cell_volume   416.35649311
_cell_formula_units_Z   2
loop_
 _symmetry_equiv_pos_site_id
 _symmetry_equiv_pos_as_xyz
  1  'x, y, z'
loop_
 _atom_site_type_symbol
 _atom_site_label
 _atom_site_symmetry_multiplicity
 _atom_site_fract_x
 _atom_site_fract_y
 _atom_site_fract_z
 _atom_site_occupancy
  Gd  Gd0  1  0.000000  0.000000  0.000000  1
  Gd  Gd1  1  0.500000  0.500000  0.000000  1
  Gd  Gd2  1  0.794990  0.294990  0.818294  1
  Gd  Gd3  1  0.205010  0.705010  0.181706  1
  Gd  Gd4  1  0.476695  0.976695  0.181706  1
  Gd  Gd5  1  0.294990  0.476695  0.500000  1
  Gd  Gd6  1  0.023305  0.205010  0.500000  1
  Gd  Gd7  1  0.523305  0.023305  0.818294  1
  Gd  Gd8  1  0.705010  0.523305  0.500000  1
  Gd  Gd9  1  0.976695  0.794990  0.500000  1
  Hg  Hg10  1  0.250000  0.250000  0.000000  1
  Hg  Hg11  1  0.750000  0.750000  0.000000  1
  Rh  Rh12  1  0.140485  0.640485  0.780970  1
  Rh  Rh13  1  0.859515  0.359515  0.219030  1
  Rh  Rh14  1  0.640485  0.859515  0.500000  1
  Rh  Rh15  1  0.359515  0.140485  0.500000  1
