# generated using pymatgen
data_Ca2Er3Tm3(B6Os)4
_symmetry_space_group_name_H-M   'P 1'
_cell_length_a   3.62561500
_cell_length_b   9.11863120
_cell_length_c   11.51935207
_cell_angle_alpha   89.82129514
_cell_angle_beta   90.00000000
_cell_angle_gamma   90.00000000
_symmetry_Int_Tables_number   1
_chemical_formula_structural   Ca2Er3Tm3(B6Os)4
_chemical_formula_sum   'Ca2 Er3 Tm3 B24 Os4'
_cell_volume   380.83536929
_cell_formula_units_Z   1
loop_
 _symmetry_equiv_pos_site_id
 _symmetry_equiv_pos_as_xyz
  1  'x, y, z'
loop_
 _atom_site_type_symbol
 _atom_site_label
 _atom_site_symmetry_multiplicity
 _atom_site_fract_x
 _atom_site_fract_y
 _atom_site_fract_z
 _atom_site_occupancy
  Ca  Ca0  1  0.000000  0.323299  0.414689  1
  Ca  Ca1  1  0.000000  0.676683  0.585396  1
  Er  Er2  1  0.000000  0.821721  0.086148  1
  Er  Er3  1  0.000000  0.178274  0.913745  1
  Er  Er4  1  0.000000  0.942398  0.370181  1
  Tm  Tm5  1  0.000000  0.057764  0.630167  1
  Tm  Tm6  1  0.000000  0.442911  0.129467  1
  Tm  Tm7  1  0.000000  0.557091  0.870446  1
  B  B8  1  0.500000  0.554060  0.431864  1
  B  B9  1  0.500000  0.445749  0.568179  1
  B  B10  1  0.500000  0.053482  0.066131  1
  B  B11  1  0.500000  0.946555  0.933757  1
  B  B12  1  0.500000  0.748549  0.417039  1
  B  B13  1  0.500000  0.251069  0.582975  1
  B  B14  1  0.500000  0.248798  0.080552  1
  B  B15  1  0.500000  0.751266  0.919387  1
  B  B16  1  0.500000  0.791583  0.263813  1
  B  B17  1  0.500000  0.208147  0.736104  1
  B  B18  1  0.500000  0.290416  0.233289  1
  B  B19  1  0.500000  0.709719  0.766648  1
  B  B20  1  0.500000  0.631157  0.184195  1
  B  B21  1  0.500000  0.368748  0.815737  1
  B  B22  1  0.500000  0.130212  0.313202  1
  B  B23  1  0.500000  0.870075  0.686651  1
  B  B24  1  0.500000  0.982438  0.211114  1
  B  B25  1  0.500000  0.017716  0.788669  1
  B  B26  1  0.500000  0.483467  0.286890  1
  B  B27  1  0.500000  0.516430  0.713065  1
  B  B28  1  0.500000  0.602948  0.028252  1
  B  B29  1  0.500000  0.397047  0.971693  1
  B  B30  1  0.500000  0.098679  0.473141  1
  B  B31  1  0.500000  0.901670  0.527586  1
  Os  Os32  1  0.000000  0.640237  0.317356  1
  Os  Os33  1  0.000000  0.359429  0.682644  1
  Os  Os34  1  0.000000  0.136617  0.176903  1
  Os  Os35  1  0.000000  0.863596  0.822925  1
