# generated using pymatgen
data_Ba4Sr4Sb4H2O
_symmetry_space_group_name_H-M   'P 1'
_cell_length_a   5.05429511
_cell_length_b   5.05429553
_cell_length_c   19.12495725
_cell_angle_alpha   97.59319273
_cell_angle_beta   97.59319244
_cell_angle_gamma   90.00000172
_symmetry_Int_Tables_number   1
_chemical_formula_structural   Ba4Sr4Sb4H2O
_chemical_formula_sum   'Ba4 Sr4 Sb4 H2 O1'
_cell_volume   479.95783040
_cell_formula_units_Z   1
loop_
 _symmetry_equiv_pos_site_id
 _symmetry_equiv_pos_as_xyz
  1  'x, y, z'
loop_
 _atom_site_type_symbol
 _atom_site_label
 _atom_site_symmetry_multiplicity
 _atom_site_fract_x
 _atom_site_fract_y
 _atom_site_fract_z
 _atom_site_occupancy
  Ba  Ba0  1  0.082864  0.082864  0.165726  1
  Ba  Ba1  1  0.660414  0.660414  0.320830  1
  Ba  Ba2  1  0.339586  0.339586  0.679170  1
  Ba  Ba3  1  0.917136  0.917136  0.834274  1
  Sr  Sr4  1  0.499999  0.000000  0.000000  1
  Sr  Sr5  1  0.000000  0.499999  0.000000  1
  Sr  Sr6  1  0.749999  0.250000  0.500000  1
  Sr  Sr7  1  0.250000  0.749999  0.500000  1
  Sb  Sb8  1  0.564166  0.564166  0.128334  1
  Sb  Sb9  1  0.182359  0.182359  0.364718  1
  Sb  Sb10  1  0.817640  0.817640  0.635282  1
  Sb  Sb11  1  0.435833  0.435833  0.871666  1
  H  H12  1  0.730254  0.730254  0.460511  1
  H  H13  1  0.269745  0.269745  0.539489  1
  O  O14  1  0.000000  0.000000  0.000000  1
