# generated using pymatgen
data_Tm4Si3Ni4Sn
_symmetry_space_group_name_H-M   'P 1'
_cell_length_a   4.19314000
_cell_length_b   6.83420054
_cell_length_c   7.29612156
_cell_angle_alpha   90.37362971
_cell_angle_beta   90.00000000
_cell_angle_gamma   90.00000000
_symmetry_Int_Tables_number   1
_chemical_formula_structural   Tm4Si3Ni4Sn
_chemical_formula_sum   'Tm4 Si3 Ni4 Sn1'
_cell_volume   209.07875629
_cell_formula_units_Z   1
loop_
 _symmetry_equiv_pos_site_id
 _symmetry_equiv_pos_as_xyz
  1  'x, y, z'
loop_
 _atom_site_type_symbol
 _atom_site_label
 _atom_site_symmetry_multiplicity
 _atom_site_fract_x
 _atom_site_fract_y
 _atom_site_fract_z
 _atom_site_occupancy
  Tm  Tm0  1  0.250000  0.981015  0.308984  1
  Tm  Tm1  1  0.250000  0.502624  0.206344  1
  Tm  Tm2  1  0.750000  0.005451  0.697048  1
  Tm  Tm3  1  0.750000  0.515774  0.789691  1
  Si  Si4  1  0.250000  0.307123  0.588082  1
  Si  Si5  1  0.250000  0.812510  0.913805  1
  Si  Si6  1  0.750000  0.691757  0.412380  1
  Ni  Ni7  1  0.250000  0.180191  0.891395  1
  Ni  Ni8  1  0.250000  0.692665  0.582133  1
  Ni  Ni9  1  0.750000  0.792338  0.083895  1
  Ni  Ni10  1  0.750000  0.324105  0.435055  1
  Sn  Sn11  1  0.750000  0.194447  0.091186  1
