# generated using pymatgen
data_LaPr3Al15(SiIr2)3
_symmetry_space_group_name_H-M   'P 1'
_cell_length_a   7.57977843
_cell_length_b   7.54557803
_cell_length_c   9.57729600
_cell_angle_alpha   89.94393112
_cell_angle_beta   89.98059597
_cell_angle_gamma   119.65560424
_symmetry_Int_Tables_number   1
_chemical_formula_structural   LaPr3Al15(SiIr2)3
_chemical_formula_sum   'La1 Pr3 Al15 Si3 Ir6'
_cell_volume   476.01307946
_cell_formula_units_Z   1
loop_
 _symmetry_equiv_pos_site_id
 _symmetry_equiv_pos_as_xyz
  1  'x, y, z'
loop_
 _atom_site_type_symbol
 _atom_site_label
 _atom_site_symmetry_multiplicity
 _atom_site_fract_x
 _atom_site_fract_y
 _atom_site_fract_z
 _atom_site_occupancy
  La  La0  1  0.322181  0.993832  0.749992  1
  Pr  Pr1  1  0.994970  0.665398  0.247636  1
  Pr  Pr2  1  0.005418  0.339117  0.753031  1
  Pr  Pr3  1  0.673283  0.999788  0.248058  1
  Al  Al4  1  0.131536  0.129115  0.250086  1
  Al  Al5  1  0.866801  0.868290  0.749561  1
  Al  Al6  1  0.339410  0.006204  0.425744  1
  Al  Al7  1  0.003403  0.329787  0.431824  1
  Al  Al8  1  0.666565  0.999841  0.572660  1
  Al  Al9  1  0.662528  0.995553  0.924912  1
  Al  Al10  1  0.339169  0.006484  0.074690  1
  Al  Al11  1  0.334900  0.333688  0.552833  1
  Al  Al12  1  0.661801  0.666166  0.448231  1
  Al  Al13  1  0.661138  0.665650  0.053244  1
  Al  Al14  1  0.337796  0.334299  0.947041  1
  Al  Al15  1  0.338354  0.546808  0.250460  1
  Al  Al16  1  0.661426  0.453704  0.750509  1
  Al  Al17  1  0.546608  0.343507  0.250324  1
  Al  Al18  1  0.457083  0.657439  0.749832  1
  Si  Si19  1  0.004667  0.328795  0.072281  1
  Si  Si20  1  0.994078  0.670263  0.933369  1
  Si  Si21  1  0.995520  0.664815  0.562338  1
  Ir  Ir22  1  0.687683  0.338234  0.001073  1
  Ir  Ir23  1  0.312662  0.662377  0.998036  1
  Ir  Ir24  1  0.320554  0.669647  0.502289  1
  Ir  Ir25  1  0.679896  0.338174  0.500356  1
  Ir  Ir26  1  0.000223  0.000277  0.999154  1
  Ir  Ir27  1  0.000349  0.992745  0.500435  1
