# generated using pymatgen
data_Nd2Ho4ZnRh17
_symmetry_space_group_name_H-M   'P 1'
_cell_length_a   5.32565800
_cell_length_b   5.32565876
_cell_length_c   17.34635900
_cell_angle_alpha   90.00000000
_cell_angle_beta   90.00000000
_cell_angle_gamma   119.99999527
_symmetry_Int_Tables_number   1
_chemical_formula_structural   Nd2Ho4ZnRh17
_chemical_formula_sum   'Nd2 Ho4 Zn1 Rh17'
_cell_volume   426.07454837
_cell_formula_units_Z   1
loop_
 _symmetry_equiv_pos_site_id
 _symmetry_equiv_pos_as_xyz
  1  'x, y, z'
loop_
 _atom_site_type_symbol
 _atom_site_label
 _atom_site_symmetry_multiplicity
 _atom_site_fract_x
 _atom_site_fract_y
 _atom_site_fract_z
 _atom_site_occupancy
  Nd  Nd0  1  0.333333  0.666667  0.750000  1
  Nd  Nd1  1  0.666667  0.333333  0.250000  1
  Ho  Ho2  1  0.333333  0.666667  0.539532  1
  Ho  Ho3  1  0.666667  0.333333  0.041662  1
  Ho  Ho4  1  0.666667  0.333333  0.458338  1
  Ho  Ho5  1  0.333333  0.666667  0.960468  1
  Zn  Zn6  1  0.000000  0.000000  0.250000  1
  Rh  Rh7  1  0.168342  0.336682  0.125000  1
  Rh  Rh8  1  0.831946  0.663893  0.623790  1
  Rh  Rh9  1  0.663318  0.831658  0.125000  1
  Rh  Rh10  1  0.168342  0.831658  0.125000  1
  Rh  Rh11  1  0.831946  0.168054  0.623790  1
  Rh  Rh12  1  0.336107  0.168054  0.623790  1
  Rh  Rh13  1  0.831946  0.663893  0.876210  1
  Rh  Rh14  1  0.831946  0.168054  0.876210  1
  Rh  Rh15  1  0.336107  0.168054  0.876210  1
  Rh  Rh16  1  0.663318  0.831658  0.375000  1
  Rh  Rh17  1  0.168342  0.831658  0.375000  1
  Rh  Rh18  1  0.168342  0.336682  0.375000  1
  Rh  Rh19  1  0.000000  0.000000  0.750000  1
  Rh  Rh20  1  0.333333  0.666667  0.250000  1
  Rh  Rh21  1  0.666667  0.333333  0.750000  1
  Rh  Rh22  1  0.000000  0.000000  0.001873  1
  Rh  Rh23  1  0.000000  0.000000  0.498127  1
