# generated using pymatgen
data_Tb10Dy5Er5(CoBi2)4
_symmetry_space_group_name_H-M   'P 1'
_cell_length_a   8.00586000
_cell_length_b   8.89074289
_cell_length_c   12.44341837
_cell_angle_alpha   89.94233861
_cell_angle_beta   89.98452857
_cell_angle_gamma   90.01791627
_symmetry_Int_Tables_number   1
_chemical_formula_structural   Tb10Dy5Er5(CoBi2)4
_chemical_formula_sum   'Tb10 Dy5 Er5 Co4 Bi8'
_cell_volume   885.69764248
_cell_formula_units_Z   1
loop_
 _symmetry_equiv_pos_site_id
 _symmetry_equiv_pos_as_xyz
  1  'x, y, z'
loop_
 _atom_site_type_symbol
 _atom_site_label
 _atom_site_symmetry_multiplicity
 _atom_site_fract_x
 _atom_site_fract_y
 _atom_site_fract_z
 _atom_site_occupancy
  Tb  Tb0  1  0.848087  0.750336  0.801560  1
  Tb  Tb1  1  0.151995  0.249664  0.198652  1
  Tb  Tb2  1  0.348263  0.249839  0.698650  1
  Tb  Tb3  1  0.651665  0.750023  0.301379  1
  Tb  Tb4  1  0.379947  0.750001  0.688251  1
  Tb  Tb5  1  0.618996  0.249816  0.311692  1
  Tb  Tb6  1  0.880410  0.249291  0.811496  1
  Tb  Tb7  1  0.119387  0.750833  0.188561  1
  Tb  Tb8  1  0.951679  0.750487  0.502561  1
  Tb  Tb9  1  0.050526  0.249635  0.497383  1
  Dy  Dy10  1  0.450785  0.249207  0.997431  1
  Dy  Dy11  1  0.549278  0.750752  0.002598  1
  Dy  Dy12  1  0.675944  0.464922  0.562941  1
  Dy  Dy13  1  0.823739  0.464853  0.063187  1
  Dy  Dy14  1  0.176230  0.535270  0.936986  1
  Er  Er15  1  0.673695  0.035355  0.562823  1
  Er  Er16  1  0.326248  0.964223  0.436704  1
  Er  Er17  1  0.173995  0.964317  0.936980  1
  Er  Er18  1  0.325875  0.535411  0.436864  1
  Er  Er19  1  0.825929  0.035721  0.063140  1
  Co  Co20  1  0.559144  0.750419  0.507204  1
  Co  Co21  1  0.438745  0.249389  0.492356  1
  Co  Co22  1  0.060785  0.248964  0.992457  1
  Co  Co23  1  0.939046  0.751057  0.007686  1
  Bi  Bi24  1  0.570258  0.492102  0.826545  1
  Bi  Bi25  1  0.429438  0.508094  0.173579  1
  Bi  Bi26  1  0.070054  0.507874  0.674015  1
  Bi  Bi27  1  0.430703  0.992141  0.173548  1
  Bi  Bi28  1  0.930449  0.492205  0.326396  1
  Bi  Bi29  1  0.569085  0.007651  0.826205  1
  Bi  Bi30  1  0.930186  0.007959  0.326205  1
  Bi  Bi31  1  0.069433  0.992189  0.673957  1
