# generated using pymatgen
data_Sc8Ti5Si16Mo4W3
_symmetry_space_group_name_H-M   'P 1'
_cell_length_a   6.58623438
_cell_length_b   6.77719700
_cell_length_c   12.85493776
_cell_angle_alpha   89.98634293
_cell_angle_beta   90.00831295
_cell_angle_gamma   89.99538467
_symmetry_Int_Tables_number   1
_chemical_formula_structural   Sc8Ti5Si16Mo4W3
_chemical_formula_sum   'Sc8 Ti5 Si16 Mo4 W3'
_cell_volume   573.79564933
_cell_formula_units_Z   1
loop_
 _symmetry_equiv_pos_site_id
 _symmetry_equiv_pos_as_xyz
  1  'x, y, z'
loop_
 _atom_site_type_symbol
 _atom_site_label
 _atom_site_symmetry_multiplicity
 _atom_site_fract_x
 _atom_site_fract_y
 _atom_site_fract_z
 _atom_site_occupancy
  Sc  Sc0  1  0.496953  0.671727  0.594326  1
  Sc  Sc1  1  0.997727  0.828874  0.907038  1
  Sc  Sc2  1  0.501904  0.327910  0.093908  1
  Sc  Sc3  1  0.000601  0.173360  0.405717  1
  Sc  Sc4  1  0.502126  0.328409  0.405659  1
  Sc  Sc5  1  0.001118  0.175088  0.094483  1
  Sc  Sc6  1  0.498019  0.674807  0.906099  1
  Sc  Sc7  1  0.999217  0.825935  0.593676  1
  Ti  Ti8  1  0.663829  0.170071  0.625910  1
  Ti  Ti9  1  0.163052  0.330574  0.874212  1
  Ti  Ti10  1  0.337712  0.829757  0.125420  1
  Ti  Ti11  1  0.834538  0.668944  0.373510  1
  Ti  Ti12  1  0.334427  0.829052  0.373547  1
  Si  Si13  1  0.668815  0.964171  0.458564  1
  Si  Si14  1  0.166681  0.536195  0.041695  1
  Si  Si15  1  0.333298  0.037028  0.958746  1
  Si  Si16  1  0.833268  0.463106  0.541523  1
  Si  Si17  1  0.331126  0.036773  0.541071  1
  Si  Si18  1  0.830741  0.461219  0.958716  1
  Si  Si19  1  0.669900  0.962809  0.041622  1
  Si  Si20  1  0.168567  0.537294  0.459695  1
  Si  Si21  1  0.464860  0.383515  0.751514  1
  Si  Si22  1  0.963747  0.116534  0.749184  1
  Si  Si23  1  0.537368  0.615420  0.250005  1
  Si  Si24  1  0.035528  0.882685  0.248867  1
  Si  Si25  1  0.701897  0.860346  0.748691  1
  Si  Si26  1  0.201146  0.640153  0.751158  1
  Si  Si27  1  0.296748  0.139754  0.250147  1
  Si  Si28  1  0.798464  0.360012  0.250356  1
  Mo  Mo29  1  0.831182  0.667644  0.123551  1
  Mo  Mo30  1  0.668151  0.166764  0.875220  1
  Mo  Mo31  1  0.168429  0.331105  0.626216  1
  Mo  Mo32  1  0.837305  0.494896  0.749776  1
  W  W33  1  0.337554  0.006860  0.750881  1
  W  W34  1  0.163059  0.506814  0.249450  1
  W  W35  1  0.660945  0.994397  0.249849  1
