# generated using pymatgen
data_Dy10Y6Tl3AgIr4
_symmetry_space_group_name_H-M   'P 1'
_cell_length_a   9.64941655
_cell_length_b   9.64941553
_cell_length_c   9.64941700
_cell_angle_alpha   59.82116131
_cell_angle_beta   59.82116482
_cell_angle_gamma   59.82117086
_symmetry_Int_Tables_number   1
_chemical_formula_structural   Dy10Y6Tl3AgIr4
_chemical_formula_sum   'Dy10 Y6 Tl3 Ag1 Ir4'
_cell_volume   632.73474391
_cell_formula_units_Z   1
loop_
 _symmetry_equiv_pos_site_id
 _symmetry_equiv_pos_as_xyz
  1  'x, y, z'
loop_
 _atom_site_type_symbol
 _atom_site_label
 _atom_site_symmetry_multiplicity
 _atom_site_fract_x
 _atom_site_fract_y
 _atom_site_fract_z
 _atom_site_occupancy
  Dy  Dy0  1  0.349985  0.349985  0.349985  1
  Dy  Dy1  1  0.350393  0.350393  0.950945  1
  Dy  Dy2  1  0.350393  0.950945  0.350393  1
  Dy  Dy3  1  0.950945  0.350393  0.350393  1
  Dy  Dy4  1  0.808904  0.190834  0.190834  1
  Dy  Dy5  1  0.187405  0.810459  0.810459  1
  Dy  Dy6  1  0.190834  0.808904  0.190834  1
  Dy  Dy7  1  0.810459  0.187405  0.810459  1
  Dy  Dy8  1  0.190834  0.190834  0.808904  1
  Dy  Dy9  1  0.810459  0.810459  0.187405  1
  Y  Y10  1  0.936847  0.559886  0.559886  1
  Y  Y11  1  0.558615  0.940224  0.940224  1
  Y  Y12  1  0.559886  0.936847  0.559886  1
  Y  Y13  1  0.940224  0.558615  0.940224  1
  Y  Y14  1  0.559886  0.559886  0.936847  1
  Y  Y15  1  0.940224  0.940224  0.558615  1
  Tl  Tl16  1  0.585615  0.585615  0.245975  1
  Tl  Tl17  1  0.585615  0.245975  0.585615  1
  Tl  Tl18  1  0.245975  0.585615  0.585615  1
  Ag  Ag19  1  0.584441  0.584441  0.584441  1
  Ir  Ir20  1  0.142392  0.142392  0.142392  1
  Ir  Ir21  1  0.142389  0.142389  0.574890  1
  Ir  Ir22  1  0.142389  0.574890  0.142389  1
  Ir  Ir23  1  0.574890  0.142389  0.142389  1
