# generated using pymatgen
data_Be8AlCr3
_symmetry_space_group_name_H-M   'P 1'
_cell_length_a   4.29461410
_cell_length_b   4.29462816
_cell_length_c   7.03602208
_cell_angle_alpha   90.00000471
_cell_angle_beta   90.00003567
_cell_angle_gamma   119.99953379
_symmetry_Int_Tables_number   1
_chemical_formula_structural   Be8AlCr3
_chemical_formula_sum   'Be8 Al1 Cr3'
_cell_volume   112.38531793
_cell_formula_units_Z   1
loop_
 _symmetry_equiv_pos_site_id
 _symmetry_equiv_pos_as_xyz
  1  'x, y, z'
loop_
 _atom_site_type_symbol
 _atom_site_label
 _atom_site_symmetry_multiplicity
 _atom_site_fract_x
 _atom_site_fract_y
 _atom_site_fract_z
 _atom_site_occupancy
  Be  Be0  1  0.000001  0.000008  0.495142  1
  Be  Be1  1  0.000004  0.000018  0.996392  1
  Be  Be2  1  0.170058  0.340064  0.755605  1
  Be  Be3  1  0.170056  0.829959  0.755613  1
  Be  Be4  1  0.659952  0.829955  0.755605  1
  Be  Be5  1  0.832281  0.664737  0.244782  1
  Be  Be6  1  0.832292  0.167633  0.244751  1
  Be  Be7  1  0.335131  0.167617  0.244790  1
  Al  Al8  1  0.666683  0.333341  0.566696  1
  Cr  Cr9  1  0.333457  0.666638  0.426519  1
  Cr  Cr10  1  0.333345  0.666678  0.065713  1
  Cr  Cr11  1  0.666740  0.333352  0.948393  1
