# generated using pymatgen
data_Sm8Tc3RuC8
_symmetry_space_group_name_H-M   'P 1'
_cell_length_a   5.25182500
_cell_length_b   6.63563943
_cell_length_c   10.05698773
_cell_angle_alpha   90.12258704
_cell_angle_beta   90.00000000
_cell_angle_gamma   90.00000000
_symmetry_Int_Tables_number   1
_chemical_formula_structural   Sm8Tc3RuC8
_chemical_formula_sum   'Sm8 Tc3 Ru1 C8'
_cell_volume   350.47734571
_cell_formula_units_Z   1
loop_
 _symmetry_equiv_pos_site_id
 _symmetry_equiv_pos_as_xyz
  1  'x, y, z'
loop_
 _atom_site_type_symbol
 _atom_site_label
 _atom_site_symmetry_multiplicity
 _atom_site_fract_x
 _atom_site_fract_y
 _atom_site_fract_z
 _atom_site_occupancy
  Sm  Sm0  1  0.250000  0.473808  0.787692  1
  Sm  Sm1  1  0.750000  0.026389  0.284601  1
  Sm  Sm2  1  0.250000  0.972148  0.713883  1
  Sm  Sm3  1  0.750000  0.527021  0.213924  1
  Sm  Sm4  1  0.250000  0.815705  0.053644  1
  Sm  Sm5  1  0.750000  0.683877  0.554017  1
  Sm  Sm6  1  0.250000  0.315896  0.446383  1
  Sm  Sm7  1  0.750000  0.181058  0.946951  1
  Tc  Tc8  1  0.250000  0.273804  0.138773  1
  Tc  Tc9  1  0.750000  0.226070  0.640008  1
  Tc  Tc10  1  0.250000  0.774124  0.361268  1
  Ru  Ru11  1  0.750000  0.726251  0.860406  1
  C  C12  1  0.250000  0.684052  0.542732  1
  C  C13  1  0.750000  0.818364  0.041405  1
  C  C14  1  0.250000  0.183708  0.956840  1
  C  C15  1  0.750000  0.316500  0.458774  1
  C  C16  1  0.250000  0.039145  0.258092  1
  C  C17  1  0.750000  0.461545  0.756915  1
  C  C18  1  0.250000  0.538927  0.241901  1
  C  C19  1  0.750000  0.961608  0.741790  1
