# generated using pymatgen
data_Y3Th7Si8N3
_symmetry_space_group_name_H-M   'P 1'
_cell_length_a   10.49781300
_cell_length_b   10.49781434
_cell_length_c   4.58859400
_cell_angle_alpha   90.00000000
_cell_angle_beta   90.00000000
_cell_angle_gamma   119.99999893
_symmetry_Int_Tables_number   1
_chemical_formula_structural   Y3Th7Si8N3
_chemical_formula_sum   'Y3 Th7 Si8 N3'
_cell_volume   437.93331972
_cell_formula_units_Z   1
loop_
 _symmetry_equiv_pos_site_id
 _symmetry_equiv_pos_as_xyz
  1  'x, y, z'
loop_
 _atom_site_type_symbol
 _atom_site_label
 _atom_site_symmetry_multiplicity
 _atom_site_fract_x
 _atom_site_fract_y
 _atom_site_fract_z
 _atom_site_occupancy
  Y  Y0  1  0.500000  0.000000  0.500000  1
  Y  Y1  1  0.000000  0.500000  0.500000  1
  Y  Y2  1  0.500000  0.500000  0.500000  1
  Th  Th3  1  0.214231  0.785769  0.000000  1
  Th  Th4  1  0.214231  0.428463  0.000000  1
  Th  Th5  1  0.785769  0.571537  0.000000  1
  Th  Th6  1  0.428463  0.214231  0.000000  1
  Th  Th7  1  0.000000  0.000000  0.000000  1
  Th  Th8  1  0.571537  0.785769  0.000000  1
  Th  Th9  1  0.785769  0.214231  0.000000  1
  Si  Si10  1  0.666667  0.333333  0.500000  1
  Si  Si11  1  0.000000  0.774963  0.500000  1
  Si  Si12  1  0.333333  0.666667  0.500000  1
  Si  Si13  1  0.225037  0.225037  0.500000  1
  Si  Si14  1  0.774963  0.774963  0.500000  1
  Si  Si15  1  0.774963  0.000000  0.500000  1
  Si  Si16  1  0.225037  0.000000  0.500000  1
  Si  Si17  1  0.000000  0.225037  0.500000  1
  N  N18  1  0.500000  0.500000  0.000000  1
  N  N19  1  0.500000  0.000000  0.000000  1
  N  N20  1  0.000000  0.500000  0.000000  1
