# generated using pymatgen
data_Zr7Sc(BBr6)2
_symmetry_space_group_name_H-M   'P 1'
_cell_length_a   3.67542700
_cell_length_b   12.60786400
_cell_length_c   13.02937340
_cell_angle_alpha   89.72956588
_cell_angle_beta   90.00000000
_cell_angle_gamma   90.00000000
_symmetry_Int_Tables_number   1
_chemical_formula_structural   Zr7Sc(BBr6)2
_chemical_formula_sum   'Zr7 Sc1 B2 Br12'
_cell_volume   603.76510562
_cell_formula_units_Z   1
loop_
 _symmetry_equiv_pos_site_id
 _symmetry_equiv_pos_as_xyz
  1  'x, y, z'
loop_
 _atom_site_type_symbol
 _atom_site_label
 _atom_site_symmetry_multiplicity
 _atom_site_fract_x
 _atom_site_fract_y
 _atom_site_fract_z
 _atom_site_occupancy
  Zr  Zr0  1  0.000000  0.095894  0.076633  1
  Zr  Zr1  1  0.000000  0.904587  0.923760  1
  Zr  Zr2  1  0.000000  0.596234  0.424751  1
  Zr  Zr3  1  0.000000  0.405495  0.577369  1
  Zr  Zr4  1  0.500000  0.116158  0.863812  1
  Zr  Zr5  1  0.500000  0.883866  0.136235  1
  Zr  Zr6  1  0.500000  0.616673  0.636587  1
  Sc  Sc7  1  0.500000  0.382061  0.361893  1
  B  B8  1  0.500000  0.000158  0.000147  1
  B  B9  1  0.500000  0.498393  0.498213  1
  Br  Br10  1  0.500000  0.266515  0.681628  1
  Br  Br11  1  0.500000  0.733339  0.318150  1
  Br  Br12  1  0.500000  0.767613  0.819150  1
  Br  Br13  1  0.500000  0.231530  0.180190  1
  Br  Br14  1  0.000000  0.260776  0.934688  1
  Br  Br15  1  0.000000  0.739276  0.065287  1
  Br  Br16  1  0.000000  0.481595  0.241691  1
  Br  Br17  1  0.000000  0.515541  0.761749  1
  Br  Br18  1  0.000000  0.983596  0.260261  1
  Br  Br19  1  0.000000  0.016459  0.739750  1
  Br  Br20  1  0.000000  0.241794  0.433538  1
  Br  Br21  1  0.000000  0.762447  0.564517  1
