# generated using pymatgen
data_Er7Th(InCo)2
_symmetry_space_group_name_H-M   'P 1'
_cell_length_a   9.49442235
_cell_length_b   9.49442164
_cell_length_c   9.54570500
_cell_angle_alpha   59.82115755
_cell_angle_beta   59.82116004
_cell_angle_gamma   59.85822907
_symmetry_Int_Tables_number   1
_chemical_formula_structural   Er7Th(InCo)2
_chemical_formula_sum   'Er14 Th2 In4 Co4'
_cell_volume   606.15799570
_cell_formula_units_Z   2
loop_
 _symmetry_equiv_pos_site_id
 _symmetry_equiv_pos_as_xyz
  1  'x, y, z'
loop_
 _atom_site_type_symbol
 _atom_site_label
 _atom_site_symmetry_multiplicity
 _atom_site_fract_x
 _atom_site_fract_y
 _atom_site_fract_z
 _atom_site_occupancy
  Er  Er0  1  0.598169  0.203796  0.599017  1
  Er  Er1  1  0.203796  0.598169  0.599017  1
  Er  Er2  1  0.064130  0.438674  0.436762  1
  Er  Er3  1  0.438674  0.064130  0.060434  1
  Er  Er4  1  0.438674  0.064130  0.436762  1
  Er  Er5  1  0.064130  0.438674  0.060434  1
  Er  Er6  1  0.437535  0.437535  0.062465  1
  Er  Er7  1  0.061907  0.061907  0.438093  1
  Er  Er8  1  0.187374  0.812605  0.811837  1
  Er  Er9  1  0.812605  0.187374  0.188185  1
  Er  Er10  1  0.812605  0.187374  0.811837  1
  Er  Er11  1  0.187374  0.812605  0.188185  1
  Er  Er12  1  0.811532  0.811532  0.188468  1
  Er  Er13  1  0.189632  0.189632  0.810368  1
  Th  Th14  1  0.591190  0.591190  0.596216  1
  Th  Th15  1  0.591190  0.591190  0.221405  1
  In  In16  1  0.833170  0.833170  0.833517  1
  In  In17  1  0.833170  0.833170  0.500142  1
  In  In18  1  0.833042  0.500805  0.833076  1
  In  In19  1  0.500805  0.833042  0.833076  1
  Co  Co20  1  0.394569  0.394569  0.387433  1
  Co  Co21  1  0.394569  0.394569  0.823428  1
  Co  Co22  1  0.399328  0.820829  0.389922  1
  Co  Co23  1  0.820829  0.399328  0.389922  1
