# generated using pymatgen
data_DyY3LuPb3
_symmetry_space_group_name_H-M   'P 1'
_cell_length_a   9.05512000
_cell_length_b   9.05512091
_cell_length_c   6.62555000
_cell_angle_alpha   90.00000000
_cell_angle_beta   90.00000000
_cell_angle_gamma   119.99999669
_symmetry_Int_Tables_number   1
_chemical_formula_structural   DyY3LuPb3
_chemical_formula_sum   'Dy2 Y6 Lu2 Pb6'
_cell_volume   470.47986895
_cell_formula_units_Z   2
loop_
 _symmetry_equiv_pos_site_id
 _symmetry_equiv_pos_as_xyz
  1  'x, y, z'
loop_
 _atom_site_type_symbol
 _atom_site_label
 _atom_site_symmetry_multiplicity
 _atom_site_fract_x
 _atom_site_fract_y
 _atom_site_fract_z
 _atom_site_occupancy
  Dy  Dy0  1  0.333333  0.666667  0.500000  1
  Dy  Dy1  1  0.666667  0.333333  0.500000  1
  Y  Y2  1  0.238267  0.238267  0.750699  1
  Y  Y3  1  0.238267  0.000000  0.249301  1
  Y  Y4  1  0.000000  0.761733  0.750699  1
  Y  Y5  1  0.761733  0.761733  0.249301  1
  Y  Y6  1  0.000000  0.238267  0.249301  1
  Y  Y7  1  0.761733  0.000000  0.750699  1
  Lu  Lu8  1  0.333333  0.666667  0.000000  1
  Lu  Lu9  1  0.666667  0.333333  0.000000  1
  Pb  Pb10  1  0.000000  0.395663  0.752634  1
  Pb  Pb11  1  0.395663  0.395663  0.247366  1
  Pb  Pb12  1  0.604337  0.000000  0.247366  1
  Pb  Pb13  1  0.604337  0.604337  0.752634  1
  Pb  Pb14  1  0.395663  0.000000  0.752634  1
  Pb  Pb15  1  0.000000  0.604337  0.247366  1
