# generated using pymatgen
data_Pr3SmTh4(ZnRh)8
_symmetry_space_group_name_H-M   'P 1'
_cell_length_a   3.98044600
_cell_length_b   7.45379908
_cell_length_c   16.63069480
_cell_angle_alpha   90.39772402
_cell_angle_beta   90.00000000
_cell_angle_gamma   90.00000000
_symmetry_Int_Tables_number   1
_chemical_formula_structural   Pr3SmTh4(ZnRh)8
_chemical_formula_sum   'Pr3 Sm1 Th4 Zn8 Rh8'
_cell_volume   493.41159200
_cell_formula_units_Z   1
loop_
 _symmetry_equiv_pos_site_id
 _symmetry_equiv_pos_as_xyz
  1  'x, y, z'
loop_
 _atom_site_type_symbol
 _atom_site_label
 _atom_site_symmetry_multiplicity
 _atom_site_fract_x
 _atom_site_fract_y
 _atom_site_fract_z
 _atom_site_occupancy
  Pr  Pr0  1  0.250000  0.556610  0.785712  1
  Pr  Pr1  1  0.750000  0.329197  0.439945  1
  Pr  Pr2  1  0.250000  0.674724  0.558692  1
  Sm  Sm3  1  0.750000  0.441101  0.214024  1
  Th  Th4  1  0.750000  0.948377  0.285683  1
  Th  Th5  1  0.750000  0.824182  0.061388  1
  Th  Th6  1  0.250000  0.052660  0.714036  1
  Th  Th7  1  0.250000  0.170963  0.939797  1
  Zn  Zn8  1  0.250000  0.001957  0.441817  1
  Zn  Zn9  1  0.750000  0.504524  0.938433  1
  Zn  Zn10  1  0.750000  0.003343  0.557190  1
  Zn  Zn11  1  0.250000  0.613490  0.346388  1
  Zn  Zn12  1  0.750000  0.386110  0.652845  1
  Zn  Zn13  1  0.750000  0.878732  0.849229  1
  Zn  Zn14  1  0.250000  0.492499  0.062961  1
  Zn  Zn15  1  0.250000  0.120452  0.151529  1
  Rh  Rh16  1  0.250000  0.243234  0.571496  1
  Rh  Rh17  1  0.750000  0.240282  0.058974  1
  Rh  Rh18  1  0.250000  0.231940  0.311187  1
  Rh  Rh19  1  0.750000  0.242355  0.815836  1
  Rh  Rh20  1  0.250000  0.757981  0.943197  1
  Rh  Rh21  1  0.750000  0.773453  0.686744  1
  Rh  Rh22  1  0.750000  0.762056  0.427424  1
  Rh  Rh23  1  0.250000  0.749779  0.185474  1
