# generated using pymatgen
data_Ce2Y(ErAl6)3
_symmetry_space_group_name_H-M   'P 1'
_cell_length_a   14.56244336
_cell_length_b   14.56244367
_cell_length_c   14.56244500
_cell_angle_alpha   24.48371763
_cell_angle_beta   24.48371498
_cell_angle_gamma   24.48371869
_symmetry_Int_Tables_number   1
_chemical_formula_structural   Ce2Y(ErAl6)3
_chemical_formula_sum   'Ce2 Y1 Er3 Al18'
_cell_volume   466.33740548
_cell_formula_units_Z   1
loop_
 _symmetry_equiv_pos_site_id
 _symmetry_equiv_pos_as_xyz
  1  'x, y, z'
loop_
 _atom_site_type_symbol
 _atom_site_label
 _atom_site_symmetry_multiplicity
 _atom_site_fract_x
 _atom_site_fract_y
 _atom_site_fract_z
 _atom_site_occupancy
  Ce  Ce0  1  0.108638  0.108638  0.108638  1
  Ce  Ce1  1  0.891494  0.891494  0.891494  1
  Y  Y2  1  0.390948  0.390948  0.390948  1
  Er  Er3  1  0.999962  0.999962  0.999962  1
  Er  Er4  1  0.499949  0.499949  0.499949  1
  Er  Er5  1  0.608908  0.608908  0.608908  1
  Al  Al6  1  0.923352  0.371210  0.371210  1
  Al  Al7  1  0.423556  0.869850  0.869850  1
  Al  Al8  1  0.371210  0.371210  0.923352  1
  Al  Al9  1  0.869850  0.869850  0.423556  1
  Al  Al10  1  0.371210  0.923352  0.371210  1
  Al  Al11  1  0.869850  0.423556  0.869850  1
  Al  Al12  1  0.576386  0.130101  0.130101  1
  Al  Al13  1  0.075646  0.629544  0.629544  1
  Al  Al14  1  0.130101  0.130101  0.576386  1
  Al  Al15  1  0.629544  0.629544  0.075646  1
  Al  Al16  1  0.130101  0.576386  0.130101  1
  Al  Al17  1  0.629544  0.075646  0.629544  1
  Al  Al18  1  0.500639  0.500639  0.998163  1
  Al  Al19  1  0.000176  0.000176  0.499953  1
  Al  Al20  1  0.500639  0.998163  0.500639  1
  Al  Al21  1  0.000176  0.499953  0.000176  1
  Al  Al22  1  0.998163  0.500639  0.500639  1
  Al  Al23  1  0.499953  0.000176  0.000176  1
