# generated using pymatgen
data_HoEr(CoH4)2
_symmetry_space_group_name_H-M   'P 1'
_cell_length_a   6.00773808
_cell_length_b   6.00773714
_cell_length_c   4.69941400
_cell_angle_alpha   90.00000000
_cell_angle_beta   90.00000000
_cell_angle_gamma   145.69198695
_symmetry_Int_Tables_number   1
_chemical_formula_structural   HoEr(CoH4)2
_chemical_formula_sum   'Ho1 Er1 Co2 H8'
_cell_volume   95.60236594
_cell_formula_units_Z   1
loop_
 _symmetry_equiv_pos_site_id
 _symmetry_equiv_pos_as_xyz
  1  'x, y, z'
loop_
 _atom_site_type_symbol
 _atom_site_label
 _atom_site_symmetry_multiplicity
 _atom_site_fract_x
 _atom_site_fract_y
 _atom_site_fract_z
 _atom_site_occupancy
  Ho  Ho0  1  0.132478  0.867522  0.250000  1
  Er  Er1  1  0.867285  0.132715  0.750000  1
  Co  Co2  1  0.597672  0.402328  0.750000  1
  Co  Co3  1  0.402203  0.597797  0.250000  1
  H  H4  1  0.089268  0.910732  0.750000  1
  H  H5  1  0.910580  0.089420  0.250000  1
  H  H6  1  0.693314  0.306686  0.501048  1
  H  H7  1  0.306972  0.693028  0.499930  1
  H  H8  1  0.693314  0.306686  0.998952  1
  H  H9  1  0.306972  0.693028  0.000070  1
  H  H10  1  0.499971  0.500029  0.000004  1
  H  H11  1  0.499971  0.500029  0.499996  1
