# generated using pymatgen
data_Tb3Ho3(MoO7)2
_symmetry_space_group_name_H-M   'P 1'
_cell_length_a   6.44965898
_cell_length_b   6.48922766
_cell_length_c   7.47447660
_cell_angle_alpha   90.04577114
_cell_angle_beta   90.05070473
_cell_angle_gamma   108.76570946
_symmetry_Int_Tables_number   1
_chemical_formula_structural   Tb3Ho3(MoO7)2
_chemical_formula_sum   'Tb3 Ho3 Mo2 O14'
_cell_volume   296.20173009
_cell_formula_units_Z   1
loop_
 _symmetry_equiv_pos_site_id
 _symmetry_equiv_pos_as_xyz
  1  'x, y, z'
loop_
 _atom_site_type_symbol
 _atom_site_label
 _atom_site_symmetry_multiplicity
 _atom_site_fract_x
 _atom_site_fract_y
 _atom_site_fract_z
 _atom_site_occupancy
  Tb  Tb0  1  0.527122  0.529196  0.499761  1
  Tb  Tb1  1  0.471359  0.468662  0.998883  1
  Tb  Tb2  1  0.000396  0.535022  0.242008  1
  Ho  Ho3  1  0.998584  0.465917  0.746109  1
  Ho  Ho4  1  0.536277  0.000629  0.753914  1
  Ho  Ho5  1  0.462787  0.999089  0.258756  1
  Mo  Mo6  1  0.001065  0.001298  0.500026  1
  Mo  Mo7  1  0.998607  0.998871  0.999259  1
  O  O8  1  0.925055  0.074701  0.749660  1
  O  O9  1  0.074586  0.925351  0.250036  1
  O  O10  1  0.365983  0.640749  0.248067  1
  O  O11  1  0.636698  0.358918  0.748774  1
  O  O12  1  0.369412  0.633906  0.750757  1
  O  O13  1  0.627516  0.364552  0.251289  1
  O  O14  1  0.323887  0.077348  0.972649  1
  O  O15  1  0.671626  0.918343  0.474308  1
  O  O16  1  0.313801  0.055198  0.537791  1
  O  O17  1  0.694203  0.951586  0.041484  1
  O  O18  1  0.063884  0.311916  0.463849  1
  O  O19  1  0.932937  0.683114  0.962681  1
  O  O20  1  0.917525  0.674511  0.527757  1
  O  O21  1  0.086687  0.331126  0.022185  1
