# generated using pymatgen
data_Sm2Dy4Cd23Sn
_symmetry_space_group_name_H-M   'P 1'
_cell_length_a   10.04363808
_cell_length_b   10.04363754
_cell_length_c   9.94476800
_cell_angle_alpha   60.32510602
_cell_angle_beta   60.32510780
_cell_angle_gamma   60.01272306
_symmetry_Int_Tables_number   1
_chemical_formula_structural   Sm2Dy4Cd23Sn
_chemical_formula_sum   'Sm2 Dy4 Cd23 Sn1'
_cell_volume   712.88688006
_cell_formula_units_Z   1
loop_
 _symmetry_equiv_pos_site_id
 _symmetry_equiv_pos_as_xyz
  1  'x, y, z'
loop_
 _atom_site_type_symbol
 _atom_site_label
 _atom_site_symmetry_multiplicity
 _atom_site_fract_x
 _atom_site_fract_y
 _atom_site_fract_z
 _atom_site_occupancy
  Sm  Sm0  1  0.779768  0.220232  0.781305  1
  Sm  Sm1  1  0.220232  0.779768  0.781305  1
  Dy  Dy2  1  0.781981  0.781981  0.217461  1
  Dy  Dy3  1  0.222791  0.777209  0.220244  1
  Dy  Dy4  1  0.777209  0.222791  0.220244  1
  Dy  Dy5  1  0.218019  0.218019  0.781422  1
  Cd  Cd6  1  0.843630  0.843630  0.468131  1
  Cd  Cd7  1  0.839797  0.473827  0.844485  1
  Cd  Cd8  1  0.473827  0.839797  0.844485  1
  Cd  Cd9  1  0.840169  0.840169  0.843324  1
  Cd  Cd10  1  0.159831  0.159831  0.523662  1
  Cd  Cd11  1  0.160203  0.526173  0.158109  1
  Cd  Cd12  1  0.526173  0.160203  0.158109  1
  Cd  Cd13  1  0.156370  0.156370  0.155390  1
  Cd  Cd14  1  0.624780  0.624780  0.129061  1
  Cd  Cd15  1  0.623653  0.128066  0.621954  1
  Cd  Cd16  1  0.128066  0.623653  0.621954  1
  Cd  Cd17  1  0.627625  0.627625  0.619942  1
  Cd  Cd18  1  0.372375  0.372375  0.875193  1
  Cd  Cd19  1  0.376347  0.871934  0.373673  1
  Cd  Cd20  1  0.871934  0.376347  0.373673  1
  Cd  Cd21  1  0.375220  0.375220  0.378621  1
  Cd  Cd22  1  0.000000  0.000000  0.500208  1
  Cd  Cd23  1  0.500096  0.999401  0.500600  1
  Cd  Cd24  1  0.999401  0.500096  0.500600  1
  Cd  Cd25  1  0.500000  0.500000  0.999769  1
  Cd  Cd26  1  0.000599  0.499904  0.000098  1
  Cd  Cd27  1  0.499904  0.000599  0.000098  1
  Cd  Cd28  1  0.500000  0.500000  0.502402  1
  Sn  Sn29  1  0.000000  0.000000  0.004475  1
