# generated using pymatgen
data_CaCeMgAlIr2
_symmetry_space_group_name_H-M   'P 1'
_cell_length_a   7.11681200
_cell_length_b   4.18456700
_cell_length_c   8.30943600
_cell_angle_alpha   90.00000000
_cell_angle_beta   90.00000000
_cell_angle_gamma   90.00000000
_symmetry_Int_Tables_number   1
_chemical_formula_structural   CaCeMgAlIr2
_chemical_formula_sum   'Ca2 Ce2 Mg2 Al2 Ir4'
_cell_volume   247.46145752
_cell_formula_units_Z   2
loop_
 _symmetry_equiv_pos_site_id
 _symmetry_equiv_pos_as_xyz
  1  'x, y, z'
loop_
 _atom_site_type_symbol
 _atom_site_label
 _atom_site_symmetry_multiplicity
 _atom_site_fract_x
 _atom_site_fract_y
 _atom_site_fract_z
 _atom_site_occupancy
  Ca  Ca0  1  0.966240  0.250000  0.182919  1
  Ca  Ca1  1  0.466240  0.250000  0.317081  1
  Ce  Ce2  1  0.033542  0.750000  0.823800  1
  Ce  Ce3  1  0.533542  0.750000  0.676200  1
  Mg  Mg4  1  0.140786  0.750000  0.432286  1
  Mg  Mg5  1  0.640786  0.750000  0.067714  1
  Al  Al6  1  0.864841  0.250000  0.557543  1
  Al  Al7  1  0.364841  0.250000  0.942457  1
  Ir  Ir8  1  0.732636  0.250000  0.855764  1
  Ir  Ir9  1  0.232636  0.250000  0.644236  1
  Ir  Ir10  1  0.261954  0.750000  0.092938  1
  Ir  Ir11  1  0.761954  0.750000  0.407062  1
