# generated using pymatgen
data_Y8HoErRu4
_symmetry_space_group_name_H-M   'P 1'
_cell_length_a   6.36205541
_cell_length_b   7.30455201
_cell_length_c   8.50931458
_cell_angle_alpha   96.67248904
_cell_angle_beta   111.95195285
_cell_angle_gamma   89.99999553
_symmetry_Int_Tables_number   1
_chemical_formula_structural   Y8HoErRu4
_chemical_formula_sum   'Y8 Ho1 Er1 Ru4'
_cell_volume   363.88441044
_cell_formula_units_Z   1
loop_
 _symmetry_equiv_pos_site_id
 _symmetry_equiv_pos_as_xyz
  1  'x, y, z'
loop_
 _atom_site_type_symbol
 _atom_site_label
 _atom_site_symmetry_multiplicity
 _atom_site_fract_x
 _atom_site_fract_y
 _atom_site_fract_z
 _atom_site_occupancy
  Y  Y0  1  0.977629  0.915443  0.186016  1
  Y  Y1  1  0.791614  0.584557  0.813984  1
  Y  Y2  1  0.022437  0.084249  0.813948  1
  Y  Y3  1  0.208489  0.415751  0.186052  1
  Y  Y4  1  0.640225  0.815058  0.434165  1
  Y  Y5  1  0.206060  0.684942  0.565835  1
  Y  Y6  1  0.359629  0.184838  0.565662  1
  Y  Y7  1  0.793968  0.315162  0.434338  1
  Ho  Ho8  1  0.579046  0.250000  0.000000  1
  Er  Er9  1  0.421307  0.750000  0.000000  1
  Ru  Ru10  1  0.820061  0.575116  0.218288  1
  Ru  Ru11  1  0.601773  0.924884  0.781712  1
  Ru  Ru12  1  0.179785  0.425381  0.781808  1
  Ru  Ru13  1  0.397977  0.074619  0.218192  1
