# generated using pymatgen
data_EuSc(Si7Rh3)2
_symmetry_space_group_name_H-M   'P 1'
_cell_length_a   7.96606296
_cell_length_b   7.96606353
_cell_length_c   7.96606410
_cell_angle_alpha   57.22634114
_cell_angle_beta   57.22633646
_cell_angle_gamma   57.22633324
_symmetry_Int_Tables_number   1
_chemical_formula_structural   EuSc(Si7Rh3)2
_chemical_formula_sum   'Eu1 Sc1 Si14 Rh6'
_cell_volume   334.61614742
_cell_formula_units_Z   1
loop_
 _symmetry_equiv_pos_site_id
 _symmetry_equiv_pos_as_xyz
  1  'x, y, z'
loop_
 _atom_site_type_symbol
 _atom_site_label
 _atom_site_symmetry_multiplicity
 _atom_site_fract_x
 _atom_site_fract_y
 _atom_site_fract_z
 _atom_site_occupancy
  Eu  Eu0  1  0.500000  0.500000  0.500000  1
  Sc  Sc1  1  0.000000  0.000000  0.000000  1
  Si  Si2  1  0.749291  0.749291  0.749291  1
  Si  Si3  1  0.250709  0.250709  0.250709  1
  Si  Si4  1  0.852425  0.064217  0.674096  1
  Si  Si5  1  0.674096  0.852425  0.064217  1
  Si  Si6  1  0.064217  0.674096  0.852425  1
  Si  Si7  1  0.649209  0.828193  0.432463  1
  Si  Si8  1  0.432463  0.649209  0.828193  1
  Si  Si9  1  0.828193  0.432463  0.649209  1
  Si  Si10  1  0.171807  0.567537  0.350791  1
  Si  Si11  1  0.567537  0.350791  0.171807  1
  Si  Si12  1  0.350791  0.171807  0.567537  1
  Si  Si13  1  0.935783  0.325904  0.147575  1
  Si  Si14  1  0.325904  0.147575  0.935783  1
  Si  Si15  1  0.147575  0.935783  0.325904  1
  Rh  Rh16  1  0.066479  0.426255  0.754156  1
  Rh  Rh17  1  0.245844  0.933521  0.573745  1
  Rh  Rh18  1  0.573745  0.245844  0.933521  1
  Rh  Rh19  1  0.933521  0.573745  0.245844  1
  Rh  Rh20  1  0.426255  0.754156  0.066479  1
  Rh  Rh21  1  0.754156  0.066479  0.426255  1
