# generated using pymatgen
data_Ba4Sc(IrO6)2
_symmetry_space_group_name_H-M   'P 1'
_cell_length_a   9.98173021
_cell_length_b   9.98173102
_cell_length_c   9.98173107
_cell_angle_alpha   33.82389176
_cell_angle_beta   33.82388577
_cell_angle_gamma   33.82388880
_symmetry_Int_Tables_number   1
_chemical_formula_structural   Ba4Sc(IrO6)2
_chemical_formula_sum   'Ba4 Sc1 Ir2 O12'
_cell_volume   274.60191759
_cell_formula_units_Z   1
loop_
 _symmetry_equiv_pos_site_id
 _symmetry_equiv_pos_as_xyz
  1  'x, y, z'
loop_
 _atom_site_type_symbol
 _atom_site_label
 _atom_site_symmetry_multiplicity
 _atom_site_fract_x
 _atom_site_fract_y
 _atom_site_fract_z
 _atom_site_occupancy
  Ba  Ba0  1  0.710238  0.710238  0.710238  1
  Ba  Ba1  1  0.289762  0.289762  0.289762  1
  Ba  Ba2  1  0.867822  0.867822  0.867822  1
  Ba  Ba3  1  0.132178  0.132178  0.132178  1
  Sc  Sc4  1  0.000000  0.000000  0.000000  1
  Ir  Ir5  1  0.581537  0.581537  0.581537  1
  Ir  Ir6  1  0.418463  0.418463  0.418463  1
  O  O7  1  0.215373  0.697979  0.215373  1
  O  O8  1  0.215373  0.215373  0.697979  1
  O  O9  1  0.697979  0.215373  0.215373  1
  O  O10  1  0.784627  0.302021  0.784627  1
  O  O11  1  0.784627  0.784627  0.302021  1
  O  O12  1  0.302021  0.784627  0.784627  1
  O  O13  1  0.387186  0.861103  0.387186  1
  O  O14  1  0.387186  0.387186  0.861103  1
  O  O15  1  0.861103  0.387186  0.387186  1
  O  O16  1  0.612814  0.138897  0.612814  1
  O  O17  1  0.612814  0.612814  0.138897  1
  O  O18  1  0.138897  0.612814  0.612814  1
