# generated using pymatgen
data_Nd5(In2Pd)2
_symmetry_space_group_name_H-M   'P 1'
_cell_length_a   3.78773400
_cell_length_b   8.29892400
_cell_length_c   18.76686400
_cell_angle_alpha   90.00000000
_cell_angle_beta   90.00000000
_cell_angle_gamma   90.00000000
_symmetry_Int_Tables_number   1
_chemical_formula_structural   Nd5(In2Pd)2
_chemical_formula_sum   'Nd10 In8 Pd4'
_cell_volume   589.91979116
_cell_formula_units_Z   2
loop_
 _symmetry_equiv_pos_site_id
 _symmetry_equiv_pos_as_xyz
  1  'x, y, z'
loop_
 _atom_site_type_symbol
 _atom_site_label
 _atom_site_symmetry_multiplicity
 _atom_site_fract_x
 _atom_site_fract_y
 _atom_site_fract_z
 _atom_site_occupancy
  Nd  Nd0  1  0.000000  0.500000  0.500000  1
  Nd  Nd1  1  0.000000  0.000000  0.000000  1
  Nd  Nd2  1  0.000000  0.742001  0.280853  1
  Nd  Nd3  1  0.000000  0.257999  0.719147  1
  Nd  Nd4  1  0.000000  0.757999  0.780853  1
  Nd  Nd5  1  0.000000  0.242001  0.219147  1
  Nd  Nd6  1  0.000000  0.619619  0.083017  1
  Nd  Nd7  1  0.000000  0.380381  0.916983  1
  Nd  Nd8  1  0.000000  0.880381  0.583017  1
  Nd  Nd9  1  0.000000  0.119619  0.416983  1
  In  In10  1  0.500000  0.708444  0.930413  1
  In  In11  1  0.500000  0.291556  0.069587  1
  In  In12  1  0.500000  0.791556  0.430413  1
  In  In13  1  0.500000  0.208444  0.569587  1
  In  In14  1  0.500000  0.576114  0.650915  1
  In  In15  1  0.500000  0.423886  0.349085  1
  In  In16  1  0.500000  0.923886  0.150915  1
  In  In17  1  0.500000  0.076114  0.849085  1
  Pd  Pd18  1  0.500000  0.523856  0.196162  1
  Pd  Pd19  1  0.500000  0.476144  0.803838  1
  Pd  Pd20  1  0.500000  0.976144  0.696162  1
  Pd  Pd21  1  0.500000  0.023856  0.303838  1
