# generated using pymatgen
data_MgV4NiO12
_symmetry_space_group_name_H-M   'P 1'
_cell_length_a   5.87811220
_cell_length_b   6.81499497
_cell_length_c   6.81474596
_cell_angle_alpha   96.09441236
_cell_angle_beta   74.57262258
_cell_angle_gamma   105.44028616
_symmetry_Int_Tables_number   1
_chemical_formula_structural   MgV4NiO12
_chemical_formula_sum   'Mg1 V4 Ni1 O12'
_cell_volume   253.47623383
_cell_formula_units_Z   1
loop_
 _symmetry_equiv_pos_site_id
 _symmetry_equiv_pos_as_xyz
  1  'x, y, z'
loop_
 _atom_site_type_symbol
 _atom_site_label
 _atom_site_symmetry_multiplicity
 _atom_site_fract_x
 _atom_site_fract_y
 _atom_site_fract_z
 _atom_site_occupancy
  Mg  Mg0  1  0.249940  0.914974  0.915005  1
  V  V1  1  0.253478  0.386045  0.795392  1
  V  V2  1  0.246558  0.795301  0.385991  1
  V  V3  1  0.756276  0.206379  0.612309  1
  V  V4  1  0.743740  0.612311  0.206261  1
  Ni  Ni5  1  0.750016  0.084760  0.085043  1
  O  O6  1  0.641575  0.036936  0.805176  1
  O  O7  1  0.858375  0.805252  0.036840  1
  O  O8  1  0.776357  0.090903  0.380417  1
  O  O9  1  0.723546  0.380434  0.090785  1
  O  O10  1  0.132130  0.191534  0.963010  1
  O  O11  1  0.367810  0.962974  0.191521  1
  O  O12  1  0.552595  0.370546  0.650888  1
  O  O13  1  0.947472  0.650829  0.370400  1
  O  O14  1  0.054077  0.352610  0.628945  1
  O  O15  1  0.445992  0.628883  0.352555  1
  O  O16  1  0.269266  0.615848  0.913657  1
  O  O17  1  0.230798  0.913481  0.615806  1
