# generated using pymatgen
data_Lu4Si4Ir2RuRh
_symmetry_space_group_name_H-M   'P 1'
_cell_length_a   4.22149100
_cell_length_b   6.76615509
_cell_length_c   7.28481690
_cell_angle_alpha   90.04192748
_cell_angle_beta   90.00000000
_cell_angle_gamma   90.00000000
_symmetry_Int_Tables_number   1
_chemical_formula_structural   Lu4Si4Ir2RuRh
_chemical_formula_sum   'Lu4 Si4 Ir2 Ru1 Rh1'
_cell_volume   208.07808385
_cell_formula_units_Z   1
loop_
 _symmetry_equiv_pos_site_id
 _symmetry_equiv_pos_as_xyz
  1  'x, y, z'
loop_
 _atom_site_type_symbol
 _atom_site_label
 _atom_site_symmetry_multiplicity
 _atom_site_fract_x
 _atom_site_fract_y
 _atom_site_fract_z
 _atom_site_occupancy
  Lu  Lu0  1  0.750000  0.497919  0.810238  1
  Lu  Lu1  1  0.250000  0.999534  0.312269  1
  Lu  Lu2  1  0.750000  0.000419  0.688635  1
  Lu  Lu3  1  0.250000  0.502283  0.188014  1
  Si  Si4  1  0.250000  0.704465  0.616077  1
  Si  Si5  1  0.250000  0.203929  0.890431  1
  Si  Si6  1  0.750000  0.294457  0.388220  1
  Si  Si7  1  0.750000  0.796589  0.104212  1
  Ir  Ir8  1  0.250000  0.339492  0.564412  1
  Ir  Ir9  1  0.750000  0.159903  0.065641  1
  Ru  Ru10  1  0.250000  0.844850  0.937165  1
  Rh  Rh11  1  0.750000  0.656158  0.434683  1
