# generated using pymatgen
data_LiLa4Zn9SiGe
_symmetry_space_group_name_H-M   'P 1'
_cell_length_a   8.52334259
_cell_length_b   8.52334153
_cell_length_c   8.97679200
_cell_angle_alpha   90.00000000
_cell_angle_beta   90.00000000
_cell_angle_gamma   149.21054358
_symmetry_Int_Tables_number   1
_chemical_formula_structural   LiLa4Zn9SiGe
_chemical_formula_sum   'Li1 La4 Zn9 Si1 Ge1'
_cell_volume   333.82066938
_cell_formula_units_Z   1
loop_
 _symmetry_equiv_pos_site_id
 _symmetry_equiv_pos_as_xyz
  1  'x, y, z'
loop_
 _atom_site_type_symbol
 _atom_site_label
 _atom_site_symmetry_multiplicity
 _atom_site_fract_x
 _atom_site_fract_y
 _atom_site_fract_z
 _atom_site_occupancy
  Li  Li0  1  0.597359  0.402641  0.750000  1
  La  La1  1  0.203922  0.796078  0.250000  1
  La  La2  1  0.794306  0.205694  0.750000  1
  La  La3  1  0.999484  0.000516  0.494495  1
  La  La4  1  0.999484  0.000516  0.005505  1
  Zn  Zn5  1  0.814871  0.185129  0.391529  1
  Zn  Zn6  1  0.184937  0.815063  0.604473  1
  Zn  Zn7  1  0.814871  0.185129  0.108471  1
  Zn  Zn8  1  0.184937  0.815063  0.895527  1
  Zn  Zn9  1  0.650253  0.349747  0.476960  1
  Zn  Zn10  1  0.348651  0.651349  0.517861  1
  Zn  Zn11  1  0.650253  0.349747  0.023040  1
  Zn  Zn12  1  0.348651  0.651349  0.982139  1
  Zn  Zn13  1  0.407909  0.592091  0.250000  1
  Si  Si14  1  0.559481  0.440519  0.250000  1
  Ge  Ge15  1  0.440631  0.559369  0.750000  1
