# generated using pymatgen
data_TbHo2Ni2Rh7
_symmetry_space_group_name_H-M   'P 1'
_cell_length_a   5.25302076
_cell_length_b   5.25301932
_cell_length_c   8.98788922
_cell_angle_alpha   73.00863082
_cell_angle_beta   73.00863578
_cell_angle_gamma   59.99999987
_symmetry_Int_Tables_number   1
_chemical_formula_structural   TbHo2Ni2Rh7
_chemical_formula_sum   'Tb1 Ho2 Ni2 Rh7'
_cell_volume   202.18874790
_cell_formula_units_Z   1
loop_
 _symmetry_equiv_pos_site_id
 _symmetry_equiv_pos_as_xyz
  1  'x, y, z'
loop_
 _atom_site_type_symbol
 _atom_site_label
 _atom_site_symmetry_multiplicity
 _atom_site_fract_x
 _atom_site_fract_y
 _atom_site_fract_z
 _atom_site_occupancy
  Tb  Tb0  1  0.000000  0.000000  0.000000  1
  Ho  Ho1  1  0.139502  0.139502  0.581493  1
  Ho  Ho2  1  0.860498  0.860498  0.418507  1
  Ni  Ni3  1  0.333369  0.333369  0.999890  1
  Ni  Ni4  1  0.666631  0.666631  0.000110  1
  Rh  Rh5  1  0.078020  0.581146  0.759687  1
  Rh  Rh6  1  0.581146  0.581146  0.759687  1
  Rh  Rh7  1  0.581146  0.078020  0.759687  1
  Rh  Rh8  1  0.921980  0.418854  0.240313  1
  Rh  Rh9  1  0.418854  0.418854  0.240313  1
  Rh  Rh10  1  0.418854  0.921980  0.240313  1
  Rh  Rh11  1  0.500000  0.500000  0.500000  1
