# generated using pymatgen
data_Tb8Sb(Pd5Pt)4
_symmetry_space_group_name_H-M   'P 1'
_cell_length_a   8.42638108
_cell_length_b   8.42612700
_cell_length_c   8.43796008
_cell_angle_alpha   90.00000000
_cell_angle_beta   90.01613791
_cell_angle_gamma   90.00000000
_symmetry_Int_Tables_number   1
_chemical_formula_structural   Tb8Sb(Pd5Pt)4
_chemical_formula_sum   'Tb8 Sb1 Pd20 Pt4'
_cell_volume   599.10996903
_cell_formula_units_Z   1
loop_
 _symmetry_equiv_pos_site_id
 _symmetry_equiv_pos_as_xyz
  1  'x, y, z'
loop_
 _atom_site_type_symbol
 _atom_site_label
 _atom_site_symmetry_multiplicity
 _atom_site_fract_x
 _atom_site_fract_y
 _atom_site_fract_z
 _atom_site_occupancy
  Tb  Tb0  1  0.747040  0.746878  0.253227  1
  Tb  Tb1  1  0.746622  0.253495  0.746725  1
  Tb  Tb2  1  0.253382  0.745780  0.746099  1
  Tb  Tb3  1  0.746622  0.746505  0.746725  1
  Tb  Tb4  1  0.747040  0.253122  0.253227  1
  Tb  Tb5  1  0.253382  0.254220  0.746099  1
  Tb  Tb6  1  0.252978  0.746119  0.253925  1
  Tb  Tb7  1  0.252978  0.253881  0.253925  1
  Sb  Sb8  1  0.999816  0.000000  0.999896  1
  Pd  Pd9  1  0.000195  0.000000  0.306505  1
  Pd  Pd10  1  0.499933  0.000000  0.735378  1
  Pd  Pd11  1  0.000071  0.735472  0.499886  1
  Pd  Pd12  1  0.499921  0.000000  0.264733  1
  Pd  Pd13  1  0.000071  0.264528  0.499886  1
  Pd  Pd14  1  0.499902  0.735588  0.000009  1
  Pd  Pd15  1  0.499926  0.500000  0.254056  1
  Pd  Pd16  1  0.499982  0.254026  0.499976  1
  Pd  Pd17  1  0.499982  0.745974  0.499976  1
  Pd  Pd18  1  0.745933  0.500000  0.500033  1
  Pd  Pd19  1  0.307448  0.000000  0.000087  1
  Pd  Pd20  1  0.000091  0.000000  0.693241  1
  Pd  Pd21  1  0.000110  0.500000  0.264885  1
  Pd  Pd22  1  0.000140  0.306767  0.000098  1
  Pd  Pd23  1  0.000140  0.693233  0.000098  1
  Pd  Pd24  1  0.692797  0.000000  0.000127  1
  Pd  Pd25  1  0.264253  0.500000  0.999982  1
  Pd  Pd26  1  0.264133  0.000000  0.499883  1
  Pd  Pd27  1  0.000082  0.500000  0.735285  1
  Pd  Pd28  1  0.499902  0.264412  0.000009  1
  Pt  Pt29  1  0.735660  0.000000  0.499915  1
  Pt  Pt30  1  0.735457  0.500000  0.999845  1
  Pt  Pt31  1  0.254111  0.500000  0.500082  1
  Pt  Pt32  1  0.499898  0.500000  0.746174  1
