# generated using pymatgen
data_TbHo9Cd3In5(PtAu)2
_symmetry_space_group_name_H-M   'P 1'
_cell_length_a   3.64812100
_cell_length_b   8.17532593
_cell_length_c   18.35103400
_cell_angle_alpha   90.06292124
_cell_angle_beta   90.00000000
_cell_angle_gamma   90.00000000
_symmetry_Int_Tables_number   1
_chemical_formula_structural   TbHo9Cd3In5(PtAu)2
_chemical_formula_sum   'Tb1 Ho9 Cd3 In5 Pt2 Au2'
_cell_volume   547.31151867
_cell_formula_units_Z   1
loop_
 _symmetry_equiv_pos_site_id
 _symmetry_equiv_pos_as_xyz
  1  'x, y, z'
loop_
 _atom_site_type_symbol
 _atom_site_label
 _atom_site_symmetry_multiplicity
 _atom_site_fract_x
 _atom_site_fract_y
 _atom_site_fract_z
 _atom_site_occupancy
  Tb  Tb0  1  0.000000  0.000123  0.000026  1
  Ho  Ho1  1  0.000000  0.118607  0.418612  1
  Ho  Ho2  1  0.000000  0.881723  0.581842  1
  Ho  Ho3  1  0.000000  0.383634  0.914992  1
  Ho  Ho4  1  0.000000  0.615488  0.084906  1
  Ho  Ho5  1  0.000000  0.256224  0.217100  1
  Ho  Ho6  1  0.000000  0.745067  0.782762  1
  Ho  Ho7  1  0.000000  0.269934  0.720661  1
  Ho  Ho8  1  0.000000  0.728787  0.279904  1
  Ho  Ho9  1  0.000000  0.499887  0.499845  1
  Cd  Cd10  1  0.500000  0.422604  0.352729  1
  Cd  Cd11  1  0.500000  0.577319  0.647260  1
  Cd  Cd12  1  0.500000  0.077953  0.852397  1
  In  In13  1  0.500000  0.921373  0.147912  1
  In  In14  1  0.500000  0.292506  0.065124  1
  In  In15  1  0.500000  0.709123  0.933867  1
  In  In16  1  0.500000  0.211626  0.566994  1
  In  In17  1  0.500000  0.788491  0.432997  1
  Pt  Pt18  1  0.500000  0.472430  0.804281  1
  Pt  Pt19  1  0.500000  0.527384  0.195719  1
  Au  Au20  1  0.500000  0.028164  0.301784  1
  Au  Au21  1  0.500000  0.971555  0.698286  1
