# generated using pymatgen
data_Er7TmSbPd24
_symmetry_space_group_name_H-M   'P 1'
_cell_length_a   8.36951211
_cell_length_b   8.36951222
_cell_length_c   8.36951300
_cell_angle_alpha   89.95061459
_cell_angle_beta   89.95061459
_cell_angle_gamma   90.04939075
_symmetry_Int_Tables_number   1
_chemical_formula_structural   Er7TmSbPd24
_chemical_formula_sum   'Er7 Tm1 Sb1 Pd24'
_cell_volume   586.27313529
_cell_formula_units_Z   1
loop_
 _symmetry_equiv_pos_site_id
 _symmetry_equiv_pos_as_xyz
  1  'x, y, z'
loop_
 _atom_site_type_symbol
 _atom_site_label
 _atom_site_symmetry_multiplicity
 _atom_site_fract_x
 _atom_site_fract_y
 _atom_site_fract_z
 _atom_site_occupancy
  Er  Er0  1  0.745336  0.254667  0.745333  1
  Er  Er1  1  0.254667  0.745336  0.745333  1
  Er  Er2  1  0.745344  0.745344  0.745285  1
  Er  Er3  1  0.745344  0.254715  0.254656  1
  Er  Er4  1  0.254645  0.254645  0.745355  1
  Er  Er5  1  0.254715  0.745344  0.254656  1
  Er  Er6  1  0.254667  0.254667  0.254664  1
  Tm  Tm7  1  0.745473  0.745473  0.254527  1
  Sb  Sb8  1  0.999876  0.999876  0.000124  1
  Pd  Pd9  1  0.999960  0.999960  0.304585  1
  Pd  Pd10  1  0.736114  0.000026  0.499788  1
  Pd  Pd11  1  0.736114  0.500212  0.999974  1
  Pd  Pd12  1  0.499895  0.999947  0.736044  1
  Pd  Pd13  1  0.000026  0.736114  0.499788  1
  Pd  Pd14  1  0.500212  0.000026  0.263886  1
  Pd  Pd15  1  0.999947  0.263956  0.500105  1
  Pd  Pd16  1  0.500212  0.736114  0.999974  1
  Pd  Pd17  1  0.254220  0.499971  0.500029  1
  Pd  Pd18  1  0.499971  0.499971  0.745780  1
  Pd  Pd19  1  0.500146  0.500146  0.254237  1
  Pd  Pd20  1  0.499971  0.254220  0.500029  1
  Pd  Pd21  1  0.500146  0.745763  0.499854  1
  Pd  Pd22  1  0.745763  0.500146  0.499854  1
  Pd  Pd23  1  0.304235  0.999924  0.000076  1
  Pd  Pd24  1  0.999924  0.999924  0.695765  1
  Pd  Pd25  1  0.000026  0.500212  0.263886  1
  Pd  Pd26  1  0.999924  0.304235  0.000076  1
  Pd  Pd27  1  0.999960  0.695415  0.000040  1
  Pd  Pd28  1  0.695415  0.999960  0.000040  1
  Pd  Pd29  1  0.263956  0.499895  0.000053  1
  Pd  Pd30  1  0.263956  0.999947  0.500105  1
  Pd  Pd31  1  0.999947  0.499895  0.736044  1
  Pd  Pd32  1  0.499895  0.263956  0.000053  1
