# generated using pymatgen
data_Lu5Sc7Pb10
_symmetry_space_group_name_H-M   'P 1'
_cell_length_a   6.33125580
_cell_length_b   9.18049461
_cell_length_c   11.30164842
_cell_angle_alpha   113.99094985
_cell_angle_beta   106.26636262
_cell_angle_gamma   90.00000354
_symmetry_Int_Tables_number   1
_chemical_formula_structural   Lu5Sc7Pb10
_chemical_formula_sum   'Lu5 Sc7 Pb10'
_cell_volume   571.24605062
_cell_formula_units_Z   1
loop_
 _symmetry_equiv_pos_site_id
 _symmetry_equiv_pos_as_xyz
  1  'x, y, z'
loop_
 _atom_site_type_symbol
 _atom_site_label
 _atom_site_symmetry_multiplicity
 _atom_site_fract_x
 _atom_site_fract_y
 _atom_site_fract_z
 _atom_site_occupancy
  Lu  Lu0  1  0.061575  0.800322  0.123149  1
  Lu  Lu1  1  0.143114  0.255127  0.286227  1
  Lu  Lu2  1  0.857798  0.744001  0.715596  1
  Lu  Lu3  1  0.642106  0.028796  0.284213  1
  Lu  Lu4  1  0.358233  0.972442  0.716465  1
  Sc  Sc5  1  0.556563  0.306342  0.612870  1
  Sc  Sc6  1  0.442860  0.691577  0.386122  1
  Sc  Sc7  1  0.943262  0.691577  0.386122  1
  Sc  Sc8  1  0.056309  0.306342  0.612870  1
  Sc  Sc9  1  0.438674  0.678414  0.877348  1
  Sc  Sc10  1  0.561621  0.324358  0.123241  1
  Sc  Sc11  1  0.938201  0.200679  0.876402  1
  Pb  Pb12  1  0.291790  0.593305  0.583580  1
  Pb  Pb13  1  0.708383  0.406995  0.416765  1
  Pb  Pb14  1  0.791615  0.989503  0.583231  1
  Pb  Pb15  1  0.211302  0.011609  0.422604  1
  Pb  Pb16  1  0.250426  0.002579  0.997977  1
  Pb  Pb17  1  0.747551  0.002579  0.997977  1
  Pb  Pb18  1  0.072402  0.472302  0.144805  1
  Pb  Pb19  1  0.925758  0.519117  0.851515  1
  Pb  Pb20  1  0.572250  0.667911  0.144502  1
  Pb  Pb21  1  0.428209  0.334127  0.856418  1
