# generated using pymatgen
data_Ba2V2ZnCu7(P4O17)2
_symmetry_space_group_name_H-M   'P 1'
_cell_length_a   9.73455600
_cell_length_b   9.73455600
_cell_length_c   7.34686600
_cell_angle_alpha   90.00000000
_cell_angle_beta   90.00000000
_cell_angle_gamma   90.00000000
_symmetry_Int_Tables_number   1
_chemical_formula_structural   Ba2V2ZnCu7(P4O17)2
_chemical_formula_sum   'Ba2 V2 Zn1 Cu7 P8 O34'
_cell_volume   696.20063401
_cell_formula_units_Z   1
loop_
 _symmetry_equiv_pos_site_id
 _symmetry_equiv_pos_as_xyz
  1  'x, y, z'
loop_
 _atom_site_type_symbol
 _atom_site_label
 _atom_site_symmetry_multiplicity
 _atom_site_fract_x
 _atom_site_fract_y
 _atom_site_fract_z
 _atom_site_occupancy
  Ba  Ba0  1  0.004680  0.000103  0.999708  1
  Ba  Ba1  1  0.499121  0.501359  0.001069  1
  V  V2  1  0.005326  0.498886  0.970992  1
  V  V3  1  0.499636  0.000036  0.028519  1
  Zn  Zn4  1  0.204806  0.487337  0.364768  1
  Cu  Cu5  1  0.486534  0.235467  0.597223  1
  Cu  Cu6  1  0.012657  0.742177  0.408921  1
  Cu  Cu7  1  0.764183  0.513931  0.409942  1
  Cu  Cu8  1  0.733279  0.013368  0.602137  1
  Cu  Cu9  1  0.983679  0.258910  0.409754  1
  Cu  Cu10  1  0.513934  0.764749  0.594810  1
  Cu  Cu11  1  0.269650  0.986811  0.594225  1
  P  P12  1  0.219539  0.691392  0.729621  1
  P  P13  1  0.809103  0.718731  0.738940  1
  P  P14  1  0.719971  0.810674  0.267733  1
  P  P15  1  0.190756  0.280237  0.731095  1
  P  P16  1  0.781157  0.308927  0.740262  1
  P  P17  1  0.279778  0.188385  0.261692  1
  P  P18  1  0.689492  0.219646  0.268901  1
  P  P19  1  0.309896  0.781757  0.261338  1
  O  O20  1  0.023034  0.498758  0.201504  1
  O  O21  1  0.876584  0.840852  0.270395  1
  O  O22  1  0.894089  0.661133  0.898863  1
  O  O23  1  0.316665  0.341192  0.238290  1
  O  O24  1  0.843106  0.180426  0.249787  1
  O  O25  1  0.838844  0.393227  0.900940  1
  O  O26  1  0.683352  0.655985  0.251424  1
  O  O27  1  0.503306  0.002067  0.801055  1
  O  O28  1  0.654873  0.681051  0.755322  1
  O  O29  1  0.819479  0.154806  0.756754  1
  O  O30  1  0.662779  0.893551  0.106843  1
  O  O31  1  0.106734  0.334617  0.894367  1
  O  O32  1  0.344171  0.320664  0.748064  1
  O  O33  1  0.185427  0.846160  0.752003  1
  O  O34  1  0.624141  0.336731  0.737842  1
  O  O35  1  0.332233  0.100752  0.101744  1
  O  O36  1  0.122617  0.159453  0.271145  1
  O  O37  1  0.837391  0.875793  0.736891  1
  O  O38  1  0.863519  0.654102  0.554260  1
  O  O39  1  0.349129  0.136450  0.445234  1
  O  O40  1  0.335451  0.625371  0.264288  1
  O  O41  1  0.846498  0.363684  0.556064  1
  O  O42  1  0.653913  0.864762  0.451953  1
  O  O43  1  0.164876  0.605814  0.891268  1
  O  O44  1  0.165418  0.122693  0.729744  1
  O  O45  1  0.376121  0.660564  0.724873  1
  O  O46  1  0.155874  0.822184  0.247561  1
  O  O47  1  0.366945  0.847970  0.444337  1
  O  O48  1  0.393841  0.836210  0.099032  1
  O  O49  1  0.662424  0.377064  0.272936  1
  O  O50  1  0.636358  0.153585  0.453569  1
  O  O51  1  0.131861  0.344908  0.550693  1
  O  O52  1  0.603166  0.164695  0.109559  1
  O  O53  1  0.148601  0.639842  0.549744  1
