# generated using pymatgen
data_Tb3CeHo4(B6Os)4
_symmetry_space_group_name_H-M   'P 1'
_cell_length_a   3.66922600
_cell_length_b   9.17261659
_cell_length_c   11.54819800
_cell_angle_alpha   90.04901602
_cell_angle_beta   90.00000000
_cell_angle_gamma   90.00000000
_symmetry_Int_Tables_number   1
_chemical_formula_structural   Tb3CeHo4(B6Os)4
_chemical_formula_sum   'Tb3 Ce1 Ho4 B24 Os4'
_cell_volume   388.67066678
_cell_formula_units_Z   1
loop_
 _symmetry_equiv_pos_site_id
 _symmetry_equiv_pos_as_xyz
  1  'x, y, z'
loop_
 _atom_site_type_symbol
 _atom_site_label
 _atom_site_symmetry_multiplicity
 _atom_site_fract_x
 _atom_site_fract_y
 _atom_site_fract_z
 _atom_site_occupancy
  Tb  Tb0  1  0.000000  0.679017  0.587077  1
  Tb  Tb1  1  0.000000  0.821827  0.085658  1
  Tb  Tb2  1  0.000000  0.177848  0.913645  1
  Ce  Ce3  1  0.000000  0.322684  0.413524  1
  Ho  Ho4  1  0.000000  0.943708  0.373563  1
  Ho  Ho5  1  0.000000  0.054716  0.627007  1
  Ho  Ho6  1  0.000000  0.444458  0.125812  1
  Ho  Ho7  1  0.000000  0.556155  0.874004  1
  B  B8  1  0.500000  0.554755  0.431937  1
  B  B9  1  0.500000  0.445981  0.568186  1
  B  B10  1  0.500000  0.054036  0.067399  1
  B  B11  1  0.500000  0.945693  0.932645  1
  B  B12  1  0.500000  0.748894  0.419627  1
  B  B13  1  0.500000  0.251725  0.581127  1
  B  B14  1  0.500000  0.248097  0.079608  1
  B  B15  1  0.500000  0.751924  0.919818  1
  B  B16  1  0.500000  0.791288  0.266474  1
  B  B17  1  0.500000  0.208737  0.734209  1
  B  B18  1  0.500000  0.290799  0.232416  1
  B  B19  1  0.500000  0.708953  0.767150  1
  B  B20  1  0.500000  0.632357  0.184667  1
  B  B21  1  0.500000  0.368122  0.815004  1
  B  B22  1  0.500000  0.131328  0.314025  1
  B  B23  1  0.500000  0.868015  0.685617  1
  B  B24  1  0.500000  0.983086  0.212935  1
  B  B25  1  0.500000  0.016168  0.786745  1
  B  B26  1  0.500000  0.484799  0.285972  1
  B  B27  1  0.500000  0.516252  0.714215  1
  B  B28  1  0.500000  0.609145  0.029942  1
  B  B29  1  0.500000  0.390935  0.969766  1
  B  B30  1  0.500000  0.107186  0.470406  1
  B  B31  1  0.500000  0.891060  0.529972  1
  Os  Os32  1  0.000000  0.638087  0.320958  1
  Os  Os33  1  0.000000  0.361887  0.678271  1
  Os  Os34  1  0.000000  0.138162  0.179549  1
  Os  Os35  1  0.000000  0.862115  0.821068  1
