# generated using pymatgen
data_La4Tc6O19
_symmetry_space_group_name_H-M   'P 1'
_cell_length_a   7.88210502
_cell_length_b   7.88210510
_cell_length_c   7.88210500
_cell_angle_alpha   109.47121781
_cell_angle_beta   109.47121801
_cell_angle_gamma   109.47122305
_symmetry_Int_Tables_number   1
_chemical_formula_structural   La4Tc6O19
_chemical_formula_sum   'La4 Tc6 O19'
_cell_volume   376.96825555
_cell_formula_units_Z   1
loop_
 _symmetry_equiv_pos_site_id
 _symmetry_equiv_pos_as_xyz
  1  'x, y, z'
loop_
 _atom_site_type_symbol
 _atom_site_label
 _atom_site_symmetry_multiplicity
 _atom_site_fract_x
 _atom_site_fract_y
 _atom_site_fract_z
 _atom_site_occupancy
  La  La0  1  0.000000  0.000000  0.317533  1
  La  La1  1  0.000000  0.317533  0.000000  1
  La  La2  1  0.682467  0.682467  0.682467  1
  La  La3  1  0.317533  0.000000  0.000000  1
  Tc  Tc4  1  0.367191  0.500000  0.867191  1
  Tc  Tc5  1  0.867191  0.367191  0.500000  1
  Tc  Tc6  1  0.500000  0.132809  0.632809  1
  Tc  Tc7  1  0.132809  0.632809  0.500000  1
  Tc  Tc8  1  0.500000  0.867191  0.367191  1
  Tc  Tc9  1  0.632809  0.500000  0.132809  1
  O  O10  1  0.322802  0.000000  0.322802  1
  O  O11  1  0.322802  0.322802  0.000000  1
  O  O12  1  0.000000  0.677198  0.677198  1
  O  O13  1  0.677198  0.677198  0.000000  1
  O  O14  1  0.000000  0.322802  0.322802  1
  O  O15  1  0.677198  0.000000  0.677198  1
  O  O16  1  0.000000  0.000000  0.000000  1
  O  O17  1  0.359647  0.300050  0.627340  1
  O  O18  1  0.059598  0.327290  0.699950  1
  O  O19  1  0.732307  0.372660  0.672710  1
  O  O20  1  0.372660  0.672710  0.732307  1
  O  O21  1  0.267693  0.940402  0.640353  1
  O  O22  1  0.627340  0.359647  0.300050  1
  O  O23  1  0.300050  0.627340  0.359647  1
  O  O24  1  0.699950  0.059598  0.327290  1
  O  O25  1  0.940402  0.640353  0.267693  1
  O  O26  1  0.672710  0.732307  0.372660  1
  O  O27  1  0.640353  0.267693  0.940402  1
  O  O28  1  0.327290  0.699950  0.059598  1
