# generated using pymatgen
data_Th2Co2GeAs3Ir2
_symmetry_space_group_name_H-M   'P 1'
_cell_length_a   4.23254300
_cell_length_b   4.23254300
_cell_length_c   9.69074000
_cell_angle_alpha   90.00000000
_cell_angle_beta   90.00000000
_cell_angle_gamma   90.00000000
_symmetry_Int_Tables_number   1
_chemical_formula_structural   Th2Co2GeAs3Ir2
_chemical_formula_sum   'Th2 Co2 Ge1 As3 Ir2'
_cell_volume   173.60398886
_cell_formula_units_Z   1
loop_
 _symmetry_equiv_pos_site_id
 _symmetry_equiv_pos_as_xyz
  1  'x, y, z'
loop_
 _atom_site_type_symbol
 _atom_site_label
 _atom_site_symmetry_multiplicity
 _atom_site_fract_x
 _atom_site_fract_y
 _atom_site_fract_z
 _atom_site_occupancy
  Th  Th0  1  0.000000  0.500000  0.257004  1
  Th  Th1  1  0.500000  0.000000  0.744207  1
  Co  Co2  1  0.000000  0.500000  0.607225  1
  Co  Co3  1  0.500000  0.000000  0.390153  1
  Ge  Ge4  1  0.000000  0.500000  0.850293  1
  As  As5  1  0.000000  0.000000  0.499937  1
  As  As6  1  0.500000  0.500000  0.499937  1
  As  As7  1  0.500000  0.000000  0.150529  1
  Ir  Ir8  1  0.000000  0.000000  0.000357  1
  Ir  Ir9  1  0.500000  0.500000  0.000357  1
