# generated using pymatgen
data_ErSc5Tc2
_symmetry_space_group_name_H-M   'P 1'
_cell_length_a   5.83592200
_cell_length_b   8.58023800
_cell_length_c   14.14752000
_cell_angle_alpha   90.00000000
_cell_angle_beta   90.00000000
_cell_angle_gamma   90.00000000
_symmetry_Int_Tables_number   1
_chemical_formula_structural   ErSc5Tc2
_chemical_formula_sum   'Er4 Sc20 Tc8'
_cell_volume   708.41725336
_cell_formula_units_Z   4
loop_
 _symmetry_equiv_pos_site_id
 _symmetry_equiv_pos_as_xyz
  1  'x, y, z'
loop_
 _atom_site_type_symbol
 _atom_site_label
 _atom_site_symmetry_multiplicity
 _atom_site_fract_x
 _atom_site_fract_y
 _atom_site_fract_z
 _atom_site_occupancy
  Er  Er0  1  0.527557  0.750000  0.355079  1
  Er  Er1  1  0.027557  0.250000  0.144921  1
  Er  Er2  1  0.472443  0.250000  0.644921  1
  Er  Er3  1  0.972443  0.750000  0.855079  1
  Sc  Sc4  1  0.789573  0.750000  0.112144  1
  Sc  Sc5  1  0.289573  0.250000  0.387856  1
  Sc  Sc6  1  0.210427  0.250000  0.887856  1
  Sc  Sc7  1  0.710427  0.750000  0.612144  1
  Sc  Sc8  1  0.443392  0.936606  0.791822  1
  Sc  Sc9  1  0.943392  0.063394  0.708178  1
  Sc  Sc10  1  0.556608  0.436606  0.208178  1
  Sc  Sc11  1  0.056608  0.563394  0.291822  1
  Sc  Sc12  1  0.556608  0.063394  0.208178  1
  Sc  Sc13  1  0.056608  0.936606  0.291822  1
  Sc  Sc14  1  0.443392  0.563394  0.791822  1
  Sc  Sc15  1  0.943392  0.436606  0.708178  1
  Sc  Sc16  1  0.242828  0.939145  0.534091  1
  Sc  Sc17  1  0.742828  0.060855  0.965909  1
  Sc  Sc18  1  0.757172  0.439145  0.465909  1
  Sc  Sc19  1  0.257172  0.560855  0.034091  1
  Sc  Sc20  1  0.757172  0.060855  0.465909  1
  Sc  Sc21  1  0.257172  0.939145  0.034091  1
  Sc  Sc22  1  0.242828  0.560855  0.534091  1
  Sc  Sc23  1  0.742828  0.439145  0.965909  1
  Tc  Tc24  1  0.935810  0.750000  0.445811  1
  Tc  Tc25  1  0.435810  0.250000  0.054189  1
  Tc  Tc26  1  0.064190  0.250000  0.554189  1
  Tc  Tc27  1  0.564190  0.750000  0.945811  1
  Tc  Tc28  1  0.342150  0.750000  0.178930  1
  Tc  Tc29  1  0.842150  0.250000  0.321070  1
  Tc  Tc30  1  0.657850  0.250000  0.821070  1
  Tc  Tc31  1  0.157850  0.750000  0.678930  1
