# generated using pymatgen
data_TaBeNb3Co4As3
_symmetry_space_group_name_H-M   'P 1'
_cell_length_a   3.67015400
_cell_length_b   6.23469155
_cell_length_c   7.12589842
_cell_angle_alpha   89.99565862
_cell_angle_beta   90.00000000
_cell_angle_gamma   90.00000000
_symmetry_Int_Tables_number   1
_chemical_formula_structural   TaBeNb3Co4As3
_chemical_formula_sum   'Ta1 Be1 Nb3 Co4 As3'
_cell_volume   163.05678911
_cell_formula_units_Z   1
loop_
 _symmetry_equiv_pos_site_id
 _symmetry_equiv_pos_as_xyz
  1  'x, y, z'
loop_
 _atom_site_type_symbol
 _atom_site_label
 _atom_site_symmetry_multiplicity
 _atom_site_fract_x
 _atom_site_fract_y
 _atom_site_fract_z
 _atom_site_occupancy
  Ta  Ta0  1  0.750000  0.962047  0.692463  1
  Be  Be1  1  0.250000  0.774495  0.881503  1
  Nb  Nb2  1  0.250000  0.534522  0.166894  1
  Nb  Nb3  1  0.750000  0.494273  0.827516  1
  Nb  Nb4  1  0.250000  0.023071  0.320274  1
  Co  Co5  1  0.250000  0.652042  0.571930  1
  Co  Co6  1  0.750000  0.352151  0.437999  1
  Co  Co7  1  0.750000  0.854091  0.048729  1
  Co  Co8  1  0.250000  0.130952  0.933772  1
  As  As9  1  0.750000  0.226199  0.117112  1
  As  As10  1  0.750000  0.725019  0.377286  1
  As  As11  1  0.250000  0.271138  0.624523  1
