# generated using pymatgen
data_CeAl10TcIr
_symmetry_space_group_name_H-M   'P 1'
_cell_length_a   6.89952464
_cell_length_b   6.89952364
_cell_length_c   9.19809936
_cell_angle_alpha   89.88930393
_cell_angle_beta   90.11069799
_cell_angle_gamma   97.19553448
_symmetry_Int_Tables_number   1
_chemical_formula_structural   CeAl10TcIr
_chemical_formula_sum   'Ce2 Al20 Tc2 Ir2'
_cell_volume   434.41127906
_cell_formula_units_Z   2
loop_
 _symmetry_equiv_pos_site_id
 _symmetry_equiv_pos_as_xyz
  1  'x, y, z'
loop_
 _atom_site_type_symbol
 _atom_site_label
 _atom_site_symmetry_multiplicity
 _atom_site_fract_x
 _atom_site_fract_y
 _atom_site_fract_z
 _atom_site_occupancy
  Ce  Ce0  1  0.874362  0.125638  0.748804  1
  Ce  Ce1  1  0.125638  0.874362  0.251196  1
  Al  Al2  1  0.589964  0.858622  0.251041  1
  Al  Al3  1  0.778484  0.519193  0.251757  1
  Al  Al4  1  0.159405  0.840595  0.895624  1
  Al  Al5  1  0.410036  0.141378  0.748959  1
  Al  Al6  1  0.621227  0.378773  0.948234  1
  Al  Al7  1  0.840471  0.159529  0.398530  1
  Al  Al8  1  0.777701  0.777701  0.000000  1
  Al  Al9  1  0.858622  0.589964  0.748959  1
  Al  Al10  1  0.840595  0.159405  0.104376  1
  Al  Al11  1  0.221516  0.480807  0.748243  1
  Al  Al12  1  0.159529  0.840471  0.601470  1
  Al  Al13  1  0.776811  0.776811  0.500000  1
  Al  Al14  1  0.480807  0.221516  0.251757  1
  Al  Al15  1  0.623215  0.376785  0.548602  1
  Al  Al16  1  0.223189  0.223189  0.500000  1
  Al  Al17  1  0.376785  0.623215  0.451398  1
  Al  Al18  1  0.141378  0.410036  0.251041  1
  Al  Al19  1  0.519193  0.778484  0.748243  1
  Al  Al20  1  0.378773  0.621227  0.051766  1
  Al  Al21  1  0.222299  0.222299  0.000000  1
  Tc  Tc22  1  0.500000  0.000000  0.500000  1
  Tc  Tc23  1  0.000000  0.500000  0.500000  1
  Ir  Ir24  1  0.500000  0.000000  0.000000  1
  Ir  Ir25  1  0.000000  0.500000  0.000000  1
