# generated using pymatgen
data_Tb3In3Ir2Au
_symmetry_space_group_name_H-M   'P 1'
_cell_length_a   7.73239100
_cell_length_b   7.73239258
_cell_length_c   3.89259500
_cell_angle_alpha   90.00000000
_cell_angle_beta   90.00000000
_cell_angle_gamma   120.00000606
_symmetry_Int_Tables_number   1
_chemical_formula_structural   Tb3In3Ir2Au
_chemical_formula_sum   'Tb3 In3 Ir2 Au1'
_cell_volume   201.55683396
_cell_formula_units_Z   1
loop_
 _symmetry_equiv_pos_site_id
 _symmetry_equiv_pos_as_xyz
  1  'x, y, z'
loop_
 _atom_site_type_symbol
 _atom_site_label
 _atom_site_symmetry_multiplicity
 _atom_site_fract_x
 _atom_site_fract_y
 _atom_site_fract_z
 _atom_site_occupancy
  Tb  Tb0  1  0.412772  0.390721  0.000000  1
  Tb  Tb1  1  0.609279  0.022051  0.000000  1
  Tb  Tb2  1  0.977949  0.587228  0.000000  1
  In  In3  1  0.000371  0.256643  0.500000  1
  In  In4  1  0.743357  0.743728  0.500000  1
  In  In5  1  0.256272  0.999629  0.500000  1
  Ir  Ir6  1  0.000000  0.000000  0.000000  1
  Ir  Ir7  1  0.666667  0.333333  0.500000  1
  Au  Au8  1  0.333333  0.666667  0.500000  1
