# generated using pymatgen
data_Er6Fe15Co2NiP12
_symmetry_space_group_name_H-M   'P 1'
_cell_length_a   3.70267900
_cell_length_b   10.45693958
_cell_length_c   12.13169167
_cell_angle_alpha   90.03813537
_cell_angle_beta   90.00000000
_cell_angle_gamma   90.00000000
_symmetry_Int_Tables_number   1
_chemical_formula_structural   Er6Fe15Co2NiP12
_chemical_formula_sum   'Er6 Fe15 Co2 Ni1 P12'
_cell_volume   469.72311205
_cell_formula_units_Z   1
loop_
 _symmetry_equiv_pos_site_id
 _symmetry_equiv_pos_as_xyz
  1  'x, y, z'
loop_
 _atom_site_type_symbol
 _atom_site_label
 _atom_site_symmetry_multiplicity
 _atom_site_fract_x
 _atom_site_fract_y
 _atom_site_fract_z
 _atom_site_occupancy
  Er  Er0  1  0.750000  0.250824  0.474593  1
  Er  Er1  1  0.250000  0.749036  0.525107  1
  Er  Er2  1  0.250000  0.930248  0.792576  1
  Er  Er3  1  0.250000  0.569576  0.795162  1
  Er  Er4  1  0.750000  0.068275  0.207778  1
  Er  Er5  1  0.750000  0.430969  0.207200  1
  Fe  Fe6  1  0.250000  0.249875  0.846177  1
  Fe  Fe7  1  0.750000  0.751771  0.152060  1
  Fe  Fe8  1  0.750000  0.251396  0.012518  1
  Fe  Fe9  1  0.250000  0.752479  0.987813  1
  Fe  Fe10  1  0.250000  0.078183  0.003590  1
  Fe  Fe11  1  0.750000  0.578764  0.994396  1
  Fe  Fe12  1  0.750000  0.923949  0.995946  1
  Fe  Fe13  1  0.250000  0.451061  0.570623  1
  Fe  Fe14  1  0.250000  0.049205  0.570109  1
  Fe  Fe15  1  0.750000  0.549098  0.429527  1
  Fe  Fe16  1  0.750000  0.950707  0.429857  1
  Fe  Fe17  1  0.250000  0.867477  0.291554  1
  Fe  Fe18  1  0.250000  0.631467  0.288934  1
  Fe  Fe19  1  0.750000  0.132307  0.707955  1
  Fe  Fe20  1  0.750000  0.367840  0.708970  1
  Co  Co21  1  0.250000  0.250263  0.300944  1
  Co  Co22  1  0.750000  0.750307  0.699195  1
  Ni  Ni23  1  0.250000  0.416814  0.008600  1
  P  P24  1  0.250000  0.245851  0.118861  1
  P  P25  1  0.750000  0.748900  0.883896  1
  P  P26  1  0.250000  0.250671  0.658780  1
  P  P27  1  0.750000  0.748708  0.340134  1
  P  P28  1  0.250000  0.444020  0.385827  1
  P  P29  1  0.250000  0.056599  0.385995  1
  P  P30  1  0.750000  0.556480  0.615113  1
  P  P31  1  0.750000  0.943098  0.614273  1
  P  P32  1  0.250000  0.899205  0.112145  1
  P  P33  1  0.250000  0.601139  0.107307  1
  P  P34  1  0.750000  0.102713  0.887695  1
  P  P35  1  0.750000  0.400724  0.888790  1
