# generated using pymatgen
data_CeGd3ZnCo
_symmetry_space_group_name_H-M   'P 1'
_cell_length_a   9.53476947
_cell_length_b   9.53476859
_cell_length_c   9.53477000
_cell_angle_alpha   60.00000206
_cell_angle_beta   60.00000509
_cell_angle_gamma   60.00000037
_symmetry_Int_Tables_number   1
_chemical_formula_structural   CeGd3ZnCo
_chemical_formula_sum   'Ce4 Gd12 Zn4 Co4'
_cell_volume   612.93666714
_cell_formula_units_Z   4
loop_
 _symmetry_equiv_pos_site_id
 _symmetry_equiv_pos_as_xyz
  1  'x, y, z'
loop_
 _atom_site_type_symbol
 _atom_site_label
 _atom_site_symmetry_multiplicity
 _atom_site_fract_x
 _atom_site_fract_y
 _atom_site_fract_z
 _atom_site_occupancy
  Ce  Ce0  1  0.346100  0.346100  0.961700  1
  Ce  Ce1  1  0.346100  0.961700  0.346100  1
  Ce  Ce2  1  0.961700  0.346100  0.346100  1
  Ce  Ce3  1  0.346100  0.346100  0.346100  1
  Gd  Gd4  1  0.563448  0.563448  0.936552  1
  Gd  Gd5  1  0.936552  0.563448  0.936552  1
  Gd  Gd6  1  0.563448  0.936552  0.936552  1
  Gd  Gd7  1  0.936552  0.936552  0.563448  1
  Gd  Gd8  1  0.563448  0.936552  0.563448  1
  Gd  Gd9  1  0.936552  0.563448  0.563448  1
  Gd  Gd10  1  0.189932  0.189932  0.810068  1
  Gd  Gd11  1  0.810068  0.189932  0.810068  1
  Gd  Gd12  1  0.189931  0.810069  0.810068  1
  Gd  Gd13  1  0.810068  0.810069  0.189932  1
  Gd  Gd14  1  0.189931  0.810068  0.189931  1
  Gd  Gd15  1  0.810068  0.189932  0.189932  1
  Zn  Zn16  1  0.577680  0.577680  0.266958  1
  Zn  Zn17  1  0.577680  0.266958  0.577680  1
  Zn  Zn18  1  0.266958  0.577680  0.577680  1
  Zn  Zn19  1  0.577680  0.577680  0.577680  1
  Co  Co20  1  0.145389  0.145389  0.563833  1
  Co  Co21  1  0.145389  0.563833  0.145389  1
  Co  Co22  1  0.563833  0.145389  0.145389  1
  Co  Co23  1  0.145389  0.145389  0.145389  1
