# generated using pymatgen
data_Pr5Sm3(LuSn4)2
_symmetry_space_group_name_H-M   'P 1'
_cell_length_a   8.19229700
_cell_length_b   8.36893532
_cell_length_c   15.84986861
_cell_angle_alpha   90.03172917
_cell_angle_beta   90.00000000
_cell_angle_gamma   90.00000000
_symmetry_Int_Tables_number   1
_chemical_formula_structural   Pr5Sm3(LuSn4)2
_chemical_formula_sum   'Pr10 Sm6 Lu4 Sn16'
_cell_volume   1086.67956400
_cell_formula_units_Z   2
loop_
 _symmetry_equiv_pos_site_id
 _symmetry_equiv_pos_as_xyz
  1  'x, y, z'
loop_
 _atom_site_type_symbol
 _atom_site_label
 _atom_site_symmetry_multiplicity
 _atom_site_fract_x
 _atom_site_fract_y
 _atom_site_fract_z
 _atom_site_occupancy
  Pr  Pr0  1  0.366779  0.837405  0.620428  1
  Pr  Pr1  1  0.866779  0.662595  0.879572  1
  Pr  Pr2  1  0.518470  0.318828  0.902078  1
  Pr  Pr3  1  0.018470  0.181172  0.597922  1
  Pr  Pr4  1  0.481567  0.680874  0.401471  1
  Pr  Pr5  1  0.981567  0.819126  0.098529  1
  Pr  Pr6  1  0.481579  0.680823  0.098336  1
  Pr  Pr7  1  0.981579  0.819177  0.401664  1
  Pr  Pr8  1  0.518425  0.319031  0.598059  1
  Pr  Pr9  1  0.018425  0.180969  0.901941  1
  Sm  Sm10  1  0.365831  0.837773  0.878738  1
  Sm  Sm11  1  0.865831  0.662227  0.621262  1
  Sm  Sm12  1  0.633809  0.161895  0.378758  1
  Sm  Sm13  1  0.133809  0.338105  0.121242  1
  Sm  Sm14  1  0.633629  0.162172  0.121900  1
  Sm  Sm15  1  0.133629  0.337828  0.378100  1
  Lu  Lu16  1  0.198560  0.502614  0.750077  1
  Lu  Lu17  1  0.698560  0.997386  0.749923  1
  Lu  Lu18  1  0.801453  0.496566  0.250140  1
  Lu  Lu19  1  0.301453  0.003434  0.249860  1
  Sn  Sn20  1  0.294384  0.035925  0.044548  1
  Sn  Sn21  1  0.794384  0.464075  0.455452  1
  Sn  Sn22  1  0.708679  0.965054  0.544217  1
  Sn  Sn23  1  0.208679  0.534946  0.955783  1
  Sn  Sn24  1  0.703758  0.966694  0.955980  1
  Sn  Sn25  1  0.203758  0.533306  0.544020  1
  Sn  Sn26  1  0.293741  0.037110  0.453983  1
  Sn  Sn27  1  0.793741  0.462890  0.046017  1
  Sn  Sn28  1  0.562793  0.617931  0.749957  1
  Sn  Sn29  1  0.062793  0.882069  0.750043  1
  Sn  Sn30  1  0.437215  0.380354  0.250050  1
  Sn  Sn31  1  0.937215  0.119646  0.249950  1
  Sn  Sn32  1  0.324005  0.146648  0.750558  1
  Sn  Sn33  1  0.824005  0.353352  0.749442  1
  Sn  Sn34  1  0.675320  0.854545  0.250010  1
  Sn  Sn35  1  0.175320  0.645455  0.249990  1
