# generated using pymatgen
data_CeTm3(MgPt)4
_symmetry_space_group_name_H-M   'P 1'
_cell_length_a   4.24199900
_cell_length_b   7.02400344
_cell_length_c   8.52809773
_cell_angle_alpha   90.02365690
_cell_angle_beta   90.00000000
_cell_angle_gamma   90.00000000
_symmetry_Int_Tables_number   1
_chemical_formula_structural   CeTm3(MgPt)4
_chemical_formula_sum   'Ce1 Tm3 Mg4 Pt4'
_cell_volume   254.10160566
_cell_formula_units_Z   1
loop_
 _symmetry_equiv_pos_site_id
 _symmetry_equiv_pos_as_xyz
  1  'x, y, z'
loop_
 _atom_site_type_symbol
 _atom_site_label
 _atom_site_symmetry_multiplicity
 _atom_site_fract_x
 _atom_site_fract_y
 _atom_site_fract_z
 _atom_site_occupancy
  Ce  Ce0  1  0.250000  0.536636  0.175383  1
  Tm  Tm1  1  0.750000  0.461276  0.819512  1
  Tm  Tm2  1  0.250000  0.039031  0.327614  1
  Tm  Tm3  1  0.750000  0.960259  0.676660  1
  Mg  Mg4  1  0.250000  0.634669  0.562032  1
  Mg  Mg5  1  0.250000  0.135567  0.938430  1
  Mg  Mg6  1  0.750000  0.360361  0.442150  1
  Mg  Mg7  1  0.750000  0.869190  0.059102  1
  Pt  Pt8  1  0.250000  0.747055  0.872705  1
  Pt  Pt9  1  0.250000  0.243708  0.625757  1
  Pt  Pt10  1  0.750000  0.756975  0.376283  1
  Pt  Pt11  1  0.750000  0.255273  0.124370  1
