# generated using pymatgen
data_Ho5Bi2As
_symmetry_space_group_name_H-M   'P 1'
_cell_length_a   8.01617700
_cell_length_b   9.13862700
_cell_length_c   12.02884900
_cell_angle_alpha   90.00000000
_cell_angle_beta   90.00000000
_cell_angle_gamma   90.00000000
_symmetry_Int_Tables_number   1
_chemical_formula_structural   Ho5Bi2As
_chemical_formula_sum   'Ho20 Bi8 As4'
_cell_volume   881.19560574
_cell_formula_units_Z   4
loop_
 _symmetry_equiv_pos_site_id
 _symmetry_equiv_pos_as_xyz
  1  'x, y, z'
loop_
 _atom_site_type_symbol
 _atom_site_label
 _atom_site_symmetry_multiplicity
 _atom_site_fract_x
 _atom_site_fract_y
 _atom_site_fract_z
 _atom_site_occupancy
  Ho  Ho0  1  0.817018  0.556268  0.063015  1
  Ho  Ho1  1  0.682982  0.943732  0.563015  1
  Ho  Ho2  1  0.182982  0.056268  0.936985  1
  Ho  Ho3  1  0.317018  0.443732  0.436985  1
  Ho  Ho4  1  0.182982  0.443732  0.936985  1
  Ho  Ho5  1  0.317018  0.056268  0.436985  1
  Ho  Ho6  1  0.817018  0.943732  0.063015  1
  Ho  Ho7  1  0.682982  0.556268  0.563015  1
  Ho  Ho8  1  0.156430  0.750000  0.210755  1
  Ho  Ho9  1  0.343570  0.750000  0.710755  1
  Ho  Ho10  1  0.843570  0.250000  0.789245  1
  Ho  Ho11  1  0.656430  0.250000  0.289245  1
  Ho  Ho12  1  0.463228  0.750000  0.999733  1
  Ho  Ho13  1  0.036772  0.750000  0.499733  1
  Ho  Ho14  1  0.536772  0.250000  0.000267  1
  Ho  Ho15  1  0.963228  0.250000  0.500267  1
  Ho  Ho16  1  0.634228  0.750000  0.292686  1
  Ho  Ho17  1  0.865772  0.750000  0.792686  1
  Ho  Ho18  1  0.365772  0.250000  0.707314  1
  Ho  Ho19  1  0.134228  0.250000  0.207314  1
  Bi  Bi20  1  0.925632  0.510023  0.326835  1
  Bi  Bi21  1  0.574368  0.989977  0.826835  1
  Bi  Bi22  1  0.074368  0.010023  0.673165  1
  Bi  Bi23  1  0.425632  0.489977  0.173165  1
  Bi  Bi24  1  0.074368  0.489977  0.673165  1
  Bi  Bi25  1  0.425632  0.010023  0.173165  1
  Bi  Bi26  1  0.925632  0.989977  0.326835  1
  Bi  Bi27  1  0.574368  0.510023  0.826835  1
  As  As28  1  0.412804  0.750000  0.478473  1
  As  As29  1  0.087196  0.750000  0.978473  1
  As  As30  1  0.587196  0.250000  0.521527  1
  As  As31  1  0.912804  0.250000  0.021527  1
