# generated using pymatgen
data_YbEr3B16
_symmetry_space_group_name_H-M   'P 1'
_cell_length_a   7.08272057
_cell_length_b   7.08272057
_cell_length_c   4.00596300
_cell_angle_alpha   90.00000000
_cell_angle_beta   90.00000000
_cell_angle_gamma   89.83249843
_symmetry_Int_Tables_number   1
_chemical_formula_structural   YbEr3B16
_chemical_formula_sum   'Yb1 Er3 B16'
_cell_volume   200.95799723
_cell_formula_units_Z   1
loop_
 _symmetry_equiv_pos_site_id
 _symmetry_equiv_pos_as_xyz
  1  'x, y, z'
loop_
 _atom_site_type_symbol
 _atom_site_label
 _atom_site_symmetry_multiplicity
 _atom_site_fract_x
 _atom_site_fract_y
 _atom_site_fract_z
 _atom_site_occupancy
  Yb  Yb0  1  0.682787  0.817213  0.000000  1
  Er  Er1  1  0.817729  0.317881  0.000000  1
  Er  Er2  1  0.182119  0.682271  0.000000  1
  Er  Er3  1  0.319006  0.180994  0.000000  1
  B  B4  1  0.500051  0.501033  0.797417  1
  B  B5  1  0.998967  0.999949  0.797417  1
  B  B6  1  0.500051  0.501033  0.202583  1
  B  B7  1  0.998967  0.999949  0.202583  1
  B  B8  1  0.913441  0.586559  0.500000  1
  B  B9  1  0.086834  0.413166  0.500000  1
  B  B10  1  0.413164  0.913930  0.500000  1
  B  B11  1  0.586070  0.086836  0.500000  1
  B  B12  1  0.676017  0.537569  0.500000  1
  B  B13  1  0.323874  0.461140  0.500000  1
  B  B14  1  0.177204  0.962232  0.500000  1
  B  B15  1  0.823531  0.038872  0.500000  1
  B  B16  1  0.461128  0.676469  0.500000  1
  B  B17  1  0.537768  0.322796  0.500000  1
  B  B18  1  0.038860  0.176126  0.500000  1
  B  B19  1  0.962431  0.823983  0.500000  1
