# generated using pymatgen
data_Tm5Bi2Te
_symmetry_space_group_name_H-M   'P 1'
_cell_length_a   8.07595800
_cell_length_b   9.34967600
_cell_length_c   11.76678300
_cell_angle_alpha   90.00000000
_cell_angle_beta   90.00000000
_cell_angle_gamma   90.00000000
_symmetry_Int_Tables_number   1
_chemical_formula_structural   Tm5Bi2Te
_chemical_formula_sum   'Tm20 Bi8 Te4'
_cell_volume   888.48143450
_cell_formula_units_Z   4
loop_
 _symmetry_equiv_pos_site_id
 _symmetry_equiv_pos_as_xyz
  1  'x, y, z'
loop_
 _atom_site_type_symbol
 _atom_site_label
 _atom_site_symmetry_multiplicity
 _atom_site_fract_x
 _atom_site_fract_y
 _atom_site_fract_z
 _atom_site_occupancy
  Tm  Tm0  1  0.022824  0.250000  0.510592  1
  Tm  Tm1  1  0.977176  0.750000  0.489408  1
  Tm  Tm2  1  0.477176  0.750000  0.010592  1
  Tm  Tm3  1  0.522824  0.250000  0.989408  1
  Tm  Tm4  1  0.355974  0.250000  0.284998  1
  Tm  Tm5  1  0.644026  0.750000  0.715002  1
  Tm  Tm6  1  0.144026  0.750000  0.784998  1
  Tm  Tm7  1  0.855974  0.250000  0.215002  1
  Tm  Tm8  1  0.181113  0.250000  0.783481  1
  Tm  Tm9  1  0.818887  0.750000  0.216519  1
  Tm  Tm10  1  0.318887  0.750000  0.283481  1
  Tm  Tm11  1  0.681113  0.250000  0.716519  1
  Tm  Tm12  1  0.189812  0.064476  0.057722  1
  Tm  Tm13  1  0.810188  0.935524  0.942278  1
  Tm  Tm14  1  0.310188  0.935524  0.557722  1
  Tm  Tm15  1  0.810188  0.564476  0.942278  1
  Tm  Tm16  1  0.689812  0.064476  0.442278  1
  Tm  Tm17  1  0.189812  0.435524  0.057722  1
  Tm  Tm18  1  0.689812  0.435524  0.442278  1
  Tm  Tm19  1  0.310188  0.564476  0.557722  1
  Bi  Bi20  1  0.069499  0.003689  0.325329  1
  Bi  Bi21  1  0.930501  0.996311  0.674671  1
  Bi  Bi22  1  0.430501  0.996311  0.825329  1
  Bi  Bi23  1  0.930501  0.503689  0.674671  1
  Bi  Bi24  1  0.569499  0.003689  0.174671  1
  Bi  Bi25  1  0.069499  0.496311  0.325329  1
  Bi  Bi26  1  0.569499  0.496311  0.174671  1
  Bi  Bi27  1  0.430501  0.503689  0.825329  1
  Te  Te28  1  0.403661  0.250000  0.542967  1
  Te  Te29  1  0.596339  0.750000  0.457033  1
  Te  Te30  1  0.096339  0.750000  0.042967  1
  Te  Te31  1  0.903661  0.250000  0.957033  1
