# generated using pymatgen
data_Er2Lu3Zr5Pb6
_symmetry_space_group_name_H-M   'P 1'
_cell_length_a   8.82399039
_cell_length_b   8.82399016
_cell_length_c   6.07245300
_cell_angle_alpha   90.00000000
_cell_angle_beta   90.00000000
_cell_angle_gamma   119.77773060
_symmetry_Int_Tables_number   1
_chemical_formula_structural   Er2Lu3Zr5Pb6
_chemical_formula_sum   'Er2 Lu3 Zr5 Pb6'
_cell_volume   410.38661642
_cell_formula_units_Z   1
loop_
 _symmetry_equiv_pos_site_id
 _symmetry_equiv_pos_as_xyz
  1  'x, y, z'
loop_
 _atom_site_type_symbol
 _atom_site_label
 _atom_site_symmetry_multiplicity
 _atom_site_fract_x
 _atom_site_fract_y
 _atom_site_fract_z
 _atom_site_occupancy
  Er  Er0  1  0.764606  0.002222  0.750000  1
  Er  Er1  1  0.002222  0.764606  0.750000  1
  Lu  Lu2  1  0.757212  0.757212  0.250000  1
  Lu  Lu3  1  0.001206  0.238003  0.250000  1
  Lu  Lu4  1  0.238003  0.001206  0.250000  1
  Zr  Zr5  1  0.332778  0.664038  0.500001  1
  Zr  Zr6  1  0.664038  0.332778  0.500001  1
  Zr  Zr7  1  0.332778  0.664038  0.999999  1
  Zr  Zr8  1  0.244402  0.244402  0.750000  1
  Zr  Zr9  1  0.664038  0.332778  0.999999  1
  Pb  Pb10  1  0.602406  0.602406  0.750000  1
  Pb  Pb11  1  0.395189  0.001416  0.750000  1
  Pb  Pb12  1  0.603840  0.000588  0.250000  1
  Pb  Pb13  1  0.001416  0.395189  0.750000  1
  Pb  Pb14  1  0.395278  0.395278  0.250000  1
  Pb  Pb15  1  0.000588  0.603840  0.250000  1
