# generated using pymatgen
data_Dy2Sc3Pt4
_symmetry_space_group_name_H-M   'P 1'
_cell_length_a   7.37876000
_cell_length_b   7.36502100
_cell_length_c   13.83060000
_cell_angle_alpha   90.00000000
_cell_angle_beta   90.00000000
_cell_angle_gamma   90.00000000
_symmetry_Int_Tables_number   1
_chemical_formula_structural   Dy2Sc3Pt4
_chemical_formula_sum   'Dy8 Sc12 Pt16'
_cell_volume   751.62011699
_cell_formula_units_Z   4
loop_
 _symmetry_equiv_pos_site_id
 _symmetry_equiv_pos_as_xyz
  1  'x, y, z'
loop_
 _atom_site_type_symbol
 _atom_site_label
 _atom_site_symmetry_multiplicity
 _atom_site_fract_x
 _atom_site_fract_y
 _atom_site_fract_z
 _atom_site_occupancy
  Dy  Dy0  1  0.008730  0.175612  0.095562  1
  Dy  Dy1  1  0.991270  0.824388  0.904438  1
  Dy  Dy2  1  0.491270  0.675612  0.904438  1
  Dy  Dy3  1  0.991270  0.824388  0.595562  1
  Dy  Dy4  1  0.508730  0.324388  0.095562  1
  Dy  Dy5  1  0.008730  0.175612  0.404438  1
  Dy  Dy6  1  0.508730  0.324388  0.404438  1
  Dy  Dy7  1  0.491270  0.675612  0.595562  1
  Sc  Sc8  1  0.163778  0.500180  0.750000  1
  Sc  Sc9  1  0.836222  0.499820  0.250000  1
  Sc  Sc10  1  0.336222  0.000180  0.250000  1
  Sc  Sc11  1  0.663778  0.999820  0.750000  1
  Sc  Sc12  1  0.332279  0.166213  0.623817  1
  Sc  Sc13  1  0.667721  0.833787  0.376183  1
  Sc  Sc14  1  0.167721  0.666213  0.376183  1
  Sc  Sc15  1  0.667721  0.833787  0.123817  1
  Sc  Sc16  1  0.832279  0.333787  0.623817  1
  Sc  Sc17  1  0.332279  0.166213  0.876183  1
  Sc  Sc18  1  0.832279  0.333787  0.876183  1
  Sc  Sc19  1  0.167721  0.666213  0.123817  1
  Pt  Pt20  1  0.029850  0.125500  0.750000  1
  Pt  Pt21  1  0.970150  0.874500  0.250000  1
  Pt  Pt22  1  0.470150  0.625500  0.250000  1
  Pt  Pt23  1  0.529850  0.374500  0.750000  1
  Pt  Pt24  1  0.294400  0.857311  0.750000  1
  Pt  Pt25  1  0.705600  0.142689  0.250000  1
  Pt  Pt26  1  0.205600  0.357311  0.250000  1
  Pt  Pt27  1  0.794400  0.642689  0.750000  1
  Pt  Pt28  1  0.172653  0.458950  0.543201  1
  Pt  Pt29  1  0.827347  0.541050  0.456799  1
  Pt  Pt30  1  0.327347  0.958950  0.456799  1
  Pt  Pt31  1  0.827347  0.541050  0.043201  1
  Pt  Pt32  1  0.672653  0.041050  0.543201  1
  Pt  Pt33  1  0.172653  0.458950  0.956799  1
  Pt  Pt34  1  0.672653  0.041050  0.956799  1
  Pt  Pt35  1  0.327347  0.958950  0.043201  1
