# generated using pymatgen
data_Ac3Sn6HgIr2
_symmetry_space_group_name_H-M   'P 1'
_cell_length_a   4.78453693
_cell_length_b   4.76681200
_cell_length_c   14.68153438
_cell_angle_alpha   90.00000000
_cell_angle_beta   100.07196922
_cell_angle_gamma   90.00000000
_symmetry_Int_Tables_number   1
_chemical_formula_structural   Ac3Sn6HgIr2
_chemical_formula_sum   'Ac3 Sn6 Hg1 Ir2'
_cell_volume   329.68128740
_cell_formula_units_Z   1
loop_
 _symmetry_equiv_pos_site_id
 _symmetry_equiv_pos_as_xyz
  1  'x, y, z'
loop_
 _atom_site_type_symbol
 _atom_site_label
 _atom_site_symmetry_multiplicity
 _atom_site_fract_x
 _atom_site_fract_y
 _atom_site_fract_z
 _atom_site_occupancy
  Ac  Ac0  1  0.500001  0.500001  0.000000  1
  Ac  Ac1  1  0.173872  0.000000  0.364153  1
  Ac  Ac2  1  0.826128  0.000000  0.635847  1
  Sn  Sn3  1  0.581442  0.000000  0.172165  1
  Sn  Sn4  1  0.091773  0.500001  0.172394  1
  Sn  Sn5  1  0.715801  0.500001  0.440053  1
  Sn  Sn6  1  0.284200  0.500001  0.559947  1
  Sn  Sn7  1  0.908228  0.500001  0.827606  1
  Sn  Sn8  1  0.418559  0.000000  0.827835  1
  Hg  Hg9  1  0.000000  0.000000  0.000000  1
  Ir  Ir10  1  0.641790  0.500001  0.258989  1
  Ir  Ir11  1  0.358210  0.500001  0.741011  1
