# generated using pymatgen
data_CaTb2Er(ReN3)4
_symmetry_space_group_name_H-M   'P 1'
_cell_length_a   7.38934478
_cell_length_b   7.38934515
_cell_length_c   6.27838439
_cell_angle_alpha   73.51331231
_cell_angle_beta   73.51332648
_cell_angle_gamma   82.76758998
_symmetry_Int_Tables_number   1
_chemical_formula_structural   CaTb2Er(ReN3)4
_chemical_formula_sum   'Ca1 Tb2 Er1 Re4 N12'
_cell_volume   314.82155272
_cell_formula_units_Z   1
loop_
 _symmetry_equiv_pos_site_id
 _symmetry_equiv_pos_as_xyz
  1  'x, y, z'
loop_
 _atom_site_type_symbol
 _atom_site_label
 _atom_site_symmetry_multiplicity
 _atom_site_fract_x
 _atom_site_fract_y
 _atom_site_fract_z
 _atom_site_occupancy
  Ca  Ca0  1  0.705606  0.294394  0.250000  1
  Tb  Tb1  1  0.909081  0.090919  0.750000  1
  Tb  Tb2  1  0.292219  0.707781  0.750000  1
  Er  Er3  1  0.093207  0.906793  0.250000  1
  Re  Re4  1  0.621957  0.795441  0.272958  1
  Re  Re5  1  0.204559  0.378043  0.227042  1
  Re  Re6  1  0.377730  0.201982  0.729000  1
  Re  Re7  1  0.798018  0.622270  0.771000  1
  N  N8  1  0.339688  0.362504  0.929097  1
  N  N9  1  0.013496  0.215930  0.340891  1
  N  N10  1  0.784070  0.986504  0.159109  1
  N  N11  1  0.219033  0.002780  0.846032  1
  N  N12  1  0.657564  0.650259  0.060973  1
  N  N13  1  0.877587  0.379548  0.829934  1
  N  N14  1  0.127771  0.626498  0.161562  1
  N  N15  1  0.997220  0.780967  0.653968  1
  N  N16  1  0.373502  0.872229  0.338438  1
  N  N17  1  0.637496  0.660312  0.570903  1
  N  N18  1  0.620452  0.122413  0.670066  1
  N  N19  1  0.349741  0.342436  0.439027  1
