# generated using pymatgen
data_Ho7Co5Sn23Os
_symmetry_space_group_name_H-M   'P 1'
_cell_length_a   9.73093842
_cell_length_b   9.73093805
_cell_length_c   9.96183123
_cell_angle_alpha   90.21784842
_cell_angle_beta   89.78214832
_cell_angle_gamma   119.95692810
_symmetry_Int_Tables_number   1
_chemical_formula_structural   Ho7Co5Sn23Os
_chemical_formula_sum   'Ho7 Co5 Sn23 Os1'
_cell_volume   817.26591299
_cell_formula_units_Z   1
loop_
 _symmetry_equiv_pos_site_id
 _symmetry_equiv_pos_as_xyz
  1  'x, y, z'
loop_
 _atom_site_type_symbol
 _atom_site_label
 _atom_site_symmetry_multiplicity
 _atom_site_fract_x
 _atom_site_fract_y
 _atom_site_fract_z
 _atom_site_occupancy
  Ho  Ho0  1  0.992999  0.007001  0.008422  1
  Ho  Ho1  1  0.480496  0.519504  0.306466  1
  Ho  Ho2  1  0.520513  0.479487  0.693559  1
  Ho  Ho3  1  0.481525  0.959802  0.304798  1
  Ho  Ho4  1  0.519600  0.041297  0.693589  1
  Ho  Ho5  1  0.040198  0.518475  0.304798  1
  Ho  Ho6  1  0.958703  0.480400  0.693589  1
  Co  Co7  1  0.168515  0.831485  0.802461  1
  Co  Co8  1  0.832094  0.663426  0.196462  1
  Co  Co9  1  0.169882  0.335553  0.801372  1
  Co  Co10  1  0.336574  0.167906  0.196462  1
  Co  Co11  1  0.664447  0.830118  0.801372  1
  Sn  Sn12  1  0.343284  0.999238  0.999686  1
  Sn  Sn13  1  0.645564  0.994405  0.994285  1
  Sn  Sn14  1  0.005595  0.354436  0.994285  1
  Sn  Sn15  1  0.000762  0.656716  0.999686  1
  Sn  Sn16  1  0.653525  0.653270  0.999935  1
  Sn  Sn17  1  0.346730  0.346475  0.999935  1
  Sn  Sn18  1  0.333401  0.666599  0.817576  1
  Sn  Sn19  1  0.665963  0.334037  0.179261  1
  Sn  Sn20  1  0.999335  0.000665  0.502021  1
  Sn  Sn21  1  0.779859  0.220141  0.456913  1
  Sn  Sn22  1  0.219396  0.780604  0.547892  1
  Sn  Sn23  1  0.781596  0.561877  0.451364  1
  Sn  Sn24  1  0.219155  0.438157  0.548187  1
  Sn  Sn25  1  0.438123  0.218404  0.451364  1
  Sn  Sn26  1  0.561843  0.780845  0.548187  1
  Sn  Sn27  1  0.334119  0.665881  0.120118  1
  Sn  Sn28  1  0.665877  0.334123  0.877621  1
  Sn  Sn29  1  0.117663  0.882337  0.273712  1
  Sn  Sn30  1  0.881541  0.118459  0.726903  1
  Sn  Sn31  1  0.125966  0.237349  0.279382  1
  Sn  Sn32  1  0.884153  0.765714  0.726410  1
  Sn  Sn33  1  0.762651  0.874034  0.279382  1
  Sn  Sn34  1  0.234286  0.115847  0.726410  1
  Os  Os35  1  0.834068  0.165932  0.196138  1
