# generated using pymatgen
data_Sc6Ti4SnSb5
_symmetry_space_group_name_H-M   'P 1'
_cell_length_a   8.31207900
_cell_length_b   8.32425891
_cell_length_c   5.65351000
_cell_angle_alpha   90.00000000
_cell_angle_beta   90.00000000
_cell_angle_gamma   119.95161409
_symmetry_Int_Tables_number   1
_chemical_formula_structural   Sc6Ti4SnSb5
_chemical_formula_sum   'Sc6 Ti4 Sn1 Sb5'
_cell_volume   338.93434561
_cell_formula_units_Z   1
loop_
 _symmetry_equiv_pos_site_id
 _symmetry_equiv_pos_as_xyz
  1  'x, y, z'
loop_
 _atom_site_type_symbol
 _atom_site_label
 _atom_site_symmetry_multiplicity
 _atom_site_fract_x
 _atom_site_fract_y
 _atom_site_fract_z
 _atom_site_occupancy
  Sc  Sc0  1  0.242206  0.000000  0.250000  1
  Sc  Sc1  1  0.245164  0.243931  0.750000  1
  Sc  Sc2  1  0.001233  0.756069  0.750000  1
  Sc  Sc3  1  0.998751  0.244577  0.250000  1
  Sc  Sc4  1  0.754173  0.755423  0.250000  1
  Sc  Sc5  1  0.756476  0.000000  0.750000  1
  Ti  Ti6  1  0.332989  0.665286  0.999746  1
  Ti  Ti7  1  0.667704  0.334714  0.500254  1
  Ti  Ti8  1  0.667704  0.334714  0.999746  1
  Ti  Ti9  1  0.332989  0.665286  0.500254  1
  Sn  Sn10  1  0.397358  0.000000  0.750000  1
  Sb  Sb11  1  0.602693  0.000000  0.250000  1
  Sb  Sb12  1  0.606332  0.606403  0.750000  1
  Sb  Sb13  1  0.999929  0.393597  0.750000  1
  Sb  Sb14  1  0.000476  0.606652  0.250000  1
  Sb  Sb15  1  0.393824  0.393348  0.250000  1
