# generated using pymatgen
data_Er10Sn3Hg5Pt4
_symmetry_space_group_name_H-M   'P 1'
_cell_length_a   3.57785700
_cell_length_b   8.00832642
_cell_length_c   18.01775100
_cell_angle_alpha   90.22256355
_cell_angle_beta   90.00000000
_cell_angle_gamma   90.00000000
_symmetry_Int_Tables_number   1
_chemical_formula_structural   Er10Sn3Hg5Pt4
_chemical_formula_sum   'Er10 Sn3 Hg5 Pt4'
_cell_volume   516.25235948
_cell_formula_units_Z   1
loop_
 _symmetry_equiv_pos_site_id
 _symmetry_equiv_pos_as_xyz
  1  'x, y, z'
loop_
 _atom_site_type_symbol
 _atom_site_label
 _atom_site_symmetry_multiplicity
 _atom_site_fract_x
 _atom_site_fract_y
 _atom_site_fract_z
 _atom_site_occupancy
  Er  Er0  1  0.000000  0.111253  0.414686  1
  Er  Er1  1  0.000000  0.888321  0.585275  1
  Er  Er2  1  0.000000  0.392263  0.915582  1
  Er  Er3  1  0.000000  0.613445  0.086520  1
  Er  Er4  1  0.000000  0.236452  0.215270  1
  Er  Er5  1  0.000000  0.755496  0.783436  1
  Er  Er6  1  0.000000  0.254514  0.716980  1
  Er  Er7  1  0.000000  0.747508  0.280028  1
  Er  Er8  1  0.000000  0.002127  0.002261  1
  Er  Er9  1  0.000000  0.499045  0.500053  1
  Sn  Sn10  1  0.500000  0.423035  0.353149  1
  Sn  Sn11  1  0.500000  0.578453  0.647811  1
  Sn  Sn12  1  0.500000  0.080106  0.853250  1
  Hg  Hg13  1  0.500000  0.921939  0.143019  1
  Hg  Hg14  1  0.500000  0.291614  0.063087  1
  Hg  Hg15  1  0.500000  0.710345  0.937698  1
  Hg  Hg16  1  0.500000  0.208181  0.563301  1
  Hg  Hg17  1  0.500000  0.790284  0.436687  1
  Pt  Pt18  1  0.500000  0.029439  0.302569  1
  Pt  Pt19  1  0.500000  0.971047  0.698519  1
  Pt  Pt20  1  0.500000  0.472174  0.801665  1
  Pt  Pt21  1  0.500000  0.522959  0.199155  1
