# generated using pymatgen
data_YHo4Tm15(CoSb2)4
_symmetry_space_group_name_H-M   'P 1'
_cell_length_a   7.78660264
_cell_length_b   8.72977100
_cell_length_c   12.07795999
_cell_angle_alpha   90.00000000
_cell_angle_beta   90.04646838
_cell_angle_gamma   90.00000000
_symmetry_Int_Tables_number   1
_chemical_formula_structural   YHo4Tm15(CoSb2)4
_chemical_formula_sum   'Y1 Ho4 Tm15 Co4 Sb8'
_cell_volume   821.00217563
_cell_formula_units_Z   1
loop_
 _symmetry_equiv_pos_site_id
 _symmetry_equiv_pos_as_xyz
  1  'x, y, z'
loop_
 _atom_site_type_symbol
 _atom_site_label
 _atom_site_symmetry_multiplicity
 _atom_site_fract_x
 _atom_site_fract_y
 _atom_site_fract_z
 _atom_site_occupancy
  Y  Y0  1  0.157046  0.750000  0.205248  1
  Ho  Ho1  1  0.623296  0.750000  0.307805  1
  Ho  Ho2  1  0.122707  0.250000  0.192139  1
  Ho  Ho3  1  0.377266  0.250000  0.692176  1
  Ho  Ho4  1  0.877479  0.750000  0.807849  1
  Tm  Tm5  1  0.656619  0.250000  0.296242  1
  Tm  Tm6  1  0.843247  0.250000  0.796039  1
  Tm  Tm7  1  0.343331  0.750000  0.703921  1
  Tm  Tm8  1  0.451043  0.750000  0.997413  1
  Tm  Tm9  1  0.950049  0.250000  0.502237  1
  Tm  Tm10  1  0.550115  0.250000  0.001949  1
  Tm  Tm11  1  0.049748  0.750000  0.498406  1
  Tm  Tm12  1  0.822978  0.963845  0.065144  1
  Tm  Tm13  1  0.323623  0.036963  0.434651  1
  Tm  Tm14  1  0.176495  0.463096  0.934329  1
  Tm  Tm15  1  0.676407  0.536634  0.565579  1
  Tm  Tm16  1  0.176495  0.036904  0.934329  1
  Tm  Tm17  1  0.676407  0.963366  0.565579  1
  Tm  Tm18  1  0.822978  0.536155  0.065144  1
  Tm  Tm19  1  0.323623  0.463037  0.434651  1
  Co  Co20  1  0.432124  0.750000  0.491055  1
  Co  Co21  1  0.932165  0.250000  0.008864  1
  Co  Co22  1  0.567728  0.250000  0.508875  1
  Co  Co23  1  0.067180  0.750000  0.989706  1
  Sb  Sb24  1  0.930160  0.992396  0.328363  1
  Sb  Sb25  1  0.431963  0.009071  0.171925  1
  Sb  Sb26  1  0.068950  0.491530  0.672188  1
  Sb  Sb27  1  0.568852  0.508342  0.827859  1
  Sb  Sb28  1  0.068950  0.008470  0.672188  1
  Sb  Sb29  1  0.568852  0.991658  0.827859  1
  Sb  Sb30  1  0.930160  0.507604  0.328363  1
  Sb  Sb31  1  0.431963  0.490929  0.171925  1
