# generated using pymatgen
data_Nb12Cr2NiOs9N4
_symmetry_space_group_name_H-M   'P 1'
_cell_length_a   8.25236799
_cell_length_b   8.25697066
_cell_length_c   8.33597505
_cell_angle_alpha   60.28941494
_cell_angle_beta   60.33122608
_cell_angle_gamma   60.01844149
_symmetry_Int_Tables_number   1
_chemical_formula_structural   Nb12Cr2NiOs9N4
_chemical_formula_sum   'Nb12 Cr2 Ni1 Os9 N4'
_cell_volume   403.57372367
_cell_formula_units_Z   1
loop_
 _symmetry_equiv_pos_site_id
 _symmetry_equiv_pos_as_xyz
  1  'x, y, z'
loop_
 _atom_site_type_symbol
 _atom_site_label
 _atom_site_symmetry_multiplicity
 _atom_site_fract_x
 _atom_site_fract_y
 _atom_site_fract_z
 _atom_site_occupancy
  Nb  Nb0  1  0.807252  0.807795  0.192321  1
  Nb  Nb1  1  0.196803  0.191222  0.806110  1
  Nb  Nb2  1  0.805866  0.191222  0.806110  1
  Nb  Nb3  1  0.192631  0.807795  0.192321  1
  Nb  Nb4  1  0.191772  0.808716  0.807742  1
  Nb  Nb5  1  0.805243  0.192214  0.197298  1
  Nb  Nb6  1  0.442748  0.442205  0.057679  1
  Nb  Nb7  1  0.053197  0.058778  0.443890  1
  Nb  Nb8  1  0.444134  0.058778  0.443890  1
  Nb  Nb9  1  0.057369  0.442205  0.057679  1
  Nb  Nb10  1  0.058228  0.441284  0.442258  1
  Nb  Nb11  1  0.444757  0.057786  0.052702  1
  Cr  Cr12  1  0.125000  0.625000  0.625000  1
  Cr  Cr13  1  0.625000  0.625000  0.625000  1
  Ni  Ni14  1  0.625000  0.125000  0.625000  1
  Os  Os15  1  0.625000  0.625000  0.125000  1
  Os  Os16  1  0.743270  0.415829  0.427905  1
  Os  Os17  1  0.413569  0.747259  0.425604  1
  Os  Os18  1  0.417542  0.416949  0.747970  1
  Os  Os19  1  0.412996  0.415829  0.427905  1
  Os  Os20  1  0.506730  0.834171  0.822095  1
  Os  Os21  1  0.836431  0.502741  0.824396  1
  Os  Os22  1  0.832458  0.833051  0.502030  1
  Os  Os23  1  0.837004  0.834171  0.822095  1
  N  N24  1  0.625000  0.125000  0.125000  1
  N  N25  1  0.125000  0.625000  0.125000  1
  N  N26  1  0.125000  0.125000  0.625000  1
  N  N27  1  0.125000  0.125000  0.125000  1
