# generated using pymatgen
data_Hf4Mn2Pt7Rh3
_symmetry_space_group_name_H-M   'P 1'
_cell_length_a   5.68413200
_cell_length_b   5.68413013
_cell_length_c   8.12636000
_cell_angle_alpha   90.00081648
_cell_angle_beta   90.00081648
_cell_angle_gamma   91.75329885
_symmetry_Int_Tables_number   1
_chemical_formula_structural   Hf4Mn2Pt7Rh3
_chemical_formula_sum   'Hf4 Mn2 Pt7 Rh3'
_cell_volume   262.43445561
_cell_formula_units_Z   1
loop_
 _symmetry_equiv_pos_site_id
 _symmetry_equiv_pos_as_xyz
  1  'x, y, z'
loop_
 _atom_site_type_symbol
 _atom_site_label
 _atom_site_symmetry_multiplicity
 _atom_site_fract_x
 _atom_site_fract_y
 _atom_site_fract_z
 _atom_site_occupancy
  Hf  Hf0  1  0.773748  0.227785  0.500033  1
  Hf  Hf1  1  0.227168  0.772842  0.999981  1
  Hf  Hf2  1  0.227787  0.773748  0.500023  1
  Hf  Hf3  1  0.772841  0.227167  0.999981  1
  Mn  Mn4  1  0.499121  0.499200  0.749039  1
  Mn  Mn5  1  0.498263  0.498194  0.250951  1
  Pt  Pt6  1  0.729070  0.729071  0.000136  1
  Pt  Pt7  1  0.728698  0.728696  0.499869  1
  Pt  Pt8  1  0.270707  0.270706  0.999803  1
  Pt  Pt9  1  0.500210  0.001307  0.749768  1
  Pt  Pt10  1  0.500138  0.001250  0.250200  1
  Pt  Pt11  1  0.001304  0.500205  0.749767  1
  Pt  Pt12  1  0.001249  0.500142  0.250203  1
  Rh  Rh13  1  0.268424  0.268422  0.500273  1
  Rh  Rh14  1  0.000667  0.000665  0.249370  1
  Rh  Rh15  1  0.000605  0.000600  0.750607  1
