# generated using pymatgen
data_Co4SiGe(Mo3N)2
_symmetry_space_group_name_H-M   'P 1'
_cell_length_a   7.84205636
_cell_length_b   7.84205642
_cell_length_c   7.84959100
_cell_angle_alpha   59.96820795
_cell_angle_beta   59.96820769
_cell_angle_gamma   59.95222791
_symmetry_Int_Tables_number   1
_chemical_formula_structural   Co4SiGe(Mo3N)2
_chemical_formula_sum   'Co8 Si2 Ge2 Mo12 N4'
_cell_volume   341.05639582
_cell_formula_units_Z   2
loop_
 _symmetry_equiv_pos_site_id
 _symmetry_equiv_pos_as_xyz
  1  'x, y, z'
loop_
 _atom_site_type_symbol
 _atom_site_label
 _atom_site_symmetry_multiplicity
 _atom_site_fract_x
 _atom_site_fract_y
 _atom_site_fract_z
 _atom_site_occupancy
  Co  Co0  1  0.248877  0.923688  0.913718  1
  Co  Co1  1  0.923688  0.248877  0.913718  1
  Co  Co2  1  0.919558  0.919558  0.908167  1
  Co  Co3  1  0.919558  0.919558  0.252717  1
  Co  Co4  1  0.001123  0.326312  0.336282  1
  Co  Co5  1  0.330442  0.330442  0.997283  1
  Co  Co6  1  0.326312  0.001123  0.336282  1
  Co  Co7  1  0.330442  0.330442  0.341833  1
  Si  Si8  1  0.125000  0.125000  0.625000  1
  Si  Si9  1  0.125000  0.125000  0.125000  1
  Ge  Ge10  1  0.625000  0.125000  0.125000  1
  Ge  Ge11  1  0.125000  0.625000  0.125000  1
  Mo  Mo12  1  0.695903  0.305364  0.693849  1
  Mo  Mo13  1  0.556734  0.556734  0.943266  1
  Mo  Mo14  1  0.554097  0.944636  0.556151  1
  Mo  Mo15  1  0.946291  0.946291  0.553709  1
  Mo  Mo16  1  0.944636  0.554097  0.556151  1
  Mo  Mo17  1  0.944636  0.554097  0.945115  1
  Mo  Mo18  1  0.695903  0.305364  0.304885  1
  Mo  Mo19  1  0.305364  0.695903  0.304885  1
  Mo  Mo20  1  0.303709  0.303709  0.696291  1
  Mo  Mo21  1  0.305364  0.695903  0.693849  1
  Mo  Mo22  1  0.693266  0.693266  0.306734  1
  Mo  Mo23  1  0.554097  0.944636  0.945115  1
  N  N24  1  0.625000  0.625000  0.625000  1
  N  N25  1  0.125000  0.625000  0.625000  1
  N  N26  1  0.625000  0.125000  0.625000  1
  N  N27  1  0.625000  0.625000  0.125000  1
