# generated using pymatgen
data_Y8Ho8MgHg3Pt4
_symmetry_space_group_name_H-M   'P 1'
_cell_length_a   9.65201543
_cell_length_b   9.65921568
_cell_length_c   9.67473900
_cell_angle_alpha   59.94682675
_cell_angle_beta   59.92209378
_cell_angle_gamma   60.08515264
_symmetry_Int_Tables_number   1
_chemical_formula_structural   Y8Ho8MgHg3Pt4
_chemical_formula_sum   'Y8 Ho8 Mg1 Hg3 Pt4'
_cell_volume   637.57503573
_cell_formula_units_Z   1
loop_
 _symmetry_equiv_pos_site_id
 _symmetry_equiv_pos_as_xyz
  1  'x, y, z'
loop_
 _atom_site_type_symbol
 _atom_site_label
 _atom_site_symmetry_multiplicity
 _atom_site_fract_x
 _atom_site_fract_y
 _atom_site_fract_z
 _atom_site_occupancy
  Y  Y0  1  0.437118  0.439174  0.061854  1
  Y  Y1  1  0.058368  0.059201  0.441216  1
  Y  Y2  1  0.185179  0.813941  0.813874  1
  Y  Y3  1  0.812861  0.186558  0.186603  1
  Y  Y4  1  0.812861  0.186558  0.813979  1
  Y  Y5  1  0.185179  0.813941  0.187006  1
  Y  Y6  1  0.812534  0.813609  0.186929  1
  Y  Y7  1  0.185463  0.187550  0.813493  1
  Ho  Ho8  1  0.603339  0.601496  0.601275  1
  Ho  Ho9  1  0.603339  0.601496  0.193890  1
  Ho  Ho10  1  0.603219  0.194051  0.601366  1
  Ho  Ho11  1  0.184149  0.605195  0.605329  1
  Ho  Ho12  1  0.058466  0.441101  0.441154  1
  Ho  Ho13  1  0.437043  0.061817  0.061829  1
  Ho  Ho14  1  0.437043  0.061817  0.439311  1
  Ho  Ho15  1  0.058466  0.441101  0.059280  1
  Mg  Mg16  1  0.531977  0.822486  0.822768  1
  Hg  Hg17  1  0.832745  0.837993  0.838011  1
  Hg  Hg18  1  0.832745  0.837993  0.491251  1
  Hg  Hg19  1  0.832712  0.491372  0.837958  1
  Pt  Pt20  1  0.391065  0.394061  0.396865  1
  Pt  Pt21  1  0.391065  0.394061  0.818011  1
  Pt  Pt22  1  0.393911  0.818014  0.394038  1
  Pt  Pt23  1  0.819157  0.395420  0.392712  1
