# generated using pymatgen
data_Nd7Tm(GePt)8
_symmetry_space_group_name_H-M   'P 1'
_cell_length_a   4.48053500
_cell_length_b   7.68325500
_cell_length_c   14.55279900
_cell_angle_alpha   90.00000000
_cell_angle_beta   90.00000000
_cell_angle_gamma   90.00000000
_symmetry_Int_Tables_number   1
_chemical_formula_structural   Nd7Tm(GePt)8
_chemical_formula_sum   'Nd7 Tm1 Ge8 Pt8'
_cell_volume   500.98145813
_cell_formula_units_Z   1
loop_
 _symmetry_equiv_pos_site_id
 _symmetry_equiv_pos_as_xyz
  1  'x, y, z'
loop_
 _atom_site_type_symbol
 _atom_site_label
 _atom_site_symmetry_multiplicity
 _atom_site_fract_x
 _atom_site_fract_y
 _atom_site_fract_z
 _atom_site_occupancy
  Nd  Nd0  1  0.500000  0.789335  0.746744  1
  Nd  Nd1  1  0.000000  0.211158  0.750668  1
  Nd  Nd2  1  0.500000  0.789335  0.253256  1
  Nd  Nd3  1  0.000000  0.211158  0.249332  1
  Nd  Nd4  1  0.500000  0.709116  0.000000  1
  Nd  Nd5  1  0.500000  0.703087  0.500000  1
  Nd  Nd6  1  0.000000  0.294809  0.000000  1
  Tm  Tm7  1  0.000000  0.288694  0.500000  1
  Ge  Ge8  1  0.500000  0.410412  0.646295  1
  Ge  Ge9  1  0.000000  0.588005  0.849921  1
  Ge  Ge10  1  0.500000  0.410412  0.353705  1
  Ge  Ge11  1  0.000000  0.588005  0.150079  1
  Ge  Ge12  1  0.500000  0.087431  0.095592  1
  Ge  Ge13  1  0.000000  0.915547  0.405712  1
  Ge  Ge14  1  0.500000  0.087431  0.904408  1
  Ge  Ge15  1  0.000000  0.915547  0.594288  1
  Pt  Pt16  1  0.500000  0.084025  0.604614  1
  Pt  Pt17  1  0.000000  0.920917  0.890607  1
  Pt  Pt18  1  0.500000  0.084025  0.395386  1
  Pt  Pt19  1  0.000000  0.920917  0.109393  1
  Pt  Pt20  1  0.500000  0.419259  0.150760  1
  Pt  Pt21  1  0.000000  0.576058  0.352498  1
  Pt  Pt22  1  0.500000  0.419259  0.849240  1
  Pt  Pt23  1  0.000000  0.576058  0.647502  1
