# generated using pymatgen
data_LiEr2Cu3O8
_symmetry_space_group_name_H-M   'P 1'
_cell_length_a   6.22423213
_cell_length_b   6.35093155
_cell_length_c   6.27334454
_cell_angle_alpha   127.11828910
_cell_angle_beta   125.92947701
_cell_angle_gamma   81.20538807
_symmetry_Int_Tables_number   1
_chemical_formula_structural   LiEr2Cu3O8
_chemical_formula_sum   'Li1 Er2 Cu3 O8'
_cell_volume   152.14448597
_cell_formula_units_Z   1
loop_
 _symmetry_equiv_pos_site_id
 _symmetry_equiv_pos_as_xyz
  1  'x, y, z'
loop_
 _atom_site_type_symbol
 _atom_site_label
 _atom_site_symmetry_multiplicity
 _atom_site_fract_x
 _atom_site_fract_y
 _atom_site_fract_z
 _atom_site_occupancy
  Li  Li0  1  0.875000  0.125000  0.250000  1
  Er  Er1  1  0.508717  0.488588  0.000251  1
  Er  Er2  1  0.241283  0.761412  0.499749  1
  Cu  Cu3  1  0.375000  0.125000  0.250000  1
  Cu  Cu4  1  0.875000  0.125000  0.750000  1
  Cu  Cu5  1  0.875000  0.625000  0.750000  1
  O  O6  1  0.901606  0.356668  0.137099  1
  O  O7  1  0.202021  0.752128  0.855000  1
  O  O8  1  0.848394  0.893332  0.362901  1
  O  O9  1  0.547979  0.497872  0.645000  1
  O  O10  1  0.492085  0.165893  0.061371  1
  O  O11  1  0.081333  0.443830  0.914237  1
  O  O12  1  0.668667  0.806170  0.585763  1
  O  O13  1  0.257915  0.084107  0.438629  1
