# generated using pymatgen
data_Cs4Cr3WN8
_symmetry_space_group_name_H-M   'P 1'
_cell_length_a   5.92365400
_cell_length_b   8.37430800
_cell_length_c   11.84495200
_cell_angle_alpha   90.00000000
_cell_angle_beta   90.00000000
_cell_angle_gamma   90.00000000
_symmetry_Int_Tables_number   1
_chemical_formula_structural   Cs4Cr3WN8
_chemical_formula_sum   'Cs8 Cr6 W2 N16'
_cell_volume   587.58664789
_cell_formula_units_Z   2
loop_
 _symmetry_equiv_pos_site_id
 _symmetry_equiv_pos_as_xyz
  1  'x, y, z'
loop_
 _atom_site_type_symbol
 _atom_site_label
 _atom_site_symmetry_multiplicity
 _atom_site_fract_x
 _atom_site_fract_y
 _atom_site_fract_z
 _atom_site_occupancy
  Cs  Cs0  1  0.750000  0.128529  0.500000  1
  Cs  Cs1  1  0.250000  0.871471  0.000000  1
  Cs  Cs2  1  0.250000  0.887803  0.500000  1
  Cs  Cs3  1  0.750000  0.112197  0.000000  1
  Cs  Cs4  1  0.758326  0.370994  0.758767  1
  Cs  Cs5  1  0.258326  0.629006  0.741233  1
  Cs  Cs6  1  0.241674  0.629006  0.258767  1
  Cs  Cs7  1  0.741674  0.370994  0.241233  1
  Cr  Cr8  1  0.250000  0.358980  0.500000  1
  Cr  Cr9  1  0.750000  0.641020  0.000000  1
  Cr  Cr10  1  0.254742  0.119045  0.747356  1
  Cr  Cr11  1  0.754742  0.880955  0.752644  1
  Cr  Cr12  1  0.745258  0.880955  0.247356  1
  Cr  Cr13  1  0.245258  0.119045  0.252644  1
  W  W14  1  0.750000  0.621039  0.500000  1
  W  W15  1  0.250000  0.378961  0.000000  1
  N  N16  1  0.506562  0.001881  0.749842  1
  N  N17  1  0.006562  0.998119  0.750158  1
  N  N18  1  0.493438  0.998119  0.249842  1
  N  N19  1  0.993438  0.001881  0.250158  1
  N  N20  1  0.252002  0.248662  0.869660  1
  N  N21  1  0.752002  0.751338  0.630340  1
  N  N22  1  0.747998  0.751338  0.369660  1
  N  N23  1  0.247998  0.248662  0.130340  1
  N  N24  1  0.748480  0.762198  0.121763  1
  N  N25  1  0.248480  0.237802  0.378237  1
  N  N26  1  0.251520  0.237802  0.621763  1
  N  N27  1  0.751520  0.762198  0.878237  1
  N  N28  1  0.994192  0.511526  0.999848  1
  N  N29  1  0.494192  0.488474  0.500152  1
  N  N30  1  0.005808  0.488474  0.499848  1
  N  N31  1  0.505808  0.511526  0.000152  1
