# generated using pymatgen
data_Ho2Si14NiIr5
_symmetry_space_group_name_H-M   'P 1'
_cell_length_a   7.95798559
_cell_length_b   7.95798526
_cell_length_c   7.98789818
_cell_angle_alpha   57.22154449
_cell_angle_beta   57.22154168
_cell_angle_gamma   56.90100287
_symmetry_Int_Tables_number   1
_chemical_formula_structural   Ho2Si14NiIr5
_chemical_formula_sum   'Ho2 Si14 Ni1 Ir5'
_cell_volume   333.91246636
_cell_formula_units_Z   1
loop_
 _symmetry_equiv_pos_site_id
 _symmetry_equiv_pos_as_xyz
  1  'x, y, z'
loop_
 _atom_site_type_symbol
 _atom_site_label
 _atom_site_symmetry_multiplicity
 _atom_site_fract_x
 _atom_site_fract_y
 _atom_site_fract_z
 _atom_site_occupancy
  Ho  Ho0  1  0.999692  0.001915  0.999920  1
  Ho  Ho1  1  0.498085  0.500308  0.500080  1
  Si  Si2  1  0.756943  0.743057  0.750000  1
  Si  Si3  1  0.250839  0.249161  0.250000  1
  Si  Si4  1  0.851821  0.070152  0.669532  1
  Si  Si5  1  0.670206  0.853050  0.065634  1
  Si  Si6  1  0.058115  0.671141  0.849723  1
  Si  Si7  1  0.646950  0.829794  0.434366  1
  Si  Si8  1  0.429848  0.648179  0.830468  1
  Si  Si9  1  0.828859  0.441885  0.650277  1
  Si  Si10  1  0.178117  0.560316  0.350292  1
  Si  Si11  1  0.576620  0.351920  0.165568  1
  Si  Si12  1  0.346180  0.176846  0.572592  1
  Si  Si13  1  0.939684  0.321883  0.149708  1
  Si  Si14  1  0.323154  0.153820  0.927408  1
  Si  Si15  1  0.148080  0.923380  0.334432  1
  Ni  Ni16  1  0.069891  0.430109  0.750000  1
  Ir  Ir17  1  0.247908  0.930487  0.571923  1
  Ir  Ir18  1  0.569513  0.252092  0.928077  1
  Ir  Ir19  1  0.928308  0.571692  0.250000  1
  Ir  Ir20  1  0.432528  0.751343  0.065964  1
  Ir  Ir21  1  0.748657  0.067472  0.434036  1
