# generated using pymatgen
data_Ce3SmTh4(ReC2)4
_symmetry_space_group_name_H-M   'P 1'
_cell_length_a   5.32996700
_cell_length_b   6.69368577
_cell_length_c   9.99054970
_cell_angle_alpha   90.15087266
_cell_angle_beta   90.00000000
_cell_angle_gamma   90.00000000
_symmetry_Int_Tables_number   1
_chemical_formula_structural   Ce3SmTh4(ReC2)4
_chemical_formula_sum   'Ce3 Sm1 Th4 Re4 C8'
_cell_volume   356.43284759
_cell_formula_units_Z   1
loop_
 _symmetry_equiv_pos_site_id
 _symmetry_equiv_pos_as_xyz
  1  'x, y, z'
loop_
 _atom_site_type_symbol
 _atom_site_label
 _atom_site_symmetry_multiplicity
 _atom_site_fract_x
 _atom_site_fract_y
 _atom_site_fract_z
 _atom_site_occupancy
  Ce  Ce0  1  0.750000  0.187422  0.548004  1
  Ce  Ce1  1  0.250000  0.813052  0.452585  1
  Ce  Ce2  1  0.750000  0.686335  0.952449  1
  Sm  Sm3  1  0.250000  0.313155  0.049752  1
  Th  Th4  1  0.250000  0.973457  0.778666  1
  Th  Th5  1  0.750000  0.525932  0.280862  1
  Th  Th6  1  0.250000  0.473858  0.717329  1
  Th  Th7  1  0.750000  0.026785  0.219041  1
  Re  Re8  1  0.250000  0.768390  0.138818  1
  Re  Re9  1  0.750000  0.728875  0.637284  1
  Re  Re10  1  0.250000  0.270360  0.362014  1
  Re  Re11  1  0.750000  0.229514  0.861539  1
  C  C12  1  0.250000  0.167178  0.551288  1
  C  C13  1  0.750000  0.328746  0.049264  1
  C  C14  1  0.250000  0.675209  0.949564  1
  C  C15  1  0.750000  0.832711  0.448786  1
  C  C16  1  0.250000  0.532619  0.259791  1
  C  C17  1  0.750000  0.966409  0.756994  1
  C  C18  1  0.250000  0.032337  0.243089  1
  C  C19  1  0.750000  0.467655  0.742880  1
