# generated using pymatgen
data_Lu6Sn7Ru5
_symmetry_space_group_name_H-M   'P 1'
_cell_length_a   7.74154300
_cell_length_b   7.74154333
_cell_length_c   7.32203900
_cell_angle_alpha   90.00000000
_cell_angle_beta   90.00000000
_cell_angle_gamma   119.99999544
_symmetry_Int_Tables_number   1
_chemical_formula_structural   Lu6Sn7Ru5
_chemical_formula_sum   'Lu6 Sn7 Ru5'
_cell_volume   380.02990138
_cell_formula_units_Z   1
loop_
 _symmetry_equiv_pos_site_id
 _symmetry_equiv_pos_as_xyz
  1  'x, y, z'
loop_
 _atom_site_type_symbol
 _atom_site_label
 _atom_site_symmetry_multiplicity
 _atom_site_fract_x
 _atom_site_fract_y
 _atom_site_fract_z
 _atom_site_occupancy
  Lu  Lu0  1  0.386242  0.986220  0.239415  1
  Lu  Lu1  1  0.599978  0.613758  0.239415  1
  Lu  Lu2  1  0.013780  0.400022  0.239415  1
  Lu  Lu3  1  0.376884  0.974208  0.762964  1
  Lu  Lu4  1  0.597324  0.623116  0.762964  1
  Lu  Lu5  1  0.025792  0.402676  0.762964  1
  Sn  Sn6  1  0.284705  0.272547  0.998975  1
  Sn  Sn7  1  0.987841  0.715295  0.998975  1
  Sn  Sn8  1  0.015093  0.757095  0.497931  1
  Sn  Sn9  1  0.742002  0.984907  0.497931  1
  Sn  Sn10  1  0.242905  0.257998  0.497931  1
  Sn  Sn11  1  0.727453  0.012159  0.998975  1
  Sn  Sn12  1  0.666667  0.333333  0.522846  1
  Ru  Ru13  1  0.000000  0.000000  0.771553  1
  Ru  Ru14  1  0.000000  0.000000  0.224919  1
  Ru  Ru15  1  0.666667  0.333333  0.981499  1
  Ru  Ru16  1  0.333333  0.666667  0.496755  1
  Ru  Ru17  1  0.333333  0.666667  0.004573  1
