# generated using pymatgen
data_Pr4TmSi2Au
_symmetry_space_group_name_H-M   'P 1'
_cell_length_a   7.62924168
_cell_length_b   7.62924094
_cell_length_c   9.44426600
_cell_angle_alpha   113.82276047
_cell_angle_beta   113.82275800
_cell_angle_gamma   90.00001185
_symmetry_Int_Tables_number   1
_chemical_formula_structural   Pr4TmSi2Au
_chemical_formula_sum   'Pr8 Tm2 Si4 Au2'
_cell_volume   451.20007709
_cell_formula_units_Z   2
loop_
 _symmetry_equiv_pos_site_id
 _symmetry_equiv_pos_as_xyz
  1  'x, y, z'
loop_
 _atom_site_type_symbol
 _atom_site_label
 _atom_site_symmetry_multiplicity
 _atom_site_fract_x
 _atom_site_fract_y
 _atom_site_fract_z
 _atom_site_occupancy
  Pr  Pr0  1  0.963886  0.816080  0.280229  1
  Pr  Pr1  1  0.315517  0.463741  0.279551  1
  Pr  Pr2  1  0.816343  0.316080  0.280229  1
  Pr  Pr3  1  0.464033  0.963741  0.279551  1
  Pr  Pr4  1  0.036114  0.183920  0.719771  1
  Pr  Pr5  1  0.684483  0.536259  0.720449  1
  Pr  Pr6  1  0.183657  0.683920  0.719771  1
  Pr  Pr7  1  0.535967  0.036259  0.720449  1
  Tm  Tm8  1  0.500000  0.500000  0.000000  1
  Tm  Tm9  1  0.000000  0.000000  0.000000  1
  Si  Si10  1  0.619769  0.880341  0.000132  1
  Si  Si11  1  0.380231  0.119659  0.999868  1
  Si  Si12  1  0.880363  0.380341  0.000132  1
  Si  Si13  1  0.119637  0.619659  0.999868  1
  Au  Au14  1  0.750232  0.750000  0.500000  1
  Au  Au15  1  0.249768  0.250000  0.500000  1
