# generated using pymatgen
data_Hf6Zn5GaNi6
_symmetry_space_group_name_H-M   'P 1'
_cell_length_a   6.90113721
_cell_length_b   6.90113650
_cell_length_c   6.71064909
_cell_angle_alpha   90.00607326
_cell_angle_beta   89.99392652
_cell_angle_gamma   119.96219113
_symmetry_Int_Tables_number   1
_chemical_formula_structural   Hf6Zn5GaNi6
_chemical_formula_sum   'Hf6 Zn5 Ga1 Ni6'
_cell_volume   276.88649440
_cell_formula_units_Z   1
loop_
 _symmetry_equiv_pos_site_id
 _symmetry_equiv_pos_as_xyz
  1  'x, y, z'
loop_
 _atom_site_type_symbol
 _atom_site_label
 _atom_site_symmetry_multiplicity
 _atom_site_fract_x
 _atom_site_fract_y
 _atom_site_fract_z
 _atom_site_occupancy
  Hf  Hf0  1  0.403330  0.399423  0.248120  1
  Hf  Hf1  1  0.594706  0.998013  0.751768  1
  Hf  Hf2  1  0.399423  0.403330  0.751880  1
  Hf  Hf3  1  0.005776  0.598589  0.751683  1
  Hf  Hf4  1  0.998013  0.594706  0.248232  1
  Hf  Hf5  1  0.598589  0.005776  0.248317  1
  Zn  Zn6  1  0.259503  0.999815  0.999943  1
  Zn  Zn7  1  0.266137  0.000542  0.500026  1
  Zn  Zn8  1  0.000542  0.266137  0.499974  1
  Zn  Zn9  1  0.999815  0.259503  0.000057  1
  Zn  Zn10  1  0.738458  0.738458  0.000000  1
  Ga  Ga11  1  0.737446  0.737446  0.500000  1
  Ni  Ni12  1  0.667220  0.336206  0.506842  1
  Ni  Ni13  1  0.997404  0.997406  0.744326  1
  Ni  Ni14  1  0.666534  0.333492  0.993337  1
  Ni  Ni15  1  0.333492  0.666534  0.006663  1
  Ni  Ni16  1  0.336206  0.667220  0.493158  1
  Ni  Ni17  1  0.997406  0.997404  0.255674  1
