# generated using pymatgen
data_Pr5Nd11Cd4OsPd3
_symmetry_space_group_name_H-M   'P 1'
_cell_length_a   10.07431825
_cell_length_b   10.07528371
_cell_length_c   10.07528300
_cell_angle_alpha   59.54994297
_cell_angle_beta   59.52971139
_cell_angle_gamma   59.52971839
_symmetry_Int_Tables_number   1
_chemical_formula_structural   Pr5Nd11Cd4OsPd3
_chemical_formula_sum   'Pr5 Nd11 Cd4 Os1 Pd3'
_cell_volume   715.50631600
_cell_formula_units_Z   1
loop_
 _symmetry_equiv_pos_site_id
 _symmetry_equiv_pos_as_xyz
  1  'x, y, z'
loop_
 _atom_site_type_symbol
 _atom_site_label
 _atom_site_symmetry_multiplicity
 _atom_site_fract_x
 _atom_site_fract_y
 _atom_site_fract_z
 _atom_site_occupancy
  Pr  Pr0  1  0.556149  0.938288  0.938288  1
  Pr  Pr1  1  0.564529  0.935914  0.564323  1
  Pr  Pr2  1  0.938259  0.556113  0.937982  1
  Pr  Pr3  1  0.564529  0.564323  0.935914  1
  Pr  Pr4  1  0.938259  0.937982  0.556113  1
  Nd  Nd5  1  0.352451  0.352594  0.352594  1
  Nd  Nd6  1  0.347833  0.347878  0.950951  1
  Nd  Nd7  1  0.347833  0.950951  0.347878  1
  Nd  Nd8  1  0.950950  0.347965  0.347965  1
  Nd  Nd9  1  0.817184  0.188586  0.188586  1
  Nd  Nd10  1  0.188920  0.807861  0.807861  1
  Nd  Nd11  1  0.188437  0.817061  0.188784  1
  Nd  Nd12  1  0.807912  0.189163  0.807737  1
  Nd  Nd13  1  0.188437  0.188784  0.817061  1
  Nd  Nd14  1  0.807912  0.807737  0.189163  1
  Nd  Nd15  1  0.936223  0.564182  0.564182  1
  Cd  Cd16  1  0.579812  0.579565  0.579565  1
  Cd  Cd17  1  0.579978  0.579988  0.259508  1
  Cd  Cd18  1  0.579978  0.259508  0.579988  1
  Cd  Cd19  1  0.259195  0.580017  0.580017  1
  Os  Os20  1  0.143356  0.143357  0.143357  1
  Pd  Pd21  1  0.145143  0.145432  0.571540  1
  Pd  Pd22  1  0.145143  0.571540  0.145432  1
  Pd  Pd23  1  0.571577  0.145210  0.145210  1
