# generated using pymatgen
data_Ti6Ge6Mo2Ir3Rh
_symmetry_space_group_name_H-M   'P 1'
_cell_length_a   7.58786914
_cell_length_b   7.57762109
_cell_length_c   7.58171472
_cell_angle_alpha   126.72365734
_cell_angle_beta   124.23298490
_cell_angle_gamma   80.71128493
_symmetry_Int_Tables_number   1
_chemical_formula_structural   Ti6Ge6Mo2Ir3Rh
_chemical_formula_sum   'Ti6 Ge6 Mo2 Ir3 Rh1'
_cell_volume   278.62728865
_cell_formula_units_Z   1
loop_
 _symmetry_equiv_pos_site_id
 _symmetry_equiv_pos_as_xyz
  1  'x, y, z'
loop_
 _atom_site_type_symbol
 _atom_site_label
 _atom_site_symmetry_multiplicity
 _atom_site_fract_x
 _atom_site_fract_y
 _atom_site_fract_z
 _atom_site_occupancy
  Ti  Ti0  1  0.965751  0.731215  0.264393  1
  Ti  Ti1  1  0.035444  0.302102  0.767683  1
  Ti  Ti2  1  0.246762  0.169360  0.419619  1
  Ti  Ti3  1  0.751164  0.171045  0.921099  1
  Ti  Ti4  1  0.561156  0.350542  0.288262  1
  Ti  Ti5  1  0.438350  0.725772  0.787024  1
  Ge  Ge6  1  0.786651  0.805877  0.516517  1
  Ge  Ge7  1  0.214863  0.732831  0.019884  1
  Ge  Ge8  1  0.335964  0.071595  0.744630  1
  Ge  Ge9  1  0.663884  0.407024  0.734432  1
  Ge  Ge10  1  0.172214  0.408814  0.244481  1
  Ge  Ge11  1  0.826163  0.071299  0.236584  1
  Mo  Mo12  1  0.500427  0.496564  0.997292  1
  Mo  Mo13  1  0.000998  0.496871  0.498509  1
  Ir  Ir14  1  0.172577  0.004425  0.918558  1
  Ir  Ir15  1  0.826650  0.745568  0.830367  1
  Ir  Ir16  1  0.416733  0.745724  0.420455  1
  Rh  Rh17  1  0.584249  0.003777  0.330612  1
