# generated using pymatgen
data_Mg7U(FeB6)4
_symmetry_space_group_name_H-M   'P 1'
_cell_length_a   8.79112637
_cell_length_b   11.04781946
_cell_length_c   3.33388500
_cell_angle_alpha   90.00000000
_cell_angle_beta   90.00000000
_cell_angle_gamma   89.96683544
_symmetry_Int_Tables_number   1
_chemical_formula_structural   Mg7U(FeB6)4
_chemical_formula_sum   'Mg7 U1 Fe4 B24'
_cell_volume   323.79611512
_cell_formula_units_Z   1
loop_
 _symmetry_equiv_pos_site_id
 _symmetry_equiv_pos_as_xyz
  1  'x, y, z'
loop_
 _atom_site_type_symbol
 _atom_site_label
 _atom_site_symmetry_multiplicity
 _atom_site_fract_x
 _atom_site_fract_y
 _atom_site_fract_z
 _atom_site_occupancy
  Mg  Mg0  1  0.442291  0.132413  0.000000  1
  Mg  Mg1  1  0.944594  0.372641  0.000000  1
  Mg  Mg2  1  0.328129  0.417795  0.000000  1
  Mg  Mg3  1  0.669768  0.586565  0.000000  1
  Mg  Mg4  1  0.058462  0.631042  0.000000  1
  Mg  Mg5  1  0.555815  0.865742  0.000000  1
  Mg  Mg6  1  0.174891  0.909868  0.000000  1
  U  U7  1  0.822780  0.085244  0.000000  1
  Fe  Fe8  1  0.138894  0.180192  0.000000  1
  Fe  Fe9  1  0.644619  0.317126  0.000000  1
  Fe  Fe10  1  0.358744  0.680288  0.000000  1
  Fe  Fe11  1  0.858438  0.819763  0.000000  1
  B  B12  1  0.592369  0.024908  0.500001  1
  B  B13  1  0.057111  0.066248  0.500001  1
  B  B14  1  0.254266  0.081207  0.500001  1
  B  B15  1  0.629528  0.184429  0.500001  1
  B  B16  1  0.985023  0.212585  0.500001  1
  B  B17  1  0.294088  0.237693  0.500001  1
  B  B18  1  0.793178  0.266212  0.500001  1
  B  B19  1  0.481987  0.290250  0.500001  1
  B  B20  1  0.132192  0.318821  0.500001  1
  B  B21  1  0.752440  0.421992  0.500001  1
  B  B22  1  0.555610  0.434401  0.500001  1
  B  B23  1  0.095484  0.475073  0.500001  1
  B  B24  1  0.905313  0.526354  0.500001  1
  B  B25  1  0.444752  0.566139  0.500001  1
  B  B26  1  0.246731  0.581202  0.500001  1
  B  B27  1  0.869860  0.682378  0.500001  1
  B  B28  1  0.517442  0.710829  0.500001  1
  B  B29  1  0.205985  0.737454  0.500001  1
  B  B30  1  0.705304  0.760219  0.500001  1
  B  B31  1  0.018385  0.786572  0.500001  1
  B  B32  1  0.369394  0.817353  0.500001  1
  B  B33  1  0.746890  0.915300  0.500001  1
  B  B34  1  0.944979  0.930179  0.500001  1
  B  B35  1  0.404254  0.973517  0.500001  1
