# generated using pymatgen
data_Sc2PaAl7Cu2
_symmetry_space_group_name_H-M   'P 1'
_cell_length_a   8.92729692
_cell_length_b   8.92729767
_cell_length_c   8.92729718
_cell_angle_alpha   35.03540622
_cell_angle_beta   35.03539716
_cell_angle_gamma   35.03540755
_symmetry_Int_Tables_number   1
_chemical_formula_structural   Sc2PaAl7Cu2
_chemical_formula_sum   'Sc2 Pa1 Al7 Cu2'
_cell_volume   209.37667433
_cell_formula_units_Z   1
loop_
 _symmetry_equiv_pos_site_id
 _symmetry_equiv_pos_as_xyz
  1  'x, y, z'
loop_
 _atom_site_type_symbol
 _atom_site_label
 _atom_site_symmetry_multiplicity
 _atom_site_fract_x
 _atom_site_fract_y
 _atom_site_fract_z
 _atom_site_occupancy
  Sc  Sc0  1  0.859784  0.859784  0.859784  1
  Sc  Sc1  1  0.140216  0.140216  0.140216  1
  Pa  Pa2  1  0.000000  0.000000  0.000000  1
  Al  Al3  1  0.415889  0.415889  0.924890  1
  Al  Al4  1  0.924890  0.415889  0.415889  1
  Al  Al5  1  0.415889  0.924890  0.415889  1
  Al  Al6  1  0.500000  0.500000  0.500000  1
  Al  Al7  1  0.584111  0.075110  0.584111  1
  Al  Al8  1  0.075110  0.584111  0.584111  1
  Al  Al9  1  0.584111  0.584111  0.075110  1
  Cu  Cu10  1  0.665081  0.665081  0.665081  1
  Cu  Cu11  1  0.334919  0.334919  0.334919  1
