# generated using pymatgen
data_La8Nd12Si15Sn
_symmetry_space_group_name_H-M   'P 1'
_cell_length_a   7.97813036
_cell_length_b   7.95349657
_cell_length_c   15.44136825
_cell_angle_alpha   90.06922860
_cell_angle_beta   89.93590644
_cell_angle_gamma   90.01954042
_symmetry_Int_Tables_number   1
_chemical_formula_structural   La8Nd12Si15Sn
_chemical_formula_sum   'La8 Nd12 Si15 Sn1'
_cell_volume   979.81569614
_cell_formula_units_Z   1
loop_
 _symmetry_equiv_pos_site_id
 _symmetry_equiv_pos_as_xyz
  1  'x, y, z'
loop_
 _atom_site_type_symbol
 _atom_site_label
 _atom_site_symmetry_multiplicity
 _atom_site_fract_x
 _atom_site_fract_y
 _atom_site_fract_z
 _atom_site_occupancy
  La  La0  1  0.986930  0.621549  0.051752  1
  La  La1  1  0.011613  0.370539  0.555806  1
  La  La2  1  0.622642  0.987560  0.947567  1
  La  La3  1  0.122253  0.513202  0.802603  1
  La  La4  1  0.869921  0.480215  0.295444  1
  La  La5  1  0.513277  0.121844  0.196773  1
  La  La6  1  0.489133  0.878976  0.699397  1
  La  La7  1  0.382317  0.015559  0.447630  1
  Nd  Nd8  1  0.379332  0.478030  0.371597  1
  Nd  Nd9  1  0.863508  0.029437  0.371781  1
  Nd  Nd10  1  0.980429  0.128079  0.123107  1
  Nd  Nd11  1  0.017820  0.873537  0.627244  1
  Nd  Nd12  1  0.627576  0.518479  0.873819  1
  Nd  Nd13  1  0.483675  0.369894  0.628897  1
  Nd  Nd14  1  0.519322  0.626830  0.125737  1
  Nd  Nd15  1  0.127033  0.981419  0.877062  1
  Nd  Nd16  1  0.681848  0.691900  0.501618  1
  Nd  Nd17  1  0.810377  0.190852  0.750960  1
  Nd  Nd18  1  0.193647  0.811044  0.243321  1
  Nd  Nd19  1  0.308921  0.308709  0.999789  1
  Si  Si20  1  0.920537  0.286514  0.939552  1
  Si  Si21  1  0.715047  0.078681  0.560894  1
  Si  Si22  1  0.214370  0.421201  0.189521  1
  Si  Si23  1  0.787570  0.579136  0.690014  1
  Si  Si24  1  0.420328  0.214583  0.811633  1
  Si  Si25  1  0.579574  0.786271  0.310260  1
  Si  Si26  1  0.286466  0.921291  0.058649  1
  Si  Si27  1  0.831009  0.805143  0.797271  1
  Si  Si28  1  0.170064  0.194510  0.295562  1
  Si  Si29  1  0.805610  0.830264  0.203267  1
  Si  Si30  1  0.313552  0.667011  0.554191  1
  Si  Si31  1  0.695188  0.331737  0.046299  1
  Si  Si32  1  0.669550  0.307680  0.456144  1
  Si  Si33  1  0.331446  0.694502  0.953371  1
  Si  Si34  1  0.195030  0.168980  0.705382  1
  Sn  Sn35  1  0.073085  0.714843  0.436086  1
