# generated using pymatgen
data_Dy15Ho5Ir11Os
_symmetry_space_group_name_H-M   'P 1'
_cell_length_a   10.86889301
_cell_length_b   10.86847600
_cell_length_c   6.39384500
_cell_angle_alpha   90.00179758
_cell_angle_beta   89.99586354
_cell_angle_gamma   90.00027416
_symmetry_Int_Tables_number   1
_chemical_formula_structural   Dy15Ho5Ir11Os
_chemical_formula_sum   'Dy15 Ho5 Ir11 Os1'
_cell_volume   755.29405651
_cell_formula_units_Z   1
loop_
 _symmetry_equiv_pos_site_id
 _symmetry_equiv_pos_as_xyz
  1  'x, y, z'
loop_
 _atom_site_type_symbol
 _atom_site_label
 _atom_site_symmetry_multiplicity
 _atom_site_fract_x
 _atom_site_fract_y
 _atom_site_fract_z
 _atom_site_occupancy
  Dy  Dy0  1  0.292256  0.087176  0.375987  1
  Dy  Dy1  1  0.292653  0.912946  0.879337  1
  Dy  Dy2  1  0.707345  0.087066  0.879364  1
  Dy  Dy3  1  0.707698  0.912886  0.376054  1
  Dy  Dy4  1  0.587057  0.792654  0.879352  1
  Dy  Dy5  1  0.587105  0.207708  0.376054  1
  Dy  Dy6  1  0.412882  0.792290  0.376044  1
  Dy  Dy7  1  0.412910  0.207349  0.879386  1
  Dy  Dy8  1  0.209127  0.411956  0.622010  1
  Dy  Dy9  1  0.209083  0.587757  0.121824  1
  Dy  Dy10  1  0.790961  0.412133  0.121838  1
  Dy  Dy11  1  0.790845  0.587983  0.622023  1
  Dy  Dy12  1  0.912165  0.709097  0.121845  1
  Dy  Dy13  1  0.912068  0.290835  0.621996  1
  Dy  Dy14  1  0.087981  0.709168  0.622029  1
  Ho  Ho15  1  0.087814  0.291045  0.121693  1
  Ho  Ho16  1  0.000009  0.000018  0.499617  1
  Ho  Ho17  1  0.000046  0.000100  0.999630  1
  Ho  Ho18  1  0.499995  0.499983  0.999598  1
  Ho  Ho19  1  0.499997  0.500000  0.499634  1
  Ir  Ir20  1  0.847657  0.153698  0.250278  1
  Ir  Ir21  1  0.847606  0.846588  0.749958  1
  Ir  Ir22  1  0.152328  0.153507  0.750239  1
  Ir  Ir23  1  0.152445  0.846354  0.250346  1
  Ir  Ir24  1  0.653418  0.347609  0.749946  1
  Ir  Ir25  1  0.653647  0.652462  0.250330  1
  Ir  Ir26  1  0.346201  0.347510  0.250277  1
  Ir  Ir27  1  0.346583  0.652385  0.749959  1
  Ir  Ir28  1  0.500009  0.000006  0.621832  1
  Ir  Ir29  1  0.000052  0.499855  0.879207  1
  Ir  Ir30  1  0.000058  0.499881  0.379167  1
  Os  Os31  1  0.499998  0.999998  0.123143  1
