# generated using pymatgen
data_DyYEr6(WO6)4
_symmetry_space_group_name_H-M   'P 1'
_cell_length_a   5.37291800
_cell_length_b   7.67653202
_cell_length_c   11.42470400
_cell_angle_alpha   75.33281265
_cell_angle_beta   90.00000000
_cell_angle_gamma   90.00000000
_symmetry_Int_Tables_number   1
_chemical_formula_structural   DyYEr6(WO6)4
_chemical_formula_sum   'Dy1 Y1 Er6 W4 O24'
_cell_volume   455.86066281
_cell_formula_units_Z   1
loop_
 _symmetry_equiv_pos_site_id
 _symmetry_equiv_pos_as_xyz
  1  'x, y, z'
loop_
 _atom_site_type_symbol
 _atom_site_label
 _atom_site_symmetry_multiplicity
 _atom_site_fract_x
 _atom_site_fract_y
 _atom_site_fract_z
 _atom_site_occupancy
  Dy  Dy0  1  0.315615  0.500000  0.750000  1
  Y  Y1  1  0.684433  0.500000  0.250000  1
  Er  Er2  1  0.183624  0.205308  0.421961  1
  Er  Er3  1  0.183624  0.794692  0.078039  1
  Er  Er4  1  0.816417  0.794613  0.578102  1
  Er  Er5  1  0.816417  0.205387  0.921898  1
  Er  Er6  1  0.740427  0.000000  0.250000  1
  Er  Er7  1  0.259603  0.000000  0.750000  1
  W  W8  1  0.255909  0.275822  0.114834  1
  W  W9  1  0.255909  0.724178  0.385166  1
  W  W10  1  0.744076  0.724099  0.885011  1
  W  W11  1  0.744076  0.275901  0.614989  1
  O  O12  1  0.458341  0.207258  0.273777  1
  O  O13  1  0.458341  0.792742  0.226223  1
  O  O14  1  0.541442  0.792403  0.726248  1
  O  O15  1  0.541442  0.207597  0.773752  1
  O  O16  1  0.043485  0.059385  0.104502  1
  O  O17  1  0.043485  0.940615  0.395498  1
  O  O18  1  0.956521  0.940641  0.895461  1
  O  O19  1  0.956521  0.059359  0.604539  1
  O  O20  1  0.981108  0.287846  0.229191  1
  O  O21  1  0.981108  0.712154  0.270809  1
  O  O22  1  0.019299  0.711765  0.770835  1
  O  O23  1  0.019299  0.288235  0.729165  1
  O  O24  1  0.850060  0.364949  0.451606  1
  O  O25  1  0.850060  0.635051  0.048394  1
  O  O26  1  0.150189  0.634948  0.548634  1
  O  O27  1  0.150189  0.365052  0.951366  1
  O  O28  1  0.640241  0.510698  0.614346  1
  O  O29  1  0.640241  0.489302  0.885654  1
  O  O30  1  0.359144  0.489244  0.385908  1
  O  O31  1  0.359144  0.510756  0.114092  1
  O  O32  1  0.463609  0.153155  0.569458  1
  O  O33  1  0.463609  0.846845  0.930542  1
  O  O34  1  0.536498  0.846860  0.430559  1
  O  O35  1  0.536498  0.153140  0.069441  1
