# generated using pymatgen
data_Y6Er2Si8Pd3Pt5
_symmetry_space_group_name_H-M   'P 1'
_cell_length_a   4.26846500
_cell_length_b   7.51255662
_cell_length_c   14.08849412
_cell_angle_alpha   89.98420284
_cell_angle_beta   90.00000000
_cell_angle_gamma   90.00000000
_symmetry_Int_Tables_number   1
_chemical_formula_structural   Y6Er2Si8Pd3Pt5
_chemical_formula_sum   'Y6 Er2 Si8 Pd3 Pt5'
_cell_volume   451.77692149
_cell_formula_units_Z   1
loop_
 _symmetry_equiv_pos_site_id
 _symmetry_equiv_pos_as_xyz
  1  'x, y, z'
loop_
 _atom_site_type_symbol
 _atom_site_label
 _atom_site_symmetry_multiplicity
 _atom_site_fract_x
 _atom_site_fract_y
 _atom_site_fract_z
 _atom_site_occupancy
  Y  Y0  1  0.000000  0.299718  0.000150  1
  Y  Y1  1  0.500000  0.699989  0.500188  1
  Y  Y2  1  0.000000  0.292689  0.499636  1
  Y  Y3  1  0.500000  0.706732  0.999835  1
  Y  Y4  1  0.500000  0.795901  0.249740  1
  Y  Y5  1  0.500000  0.796284  0.750667  1
  Er  Er6  1  0.000000  0.204064  0.249844  1
  Er  Er7  1  0.000000  0.204552  0.749776  1
  Si  Si8  1  0.000000  0.907984  0.592466  1
  Si  Si9  1  0.500000  0.092801  0.907555  1
  Si  Si10  1  0.000000  0.908175  0.407846  1
  Si  Si11  1  0.500000  0.094500  0.093445  1
  Si  Si12  1  0.000000  0.593050  0.144551  1
  Si  Si13  1  0.500000  0.403096  0.352953  1
  Si  Si14  1  0.000000  0.595735  0.857051  1
  Si  Si15  1  0.500000  0.403235  0.643905  1
  Pd  Pd16  1  0.000000  0.579176  0.343556  1
  Pd  Pd17  1  0.500000  0.420261  0.839590  1
  Pd  Pd18  1  0.000000  0.577437  0.658615  1
  Pt  Pt19  1  0.500000  0.075355  0.609223  1
  Pt  Pt20  1  0.000000  0.927062  0.891089  1
  Pt  Pt21  1  0.500000  0.075352  0.391240  1
  Pt  Pt22  1  0.000000  0.925718  0.109168  1
  Pt  Pt23  1  0.500000  0.421131  0.157911  1
