# generated using pymatgen
data_ZrTi4(Re3Tc)6
_symmetry_space_group_name_H-M   'P 1'
_cell_length_a   8.39456236
_cell_length_b   8.39456184
_cell_length_c   8.37788815
_cell_angle_alpha   109.47532854
_cell_angle_beta   109.47532576
_cell_angle_gamma   109.54350296
_symmetry_Int_Tables_number   1
_chemical_formula_structural   ZrTi4(Re3Tc)6
_chemical_formula_sum   'Zr1 Ti4 Re18 Tc6'
_cell_volume   454.02149854
_cell_formula_units_Z   1
loop_
 _symmetry_equiv_pos_site_id
 _symmetry_equiv_pos_as_xyz
  1  'x, y, z'
loop_
 _atom_site_type_symbol
 _atom_site_label
 _atom_site_symmetry_multiplicity
 _atom_site_fract_x
 _atom_site_fract_y
 _atom_site_fract_z
 _atom_site_occupancy
  Zr  Zr0  1  0.999593  0.999593  0.000000  1
  Ti  Ti1  1  0.626927  0.999389  0.000000  1
  Ti  Ti2  1  0.999389  0.626927  0.000000  1
  Ti  Ti3  1  0.999661  0.999661  0.628197  1
  Ti  Ti4  1  0.371465  0.371465  0.371803  1
  Re  Re5  1  0.319204  0.319204  0.720577  1
  Re  Re6  1  0.001038  0.681525  0.400244  1
  Re  Re7  1  0.681525  0.001038  0.400244  1
  Re  Re8  1  0.598626  0.598626  0.279423  1
  Re  Re9  1  0.281282  0.600794  0.599756  1
  Re  Re10  1  0.600794  0.281282  0.599756  1
  Re  Re11  1  0.377198  0.194584  0.000000  1
  Re  Re12  1  0.181068  0.805870  0.805142  1
  Re  Re13  1  0.375926  0.000729  0.194858  1
  Re  Re14  1  0.194584  0.377198  0.000000  1
  Re  Re15  1  0.000729  0.375926  0.194858  1
  Re  Re16  1  0.805870  0.181068  0.805142  1
  Re  Re17  1  0.806479  0.806479  0.183057  1
  Re  Re18  1  0.001013  0.194448  0.379053  1
  Re  Re19  1  0.194448  0.001013  0.379053  1
  Re  Re20  1  0.623422  0.623422  0.816943  1
  Re  Re21  1  0.815394  0.621959  0.620947  1
  Re  Re22  1  0.621959  0.815394  0.620947  1
  Tc  Tc23  1  0.400434  0.682682  0.000000  1
  Tc  Tc24  1  0.718711  0.317366  0.316432  1
  Tc  Tc25  1  0.402280  0.000934  0.683568  1
  Tc  Tc26  1  0.682682  0.400434  0.000000  1
  Tc  Tc27  1  0.000934  0.402280  0.683568  1
  Tc  Tc28  1  0.317366  0.718711  0.316432  1
