# generated using pymatgen
data_TlAg5Se3
_symmetry_space_group_name_H-M   'P 1'
_cell_length_a   13.99119800
_cell_length_b   13.99123285
_cell_length_c   8.35401000
_cell_angle_alpha   90.00000000
_cell_angle_beta   90.00000000
_cell_angle_gamma   120.00013986
_symmetry_Int_Tables_number   1
_chemical_formula_structural   TlAg5Se3
_chemical_formula_sum   'Tl6 Ag30 Se18'
_cell_volume   1416.23687300
_cell_formula_units_Z   6
loop_
 _symmetry_equiv_pos_site_id
 _symmetry_equiv_pos_as_xyz
  1  'x, y, z'
loop_
 _atom_site_type_symbol
 _atom_site_label
 _atom_site_symmetry_multiplicity
 _atom_site_fract_x
 _atom_site_fract_y
 _atom_site_fract_z
 _atom_site_occupancy
  Tl  Tl0  1  0.666667  0.333332  0.248152  1
  Tl  Tl1  1  0.333332  0.666666  0.249915  1
  Tl  Tl2  1  0.000000  0.000000  0.251625  1
  Tl  Tl3  1  0.000000  0.000000  0.748373  1
  Tl  Tl4  1  0.333332  0.666666  0.750086  1
  Tl  Tl5  1  0.666667  0.333332  0.751848  1
  Ag  Ag6  1  0.331643  0.032089  0.000000  1
  Ag  Ag7  1  0.967913  0.299558  0.000000  1
  Ag  Ag8  1  0.327731  0.368350  0.000000  1
  Ag  Ag9  1  0.700448  0.668359  0.000000  1
  Ag  Ag10  1  0.040615  0.672269  0.000000  1
  Ag  Ag11  1  0.631655  0.959385  0.000000  1
  Ag  Ag12  1  0.518213  0.518896  0.249801  1
  Ag  Ag13  1  0.000684  0.481788  0.249801  1
  Ag  Ag14  1  0.481100  0.999313  0.249800  1
  Ag  Ag15  1  0.796240  0.129609  0.250018  1
  Ag  Ag16  1  0.333365  0.203763  0.250017  1
  Ag  Ag17  1  0.870394  0.666626  0.250020  1
  Ag  Ag18  1  0.148263  0.334023  0.250182  1
  Ag  Ag19  1  0.185757  0.851737  0.250178  1
  Ag  Ag20  1  0.665986  0.814247  0.250184  1
  Ag  Ag21  1  0.335235  0.033797  0.500000  1
  Ag  Ag22  1  0.966202  0.301441  0.500000  1
  Ag  Ag23  1  0.338789  0.373717  0.500000  1
  Ag  Ag24  1  0.034930  0.661203  0.500000  1
  Ag  Ag25  1  0.698558  0.664767  0.500000  1
  Ag  Ag26  1  0.626283  0.965074  0.500000  1
  Ag  Ag27  1  0.665986  0.814247  0.749817  1
  Ag  Ag28  1  0.185757  0.851737  0.749822  1
  Ag  Ag29  1  0.148263  0.334023  0.749818  1
  Ag  Ag30  1  0.870394  0.666626  0.749981  1
  Ag  Ag31  1  0.796240  0.129609  0.749983  1
  Ag  Ag32  1  0.333365  0.203763  0.749984  1
  Ag  Ag33  1  0.481100  0.999313  0.750200  1
  Ag  Ag34  1  0.000684  0.481788  0.750200  1
  Ag  Ag35  1  0.518213  0.518896  0.750199  1
  Se  Se36  1  0.748559  0.199491  0.000000  1
  Se  Se37  1  0.110500  0.217879  0.000000  1
  Se  Se38  1  0.450929  0.251439  0.000000  1
  Se  Se39  1  0.118022  0.532437  0.000000  1
  Se  Se40  1  0.800507  0.549067  0.000000  1
  Se  Se41  1  0.467566  0.585586  0.000000  1
  Se  Se42  1  0.107366  0.889495  0.000000  1
  Se  Se43  1  0.782130  0.892634  0.000000  1
  Se  Se44  1  0.414415  0.881978  0.000000  1
  Se  Se45  1  0.866320  0.082089  0.500000  1
  Se  Se46  1  0.559482  0.115503  0.500000  1
  Se  Se47  1  0.215767  0.133678  0.500000  1
  Se  Se48  1  0.199182  0.451424  0.500000  1
  Se  Se49  1  0.556020  0.440516  0.500000  1
  Se  Se50  1  0.884495  0.443978  0.500000  1
  Se  Se51  1  0.548579  0.747759  0.500000  1
  Se  Se52  1  0.917912  0.784229  0.500000  1
  Se  Se53  1  0.252243  0.800819  0.500000  1
