# generated using pymatgen
data_Zn22IrPt3
_symmetry_space_group_name_H-M   'P 1'
_cell_length_a   7.93356710
_cell_length_b   7.93356685
_cell_length_c   7.93356701
_cell_angle_alpha   109.46912413
_cell_angle_beta   109.46912881
_cell_angle_gamma   109.46911166
_symmetry_Int_Tables_number   1
_chemical_formula_structural   Zn22IrPt3
_chemical_formula_sum   'Zn22 Ir1 Pt3'
_cell_volume   384.43005639
_cell_formula_units_Z   1
loop_
 _symmetry_equiv_pos_site_id
 _symmetry_equiv_pos_as_xyz
  1  'x, y, z'
loop_
 _atom_site_type_symbol
 _atom_site_label
 _atom_site_symmetry_multiplicity
 _atom_site_fract_x
 _atom_site_fract_y
 _atom_site_fract_z
 _atom_site_occupancy
  Zn  Zn0  1  0.728113  0.377939  0.728113  1
  Zn  Zn1  1  0.621609  0.352457  0.352457  1
  Zn  Zn2  1  0.352457  0.352457  0.621609  1
  Zn  Zn3  1  0.650279  0.273599  0.001444  1
  Zn  Zn4  1  0.220855  0.220855  0.220855  1
  Zn  Zn5  1  0.997342  0.997342  0.782893  1
  Zn  Zn6  1  0.782893  0.997342  0.997342  1
  Zn  Zn7  1  0.997342  0.782893  0.997342  1
  Zn  Zn8  1  0.355107  0.355107  0.993717  1
  Zn  Zn9  1  0.999632  0.641550  0.641550  1
  Zn  Zn10  1  0.993717  0.355107  0.355107  1
  Zn  Zn11  1  0.355107  0.993717  0.355107  1
  Zn  Zn12  1  0.641550  0.999632  0.641550  1
  Zn  Zn13  1  0.641550  0.641550  0.999632  1
  Zn  Zn14  1  0.352457  0.621609  0.352457  1
  Zn  Zn15  1  0.273599  0.001444  0.650279  1
  Zn  Zn16  1  0.650279  0.001444  0.273599  1
  Zn  Zn17  1  0.273599  0.650279  0.001444  1
  Zn  Zn18  1  0.728113  0.728113  0.377939  1
  Zn  Zn19  1  0.377939  0.728113  0.728113  1
  Zn  Zn20  1  0.001444  0.650279  0.273599  1
  Zn  Zn21  1  0.001444  0.273599  0.650279  1
  Ir  Ir22  1  0.654339  0.654339  0.654339  1
  Pt  Pt23  1  0.001152  0.346930  0.001152  1
  Pt  Pt24  1  0.346930  0.001152  0.001152  1
  Pt  Pt25  1  0.001152  0.001152  0.346930  1
