# generated using pymatgen
data_Dy7HoTc3B24Ru
_symmetry_space_group_name_H-M   'P 1'
_cell_length_a   3.68136400
_cell_length_b   9.15254588
_cell_length_c   11.53865102
_cell_angle_alpha   89.92327626
_cell_angle_beta   90.00000000
_cell_angle_gamma   90.00000000
_symmetry_Int_Tables_number   1
_chemical_formula_structural   Dy7HoTc3B24Ru
_chemical_formula_sum   'Dy7 Ho1 Tc3 B24 Ru1'
_cell_volume   388.78126143
_cell_formula_units_Z   1
loop_
 _symmetry_equiv_pos_site_id
 _symmetry_equiv_pos_as_xyz
  1  'x, y, z'
loop_
 _atom_site_type_symbol
 _atom_site_label
 _atom_site_symmetry_multiplicity
 _atom_site_fract_x
 _atom_site_fract_y
 _atom_site_fract_z
 _atom_site_occupancy
  Dy  Dy0  1  0.000000  0.323809  0.413969  1
  Dy  Dy1  1  0.000000  0.674942  0.584137  1
  Dy  Dy2  1  0.000000  0.823119  0.087204  1
  Dy  Dy3  1  0.000000  0.177789  0.914509  1
  Dy  Dy4  1  0.000000  0.942509  0.370186  1
  Dy  Dy5  1  0.000000  0.057779  0.630827  1
  Dy  Dy6  1  0.000000  0.443078  0.129976  1
  Ho  Ho7  1  0.000000  0.557955  0.868978  1
  Tc  Tc8  1  0.000000  0.638350  0.320624  1
  Tc  Tc9  1  0.000000  0.361894  0.680019  1
  Tc  Tc10  1  0.000000  0.138005  0.178239  1
  B  B11  1  0.500000  0.553077  0.432788  1
  B  B12  1  0.500000  0.446675  0.566865  1
  B  B13  1  0.500000  0.053109  0.066913  1
  B  B14  1  0.500000  0.945979  0.932701  1
  B  B15  1  0.500000  0.748211  0.418633  1
  B  B16  1  0.500000  0.251131  0.581500  1
  B  B17  1  0.500000  0.248887  0.081273  1
  B  B18  1  0.500000  0.751498  0.918323  1
  B  B19  1  0.500000  0.791496  0.265612  1
  B  B20  1  0.500000  0.208815  0.735155  1
  B  B21  1  0.500000  0.291495  0.234529  1
  B  B22  1  0.500000  0.709244  0.765411  1
  B  B23  1  0.500000  0.631309  0.185681  1
  B  B24  1  0.500000  0.369122  0.814922  1
  B  B25  1  0.500000  0.130737  0.313980  1
  B  B26  1  0.500000  0.868550  0.685978  1
  B  B27  1  0.500000  0.982099  0.211726  1
  B  B28  1  0.500000  0.016360  0.788514  1
  B  B29  1  0.500000  0.482492  0.288008  1
  B  B30  1  0.500000  0.517574  0.711768  1
  B  B31  1  0.500000  0.602519  0.027872  1
  B  B32  1  0.500000  0.399357  0.971232  1
  B  B33  1  0.500000  0.101926  0.471979  1
  B  B34  1  0.500000  0.897739  0.528898  1
  Ru  Ru35  1  0.000000  0.861370  0.821072  1
