# generated using pymatgen
data_YbGdB8
_symmetry_space_group_name_H-M   'P 1'
_cell_length_a   7.12629531
_cell_length_b   7.12629531
_cell_length_c   4.04926800
_cell_angle_alpha   90.00000000
_cell_angle_beta   90.00000000
_cell_angle_gamma   90.11042208
_symmetry_Int_Tables_number   1
_chemical_formula_structural   YbGdB8
_chemical_formula_sum   'Yb2 Gd2 B16'
_cell_volume   205.63798770
_cell_formula_units_Z   2
loop_
 _symmetry_equiv_pos_site_id
 _symmetry_equiv_pos_as_xyz
  1  'x, y, z'
loop_
 _atom_site_type_symbol
 _atom_site_label
 _atom_site_symmetry_multiplicity
 _atom_site_fract_x
 _atom_site_fract_y
 _atom_site_fract_z
 _atom_site_occupancy
  Yb  Yb0  1  0.316233  0.183767  0.000000  1
  Yb  Yb1  1  0.683767  0.816233  0.000000  1
  Gd  Gd2  1  0.815184  0.315184  0.000000  1
  Gd  Gd3  1  0.184816  0.684816  0.000000  1
  B  B4  1  0.500000  0.500000  0.796518  1
  B  B5  1  0.000000  0.000000  0.796518  1
  B  B6  1  0.500000  0.500000  0.203482  1
  B  B7  1  0.000000  0.000000  0.203482  1
  B  B8  1  0.913670  0.586330  0.500000  1
  B  B9  1  0.086330  0.413670  0.500000  1
  B  B10  1  0.413186  0.913186  0.500000  1
  B  B11  1  0.586814  0.086814  0.500000  1
  B  B12  1  0.675013  0.538489  0.500000  1
  B  B13  1  0.324987  0.461511  0.500000  1
  B  B14  1  0.176498  0.963365  0.500000  1
  B  B15  1  0.823502  0.036635  0.500000  1
  B  B16  1  0.463365  0.676498  0.500000  1
  B  B17  1  0.536635  0.323502  0.500000  1
  B  B18  1  0.038489  0.175013  0.500000  1
  B  B19  1  0.961511  0.824987  0.500000  1
