# generated using pymatgen
data_Rb2Mn(GeO3)2
_symmetry_space_group_name_H-M   'P 1'
_cell_length_a   6.14891409
_cell_length_b   6.14891359
_cell_length_c   11.23179100
_cell_angle_alpha   90.00000000
_cell_angle_beta   90.00000000
_cell_angle_gamma   113.43799623
_symmetry_Int_Tables_number   1
_chemical_formula_structural   Rb2Mn(GeO3)2
_chemical_formula_sum   'Rb4 Mn2 Ge4 O12'
_cell_volume   389.62576313
_cell_formula_units_Z   2
loop_
 _symmetry_equiv_pos_site_id
 _symmetry_equiv_pos_as_xyz
  1  'x, y, z'
loop_
 _atom_site_type_symbol
 _atom_site_label
 _atom_site_symmetry_multiplicity
 _atom_site_fract_x
 _atom_site_fract_y
 _atom_site_fract_z
 _atom_site_occupancy
  Rb  Rb0  1  0.781495  0.432369  0.924583  1
  Rb  Rb1  1  0.567631  0.218505  0.575417  1
  Rb  Rb2  1  0.218505  0.567631  0.424583  1
  Rb  Rb3  1  0.432369  0.781495  0.075417  1
  Mn  Mn4  1  0.691795  0.308205  0.250000  1
  Mn  Mn5  1  0.308205  0.691795  0.750000  1
  Ge  Ge6  1  0.831834  0.865360  0.362844  1
  Ge  Ge7  1  0.134640  0.168166  0.137156  1
  Ge  Ge8  1  0.168166  0.134640  0.862844  1
  Ge  Ge9  1  0.865360  0.831834  0.637156  1
  O  O10  1  0.622176  0.984983  0.333680  1
  O  O11  1  0.555477  0.713965  0.622818  1
  O  O12  1  0.713965  0.555477  0.377182  1
  O  O13  1  0.377824  0.015017  0.833680  1
  O  O14  1  0.994462  0.994462  0.500000  1
  O  O15  1  0.444523  0.286035  0.122818  1
  O  O16  1  0.059885  0.940115  0.250000  1
  O  O17  1  0.286035  0.444523  0.877182  1
  O  O18  1  0.005538  0.005538  0.000000  1
  O  O19  1  0.940115  0.059885  0.750000  1
  O  O20  1  0.015017  0.377824  0.166320  1
  O  O21  1  0.984983  0.622176  0.666320  1
