# generated using pymatgen
data_CaPr6SeBr12
_symmetry_space_group_name_H-M   'P 1'
_cell_length_a   9.46106213
_cell_length_b   9.44598016
_cell_length_c   9.46501423
_cell_angle_alpha   106.87425004
_cell_angle_beta   106.78332154
_cell_angle_gamma   106.77293149
_symmetry_Int_Tables_number   1
_chemical_formula_structural   CaPr6SeBr12
_chemical_formula_sum   'Ca1 Pr6 Se1 Br12'
_cell_volume   708.07182069
_cell_formula_units_Z   1
loop_
 _symmetry_equiv_pos_site_id
 _symmetry_equiv_pos_as_xyz
  1  'x, y, z'
loop_
 _atom_site_type_symbol
 _atom_site_label
 _atom_site_symmetry_multiplicity
 _atom_site_fract_x
 _atom_site_fract_y
 _atom_site_fract_z
 _atom_site_occupancy
  Ca  Ca0  1  0.500000  0.500000  0.500000  1
  Pr  Pr1  1  0.321251  0.105975  0.025866  1
  Pr  Pr2  1  0.025990  0.321248  0.106249  1
  Pr  Pr3  1  0.105998  0.025982  0.321293  1
  Pr  Pr4  1  0.894002  0.974018  0.678708  1
  Pr  Pr5  1  0.974010  0.678753  0.893752  1
  Pr  Pr6  1  0.678750  0.894025  0.974135  1
  Se  Se7  1  0.000000  0.000000  0.000000  1
  Br  Br8  1  0.682076  0.228041  0.073173  1
  Br  Br9  1  0.378329  0.460932  0.162654  1
  Br  Br10  1  0.073026  0.682035  0.227671  1
  Br  Br11  1  0.772057  0.927062  0.318084  1
  Br  Br12  1  0.460793  0.162481  0.378234  1
  Br  Br13  1  0.162672  0.378483  0.461217  1
  Br  Br14  1  0.837328  0.621518  0.538783  1
  Br  Br15  1  0.539207  0.837520  0.621766  1
  Br  Br16  1  0.227944  0.072939  0.681916  1
  Br  Br17  1  0.926974  0.317965  0.772330  1
  Br  Br18  1  0.621672  0.539068  0.837346  1
  Br  Br19  1  0.317925  0.771959  0.926827  1
