# generated using pymatgen
data_RbGaAu4
_symmetry_space_group_name_H-M   'P 1'
_cell_length_a   5.81971200
_cell_length_b   7.17782600
_cell_length_c   13.90976900
_cell_angle_alpha   90.00000000
_cell_angle_beta   90.00000000
_cell_angle_gamma   90.00000000
_symmetry_Int_Tables_number   1
_chemical_formula_structural   RbGaAu4
_chemical_formula_sum   'Rb4 Ga4 Au16'
_cell_volume   581.05111274
_cell_formula_units_Z   4
loop_
 _symmetry_equiv_pos_site_id
 _symmetry_equiv_pos_as_xyz
  1  'x, y, z'
loop_
 _atom_site_type_symbol
 _atom_site_label
 _atom_site_symmetry_multiplicity
 _atom_site_fract_x
 _atom_site_fract_y
 _atom_site_fract_z
 _atom_site_occupancy
  Rb  Rb0  1  0.239155  0.105160  0.078778  1
  Rb  Rb1  1  0.260845  0.394840  0.578778  1
  Rb  Rb2  1  0.739155  0.894840  0.921222  1
  Rb  Rb3  1  0.760845  0.605160  0.421222  1
  Ga  Ga4  1  0.999110  0.895813  0.651044  1
  Ga  Ga5  1  0.500890  0.604187  0.151044  1
  Ga  Ga6  1  0.499110  0.104187  0.348956  1
  Ga  Ga7  1  0.000890  0.395813  0.848956  1
  Au  Au8  1  0.991746  0.112067  0.344124  1
  Au  Au9  1  0.508254  0.387933  0.844124  1
  Au  Au10  1  0.491746  0.887933  0.655876  1
  Au  Au11  1  0.008254  0.612067  0.155876  1
  Au  Au12  1  0.219018  0.099410  0.788899  1
  Au  Au13  1  0.280982  0.400590  0.288899  1
  Au  Au14  1  0.719018  0.900590  0.211101  1
  Au  Au15  1  0.780982  0.599410  0.711101  1
  Au  Au16  1  0.230836  0.702889  0.795484  1
  Au  Au17  1  0.269164  0.797111  0.295484  1
  Au  Au18  1  0.730836  0.297111  0.204516  1
  Au  Au19  1  0.769164  0.202889  0.704516  1
  Au  Au20  1  0.272757  0.575148  0.990445  1
  Au  Au21  1  0.227243  0.924852  0.490445  1
  Au  Au22  1  0.772757  0.424852  0.009555  1
  Au  Au23  1  0.727243  0.075148  0.509555  1
