# generated using pymatgen
data_Tb3DySn6Ir7
_symmetry_space_group_name_H-M   'P 1'
_cell_length_a   7.61121297
_cell_length_b   7.61121314
_cell_length_c   7.61121327
_cell_angle_alpha   109.45605865
_cell_angle_beta   109.45605143
_cell_angle_gamma   109.45607030
_symmetry_Int_Tables_number   1
_chemical_formula_structural   Tb3DySn6Ir7
_chemical_formula_sum   'Tb3 Dy1 Sn6 Ir7'
_cell_volume   339.61220538
_cell_formula_units_Z   1
loop_
 _symmetry_equiv_pos_site_id
 _symmetry_equiv_pos_as_xyz
  1  'x, y, z'
loop_
 _atom_site_type_symbol
 _atom_site_label
 _atom_site_symmetry_multiplicity
 _atom_site_fract_x
 _atom_site_fract_y
 _atom_site_fract_z
 _atom_site_occupancy
  Tb  Tb0  1  0.000000  0.000000  0.500000  1
  Tb  Tb1  1  0.000000  0.500000  0.000000  1
  Tb  Tb2  1  0.500000  0.000000  0.000000  1
  Dy  Dy3  1  0.500000  0.500000  0.500000  1
  Sn  Sn4  1  0.685580  0.685580  0.999778  1
  Sn  Sn5  1  0.314420  0.000222  0.314420  1
  Sn  Sn6  1  0.000222  0.314420  0.314420  1
  Sn  Sn7  1  0.314420  0.314420  0.000222  1
  Sn  Sn8  1  0.685580  0.999778  0.685580  1
  Sn  Sn9  1  0.999778  0.685580  0.685580  1
  Ir  Ir10  1  0.749838  0.250162  0.500000  1
  Ir  Ir11  1  0.749838  0.500000  0.250162  1
  Ir  Ir12  1  0.500000  0.250162  0.749838  1
  Ir  Ir13  1  0.250162  0.500000  0.749838  1
  Ir  Ir14  1  0.250162  0.749838  0.500000  1
  Ir  Ir15  1  0.500000  0.749838  0.250162  1
  Ir  Ir16  1  0.000000  0.000000  0.000000  1
