# generated using pymatgen
data_Tb6SmFeBr12
_symmetry_space_group_name_H-M   'P 1'
_cell_length_a   9.28462704
_cell_length_b   9.17676398
_cell_length_c   9.28430887
_cell_angle_alpha   106.53944851
_cell_angle_beta   106.84820608
_cell_angle_gamma   106.97395973
_symmetry_Int_Tables_number   1
_chemical_formula_structural   Tb6SmFeBr12
_chemical_formula_sum   'Tb6 Sm1 Fe1 Br12'
_cell_volume   662.57266690
_cell_formula_units_Z   1
loop_
 _symmetry_equiv_pos_site_id
 _symmetry_equiv_pos_as_xyz
  1  'x, y, z'
loop_
 _atom_site_type_symbol
 _atom_site_label
 _atom_site_symmetry_multiplicity
 _atom_site_fract_x
 _atom_site_fract_y
 _atom_site_fract_z
 _atom_site_occupancy
  Tb  Tb0  1  0.978909  0.903104  0.695267  1
  Tb  Tb1  1  0.694027  0.978282  0.901892  1
  Tb  Tb2  1  0.093856  0.292327  0.021193  1
  Tb  Tb3  1  0.021853  0.098898  0.305621  1
  Tb  Tb4  1  0.306307  0.021110  0.098319  1
  Tb  Tb5  1  0.500040  0.500685  0.499321  1
  Sm  Sm6  1  0.905060  0.703043  0.978945  1
  Fe  Fe7  1  0.999667  0.998322  0.000406  1
  Br  Br8  1  0.615211  0.835954  0.538758  1
  Br  Br9  1  0.535393  0.614375  0.829967  1
  Br  Br10  1  0.831888  0.538640  0.611676  1
  Br  Br11  1  0.385151  0.165653  0.461485  1
  Br  Br12  1  0.459035  0.384923  0.166530  1
  Br  Br13  1  0.167086  0.461032  0.382955  1
  Br  Br14  1  0.680863  0.072790  0.222911  1
  Br  Br15  1  0.227171  0.681700  0.072971  1
  Br  Br16  1  0.073217  0.225261  0.683433  1
  Br  Br17  1  0.319447  0.928149  0.777325  1
  Br  Br18  1  0.777819  0.316598  0.928189  1
  Br  Br19  1  0.927997  0.779153  0.322838  1
