# generated using pymatgen
data_Ce3Tl8PtCl24
_symmetry_space_group_name_H-M   'P 1'
_cell_length_a   12.59842254
_cell_length_b   12.59842147
_cell_length_c   12.59842200
_cell_angle_alpha   131.95579780
_cell_angle_beta   131.95579952
_cell_angle_gamma   70.29884802
_symmetry_Int_Tables_number   1
_chemical_formula_structural   Ce3Tl8PtCl24
_chemical_formula_sum   'Ce3 Tl8 Pt1 Cl24'
_cell_volume   1083.81814920
_cell_formula_units_Z   1
loop_
 _symmetry_equiv_pos_site_id
 _symmetry_equiv_pos_as_xyz
  1  'x, y, z'
loop_
 _atom_site_type_symbol
 _atom_site_label
 _atom_site_symmetry_multiplicity
 _atom_site_fract_x
 _atom_site_fract_y
 _atom_site_fract_z
 _atom_site_occupancy
  Ce  Ce0  1  0.250000  0.750000  0.500000  1
  Ce  Ce1  1  0.500000  0.500000  0.000000  1
  Ce  Ce2  1  0.750000  0.250000  0.500000  1
  Tl  Tl3  1  0.368270  0.369064  0.490174  1
  Tl  Tl4  1  0.121905  0.631730  0.000793  1
  Tl  Tl5  1  0.878890  0.878095  0.509826  1
  Tl  Tl6  1  0.124216  0.123934  0.491571  1
  Tl  Tl7  1  0.367356  0.875784  0.999716  1
  Tl  Tl8  1  0.632362  0.632644  0.508429  1
  Tl  Tl9  1  0.630936  0.121110  0.999207  1
  Tl  Tl10  1  0.876066  0.367638  0.000284  1
  Pt  Pt11  1  0.000000  0.000000  0.000000  1
  Cl  Cl12  1  0.999028  0.788042  0.283660  1
  Cl  Cl13  1  0.022415  0.227590  0.250018  1
  Cl  Cl14  1  0.284632  0.000972  0.789014  1
  Cl  Cl15  1  0.001934  0.216296  0.720944  1
  Cl  Cl16  1  0.122549  0.622549  0.500000  1
  Cl  Cl17  1  0.245030  0.529774  0.776046  1
  Cl  Cl18  1  0.504382  0.715368  0.716340  1
  Cl  Cl19  1  0.495353  0.280989  0.279056  1
  Cl  Cl20  1  0.470226  0.246272  0.715255  1
  Cl  Cl21  1  0.626365  0.626365  0.000000  1
  Cl  Cl22  1  0.531017  0.754970  0.284745  1
  Cl  Cl23  1  0.113863  0.113863  0.000000  1
  Cl  Cl24  1  0.886137  0.886137  0.000000  1
  Cl  Cl25  1  0.977571  0.772397  0.749982  1
  Cl  Cl26  1  0.772410  0.022429  0.794824  1
  Cl  Cl27  1  0.227603  0.977585  0.205176  1
  Cl  Cl28  1  0.753728  0.468983  0.223954  1
  Cl  Cl29  1  0.211958  0.495618  0.210986  1
  Cl  Cl30  1  0.377451  0.877451  0.500000  1
  Cl  Cl31  1  0.877375  0.377375  0.500000  1
  Cl  Cl32  1  0.373635  0.373635  0.000000  1
  Cl  Cl33  1  0.622625  0.122625  0.500000  1
  Cl  Cl34  1  0.783704  0.504647  0.785637  1
  Cl  Cl35  1  0.719011  0.998066  0.214363  1
