# generated using pymatgen
data_Ho20IrPtRh10
_symmetry_space_group_name_H-M   'P 1'
_cell_length_a   10.89436390
_cell_length_b   10.89643400
_cell_length_c   6.33073003
_cell_angle_alpha   89.99136672
_cell_angle_beta   89.99986559
_cell_angle_gamma   90.24196715
_symmetry_Int_Tables_number   1
_chemical_formula_structural   Ho20IrPtRh10
_chemical_formula_sum   'Ho20 Ir1 Pt1 Rh10'
_cell_volume   751.51246170
_cell_formula_units_Z   1
loop_
 _symmetry_equiv_pos_site_id
 _symmetry_equiv_pos_as_xyz
  1  'x, y, z'
loop_
 _atom_site_type_symbol
 _atom_site_label
 _atom_site_symmetry_multiplicity
 _atom_site_fract_x
 _atom_site_fract_y
 _atom_site_fract_z
 _atom_site_occupancy
  Ho  Ho0  1  0.291012  0.088950  0.378028  1
  Ho  Ho1  1  0.290959  0.909231  0.878380  1
  Ho  Ho2  1  0.708286  0.089989  0.879155  1
  Ho  Ho3  1  0.707398  0.911966  0.375542  1
  Ho  Ho4  1  0.585229  0.790493  0.878641  1
  Ho  Ho5  1  0.589065  0.209032  0.378737  1
  Ho  Ho6  1  0.410361  0.790183  0.379403  1
  Ho  Ho7  1  0.411104  0.208683  0.877964  1
  Ho  Ho8  1  0.209662  0.413047  0.621957  1
  Ho  Ho9  1  0.209592  0.589506  0.120733  1
  Ho  Ho10  1  0.790809  0.410747  0.121388  1
  Ho  Ho11  1  0.791326  0.587170  0.621405  1
  Ho  Ho12  1  0.912181  0.707807  0.124233  1
  Ho  Ho13  1  0.911137  0.290666  0.621807  1
  Ho  Ho14  1  0.091758  0.708061  0.620685  1
  Ho  Ho15  1  0.089190  0.291350  0.122325  1
  Ho  Ho16  1  0.001032  0.001081  0.499327  1
  Ho  Ho17  1  0.001445  0.001587  0.000612  1
  Ho  Ho18  1  0.499604  0.499827  0.000163  1
  Ho  Ho19  1  0.500101  0.500183  0.499659  1
  Ir  Ir20  1  0.346230  0.653887  0.750174  1
  Pt  Pt21  1  0.845070  0.845430  0.750206  1
  Rh  Rh22  1  0.845735  0.153906  0.249926  1
  Rh  Rh23  1  0.154194  0.154691  0.749732  1
  Rh  Rh24  1  0.153135  0.846485  0.250136  1
  Rh  Rh25  1  0.654169  0.345918  0.749952  1
  Rh  Rh26  1  0.655448  0.654604  0.249941  1
  Rh  Rh27  1  0.345674  0.345001  0.249867  1
  Rh  Rh28  1  0.500265  0.000227  0.123695  1
  Rh  Rh29  1  0.500187  0.000821  0.623631  1
  Rh  Rh30  1  0.999409  0.499623  0.876310  1
  Rh  Rh31  1  0.999233  0.499850  0.376284  1
