# generated using pymatgen
data_Lu12Fe3Co
_symmetry_space_group_name_H-M   'P 1'
_cell_length_a   6.12336524
_cell_length_b   6.95661625
_cell_length_c   8.87078100
_cell_angle_alpha   90.00000000
_cell_angle_beta   90.00000000
_cell_angle_gamma   90.03120353
_symmetry_Int_Tables_number   1
_chemical_formula_structural   Lu12Fe3Co
_chemical_formula_sum   'Lu12 Fe3 Co1'
_cell_volume   377.87660449
_cell_formula_units_Z   1
loop_
 _symmetry_equiv_pos_site_id
 _symmetry_equiv_pos_as_xyz
  1  'x, y, z'
loop_
 _atom_site_type_symbol
 _atom_site_label
 _atom_site_symmetry_multiplicity
 _atom_site_fract_x
 _atom_site_fract_y
 _atom_site_fract_z
 _atom_site_occupancy
  Lu  Lu0  1  0.323758  0.675884  0.066958  1
  Lu  Lu1  1  0.173458  0.174887  0.434689  1
  Lu  Lu2  1  0.674063  0.323892  0.563826  1
  Lu  Lu3  1  0.827456  0.826058  0.936108  1
  Lu  Lu4  1  0.674063  0.323892  0.936174  1
  Lu  Lu5  1  0.827456  0.826058  0.563892  1
  Lu  Lu6  1  0.323758  0.675884  0.433042  1
  Lu  Lu7  1  0.173458  0.174887  0.065311  1
  Lu  Lu8  1  0.865098  0.544716  0.250000  1
  Lu  Lu9  1  0.633110  0.044465  0.250000  1
  Lu  Lu10  1  0.135491  0.454995  0.750000  1
  Lu  Lu11  1  0.366389  0.954510  0.750000  1
  Fe  Fe12  1  0.030764  0.887824  0.250000  1
  Fe  Fe13  1  0.467745  0.388970  0.250000  1
  Fe  Fe14  1  0.967141  0.111774  0.750000  1
  Co  Co15  1  0.536792  0.611304  0.750000  1
