# generated using pymatgen
data_Tb2Tm6Hf7Si16Mo5
_symmetry_space_group_name_H-M   'P 1'
_cell_length_a   7.10786040
_cell_length_b   7.10479176
_cell_length_c   13.01015353
_cell_angle_alpha   89.75383460
_cell_angle_beta   90.00818019
_cell_angle_gamma   90.10992398
_symmetry_Int_Tables_number   1
_chemical_formula_structural   Tb2Tm6Hf7Si16Mo5
_chemical_formula_sum   'Tb2 Tm6 Hf7 Si16 Mo5'
_cell_volume   657.00375663
_cell_formula_units_Z   1
loop_
 _symmetry_equiv_pos_site_id
 _symmetry_equiv_pos_as_xyz
  1  'x, y, z'
loop_
 _atom_site_type_symbol
 _atom_site_label
 _atom_site_symmetry_multiplicity
 _atom_site_fract_x
 _atom_site_fract_y
 _atom_site_fract_z
 _atom_site_occupancy
  Tb  Tb0  1  0.345393  0.998271  0.783853  1
  Tb  Tb1  1  0.655619  0.002194  0.284040  1
  Tm  Tm2  1  0.999733  0.346010  0.218871  1
  Tm  Tm3  1  0.001118  0.655999  0.713835  1
  Tm  Tm4  1  0.154684  0.500743  0.465920  1
  Tm  Tm5  1  0.498808  0.845318  0.036184  1
  Tm  Tm6  1  0.844696  0.501432  0.965759  1
  Tm  Tm7  1  0.499625  0.154684  0.532003  1
  Hf  Hf8  1  0.853278  0.005404  0.874725  1
  Hf  Hf9  1  0.504397  0.647160  0.620885  1
  Hf  Hf10  1  0.354438  0.493789  0.875764  1
  Hf  Hf11  1  0.491811  0.350627  0.125983  1
  Hf  Hf12  1  0.646415  0.509516  0.376936  1
  Hf  Hf13  1  0.995625  0.146979  0.625415  1
  Hf  Hf14  1  0.002888  0.852270  0.124228  1
  Si  Si15  1  0.358230  0.290114  0.321873  1
  Si  Si16  1  0.642261  0.700867  0.816004  1
  Si  Si17  1  0.198771  0.861550  0.561776  1
  Si  Si18  1  0.140042  0.795197  0.932730  1
  Si  Si19  1  0.798397  0.142731  0.067739  1
  Si  Si20  1  0.870023  0.199362  0.430104  1
  Si  Si21  1  0.299245  0.359611  0.681471  1
  Si  Si22  1  0.703351  0.638746  0.182297  1
  Si  Si23  1  0.293446  0.045957  0.188715  1
  Si  Si24  1  0.705379  0.948807  0.682789  1
  Si  Si25  1  0.437850  0.798278  0.430605  1
  Si  Si26  1  0.202134  0.549293  0.066668  1
  Si  Si27  1  0.551120  0.203102  0.934962  1
  Si  Si28  1  0.796655  0.446957  0.566677  1
  Si  Si29  1  0.049044  0.298860  0.816770  1
  Si  Si30  1  0.958077  0.711954  0.318097  1
  Mo  Mo31  1  0.173495  0.174853  0.002419  1
  Mo  Mo32  1  0.826991  0.826461  0.499499  1
  Mo  Mo33  1  0.322411  0.673040  0.249949  1
  Mo  Mo34  1  0.677670  0.325681  0.750121  1
  Mo  Mo35  1  0.146878  0.998178  0.374336  1
