# generated using pymatgen
data_Tb2Ta3Ge4
_symmetry_space_group_name_H-M   'P 1'
_cell_length_a   7.02004700
_cell_length_b   7.17710700
_cell_length_c   13.58923200
_cell_angle_alpha   90.00000000
_cell_angle_beta   90.00000000
_cell_angle_gamma   90.00000000
_symmetry_Int_Tables_number   1
_chemical_formula_structural   Tb2Ta3Ge4
_chemical_formula_sum   'Tb8 Ta12 Ge16'
_cell_volume   684.67481620
_cell_formula_units_Z   4
loop_
 _symmetry_equiv_pos_site_id
 _symmetry_equiv_pos_as_xyz
  1  'x, y, z'
loop_
 _atom_site_type_symbol
 _atom_site_label
 _atom_site_symmetry_multiplicity
 _atom_site_fract_x
 _atom_site_fract_y
 _atom_site_fract_z
 _atom_site_occupancy
  Tb  Tb0  1  0.495005  0.673264  0.594292  1
  Tb  Tb1  1  0.995005  0.826736  0.905708  1
  Tb  Tb2  1  0.504995  0.326736  0.094292  1
  Tb  Tb3  1  0.004995  0.173264  0.405708  1
  Tb  Tb4  1  0.504995  0.326736  0.405708  1
  Tb  Tb5  1  0.004995  0.173264  0.094292  1
  Tb  Tb6  1  0.495005  0.673264  0.905708  1
  Tb  Tb7  1  0.995005  0.826736  0.594292  1
  Ta  Ta8  1  0.659406  0.169352  0.626315  1
  Ta  Ta9  1  0.159406  0.330648  0.873685  1
  Ta  Ta10  1  0.340594  0.830648  0.126315  1
  Ta  Ta11  1  0.840594  0.669352  0.373685  1
  Ta  Ta12  1  0.340594  0.830648  0.373685  1
  Ta  Ta13  1  0.840594  0.669352  0.126315  1
  Ta  Ta14  1  0.659406  0.169352  0.873685  1
  Ta  Ta15  1  0.159406  0.330648  0.626315  1
  Ta  Ta16  1  0.835016  0.484892  0.750000  1
  Ta  Ta17  1  0.335016  0.015108  0.750000  1
  Ta  Ta18  1  0.164984  0.515108  0.250000  1
  Ta  Ta19  1  0.664984  0.984892  0.250000  1
  Ge  Ge20  1  0.676051  0.960491  0.457760  1
  Ge  Ge21  1  0.176051  0.539509  0.042240  1
  Ge  Ge22  1  0.323949  0.039509  0.957760  1
  Ge  Ge23  1  0.823949  0.460491  0.542240  1
  Ge  Ge24  1  0.323949  0.039509  0.542240  1
  Ge  Ge25  1  0.823949  0.460491  0.957760  1
  Ge  Ge26  1  0.676051  0.960491  0.042240  1
  Ge  Ge27  1  0.176051  0.539509  0.457760  1
  Ge  Ge28  1  0.459713  0.378440  0.750000  1
  Ge  Ge29  1  0.959713  0.121560  0.750000  1
  Ge  Ge30  1  0.540287  0.621560  0.250000  1
  Ge  Ge31  1  0.040287  0.878440  0.250000  1
  Ge  Ge32  1  0.693735  0.860214  0.750000  1
  Ge  Ge33  1  0.193735  0.639786  0.750000  1
  Ge  Ge34  1  0.306265  0.139786  0.250000  1
  Ge  Ge35  1  0.806265  0.360214  0.250000  1
