# generated using pymatgen
data_GdTa3(PN3)4
_symmetry_space_group_name_H-M   'P 1'
_cell_length_a   6.56926374
_cell_length_b   6.56926238
_cell_length_c   5.25711600
_cell_angle_alpha   78.59007868
_cell_angle_beta   78.59008108
_cell_angle_gamma   81.97917168
_symmetry_Int_Tables_number   1
_chemical_formula_structural   GdTa3(PN3)4
_chemical_formula_sum   'Gd1 Ta3 P4 N12'
_cell_volume   216.79999138
_cell_formula_units_Z   1
loop_
 _symmetry_equiv_pos_site_id
 _symmetry_equiv_pos_as_xyz
  1  'x, y, z'
loop_
 _atom_site_type_symbol
 _atom_site_label
 _atom_site_symmetry_multiplicity
 _atom_site_fract_x
 _atom_site_fract_y
 _atom_site_fract_z
 _atom_site_occupancy
  Gd  Gd0  1  0.678998  0.321002  0.750000  1
  Ta  Ta1  1  0.905608  0.094392  0.250000  1
  Ta  Ta2  1  0.309694  0.690306  0.250000  1
  Ta  Ta3  1  0.099819  0.900181  0.750000  1
  P  P4  1  0.196367  0.383084  0.757017  1
  P  P5  1  0.384444  0.199165  0.255294  1
  P  P6  1  0.800835  0.615556  0.244706  1
  P  P7  1  0.616916  0.803633  0.742983  1
  N  N8  1  0.321067  0.386748  0.005167  1
  N  N9  1  0.029328  0.212119  0.851594  1
  N  N10  1  0.993077  0.766310  0.153788  1
  N  N11  1  0.371074  0.345795  0.484943  1
  N  N12  1  0.623378  0.114578  0.167210  1
  N  N13  1  0.377599  0.882650  0.856073  1
  N  N14  1  0.885422  0.376622  0.332790  1
  N  N15  1  0.654205  0.628926  0.015057  1
  N  N16  1  0.787881  0.970672  0.648406  1
  N  N17  1  0.117350  0.622401  0.643927  1
  N  N18  1  0.233690  0.006923  0.346212  1
  N  N19  1  0.613252  0.678933  0.494833  1
