# generated using pymatgen
data_ZrPaMn12P7
_symmetry_space_group_name_H-M   'P 1'
_cell_length_a   9.18029000
_cell_length_b   9.18029019
_cell_length_c   3.61633400
_cell_angle_alpha   90.00000000
_cell_angle_beta   90.00000000
_cell_angle_gamma   120.00000651
_symmetry_Int_Tables_number   1
_chemical_formula_structural   ZrPaMn12P7
_chemical_formula_sum   'Zr1 Pa1 Mn12 P7'
_cell_volume   263.94409355
_cell_formula_units_Z   1
loop_
 _symmetry_equiv_pos_site_id
 _symmetry_equiv_pos_as_xyz
  1  'x, y, z'
loop_
 _atom_site_type_symbol
 _atom_site_label
 _atom_site_symmetry_multiplicity
 _atom_site_fract_x
 _atom_site_fract_y
 _atom_site_fract_z
 _atom_site_occupancy
  Zr  Zr0  1  0.666667  0.333333  0.000000  1
  Pa  Pa1  1  0.333333  0.666667  0.500000  1
  Mn  Mn2  1  0.050584  0.428521  0.000000  1
  Mn  Mn3  1  0.571479  0.622064  0.000000  1
  Mn  Mn4  1  0.377936  0.949416  0.000000  1
  Mn  Mn5  1  0.279510  0.156460  0.000000  1
  Mn  Mn6  1  0.843540  0.123050  0.000000  1
  Mn  Mn7  1  0.876950  0.720490  0.000000  1
  Mn  Mn8  1  0.437886  0.390798  0.500000  1
  Mn  Mn9  1  0.609202  0.047087  0.500000  1
  Mn  Mn10  1  0.952913  0.562114  0.500000  1
  Mn  Mn11  1  0.105338  0.229221  0.500000  1
  Mn  Mn12  1  0.770779  0.876118  0.500000  1
  Mn  Mn13  1  0.123882  0.894662  0.500000  1
  P  P14  1  0.290020  0.406802  0.000000  1
  P  P15  1  0.593198  0.883218  0.000000  1
  P  P16  1  0.116782  0.709980  0.000000  1
  P  P17  1  0.412518  0.129099  0.500000  1
  P  P18  1  0.870901  0.283420  0.500000  1
  P  P19  1  0.716580  0.587482  0.500000  1
  P  P20  1  0.000000  0.000000  0.000000  1
