# generated using pymatgen
data_Cs6KRb2TlSb4
_symmetry_space_group_name_H-M   'P 1'
_cell_length_a   11.42715031
_cell_length_b   11.38222313
_cell_length_c   11.90688700
_cell_angle_alpha   90.00000000
_cell_angle_beta   90.00000000
_cell_angle_gamma   119.87001008
_symmetry_Int_Tables_number   1
_chemical_formula_structural   Cs6KRb2TlSb4
_chemical_formula_sum   'Cs12 K2 Rb4 Tl2 Sb8'
_cell_volume   1342.95443181
_cell_formula_units_Z   2
loop_
 _symmetry_equiv_pos_site_id
 _symmetry_equiv_pos_as_xyz
  1  'x, y, z'
loop_
 _atom_site_type_symbol
 _atom_site_label
 _atom_site_symmetry_multiplicity
 _atom_site_fract_x
 _atom_site_fract_y
 _atom_site_fract_z
 _atom_site_occupancy
  Cs  Cs0  1  0.207762  0.415971  0.542653  1
  Cs  Cs1  1  0.792238  0.208210  0.042653  1
  Cs  Cs2  1  0.416502  0.208477  0.043317  1
  Cs  Cs3  1  0.583498  0.791974  0.543317  1
  Cs  Cs4  1  0.208467  0.791554  0.543063  1
  Cs  Cs5  1  0.791533  0.583088  0.456937  1
  Cs  Cs6  1  0.792238  0.208210  0.457347  1
  Cs  Cs7  1  0.791533  0.583088  0.043063  1
  Cs  Cs8  1  0.416502  0.208477  0.456683  1
  Cs  Cs9  1  0.583498  0.791974  0.956683  1
  Cs  Cs10  1  0.207762  0.415971  0.957347  1
  Cs  Cs11  1  0.208467  0.791554  0.956937  1
  K  K12  1  0.120006  0.240120  0.250000  1
  K  K13  1  0.879994  0.120116  0.750000  1
  Rb  Rb14  1  0.238414  0.119490  0.750000  1
  Rb  Rb15  1  0.761586  0.881075  0.250000  1
  Rb  Rb16  1  0.119252  0.881265  0.250000  1
  Rb  Rb17  1  0.880748  0.762015  0.750000  1
  Tl  Tl18  1  0.333090  0.666581  0.250000  1
  Tl  Tl19  1  0.666910  0.333490  0.750000  1
  Sb  Sb20  1  0.478167  0.515710  0.250000  1
  Sb  Sb21  1  0.961739  0.478092  0.750000  1
  Sb  Sb22  1  0.521833  0.037544  0.750000  1
  Sb  Sb23  1  0.480942  0.962489  0.250000  1
  Sb  Sb24  1  0.038261  0.516352  0.250000  1
  Sb  Sb25  1  0.519058  0.481548  0.750000  1
  Sb  Sb26  1  0.000000  0.002783  0.000000  1
  Sb  Sb27  1  0.000000  0.002783  0.500000  1
