# generated using pymatgen
data_Tm3Al3CuNi2
_symmetry_space_group_name_H-M   'P 1'
_cell_length_a   6.98643000
_cell_length_b   6.98643012
_cell_length_c   3.81140700
_cell_angle_alpha   90.00000000
_cell_angle_beta   90.00000000
_cell_angle_gamma   119.99999943
_symmetry_Int_Tables_number   1
_chemical_formula_structural   Tm3Al3CuNi2
_chemical_formula_sum   'Tm3 Al3 Cu1 Ni2'
_cell_volume   161.11151924
_cell_formula_units_Z   1
loop_
 _symmetry_equiv_pos_site_id
 _symmetry_equiv_pos_as_xyz
  1  'x, y, z'
loop_
 _atom_site_type_symbol
 _atom_site_label
 _atom_site_symmetry_multiplicity
 _atom_site_fract_x
 _atom_site_fract_y
 _atom_site_fract_z
 _atom_site_occupancy
  Tm  Tm0  1  0.992836  0.409884  0.500000  1
  Tm  Tm1  1  0.590116  0.582952  0.500000  1
  Tm  Tm2  1  0.417048  0.007164  0.500000  1
  Al  Al3  1  0.997251  0.762074  0.000000  1
  Al  Al4  1  0.237926  0.235177  0.000000  1
  Al  Al5  1  0.764823  0.002749  0.000000  1
  Cu  Cu6  1  0.333333  0.666667  0.000000  1
  Ni  Ni7  1  0.666667  0.333333  0.000000  1
  Ni  Ni8  1  0.000000  0.000000  0.500000  1
