# generated using pymatgen
data_Tm4Mn3Os5
_symmetry_space_group_name_H-M   'P 1'
_cell_length_a   5.29205101
_cell_length_b   5.29829249
_cell_length_c   8.56310100
_cell_angle_alpha   90.00000000
_cell_angle_beta   90.00000000
_cell_angle_gamma   119.95803374
_symmetry_Int_Tables_number   1
_chemical_formula_structural   Tm4Mn3Os5
_chemical_formula_sum   'Tm4 Mn3 Os5'
_cell_volume   208.02002698
_cell_formula_units_Z   1
loop_
 _symmetry_equiv_pos_site_id
 _symmetry_equiv_pos_as_xyz
  1  'x, y, z'
loop_
 _atom_site_type_symbol
 _atom_site_label
 _atom_site_symmetry_multiplicity
 _atom_site_fract_x
 _atom_site_fract_y
 _atom_site_fract_z
 _atom_site_occupancy
  Tm  Tm0  1  0.667220  0.334453  0.564749  1
  Tm  Tm1  1  0.333537  0.667095  0.434681  1
  Tm  Tm2  1  0.333537  0.667095  0.065319  1
  Tm  Tm3  1  0.667220  0.334453  0.935251  1
  Mn  Mn4  1  0.996447  0.992860  0.498572  1
  Mn  Mn5  1  0.996447  0.992860  0.001428  1
  Mn  Mn6  1  0.165888  0.331774  0.750000  1
  Os  Os7  1  0.175081  0.835782  0.750000  1
  Os  Os8  1  0.660688  0.835778  0.750000  1
  Os  Os9  1  0.831868  0.663750  0.250000  1
  Os  Os10  1  0.831304  0.172044  0.250000  1
  Os  Os11  1  0.340762  0.172057  0.250000  1
