# generated using pymatgen
data_PrNd(ScIr)2
_symmetry_space_group_name_H-M   'P 1'
_cell_length_a   7.27846300
_cell_length_b   4.32234500
_cell_length_c   9.00336100
_cell_angle_alpha   90.00000000
_cell_angle_beta   90.00000000
_cell_angle_gamma   90.00000000
_symmetry_Int_Tables_number   1
_chemical_formula_structural   PrNd(ScIr)2
_chemical_formula_sum   'Pr2 Nd2 Sc4 Ir4'
_cell_volume   283.24599056
_cell_formula_units_Z   2
loop_
 _symmetry_equiv_pos_site_id
 _symmetry_equiv_pos_as_xyz
  1  'x, y, z'
loop_
 _atom_site_type_symbol
 _atom_site_label
 _atom_site_symmetry_multiplicity
 _atom_site_fract_x
 _atom_site_fract_y
 _atom_site_fract_z
 _atom_site_occupancy
  Pr  Pr0  1  0.988182  0.250000  0.179197  1
  Pr  Pr1  1  0.488182  0.250000  0.320803  1
  Nd  Nd2  1  0.012956  0.750000  0.820401  1
  Nd  Nd3  1  0.512956  0.750000  0.679599  1
  Sc  Sc4  1  0.862093  0.250000  0.564344  1
  Sc  Sc5  1  0.362093  0.250000  0.935656  1
  Sc  Sc6  1  0.137356  0.750000  0.439094  1
  Sc  Sc7  1  0.637356  0.750000  0.060906  1
  Ir  Ir8  1  0.733630  0.250000  0.902701  1
  Ir  Ir9  1  0.233630  0.250000  0.597299  1
  Ir  Ir10  1  0.265784  0.750000  0.093401  1
  Ir  Ir11  1  0.765784  0.750000  0.406599  1
