# generated using pymatgen
data_CaTm3Sc4(ReB6)4
_symmetry_space_group_name_H-M   'P 1'
_cell_length_a   3.56574800
_cell_length_b   9.00754260
_cell_length_c   11.35530402
_cell_angle_alpha   89.98293359
_cell_angle_beta   90.00000000
_cell_angle_gamma   90.00000000
_symmetry_Int_Tables_number   1
_chemical_formula_structural   CaTm3Sc4(ReB6)4
_chemical_formula_sum   'Ca1 Tm3 Sc4 Re4 B24'
_cell_volume   364.71675817
_cell_formula_units_Z   1
loop_
 _symmetry_equiv_pos_site_id
 _symmetry_equiv_pos_as_xyz
  1  'x, y, z'
loop_
 _atom_site_type_symbol
 _atom_site_label
 _atom_site_symmetry_multiplicity
 _atom_site_fract_x
 _atom_site_fract_y
 _atom_site_fract_z
 _atom_site_occupancy
  Ca  Ca0  1  0.000000  0.178208  0.914110  1
  Tm  Tm1  1  0.000000  0.321793  0.414314  1
  Tm  Tm2  1  0.000000  0.677863  0.585995  1
  Tm  Tm3  1  0.000000  0.823009  0.085643  1
  Sc  Sc4  1  0.000000  0.944361  0.370406  1
  Sc  Sc5  1  0.000000  0.055833  0.630373  1
  Sc  Sc6  1  0.000000  0.443723  0.130775  1
  Sc  Sc7  1  0.000000  0.556244  0.869158  1
  Re  Re8  1  0.000000  0.641274  0.318009  1
  Re  Re9  1  0.000000  0.360128  0.680720  1
  Re  Re10  1  0.000000  0.141348  0.182468  1
  Re  Re11  1  0.000000  0.856591  0.818023  1
  B  B12  1  0.500000  0.554264  0.433013  1
  B  B13  1  0.500000  0.446385  0.566393  1
  B  B14  1  0.500000  0.053379  0.067538  1
  B  B15  1  0.500000  0.944925  0.933056  1
  B  B16  1  0.500000  0.754166  0.419186  1
  B  B17  1  0.500000  0.245885  0.580670  1
  B  B18  1  0.500000  0.254491  0.081300  1
  B  B19  1  0.500000  0.745108  0.919485  1
  B  B20  1  0.500000  0.795523  0.264302  1
  B  B21  1  0.500000  0.204607  0.735032  1
  B  B22  1  0.500000  0.295665  0.236026  1
  B  B23  1  0.500000  0.703773  0.764121  1
  B  B24  1  0.500000  0.629730  0.182460  1
  B  B25  1  0.500000  0.371120  0.816861  1
  B  B26  1  0.500000  0.129469  0.317766  1
  B  B27  1  0.500000  0.869994  0.682602  1
  B  B28  1  0.500000  0.981142  0.213608  1
  B  B29  1  0.500000  0.018127  0.786416  1
  B  B30  1  0.500000  0.481140  0.286705  1
  B  B31  1  0.500000  0.519282  0.712900  1
  B  B32  1  0.500000  0.594632  0.026013  1
  B  B33  1  0.500000  0.406786  0.974389  1
  B  B34  1  0.500000  0.095710  0.474004  1
  B  B35  1  0.500000  0.904323  0.526161  1
