# generated using pymatgen
data_La3NdGa3Ir11
_symmetry_space_group_name_H-M   'P 1'
_cell_length_a   12.89675722
_cell_length_b   12.89675762
_cell_length_c   12.89675691
_cell_angle_alpha   24.80125557
_cell_angle_beta   24.80124995
_cell_angle_gamma   24.80125965
_symmetry_Int_Tables_number   1
_chemical_formula_structural   La3NdGa3Ir11
_chemical_formula_sum   'La3 Nd1 Ga3 Ir11'
_cell_volume   331.97273981
_cell_formula_units_Z   1
loop_
 _symmetry_equiv_pos_site_id
 _symmetry_equiv_pos_as_xyz
  1  'x, y, z'
loop_
 _atom_site_type_symbol
 _atom_site_label
 _atom_site_symmetry_multiplicity
 _atom_site_fract_x
 _atom_site_fract_y
 _atom_site_fract_z
 _atom_site_occupancy
  La  La0  1  0.951876  0.951876  0.951876  1
  La  La1  1  0.051825  0.051825  0.051825  1
  La  La2  1  0.853732  0.853732  0.853732  1
  Nd  Nd3  1  0.148644  0.148644  0.148644  1
  Ga  Ga4  1  0.720212  0.720212  0.720212  1
  Ga  Ga5  1  0.278520  0.278520  0.278520  1
  Ga  Ga6  1  0.609806  0.609806  0.609806  1
  Ir  Ir7  1  0.500521  0.500521  0.500521  1
  Ir  Ir8  1  0.387317  0.387317  0.387317  1
  Ir  Ir9  1  0.499063  0.499063  0.998010  1
  Ir  Ir10  1  0.998010  0.499063  0.499063  1
  Ir  Ir11  1  0.499063  0.998010  0.499063  1
  Ir  Ir12  1  0.387990  0.895003  0.387990  1
  Ir  Ir13  1  0.387990  0.387990  0.895003  1
  Ir  Ir14  1  0.895003  0.387990  0.387990  1
  Ir  Ir15  1  0.612293  0.105841  0.612293  1
  Ir  Ir16  1  0.612293  0.612293  0.105841  1
  Ir  Ir17  1  0.105841  0.612293  0.612293  1
