# generated using pymatgen
data_Fe7(Tc2W)2
_symmetry_space_group_name_H-M   'P 1'
_cell_length_a   8.96426287
_cell_length_b   8.96426309
_cell_length_c   8.96426317
_cell_angle_alpha   30.45441593
_cell_angle_beta   30.45441194
_cell_angle_gamma   30.45441549
_symmetry_Int_Tables_number   1
_chemical_formula_structural   Fe7(Tc2W)2
_chemical_formula_sum   'Fe7 Tc4 W2'
_cell_volume   164.03205386
_cell_formula_units_Z   1
loop_
 _symmetry_equiv_pos_site_id
 _symmetry_equiv_pos_as_xyz
  1  'x, y, z'
loop_
 _atom_site_type_symbol
 _atom_site_label
 _atom_site_symmetry_multiplicity
 _atom_site_fract_x
 _atom_site_fract_y
 _atom_site_fract_z
 _atom_site_occupancy
  Fe  Fe0  1  0.590590  0.089854  0.089854  1
  Fe  Fe1  1  0.089854  0.089854  0.590590  1
  Fe  Fe2  1  0.908296  0.908296  0.413104  1
  Fe  Fe3  1  0.908296  0.413104  0.908296  1
  Fe  Fe4  1  0.999402  0.999402  0.999402  1
  Fe  Fe5  1  0.089854  0.590590  0.089854  1
  Fe  Fe6  1  0.413104  0.908296  0.908296  1
  Tc  Tc7  1  0.547815  0.547815  0.547815  1
  Tc  Tc8  1  0.652138  0.652138  0.652138  1
  Tc  Tc9  1  0.452589  0.452589  0.452589  1
  Tc  Tc10  1  0.833879  0.833879  0.833879  1
  W  W11  1  0.347347  0.347347  0.347347  1
  W  W12  1  0.166836  0.166836  0.166836  1
