# generated using pymatgen
data_Tb3InSn3Ru2
_symmetry_space_group_name_H-M   'P 1'
_cell_length_a   7.76968500
_cell_length_b   7.76968647
_cell_length_c   3.92558700
_cell_angle_alpha   90.00000000
_cell_angle_beta   90.00000000
_cell_angle_gamma   119.99999062
_symmetry_Int_Tables_number   1
_chemical_formula_structural   Tb3InSn3Ru2
_chemical_formula_sum   'Tb3 In1 Sn3 Ru2'
_cell_volume   205.23063344
_cell_formula_units_Z   1
loop_
 _symmetry_equiv_pos_site_id
 _symmetry_equiv_pos_as_xyz
  1  'x, y, z'
loop_
 _atom_site_type_symbol
 _atom_site_label
 _atom_site_symmetry_multiplicity
 _atom_site_fract_x
 _atom_site_fract_y
 _atom_site_fract_z
 _atom_site_occupancy
  Tb  Tb0  1  0.613139  0.030762  0.000000  1
  Tb  Tb1  1  0.969238  0.582378  0.000000  1
  Tb  Tb2  1  0.417622  0.386861  0.000000  1
  In  In3  1  0.333333  0.666667  0.500000  1
  Sn  Sn4  1  0.258075  0.009907  0.500000  1
  Sn  Sn5  1  0.990093  0.248167  0.500000  1
  Sn  Sn6  1  0.751833  0.741925  0.500000  1
  Ru  Ru7  1  0.666667  0.333333  0.500000  1
  Ru  Ru8  1  0.000000  0.000000  0.000000  1
