# generated using pymatgen
data_Tb5Bi2As
_symmetry_space_group_name_H-M   'P 1'
_cell_length_a   8.08770000
_cell_length_b   9.16496600
_cell_length_c   12.25921900
_cell_angle_alpha   90.00000000
_cell_angle_beta   90.00000000
_cell_angle_gamma   90.00000000
_symmetry_Int_Tables_number   1
_chemical_formula_structural   Tb5Bi2As
_chemical_formula_sum   'Tb20 Bi8 As4'
_cell_volume   908.69616460
_cell_formula_units_Z   4
loop_
 _symmetry_equiv_pos_site_id
 _symmetry_equiv_pos_as_xyz
  1  'x, y, z'
loop_
 _atom_site_type_symbol
 _atom_site_label
 _atom_site_symmetry_multiplicity
 _atom_site_fract_x
 _atom_site_fract_y
 _atom_site_fract_z
 _atom_site_occupancy
  Tb  Tb0  1  0.850348  0.750000  0.789543  1
  Tb  Tb1  1  0.149652  0.250000  0.210457  1
  Tb  Tb2  1  0.350348  0.250000  0.710457  1
  Tb  Tb3  1  0.649652  0.750000  0.289543  1
  Tb  Tb4  1  0.369439  0.750000  0.705470  1
  Tb  Tb5  1  0.630561  0.250000  0.294530  1
  Tb  Tb6  1  0.869439  0.250000  0.794530  1
  Tb  Tb7  1  0.130561  0.750000  0.205470  1
  Tb  Tb8  1  0.962257  0.750000  0.501767  1
  Tb  Tb9  1  0.037743  0.250000  0.498233  1
  Tb  Tb10  1  0.462257  0.250000  0.998233  1
  Tb  Tb11  1  0.537743  0.750000  0.001767  1
  Tb  Tb12  1  0.685684  0.052417  0.564159  1
  Tb  Tb13  1  0.314316  0.947583  0.435841  1
  Tb  Tb14  1  0.185684  0.947583  0.935841  1
  Tb  Tb15  1  0.314316  0.552417  0.435841  1
  Tb  Tb16  1  0.814316  0.052417  0.064159  1
  Tb  Tb17  1  0.685684  0.447583  0.564159  1
  Tb  Tb18  1  0.814316  0.447583  0.064159  1
  Tb  Tb19  1  0.185684  0.552417  0.935841  1
  Bi  Bi20  1  0.578312  0.491471  0.827135  1
  Bi  Bi21  1  0.421688  0.508529  0.172865  1
  Bi  Bi22  1  0.078312  0.508529  0.672865  1
  Bi  Bi23  1  0.421688  0.991471  0.172865  1
  Bi  Bi24  1  0.921688  0.491471  0.327135  1
  Bi  Bi25  1  0.578312  0.008529  0.827135  1
  Bi  Bi26  1  0.921688  0.008529  0.327135  1
  Bi  Bi27  1  0.078312  0.991471  0.672865  1
  As  As28  1  0.580043  0.750000  0.517111  1
  As  As29  1  0.419957  0.250000  0.482889  1
  As  As30  1  0.080043  0.250000  0.982889  1
  As  As31  1  0.919957  0.750000  0.017111  1
