# generated using pymatgen
data_La2Dy4Ir11Rh7
_symmetry_space_group_name_H-M   'P 1'
_cell_length_a   5.33392700
_cell_length_b   5.33666006
_cell_length_c   17.50447674
_cell_angle_alpha   89.99879507
_cell_angle_beta   90.00000000
_cell_angle_gamma   119.98305418
_symmetry_Int_Tables_number   1
_chemical_formula_structural   La2Dy4Ir11Rh7
_chemical_formula_sum   'La2 Dy4 Ir11 Rh7'
_cell_volume   431.58913686
_cell_formula_units_Z   1
loop_
 _symmetry_equiv_pos_site_id
 _symmetry_equiv_pos_as_xyz
  1  'x, y, z'
loop_
 _atom_site_type_symbol
 _atom_site_label
 _atom_site_symmetry_multiplicity
 _atom_site_fract_x
 _atom_site_fract_y
 _atom_site_fract_z
 _atom_site_occupancy
  La  La0  1  0.333229  0.666460  0.750048  1
  La  La1  1  0.666884  0.333767  0.249813  1
  Dy  Dy2  1  0.333359  0.666720  0.541251  1
  Dy  Dy3  1  0.666645  0.333290  0.040843  1
  Dy  Dy4  1  0.666192  0.332383  0.458956  1
  Dy  Dy5  1  0.333418  0.666837  0.958823  1
  Ir  Ir6  1  0.167241  0.334482  0.125270  1
  Ir  Ir7  1  0.832412  0.664824  0.624659  1
  Ir  Ir8  1  0.664429  0.832238  0.124861  1
  Ir  Ir9  1  0.167809  0.832238  0.124861  1
  Ir  Ir10  1  0.832625  0.168151  0.624899  1
  Ir  Ir11  1  0.335525  0.168151  0.624899  1
  Ir  Ir12  1  0.832369  0.664738  0.875097  1
  Ir  Ir13  1  0.832051  0.167394  0.875042  1
  Ir  Ir14  1  0.335343  0.167394  0.875042  1
  Ir  Ir15  1  0.665430  0.834641  0.375209  1
  Ir  Ir16  1  0.169211  0.834641  0.375209  1
  Rh  Rh17  1  0.168139  0.336279  0.375513  1
  Rh  Rh18  1  0.998981  0.997962  0.249946  1
  Rh  Rh19  1  0.999933  0.999864  0.749938  1
  Rh  Rh20  1  0.333471  0.666943  0.250106  1
  Rh  Rh21  1  0.666778  0.333556  0.749891  1
  Rh  Rh22  1  0.000418  0.000836  0.999867  1
  Rh  Rh23  1  0.998108  0.996217  0.499958  1
