# generated using pymatgen
data_TbErAl2PdRh
_symmetry_space_group_name_H-M   'P 1'
_cell_length_a   4.32984200
_cell_length_b   6.86955800
_cell_length_c   7.89235600
_cell_angle_alpha   90.00000000
_cell_angle_beta   90.00000000
_cell_angle_gamma   90.00000000
_symmetry_Int_Tables_number   1
_chemical_formula_structural   TbErAl2PdRh
_chemical_formula_sum   'Tb2 Er2 Al4 Pd2 Rh2'
_cell_volume   234.75103202
_cell_formula_units_Z   2
loop_
 _symmetry_equiv_pos_site_id
 _symmetry_equiv_pos_as_xyz
  1  'x, y, z'
loop_
 _atom_site_type_symbol
 _atom_site_label
 _atom_site_symmetry_multiplicity
 _atom_site_fract_x
 _atom_site_fract_y
 _atom_site_fract_z
 _atom_site_occupancy
  Tb  Tb0  1  0.250000  0.035536  0.323218  1
  Tb  Tb1  1  0.250000  0.535536  0.176782  1
  Er  Er2  1  0.750000  0.970435  0.682410  1
  Er  Er3  1  0.750000  0.470435  0.817590  1
  Al  Al4  1  0.250000  0.137396  0.935032  1
  Al  Al5  1  0.250000  0.637396  0.564968  1
  Al  Al6  1  0.750000  0.858407  0.057791  1
  Al  Al7  1  0.750000  0.358407  0.442209  1
  Pd  Pd8  1  0.750000  0.731580  0.379281  1
  Pd  Pd9  1  0.750000  0.231580  0.120719  1
  Rh  Rh10  1  0.250000  0.266647  0.619995  1
  Rh  Rh11  1  0.250000  0.766647  0.880005  1
