# generated using pymatgen
data_Dy19Ho(SnPb)8
_symmetry_space_group_name_H-M   'P 1'
_cell_length_a   8.13502800
_cell_length_b   8.20971513
_cell_length_c   15.57735000
_cell_angle_alpha   90.00000000
_cell_angle_beta   90.00000000
_cell_angle_gamma   90.01030802
_symmetry_Int_Tables_number   1
_chemical_formula_structural   Dy19Ho(SnPb)8
_chemical_formula_sum   'Dy19 Ho1 Sn8 Pb8'
_cell_volume   1040.35296897
_cell_formula_units_Z   1
loop_
 _symmetry_equiv_pos_site_id
 _symmetry_equiv_pos_as_xyz
  1  'x, y, z'
loop_
 _atom_site_type_symbol
 _atom_site_label
 _atom_site_symmetry_multiplicity
 _atom_site_fract_x
 _atom_site_fract_y
 _atom_site_fract_z
 _atom_site_occupancy
  Dy  Dy0  1  0.378351  0.839456  0.877208  1
  Dy  Dy1  1  0.878378  0.660511  0.622854  1
  Dy  Dy2  1  0.621459  0.160424  0.376962  1
  Dy  Dy3  1  0.121724  0.339455  0.123036  1
  Dy  Dy4  1  0.621459  0.160424  0.123038  1
  Dy  Dy5  1  0.121724  0.339455  0.376964  1
  Dy  Dy6  1  0.378351  0.839456  0.622792  1
  Dy  Dy7  1  0.878378  0.660511  0.877146  1
  Dy  Dy8  1  0.534899  0.323574  0.897093  1
  Dy  Dy9  1  0.034866  0.176458  0.602853  1
  Dy  Dy10  1  0.465066  0.676524  0.396971  1
  Dy  Dy11  1  0.965198  0.823665  0.103037  1
  Dy  Dy12  1  0.465066  0.676524  0.103029  1
  Dy  Dy13  1  0.965198  0.823665  0.396963  1
  Dy  Dy14  1  0.534899  0.323574  0.602907  1
  Dy  Dy15  1  0.034866  0.176458  0.897147  1
  Dy  Dy16  1  0.209466  0.503595  0.750000  1
  Dy  Dy17  1  0.709476  0.996393  0.750000  1
  Dy  Dy18  1  0.790629  0.496411  0.250000  1
  Ho  Ho19  1  0.290473  0.003651  0.250000  1
  Sn  Sn20  1  0.575185  0.622155  0.750000  1
  Sn  Sn21  1  0.075331  0.877798  0.750000  1
  Sn  Sn22  1  0.424800  0.377455  0.250000  1
  Sn  Sn23  1  0.925131  0.122117  0.250000  1
  Sn  Sn24  1  0.342719  0.148454  0.750000  1
  Sn  Sn25  1  0.842830  0.351433  0.750000  1
  Sn  Sn26  1  0.656879  0.851502  0.250000  1
  Sn  Sn27  1  0.157204  0.649000  0.250000  1
  Pb  Pb28  1  0.281862  0.033351  0.042001  1
  Pb  Pb29  1  0.781862  0.466621  0.458146  1
  Pb  Pb30  1  0.718140  0.966632  0.541495  1
  Pb  Pb31  1  0.218137  0.533346  0.958519  1
  Pb  Pb32  1  0.718140  0.966632  0.958505  1
  Pb  Pb33  1  0.218137  0.533346  0.541481  1
  Pb  Pb34  1  0.281862  0.033351  0.457999  1
  Pb  Pb35  1  0.781862  0.466621  0.041854  1
