# generated using pymatgen
data_Eu2MnCo11P7
_symmetry_space_group_name_H-M   'P 1'
_cell_length_a   9.11185332
_cell_length_b   9.11002739
_cell_length_c   3.62316600
_cell_angle_alpha   90.00000000
_cell_angle_beta   90.00000000
_cell_angle_gamma   120.03163629
_symmetry_Int_Tables_number   1
_chemical_formula_structural   Eu2MnCo11P7
_chemical_formula_sum   'Eu2 Mn1 Co11 P7'
_cell_volume   260.37946513
_cell_formula_units_Z   1
loop_
 _symmetry_equiv_pos_site_id
 _symmetry_equiv_pos_as_xyz
  1  'x, y, z'
loop_
 _atom_site_type_symbol
 _atom_site_label
 _atom_site_symmetry_multiplicity
 _atom_site_fract_x
 _atom_site_fract_y
 _atom_site_fract_z
 _atom_site_occupancy
  Eu  Eu0  1  0.333170  0.665371  0.000000  1
  Eu  Eu1  1  0.667875  0.333633  0.500000  1
  Mn  Mn2  1  0.216129  0.098412  0.500000  1
  Co  Co3  1  0.430075  0.056784  0.000000  1
  Co  Co4  1  0.152678  0.269941  0.000000  1
  Co  Co5  1  0.943810  0.373092  0.000000  1
  Co  Co6  1  0.628272  0.571504  0.000000  1
  Co  Co7  1  0.115926  0.844398  0.000000  1
  Co  Co8  1  0.727758  0.881759  0.000000  1
  Co  Co9  1  0.902867  0.128190  0.500000  1
  Co  Co10  1  0.384701  0.432757  0.500000  1
  Co  Co11  1  0.048967  0.616066  0.500000  1
  Co  Co12  1  0.874930  0.777422  0.500000  1
  Co  Co13  1  0.569153  0.951934  0.500000  1
  P  P14  1  0.996437  0.997791  0.000000  1
  P  P15  1  0.704556  0.110073  0.000000  1
  P  P16  1  0.408939  0.299365  0.000000  1
  P  P17  1  0.890150  0.593058  0.000000  1
  P  P18  1  0.109646  0.399978  0.500000  1
  P  P19  1  0.601258  0.710585  0.500000  1
  P  P20  1  0.292714  0.887928  0.500000  1
