# generated using pymatgen
data_Sn(S2Cl3)2
_symmetry_space_group_name_H-M   'P 1'
_cell_length_a   7.32211193
_cell_length_b   7.26575627
_cell_length_c   7.90044727
_cell_angle_alpha   62.62143402
_cell_angle_beta   65.10861822
_cell_angle_gamma   60.41560159
_symmetry_Int_Tables_number   1
_chemical_formula_structural   Sn(S2Cl3)2
_chemical_formula_sum   'Sn1 S4 Cl6'
_cell_volume   314.17707337
_cell_formula_units_Z   1
loop_
 _symmetry_equiv_pos_site_id
 _symmetry_equiv_pos_as_xyz
  1  'x, y, z'
loop_
 _atom_site_type_symbol
 _atom_site_label
 _atom_site_symmetry_multiplicity
 _atom_site_fract_x
 _atom_site_fract_y
 _atom_site_fract_z
 _atom_site_occupancy
  Sn  Sn0  1  0.000000  0.000000  0.000000  1
  S  S1  1  0.667196  0.556422  0.328882  1
  S  S2  1  0.396536  0.727879  0.500320  1
  S  S3  1  0.603464  0.272120  0.499681  1
  S  S4  1  0.332804  0.443577  0.671119  1
  Cl  Cl5  1  0.615662  0.031302  0.183764  1
  Cl  Cl6  1  0.016821  0.157557  0.216208  1
  Cl  Cl7  1  0.140378  0.626490  0.218319  1
  Cl  Cl8  1  0.859623  0.373510  0.781680  1
  Cl  Cl9  1  0.983179  0.842444  0.783791  1
  Cl  Cl10  1  0.384339  0.968698  0.816235  1
