# generated using pymatgen
data_YbPu(In2Pd)2
_symmetry_space_group_name_H-M   'P 1'
_cell_length_a   5.60325461
_cell_length_b   5.60325454
_cell_length_c   8.05264100
_cell_angle_alpha   90.00000000
_cell_angle_beta   90.00000000
_cell_angle_gamma   133.14723404
_symmetry_Int_Tables_number   1
_chemical_formula_structural   YbPu(In2Pd)2
_chemical_formula_sum   'Yb1 Pu1 In4 Pd2'
_cell_volume   184.46039094
_cell_formula_units_Z   1
loop_
 _symmetry_equiv_pos_site_id
 _symmetry_equiv_pos_as_xyz
  1  'x, y, z'
loop_
 _atom_site_type_symbol
 _atom_site_label
 _atom_site_symmetry_multiplicity
 _atom_site_fract_x
 _atom_site_fract_y
 _atom_site_fract_z
 _atom_site_occupancy
  Yb  Yb0  1  0.932514  0.067486  0.750000  1
  Pu  Pu1  1  0.067038  0.932962  0.250000  1
  In  In2  1  0.643478  0.356522  0.552673  1
  In  In3  1  0.357096  0.642904  0.450441  1
  In  In4  1  0.643478  0.356522  0.947327  1
  In  In5  1  0.357096  0.642904  0.049559  1
  Pd  Pd6  1  0.217527  0.782473  0.750000  1
  Pd  Pd7  1  0.781772  0.218228  0.250000  1
