# generated using pymatgen
data_Tb2ZnGa3Ag2
_symmetry_space_group_name_H-M   'P 1'
_cell_length_a   4.36970400
_cell_length_b   7.00221713
_cell_length_c   10.28189422
_cell_angle_alpha   89.97692385
_cell_angle_beta   90.00000000
_cell_angle_gamma   90.00000000
_symmetry_Int_Tables_number   1
_chemical_formula_structural   Tb2ZnGa3Ag2
_chemical_formula_sum   'Tb4 Zn2 Ga6 Ag4'
_cell_volume   314.60142785
_cell_formula_units_Z   2
loop_
 _symmetry_equiv_pos_site_id
 _symmetry_equiv_pos_as_xyz
  1  'x, y, z'
loop_
 _atom_site_type_symbol
 _atom_site_label
 _atom_site_symmetry_multiplicity
 _atom_site_fract_x
 _atom_site_fract_y
 _atom_site_fract_z
 _atom_site_occupancy
  Tb  Tb0  1  0.250000  0.783941  0.829056  1
  Tb  Tb1  1  0.750000  0.216059  0.170944  1
  Tb  Tb2  1  0.750000  0.719861  0.328549  1
  Tb  Tb3  1  0.250000  0.280139  0.671451  1
  Zn  Zn4  1  0.250000  0.923004  0.149736  1
  Zn  Zn5  1  0.750000  0.076996  0.850264  1
  Ga  Ga6  1  0.750000  0.575980  0.653256  1
  Ga  Ga7  1  0.250000  0.424020  0.346744  1
  Ga  Ga8  1  0.250000  0.704265  0.536020  1
  Ga  Ga9  1  0.750000  0.295735  0.463980  1
  Ga  Ga10  1  0.750000  0.799450  0.037805  1
  Ga  Ga11  1  0.250000  0.200550  0.962195  1
  Ag  Ag12  1  0.250000  0.541922  0.097420  1
  Ag  Ag13  1  0.750000  0.458078  0.902580  1
  Ag  Ag14  1  0.750000  0.958076  0.600663  1
  Ag  Ag15  1  0.250000  0.041924  0.399337  1
