# generated using pymatgen
data_Sc4Fe3Si2Ni3
_symmetry_space_group_name_H-M   'P 1'
_cell_length_a   4.98662489
_cell_length_b   4.98662522
_cell_length_c   7.83933600
_cell_angle_alpha   90.00000000
_cell_angle_beta   90.00000000
_cell_angle_gamma   119.89874343
_symmetry_Int_Tables_number   1
_chemical_formula_structural   Sc4Fe3Si2Ni3
_chemical_formula_sum   'Sc4 Fe3 Si2 Ni3'
_cell_volume   168.99177192
_cell_formula_units_Z   1
loop_
 _symmetry_equiv_pos_site_id
 _symmetry_equiv_pos_as_xyz
  1  'x, y, z'
loop_
 _atom_site_type_symbol
 _atom_site_label
 _atom_site_symmetry_multiplicity
 _atom_site_fract_x
 _atom_site_fract_y
 _atom_site_fract_z
 _atom_site_occupancy
  Sc  Sc0  1  0.666741  0.333259  0.058475  1
  Sc  Sc1  1  0.333324  0.666676  0.938797  1
  Sc  Sc2  1  0.333324  0.666676  0.561203  1
  Sc  Sc3  1  0.666741  0.333259  0.441525  1
  Fe  Fe4  1  0.171887  0.343866  0.250000  1
  Fe  Fe5  1  0.171848  0.828152  0.250000  1
  Fe  Fe6  1  0.656134  0.828113  0.250000  1
  Si  Si7  1  0.000006  0.999994  0.499950  1
  Si  Si8  1  0.000006  0.999994  0.000050  1
  Ni  Ni9  1  0.832199  0.664485  0.750000  1
  Ni  Ni10  1  0.832276  0.167724  0.750000  1
  Ni  Ni11  1  0.335515  0.167801  0.750000  1
