# generated using pymatgen
data_LaCe2(RhPb)3
_symmetry_space_group_name_H-M   'P 1'
_cell_length_a   7.74504404
_cell_length_b   7.74504492
_cell_length_c   4.07233800
_cell_angle_alpha   90.00000000
_cell_angle_beta   90.00000000
_cell_angle_gamma   120.31914083
_symmetry_Int_Tables_number   1
_chemical_formula_structural   LaCe2(RhPb)3
_chemical_formula_sum   'La1 Ce2 Rh3 Pb3'
_cell_volume   210.87089554
_cell_formula_units_Z   1
loop_
 _symmetry_equiv_pos_site_id
 _symmetry_equiv_pos_as_xyz
  1  'x, y, z'
loop_
 _atom_site_type_symbol
 _atom_site_label
 _atom_site_symmetry_multiplicity
 _atom_site_fract_x
 _atom_site_fract_y
 _atom_site_fract_z
 _atom_site_occupancy
  La  La0  1  0.409748  0.409748  0.500000  1
  Ce  Ce1  1  0.589141  0.999692  0.500000  1
  Ce  Ce2  1  0.999692  0.589141  0.500000  1
  Rh  Rh3  1  0.995440  0.995440  0.500000  1
  Rh  Rh4  1  0.674718  0.331232  0.000000  1
  Rh  Rh5  1  0.331232  0.674718  0.000000  1
  Pb  Pb6  1  0.743302  0.743302  0.000000  1
  Pb  Pb7  1  0.257502  0.999224  0.000000  1
  Pb  Pb8  1  0.999224  0.257502  0.000000  1
