# generated using pymatgen
data_Li4Yb8Si11Ge
_symmetry_space_group_name_H-M   'P 1'
_cell_length_a   4.34277000
_cell_length_b   10.53046826
_cell_length_c   11.20403900
_cell_angle_alpha   89.89551133
_cell_angle_beta   90.00000000
_cell_angle_gamma   90.00000000
_symmetry_Int_Tables_number   1
_chemical_formula_structural   Li4Yb8Si11Ge
_chemical_formula_sum   'Li4 Yb8 Si11 Ge1'
_cell_volume   512.37555549
_cell_formula_units_Z   1
loop_
 _symmetry_equiv_pos_site_id
 _symmetry_equiv_pos_as_xyz
  1  'x, y, z'
loop_
 _atom_site_type_symbol
 _atom_site_label
 _atom_site_symmetry_multiplicity
 _atom_site_fract_x
 _atom_site_fract_y
 _atom_site_fract_z
 _atom_site_occupancy
  Li  Li0  1  0.500000  0.861195  0.284382  1
  Li  Li1  1  0.500000  0.139021  0.717748  1
  Li  Li2  1  0.000000  0.361356  0.218042  1
  Li  Li3  1  0.000000  0.638455  0.781590  1
  Yb  Yb4  1  0.500000  0.550513  0.349670  1
  Yb  Yb5  1  0.500000  0.449501  0.650414  1
  Yb  Yb6  1  0.000000  0.051028  0.149674  1
  Yb  Yb7  1  0.000000  0.949472  0.850651  1
  Yb  Yb8  1  0.500000  0.821557  0.573682  1
  Yb  Yb9  1  0.500000  0.178380  0.426295  1
  Yb  Yb10  1  0.000000  0.322149  0.926342  1
  Yb  Yb11  1  0.000000  0.677493  0.072844  1
  Si  Si12  1  0.500000  0.112032  0.959073  1
  Si  Si13  1  0.000000  0.391392  0.460056  1
  Si  Si14  1  0.000000  0.608354  0.539697  1
  Si  Si15  1  0.000000  0.966179  0.400900  1
  Si  Si16  1  0.000000  0.033977  0.598999  1
  Si  Si17  1  0.500000  0.466764  0.099154  1
  Si  Si18  1  0.500000  0.532984  0.900651  1
  Si  Si19  1  0.000000  0.254960  0.632951  1
  Si  Si20  1  0.000000  0.744939  0.366679  1
  Si  Si21  1  0.500000  0.753183  0.863649  1
  Si  Si22  1  0.500000  0.245743  0.132985  1
  Ge  Ge23  1  0.500000  0.889375  0.043875  1
