# generated using pymatgen
data_Pr8Tm2Ir5Ru
_symmetry_space_group_name_H-M   'P 1'
_cell_length_a   11.22422800
_cell_length_b   11.22422800
_cell_length_c   6.55974200
_cell_angle_alpha   90.00000000
_cell_angle_beta   90.00000000
_cell_angle_gamma   90.00000000
_symmetry_Int_Tables_number   1
_chemical_formula_structural   Pr8Tm2Ir5Ru
_chemical_formula_sum   'Pr16 Tm4 Ir10 Ru2'
_cell_volume   826.41790624
_cell_formula_units_Z   2
loop_
 _symmetry_equiv_pos_site_id
 _symmetry_equiv_pos_as_xyz
  1  'x, y, z'
loop_
 _atom_site_type_symbol
 _atom_site_label
 _atom_site_symmetry_multiplicity
 _atom_site_fract_x
 _atom_site_fract_y
 _atom_site_fract_z
 _atom_site_occupancy
  Pr  Pr0  1  0.290942  0.085869  0.381506  1
  Pr  Pr1  1  0.290942  0.914131  0.881506  1
  Pr  Pr2  1  0.709058  0.085869  0.881506  1
  Pr  Pr3  1  0.709058  0.914131  0.381506  1
  Pr  Pr4  1  0.585869  0.790942  0.881506  1
  Pr  Pr5  1  0.585869  0.209058  0.381506  1
  Pr  Pr6  1  0.414131  0.790942  0.381506  1
  Pr  Pr7  1  0.414131  0.209058  0.881506  1
  Pr  Pr8  1  0.212228  0.412834  0.619251  1
  Pr  Pr9  1  0.212228  0.587166  0.119251  1
  Pr  Pr10  1  0.787772  0.412834  0.119251  1
  Pr  Pr11  1  0.787772  0.587166  0.619251  1
  Pr  Pr12  1  0.912834  0.712228  0.119251  1
  Pr  Pr13  1  0.912834  0.287772  0.619251  1
  Pr  Pr14  1  0.087166  0.712228  0.619251  1
  Pr  Pr15  1  0.087166  0.287772  0.119251  1
  Tm  Tm16  1  0.000000  0.000000  0.498763  1
  Tm  Tm17  1  0.000000  0.000000  0.998763  1
  Tm  Tm18  1  0.500000  0.500000  0.998763  1
  Tm  Tm19  1  0.500000  0.500000  0.498763  1
  Ir  Ir20  1  0.854227  0.146835  0.249777  1
  Ir  Ir21  1  0.854227  0.853165  0.749777  1
  Ir  Ir22  1  0.145773  0.146835  0.749777  1
  Ir  Ir23  1  0.145773  0.853165  0.249777  1
  Ir  Ir24  1  0.646835  0.354227  0.749777  1
  Ir  Ir25  1  0.646835  0.645773  0.249777  1
  Ir  Ir26  1  0.353165  0.354227  0.249777  1
  Ir  Ir27  1  0.353165  0.645773  0.749777  1
  Ir  Ir28  1  0.000000  0.500000  0.883674  1
  Ir  Ir29  1  0.000000  0.500000  0.383674  1
  Ru  Ru30  1  0.500000  0.000000  0.116664  1
  Ru  Ru31  1  0.500000  0.000000  0.616664  1
