# generated using pymatgen
data_HfU(SbO5)2
_symmetry_space_group_name_H-M   'P 1'
_cell_length_a   5.42966930
_cell_length_b   5.42966891
_cell_length_c   7.47399202
_cell_angle_alpha   69.98390670
_cell_angle_beta   69.98391110
_cell_angle_gamma   72.78536006
_symmetry_Int_Tables_number   1
_chemical_formula_structural   HfU(SbO5)2
_chemical_formula_sum   'Hf1 U1 Sb2 O10'
_cell_volume   190.49700361
_cell_formula_units_Z   1
loop_
 _symmetry_equiv_pos_site_id
 _symmetry_equiv_pos_as_xyz
  1  'x, y, z'
loop_
 _atom_site_type_symbol
 _atom_site_label
 _atom_site_symmetry_multiplicity
 _atom_site_fract_x
 _atom_site_fract_y
 _atom_site_fract_z
 _atom_site_occupancy
  Hf  Hf0  1  0.462930  0.537070  0.750000  1
  U  U1  1  0.531070  0.468930  0.250000  1
  Sb  Sb2  1  0.007765  0.014803  0.990033  1
  Sb  Sb3  1  0.985197  0.992235  0.509967  1
  O  O4  1  0.228492  0.274684  0.867078  1
  O  O5  1  0.769596  0.722333  0.127339  1
  O  O6  1  0.725316  0.771508  0.632922  1
  O  O7  1  0.277667  0.230404  0.372661  1
  O  O8  1  0.113967  0.886033  0.750000  1
  O  O9  1  0.903744  0.096256  0.250000  1
  O  O10  1  0.678950  0.292841  0.965970  1
  O  O11  1  0.307433  0.699286  0.039160  1
  O  O12  1  0.300714  0.692567  0.460840  1
  O  O13  1  0.707159  0.321050  0.534030  1
