# generated using pymatgen
data_HoLu7(CdNi)2
_symmetry_space_group_name_H-M   'P 1'
_cell_length_a   9.36801359
_cell_length_b   9.36801363
_cell_length_c   9.37043100
_cell_angle_alpha   59.99146710
_cell_angle_beta   59.99146695
_cell_angle_gamma   59.98184525
_symmetry_Int_Tables_number   1
_chemical_formula_structural   HoLu7(CdNi)2
_chemical_formula_sum   'Ho2 Lu14 Cd4 Ni4'
_cell_volume   581.33164208
_cell_formula_units_Z   2
loop_
 _symmetry_equiv_pos_site_id
 _symmetry_equiv_pos_as_xyz
  1  'x, y, z'
loop_
 _atom_site_type_symbol
 _atom_site_label
 _atom_site_symmetry_multiplicity
 _atom_site_fract_x
 _atom_site_fract_y
 _atom_site_fract_z
 _atom_site_occupancy
  Ho  Ho0  1  0.348147  0.348147  0.348894  1
  Ho  Ho1  1  0.348147  0.348147  0.954811  1
  Lu  Lu2  1  0.347900  0.955169  0.348465  1
  Lu  Lu3  1  0.955169  0.347900  0.348465  1
  Lu  Lu4  1  0.812134  0.188289  0.188001  1
  Lu  Lu5  1  0.188289  0.812134  0.811577  1
  Lu  Lu6  1  0.188289  0.812134  0.188001  1
  Lu  Lu7  1  0.812134  0.188289  0.811577  1
  Lu  Lu8  1  0.187804  0.187804  0.812196  1
  Lu  Lu9  1  0.811501  0.811501  0.188499  1
  Lu  Lu10  1  0.936066  0.563868  0.563882  1
  Lu  Lu11  1  0.563868  0.936066  0.936184  1
  Lu  Lu12  1  0.563868  0.936066  0.563882  1
  Lu  Lu13  1  0.936066  0.563868  0.936184  1
  Lu  Lu14  1  0.564102  0.564102  0.935898  1
  Lu  Lu15  1  0.936392  0.936392  0.563608  1
  Cd  Cd16  1  0.582104  0.582104  0.580977  1
  Cd  Cd17  1  0.582104  0.582104  0.254814  1
  Cd  Cd18  1  0.582588  0.254522  0.581445  1
  Cd  Cd19  1  0.254522  0.582588  0.581445  1
  Ni  Ni20  1  0.141463  0.141463  0.142839  1
  Ni  Ni21  1  0.141463  0.141463  0.574236  1
  Ni  Ni22  1  0.140746  0.575132  0.142061  1
  Ni  Ni23  1  0.575132  0.140746  0.142061  1
