# generated using pymatgen
data_LiEu3(NiP)4
_symmetry_space_group_name_H-M   'P 1'
_cell_length_a   3.93694400
_cell_length_b   3.93694269
_cell_length_c   15.09091600
_cell_angle_alpha   90.00000000
_cell_angle_beta   90.00000000
_cell_angle_gamma   120.00001104
_symmetry_Int_Tables_number   1
_chemical_formula_structural   LiEu3(NiP)4
_chemical_formula_sum   'Li1 Eu3 Ni4 P4'
_cell_volume   202.56504965
_cell_formula_units_Z   1
loop_
 _symmetry_equiv_pos_site_id
 _symmetry_equiv_pos_as_xyz
  1  'x, y, z'
loop_
 _atom_site_type_symbol
 _atom_site_label
 _atom_site_symmetry_multiplicity
 _atom_site_fract_x
 _atom_site_fract_y
 _atom_site_fract_z
 _atom_site_occupancy
  Li  Li0  1  0.000000  0.000000  0.500000  1
  Eu  Eu1  1  0.000000  0.000000  0.000000  1
  Eu  Eu2  1  0.000000  0.000000  0.276434  1
  Eu  Eu3  1  0.000000  0.000000  0.723566  1
  Ni  Ni4  1  0.333333  0.666667  0.438713  1
  Ni  Ni5  1  0.666667  0.333333  0.561287  1
  Ni  Ni6  1  0.666667  0.333333  0.862460  1
  Ni  Ni7  1  0.333333  0.666667  0.137540  1
  P  P8  1  0.333333  0.666667  0.860223  1
  P  P9  1  0.666667  0.333333  0.139777  1
  P  P10  1  0.666667  0.333333  0.408106  1
  P  P11  1  0.333333  0.666667  0.591894  1
