# generated using pymatgen
data_HoNp3Al12Pd
_symmetry_space_group_name_H-M   'P 1'
_cell_length_a   7.47573995
_cell_length_b   7.52438017
_cell_length_c   7.47574026
_cell_angle_alpha   109.60306417
_cell_angle_beta   109.33904040
_cell_angle_gamma   109.60308268
_symmetry_Int_Tables_number   1
_chemical_formula_structural   HoNp3Al12Pd
_chemical_formula_sum   'Ho1 Np3 Al12 Pd1'
_cell_volume   323.18260095
_cell_formula_units_Z   1
loop_
 _symmetry_equiv_pos_site_id
 _symmetry_equiv_pos_as_xyz
  1  'x, y, z'
loop_
 _atom_site_type_symbol
 _atom_site_label
 _atom_site_symmetry_multiplicity
 _atom_site_fract_x
 _atom_site_fract_y
 _atom_site_fract_z
 _atom_site_occupancy
  Ho  Ho0  1  0.000000  0.500000  0.000000  1
  Np  Np1  1  0.500000  0.500000  0.500000  1
  Np  Np2  1  0.000000  0.000000  0.500000  1
  Np  Np3  1  0.500000  0.000000  0.000000  1
  Al  Al4  1  0.749292  0.500000  0.250708  1
  Al  Al5  1  0.501416  0.750708  0.250708  1
  Al  Al6  1  0.498584  0.249292  0.749292  1
  Al  Al7  1  0.749292  0.249292  0.498584  1
  Al  Al8  1  0.250708  0.750708  0.501416  1
  Al  Al9  1  0.250708  0.500000  0.749292  1
  Al  Al10  1  0.292158  0.002615  0.292158  1
  Al  Al11  1  0.000000  0.289545  0.292158  1
  Al  Al12  1  0.000000  0.710455  0.707842  1
  Al  Al13  1  0.292158  0.289545  0.000000  1
  Al  Al14  1  0.707842  0.710455  0.000000  1
  Al  Al15  1  0.707842  0.997385  0.707842  1
  Pd  Pd16  1  0.000000  0.000000  0.000000  1
