# generated using pymatgen
data_Y3Er7Cd3Fe
_symmetry_space_group_name_H-M   'P 1'
_cell_length_a   9.50311500
_cell_length_b   9.50311388
_cell_length_c   9.74696000
_cell_angle_alpha   90.00000000
_cell_angle_beta   90.00000000
_cell_angle_gamma   120.00000042
_symmetry_Int_Tables_number   1
_chemical_formula_structural   Y3Er7Cd3Fe
_chemical_formula_sum   'Y6 Er14 Cd6 Fe2'
_cell_volume   762.31020221
_cell_formula_units_Z   2
loop_
 _symmetry_equiv_pos_site_id
 _symmetry_equiv_pos_as_xyz
  1  'x, y, z'
loop_
 _atom_site_type_symbol
 _atom_site_label
 _atom_site_symmetry_multiplicity
 _atom_site_fract_x
 _atom_site_fract_y
 _atom_site_fract_z
 _atom_site_occupancy
  Y  Y0  1  0.540233  0.459767  0.250000  1
  Y  Y1  1  0.540233  0.080466  0.250000  1
  Y  Y2  1  0.919534  0.459767  0.250000  1
  Y  Y3  1  0.459767  0.540233  0.750000  1
  Y  Y4  1  0.459767  0.919534  0.750000  1
  Y  Y5  1  0.080466  0.540233  0.750000  1
  Er  Er6  1  0.000000  0.000000  0.500000  1
  Er  Er7  1  0.000000  0.000000  0.000000  1
  Er  Er8  1  0.211910  0.788090  0.436953  1
  Er  Er9  1  0.211910  0.423821  0.436953  1
  Er  Er10  1  0.576179  0.788090  0.436953  1
  Er  Er11  1  0.788090  0.211910  0.563047  1
  Er  Er12  1  0.788090  0.576179  0.563047  1
  Er  Er13  1  0.423821  0.211910  0.563047  1
  Er  Er14  1  0.788090  0.211910  0.936953  1
  Er  Er15  1  0.788090  0.576179  0.936953  1
  Er  Er16  1  0.423821  0.211910  0.936953  1
  Er  Er17  1  0.211910  0.788090  0.063047  1
  Er  Er18  1  0.211910  0.423821  0.063047  1
  Er  Er19  1  0.576179  0.788090  0.063047  1
  Cd  Cd20  1  0.886177  0.113823  0.250000  1
  Cd  Cd21  1  0.886177  0.772356  0.250000  1
  Cd  Cd22  1  0.227644  0.113823  0.250000  1
  Cd  Cd23  1  0.113823  0.886177  0.750000  1
  Cd  Cd24  1  0.113823  0.227644  0.750000  1
  Cd  Cd25  1  0.772356  0.886177  0.750000  1
  Fe  Fe26  1  0.333333  0.666667  0.250000  1
  Fe  Fe27  1  0.666667  0.333333  0.750000  1
