# generated using pymatgen
data_Dy2PdPtPb
_symmetry_space_group_name_H-M   'P 1'
_cell_length_a   7.97185200
_cell_length_b   7.97732200
_cell_length_c   3.59615600
_cell_angle_alpha   90.00000000
_cell_angle_beta   90.00000000
_cell_angle_gamma   90.00000000
_symmetry_Int_Tables_number   1
_chemical_formula_structural   Dy2PdPtPb
_chemical_formula_sum   'Dy4 Pd2 Pt2 Pb2'
_cell_volume   228.69405377
_cell_formula_units_Z   2
loop_
 _symmetry_equiv_pos_site_id
 _symmetry_equiv_pos_as_xyz
  1  'x, y, z'
loop_
 _atom_site_type_symbol
 _atom_site_label
 _atom_site_symmetry_multiplicity
 _atom_site_fract_x
 _atom_site_fract_y
 _atom_site_fract_z
 _atom_site_occupancy
  Dy  Dy0  1  0.659380  0.170578  0.500000  1
  Dy  Dy1  1  0.176962  0.332869  0.500000  1
  Dy  Dy2  1  0.840620  0.670578  0.500000  1
  Dy  Dy3  1  0.323038  0.832869  0.500000  1
  Pd  Pd4  1  0.628502  0.869128  0.000000  1
  Pd  Pd5  1  0.871498  0.369128  0.000000  1
  Pt  Pt6  1  0.376036  0.120441  0.000000  1
  Pt  Pt7  1  0.123964  0.620441  0.000000  1
  Pb  Pb8  1  0.993256  0.006983  0.000000  1
  Pb  Pb9  1  0.506744  0.506983  0.000000  1
