# generated using pymatgen
data_Mn(FeCl4)2
_symmetry_space_group_name_H-M   'P 1'
_cell_length_a   10.27392906
_cell_length_b   10.27392874
_cell_length_c   12.08344316
_cell_angle_alpha   56.28460747
_cell_angle_beta   56.28461155
_cell_angle_gamma   48.60107427
_symmetry_Int_Tables_number   1
_chemical_formula_structural   Mn(FeCl4)2
_chemical_formula_sum   'Mn2 Fe4 Cl16'
_cell_volume   758.84162163
_cell_formula_units_Z   2
loop_
 _symmetry_equiv_pos_site_id
 _symmetry_equiv_pos_as_xyz
  1  'x, y, z'
loop_
 _atom_site_type_symbol
 _atom_site_label
 _atom_site_symmetry_multiplicity
 _atom_site_fract_x
 _atom_site_fract_y
 _atom_site_fract_z
 _atom_site_occupancy
  Mn  Mn0  1  0.997815  0.002185  0.750000  1
  Mn  Mn1  1  0.002185  0.997815  0.250000  1
  Fe  Fe2  1  0.156351  0.681445  0.529528  1
  Fe  Fe3  1  0.318555  0.843649  0.970472  1
  Fe  Fe4  1  0.843649  0.318555  0.470472  1
  Fe  Fe5  1  0.681445  0.156351  0.029528  1
  Cl  Cl6  1  0.298997  0.398877  0.550897  1
  Cl  Cl7  1  0.601123  0.701003  0.949103  1
  Cl  Cl8  1  0.701003  0.601123  0.449103  1
  Cl  Cl9  1  0.398877  0.298997  0.050897  1
  Cl  Cl10  1  0.881437  0.837617  0.502683  1
  Cl  Cl11  1  0.162383  0.118563  0.997317  1
  Cl  Cl12  1  0.118563  0.162383  0.497317  1
  Cl  Cl13  1  0.837617  0.881437  0.002683  1
  Cl  Cl14  1  0.138961  0.704302  0.712247  1
  Cl  Cl15  1  0.295698  0.861039  0.787753  1
  Cl  Cl16  1  0.861039  0.295698  0.287753  1
  Cl  Cl17  1  0.704302  0.138961  0.212247  1
  Cl  Cl18  1  0.282203  0.833862  0.326454  1
  Cl  Cl19  1  0.166138  0.717797  0.173546  1
  Cl  Cl20  1  0.717797  0.166138  0.673546  1
  Cl  Cl21  1  0.833862  0.282203  0.826454  1
