# generated using pymatgen
data_Li8Pr3Nd5Sn3Bi5
_symmetry_space_group_name_H-M   'P 1'
_cell_length_a   9.74555187
_cell_length_b   9.75108175
_cell_length_c   7.57662045
_cell_angle_alpha   89.99999716
_cell_angle_beta   89.85374641
_cell_angle_gamma   120.01877056
_symmetry_Int_Tables_number   1
_chemical_formula_structural   Li8Pr3Nd5Sn3Bi5
_chemical_formula_sum   'Li8 Pr3 Nd5 Sn3 Bi5'
_cell_volume   623.42086754
_cell_formula_units_Z   1
loop_
 _symmetry_equiv_pos_site_id
 _symmetry_equiv_pos_as_xyz
  1  'x, y, z'
loop_
 _atom_site_type_symbol
 _atom_site_label
 _atom_site_symmetry_multiplicity
 _atom_site_fract_x
 _atom_site_fract_y
 _atom_site_fract_z
 _atom_site_occupancy
  Li  Li0  1  0.171224  0.336605  0.266491  1
  Li  Li1  1  0.171224  0.834620  0.266491  1
  Li  Li2  1  0.660975  0.830488  0.276590  1
  Li  Li3  1  0.829664  0.661700  0.778294  1
  Li  Li4  1  0.829664  0.167964  0.778294  1
  Li  Li5  1  0.339492  0.169745  0.786439  1
  Li  Li6  1  0.335372  0.667687  0.681730  1
  Li  Li7  1  0.661595  0.330797  0.181001  1
  Pr  Pr8  1  0.506678  0.022987  0.493204  1
  Pr  Pr9  1  0.506678  0.483692  0.493204  1
  Pr  Pr10  1  0.981720  0.490861  0.494041  1
  Nd  Nd11  1  0.488952  0.982533  0.997465  1
  Nd  Nd12  1  0.488952  0.506419  0.997465  1
  Nd  Nd13  1  0.017580  0.508789  0.994819  1
  Nd  Nd14  1  0.006649  0.003325  0.499252  1
  Nd  Nd15  1  0.003660  0.001830  0.003951  1
  Sn  Sn16  1  0.331905  0.165952  0.235235  1
  Sn  Sn17  1  0.332268  0.666135  0.258516  1
  Sn  Sn18  1  0.668039  0.334019  0.762878  1
  Bi  Bi19  1  0.165751  0.332121  0.741030  1
  Bi  Bi20  1  0.165751  0.833630  0.741030  1
  Bi  Bi21  1  0.668553  0.834277  0.739801  1
  Bi  Bi22  1  0.833826  0.667212  0.237377  1
  Bi  Bi23  1  0.833826  0.166613  0.237377  1
