# generated using pymatgen
data_Cu5PbF18
_symmetry_space_group_name_H-M   'P 1'
_cell_length_a   7.40059892
_cell_length_b   7.45786774
_cell_length_c   7.58330800
_cell_angle_alpha   90.00497832
_cell_angle_beta   89.73371910
_cell_angle_gamma   119.58513179
_symmetry_Int_Tables_number   1
_chemical_formula_structural   Cu5PbF18
_chemical_formula_sum   'Cu5 Pb1 F18'
_cell_volume   363.96968064
_cell_formula_units_Z   1
loop_
 _symmetry_equiv_pos_site_id
 _symmetry_equiv_pos_as_xyz
  1  'x, y, z'
loop_
 _atom_site_type_symbol
 _atom_site_label
 _atom_site_symmetry_multiplicity
 _atom_site_fract_x
 _atom_site_fract_y
 _atom_site_fract_z
 _atom_site_occupancy
  Cu  Cu0  1  0.000000  0.500000  0.500000  1
  Cu  Cu1  1  0.000000  0.500000  0.000000  1
  Cu  Cu2  1  0.500000  0.000000  0.500000  1
  Cu  Cu3  1  0.500000  0.500000  0.500000  1
  Cu  Cu4  1  0.500000  0.500000  0.000000  1
  Pb  Pb5  1  0.500000  0.000000  0.000000  1
  F  F6  1  0.773535  0.546246  0.032559  1
  F  F7  1  0.226465  0.453754  0.967441  1
  F  F8  1  0.209138  0.418118  0.526257  1
  F  F9  1  0.790862  0.581882  0.473743  1
  F  F10  1  0.611346  0.787648  0.951752  1
  F  F11  1  0.388654  0.212352  0.048248  1
  F  F12  1  0.423863  0.212316  0.449669  1
  F  F13  1  0.576137  0.787684  0.550331  1
  F  F14  1  0.779922  0.218327  0.550416  1
  F  F15  1  0.220078  0.781673  0.449584  1
  F  F16  1  0.187468  0.789230  0.061104  1
  F  F17  1  0.812532  0.210770  0.938896  1
  F  F18  1  0.983431  0.434814  0.251318  1
  F  F19  1  0.016569  0.565186  0.748682  1
  F  F20  1  0.404677  0.991339  0.739815  1
  F  F21  1  0.595323  0.008661  0.260185  1
  F  F22  1  0.514084  0.451556  0.748549  1
  F  F23  1  0.485916  0.548444  0.251451  1
