# generated using pymatgen
data_Nd4Ga10NiPd5
_symmetry_space_group_name_H-M   'P 1'
_cell_length_a   8.69273932
_cell_length_b   8.69273908
_cell_length_c   8.69273902
_cell_angle_alpha   140.84172469
_cell_angle_beta   107.42080392
_cell_angle_gamma   85.71073596
_symmetry_Int_Tables_number   1
_chemical_formula_structural   Nd4Ga10NiPd5
_chemical_formula_sum   'Nd4 Ga10 Ni1 Pd5'
_cell_volume   382.02045949
_cell_formula_units_Z   1
loop_
 _symmetry_equiv_pos_site_id
 _symmetry_equiv_pos_as_xyz
  1  'x, y, z'
loop_
 _atom_site_type_symbol
 _atom_site_label
 _atom_site_symmetry_multiplicity
 _atom_site_fract_x
 _atom_site_fract_y
 _atom_site_fract_z
 _atom_site_occupancy
  Nd  Nd0  1  0.635993  0.855450  0.768849  1
  Nd  Nd1  1  0.364007  0.132855  0.219456  1
  Nd  Nd2  1  0.086601  0.367145  0.731151  1
  Nd  Nd3  1  0.913399  0.644550  0.280544  1
  Ga  Ga4  1  0.293494  0.043494  0.750000  1
  Ga  Ga5  1  0.707946  0.957946  0.250000  1
  Ga  Ga6  1  0.706506  0.456506  0.750000  1
  Ga  Ga7  1  0.292054  0.542054  0.250000  1
  Ga  Ga8  1  0.428009  0.578851  0.824030  1
  Ga  Ga9  1  0.571991  0.396023  0.150843  1
  Ga  Ga10  1  0.754821  0.103977  0.675970  1
  Ga  Ga11  1  0.245179  0.921149  0.349157  1
  Ga  Ga12  1  0.000000  0.750000  0.750000  1
  Ga  Ga13  1  0.000000  0.250000  0.250000  1
  Ni  Ni14  1  0.500000  0.250000  0.750000  1
  Pd  Pd15  1  0.242494  0.643391  0.595632  1
  Pd  Pd16  1  0.757506  0.353138  0.400897  1
  Pd  Pd17  1  0.047759  0.146862  0.904368  1
  Pd  Pd18  1  0.952241  0.856609  0.099103  1
  Pd  Pd19  1  0.500000  0.750000  0.250000  1
