# generated using pymatgen
data_Dy3ZrInSnIr3
_symmetry_space_group_name_H-M   'P 1'
_cell_length_a   7.39568154
_cell_length_b   7.38599717
_cell_length_c   4.23178700
_cell_angle_alpha   90.00000000
_cell_angle_beta   90.00000000
_cell_angle_gamma   121.73776335
_symmetry_Int_Tables_number   1
_chemical_formula_structural   Dy3ZrInSnIr3
_chemical_formula_sum   'Dy3 Zr1 In1 Sn1 Ir3'
_cell_volume   196.59269409
_cell_formula_units_Z   1
loop_
 _symmetry_equiv_pos_site_id
 _symmetry_equiv_pos_as_xyz
  1  'x, y, z'
loop_
 _atom_site_type_symbol
 _atom_site_label
 _atom_site_symmetry_multiplicity
 _atom_site_fract_x
 _atom_site_fract_y
 _atom_site_fract_z
 _atom_site_occupancy
  Dy  Dy0  1  0.604783  0.604032  0.000000  1
  Dy  Dy1  1  0.412574  0.995846  0.000000  1
  Dy  Dy2  1  0.996480  0.411350  0.000000  1
  Zr  Zr3  1  0.247107  0.248364  0.500000  1
  In  In4  1  0.746773  0.000568  0.500000  1
  Sn  Sn5  1  0.999641  0.747249  0.500000  1
  Ir  Ir6  1  0.019495  0.014471  0.000000  1
  Ir  Ir7  1  0.650319  0.329507  0.500000  1
  Ir  Ir8  1  0.322828  0.648613  0.500000  1
