# generated using pymatgen
data_AcLa4(Sn5Ir2)2
_symmetry_space_group_name_H-M   'P 1'
_cell_length_a   14.31001128
_cell_length_b   14.31001128
_cell_length_c   4.75796400
_cell_angle_alpha   90.00000000
_cell_angle_beta   90.00000000
_cell_angle_gamma   90.04848717
_symmetry_Int_Tables_number   1
_chemical_formula_structural   AcLa4(Sn5Ir2)2
_chemical_formula_sum   'Ac2 La8 Sn20 Ir8'
_cell_volume   974.31849915
_cell_formula_units_Z   2
loop_
 _symmetry_equiv_pos_site_id
 _symmetry_equiv_pos_as_xyz
  1  'x, y, z'
loop_
 _atom_site_type_symbol
 _atom_site_label
 _atom_site_symmetry_multiplicity
 _atom_site_fract_x
 _atom_site_fract_y
 _atom_site_fract_z
 _atom_site_occupancy
  Ac  Ac0  1  0.387840  0.112160  0.500000  1
  Ac  Ac1  1  0.612160  0.887840  0.500000  1
  La  La2  1  0.500000  0.500000  0.000000  1
  La  La3  1  0.000000  0.000000  0.000000  1
  La  La4  1  0.678310  0.178310  0.500000  1
  La  La5  1  0.321690  0.821690  0.500000  1
  La  La6  1  0.177485  0.322515  0.500000  1
  La  La7  1  0.822515  0.677485  0.500000  1
  La  La8  1  0.887898  0.387898  0.500000  1
  La  La9  1  0.112102  0.612102  0.500000  1
  Sn  Sn10  1  0.570647  0.070647  0.000000  1
  Sn  Sn11  1  0.429353  0.929353  0.000000  1
  Sn  Sn12  1  0.069817  0.430183  0.000000  1
  Sn  Sn13  1  0.930183  0.569817  0.000000  1
  Sn  Sn14  1  0.654137  0.697349  0.000000  1
  Sn  Sn15  1  0.345863  0.302651  0.000000  1
  Sn  Sn16  1  0.153636  0.801246  0.000000  1
  Sn  Sn17  1  0.846364  0.198754  0.000000  1
  Sn  Sn18  1  0.301246  0.653636  0.000000  1
  Sn  Sn19  1  0.698754  0.346364  0.000000  1
  Sn  Sn20  1  0.197349  0.154137  0.000000  1
  Sn  Sn21  1  0.802651  0.845863  0.000000  1
  Sn  Sn22  1  0.664464  0.503446  0.500000  1
  Sn  Sn23  1  0.335536  0.496554  0.500000  1
  Sn  Sn24  1  0.163434  0.995735  0.500000  1
  Sn  Sn25  1  0.836566  0.004265  0.500000  1
  Sn  Sn26  1  0.495735  0.663434  0.500000  1
  Sn  Sn27  1  0.504265  0.336566  0.500000  1
  Sn  Sn28  1  0.003446  0.164464  0.500000  1
  Sn  Sn29  1  0.996554  0.835536  0.500000  1
  Ir  Ir30  1  0.745656  0.528690  0.000000  1
  Ir  Ir31  1  0.254344  0.471310  0.000000  1
  Ir  Ir32  1  0.244954  0.971010  0.000000  1
  Ir  Ir33  1  0.755046  0.028990  0.000000  1
  Ir  Ir34  1  0.471010  0.744954  0.000000  1
  Ir  Ir35  1  0.528990  0.255046  0.000000  1
  Ir  Ir36  1  0.028690  0.245656  0.000000  1
  Ir  Ir37  1  0.971310  0.754344  0.000000  1
