# generated using pymatgen
data_Bi4IrRu(RhO7)2
_symmetry_space_group_name_H-M   'P 1'
_cell_length_a   7.36712099
_cell_length_b   7.36804944
_cell_length_c   7.36804911
_cell_angle_alpha   59.89337559
_cell_angle_beta   59.87355753
_cell_angle_gamma   59.87355361
_symmetry_Int_Tables_number   1
_chemical_formula_structural   Bi4IrRu(RhO7)2
_chemical_formula_sum   'Bi4 Ir1 Ru1 Rh2 O14'
_cell_volume   282.03650922
_cell_formula_units_Z   1
loop_
 _symmetry_equiv_pos_site_id
 _symmetry_equiv_pos_as_xyz
  1  'x, y, z'
loop_
 _atom_site_type_symbol
 _atom_site_label
 _atom_site_symmetry_multiplicity
 _atom_site_fract_x
 _atom_site_fract_y
 _atom_site_fract_z
 _atom_site_occupancy
  Bi  Bi0  1  0.125000  0.125000  0.625000  1
  Bi  Bi1  1  0.125000  0.625000  0.125000  1
  Bi  Bi2  1  0.625000  0.125000  0.125000  1
  Bi  Bi3  1  0.125000  0.125000  0.125000  1
  Ir  Ir4  1  0.125000  0.625000  0.625000  1
  Ru  Ru5  1  0.625000  0.625000  0.625000  1
  Rh  Rh6  1  0.625000  0.625000  0.125000  1
  Rh  Rh7  1  0.625000  0.125000  0.625000  1
  O  O8  1  0.249758  0.250219  0.250219  1
  O  O9  1  0.000242  0.999781  0.999781  1
  O  O10  1  0.544657  0.951816  0.546212  1
  O  O11  1  0.289619  0.705512  0.295363  1
  O  O12  1  0.544657  0.546212  0.951816  1
  O  O13  1  0.953998  0.546299  0.546299  1
  O  O14  1  0.542798  0.958624  0.958624  1
  O  O15  1  0.960381  0.954637  0.544488  1
  O  O16  1  0.960381  0.544488  0.954637  1
  O  O17  1  0.707202  0.291376  0.291376  1
  O  O18  1  0.296002  0.703701  0.703701  1
  O  O19  1  0.705343  0.298184  0.703788  1
  O  O20  1  0.289619  0.295363  0.705512  1
  O  O21  1  0.705343  0.703788  0.298184  1
