# generated using pymatgen
data_Ca5Er(Si3Ru)8
_symmetry_space_group_name_H-M   'P 1'
_cell_length_a   10.17395209
_cell_length_b   10.17395244
_cell_length_c   8.17122034
_cell_angle_alpha   89.98670307
_cell_angle_beta   89.98670084
_cell_angle_gamma   132.62855037
_symmetry_Int_Tables_number   1
_chemical_formula_structural   Ca5Er(Si3Ru)8
_chemical_formula_sum   'Ca5 Er1 Si24 Ru8'
_cell_volume   622.30349840
_cell_formula_units_Z   1
loop_
 _symmetry_equiv_pos_site_id
 _symmetry_equiv_pos_as_xyz
  1  'x, y, z'
loop_
 _atom_site_type_symbol
 _atom_site_label
 _atom_site_symmetry_multiplicity
 _atom_site_fract_x
 _atom_site_fract_y
 _atom_site_fract_z
 _atom_site_occupancy
  Ca  Ca0  1  0.498292  0.998353  0.250061  1
  Ca  Ca1  1  0.001647  0.501708  0.749939  1
  Ca  Ca2  1  0.501708  0.001647  0.749939  1
  Ca  Ca3  1  0.998353  0.498292  0.250061  1
  Ca  Ca4  1  0.500000  0.500000  0.500000  1
  Er  Er5  1  0.000000  0.000000  0.000000  1
  Si  Si6  1  0.388884  0.155333  0.006574  1
  Si  Si7  1  0.653818  0.886530  0.492887  1
  Si  Si8  1  0.113470  0.346182  0.507113  1
  Si  Si9  1  0.844667  0.611116  0.993426  1
  Si  Si10  1  0.611116  0.844667  0.993426  1
  Si  Si11  1  0.346182  0.113470  0.507113  1
  Si  Si12  1  0.886530  0.653818  0.492887  1
  Si  Si13  1  0.155333  0.388884  0.006574  1
  Si  Si14  1  0.609109  0.376481  0.229474  1
  Si  Si15  1  0.876123  0.109116  0.271467  1
  Si  Si16  1  0.890884  0.123877  0.728533  1
  Si  Si17  1  0.623519  0.390891  0.770526  1
  Si  Si18  1  0.390891  0.623519  0.770526  1
  Si  Si19  1  0.123877  0.890884  0.728533  1
  Si  Si20  1  0.706207  0.293793  0.000000  1
  Si  Si21  1  0.793939  0.206061  0.500000  1
  Si  Si22  1  0.293793  0.706207  0.000000  1
  Si  Si23  1  0.206061  0.793939  0.500000  1
  Si  Si24  1  0.167341  0.167341  0.333890  1
  Si  Si25  1  0.665399  0.665399  0.168211  1
  Si  Si26  1  0.334601  0.334601  0.831789  1
  Si  Si27  1  0.832659  0.832659  0.666110  1
  Si  Si28  1  0.376481  0.609109  0.229474  1
  Si  Si29  1  0.109116  0.876123  0.271467  1
  Ru  Ru30  1  0.628532  0.628532  0.876228  1
  Ru  Ru31  1  0.124895  0.124895  0.627413  1
  Ru  Ru32  1  0.875105  0.875105  0.372587  1
  Ru  Ru33  1  0.371468  0.371468  0.123772  1
  Ru  Ru34  1  0.331189  0.668811  0.500000  1
  Ru  Ru35  1  0.167632  0.832368  0.000000  1
  Ru  Ru36  1  0.668811  0.331189  0.500000  1
  Ru  Ru37  1  0.832368  0.167632  0.000000  1
