# generated using pymatgen
data_Nd3Al12(TcPd)2
_symmetry_space_group_name_H-M   'P 1'
_cell_length_a   8.94427800
_cell_length_b   9.02372094
_cell_length_c   9.72658700
_cell_angle_alpha   90.00000000
_cell_angle_beta   90.00000000
_cell_angle_gamma   119.70920510
_symmetry_Int_Tables_number   1
_chemical_formula_structural   Nd3Al12(TcPd)2
_chemical_formula_sum   'Nd6 Al24 Tc4 Pd4'
_cell_volume   681.84741382
_cell_formula_units_Z   2
loop_
 _symmetry_equiv_pos_site_id
 _symmetry_equiv_pos_as_xyz
  1  'x, y, z'
loop_
 _atom_site_type_symbol
 _atom_site_label
 _atom_site_symmetry_multiplicity
 _atom_site_fract_x
 _atom_site_fract_y
 _atom_site_fract_z
 _atom_site_occupancy
  Nd  Nd0  1  0.189153  0.378305  0.250000  1
  Nd  Nd1  1  0.810847  0.621695  0.750000  1
  Nd  Nd2  1  0.616016  0.813357  0.250000  1
  Nd  Nd3  1  0.383984  0.186643  0.750000  1
  Nd  Nd4  1  0.197343  0.813357  0.250000  1
  Nd  Nd5  1  0.802657  0.186643  0.750000  1
  Al  Al6  1  0.335749  0.671500  0.019261  1
  Al  Al7  1  0.664251  0.328500  0.980739  1
  Al  Al8  1  0.664251  0.328500  0.519261  1
  Al  Al9  1  0.335749  0.671500  0.480739  1
  Al  Al10  1  0.160883  0.321767  0.576938  1
  Al  Al11  1  0.839117  0.678233  0.423062  1
  Al  Al12  1  0.675157  0.842129  0.575815  1
  Al  Al13  1  0.839117  0.678233  0.076938  1
  Al  Al14  1  0.324843  0.157871  0.424185  1
  Al  Al15  1  0.160883  0.321767  0.923062  1
  Al  Al16  1  0.166972  0.842129  0.575815  1
  Al  Al17  1  0.324843  0.157871  0.075815  1
  Al  Al18  1  0.833028  0.157871  0.424185  1
  Al  Al19  1  0.675157  0.842129  0.924185  1
  Al  Al20  1  0.833028  0.157871  0.075815  1
  Al  Al21  1  0.166972  0.842129  0.924185  1
  Al  Al22  1  0.564262  0.128523  0.250000  1
  Al  Al23  1  0.435738  0.871477  0.750000  1
  Al  Al24  1  0.872008  0.436300  0.250000  1
  Al  Al25  1  0.127992  0.563700  0.750000  1
  Al  Al26  1  0.564291  0.436300  0.250000  1
  Al  Al27  1  0.435709  0.563700  0.750000  1
  Al  Al28  1  0.001432  0.002863  0.250000  1
  Al  Al29  1  0.998568  0.997137  0.750000  1
  Tc  Tc30  1  0.500000  0.000000  0.000000  1
  Tc  Tc31  1  0.500000  0.000000  0.500000  1
  Tc  Tc32  1  0.000000  0.000000  0.000000  1
  Tc  Tc33  1  0.000000  0.000000  0.500000  1
  Pd  Pd34  1  0.000000  0.500000  0.000000  1
  Pd  Pd35  1  0.500000  0.500000  0.000000  1
  Pd  Pd36  1  0.000000  0.500000  0.500000  1
  Pd  Pd37  1  0.500000  0.500000  0.500000  1
