# generated using pymatgen
data_Er3Sc(Si5Pt3)2
_symmetry_space_group_name_H-M   'P 1'
_cell_length_a   8.10655858
_cell_length_b   8.11142442
_cell_length_c   8.11142461
_cell_angle_alpha   136.43028683
_cell_angle_beta   103.82422440
_cell_angle_gamma   92.10236305
_symmetry_Int_Tables_number   1
_chemical_formula_structural   Er3Sc(Si5Pt3)2
_chemical_formula_sum   'Er3 Sc1 Si10 Pt6'
_cell_volume   338.97716199
_cell_formula_units_Z   1
loop_
 _symmetry_equiv_pos_site_id
 _symmetry_equiv_pos_as_xyz
  1  'x, y, z'
loop_
 _atom_site_type_symbol
 _atom_site_label
 _atom_site_symmetry_multiplicity
 _atom_site_fract_x
 _atom_site_fract_y
 _atom_site_fract_z
 _atom_site_occupancy
  Er  Er0  1  0.099904  0.870882  0.229023  1
  Er  Er1  1  0.901049  0.129573  0.771476  1
  Er  Er2  1  0.642293  0.369816  0.272477  1
  Sc  Sc3  1  0.352443  0.630945  0.721497  1
  Si  Si4  1  0.000573  0.749726  0.750233  1
  Si  Si5  1  0.000573  0.250341  0.250847  1
  Si  Si6  1  0.271256  0.023139  0.751660  1
  Si  Si7  1  0.728239  0.478247  0.750417  1
  Si  Si8  1  0.728239  0.977821  0.249992  1
  Si  Si9  1  0.271256  0.519596  0.248117  1
  Si  Si10  1  0.764012  0.611859  0.152153  1
  Si  Si11  1  0.239939  0.392414  0.847525  1
  Si  Si12  1  0.461522  0.113260  0.348262  1
  Si  Si13  1  0.536671  0.884082  0.652588  1
  Pt  Pt14  1  0.500943  0.752361  0.253681  1
  Pt  Pt15  1  0.500943  0.247261  0.748581  1
  Pt  Pt16  1  0.024210  0.637836  0.386373  1
  Pt  Pt17  1  0.977726  0.363038  0.614689  1
  Pt  Pt18  1  0.251701  0.137021  0.114679  1
  Pt  Pt19  1  0.746509  0.860781  0.885728  1
