# generated using pymatgen
data_Tb16Cd2Co3Hg2Ir
_symmetry_space_group_name_H-M   'P 1'
_cell_length_a   9.58349951
_cell_length_b   9.53212491
_cell_length_c   9.52944500
_cell_angle_alpha   60.00929629
_cell_angle_beta   60.18640385
_cell_angle_gamma   60.27356807
_symmetry_Int_Tables_number   1
_chemical_formula_structural   Tb16Cd2Co3Hg2Ir
_chemical_formula_sum   'Tb16 Cd2 Co3 Hg2 Ir1'
_cell_volume   617.72853882
_cell_formula_units_Z   1
loop_
 _symmetry_equiv_pos_site_id
 _symmetry_equiv_pos_as_xyz
  1  'x, y, z'
loop_
 _atom_site_type_symbol
 _atom_site_label
 _atom_site_symmetry_multiplicity
 _atom_site_fract_x
 _atom_site_fract_y
 _atom_site_fract_z
 _atom_site_occupancy
  Tb  Tb0  1  0.591974  0.601022  0.599423  1
  Tb  Tb1  1  0.591974  0.601022  0.207582  1
  Tb  Tb2  1  0.594231  0.203422  0.601173  1
  Tb  Tb3  1  0.208305  0.598941  0.596377  1
  Tb  Tb4  1  0.065588  0.437575  0.440980  1
  Tb  Tb5  1  0.438284  0.060418  0.061858  1
  Tb  Tb6  1  0.438284  0.060418  0.439440  1
  Tb  Tb7  1  0.065588  0.437575  0.055857  1
  Tb  Tb8  1  0.438833  0.437099  0.062034  1
  Tb  Tb9  1  0.064515  0.054546  0.440470  1
  Tb  Tb10  1  0.187186  0.811260  0.813523  1
  Tb  Tb11  1  0.811023  0.189528  0.189603  1
  Tb  Tb12  1  0.811023  0.189528  0.809846  1
  Tb  Tb13  1  0.187186  0.811260  0.188030  1
  Tb  Tb14  1  0.812535  0.808707  0.189379  1
  Tb  Tb15  1  0.187496  0.188184  0.812160  1
  Cd  Cd16  1  0.830540  0.509239  0.830111  1
  Cd  Cd17  1  0.507532  0.830194  0.831138  1
  Co  Co18  1  0.391089  0.391779  0.390040  1
  Co  Co19  1  0.391089  0.391779  0.827092  1
  Co  Co20  1  0.391466  0.827648  0.390442  1
  Hg  Hg21  1  0.834166  0.833457  0.834829  1
  Hg  Hg22  1  0.834166  0.833457  0.497548  1
  Ir  Ir23  1  0.825925  0.391942  0.391066  1
