# generated using pymatgen
data_Li3Yb3HoMgPt4
_symmetry_space_group_name_H-M   'P 1'
_cell_length_a   4.09635900
_cell_length_b   7.14798394
_cell_length_c   8.27535364
_cell_angle_alpha   89.52372671
_cell_angle_beta   90.00000000
_cell_angle_gamma   90.00000000
_symmetry_Int_Tables_number   1
_chemical_formula_structural   Li3Yb3HoMgPt4
_chemical_formula_sum   'Li3 Yb3 Ho1 Mg1 Pt4'
_cell_volume   242.29984475
_cell_formula_units_Z   1
loop_
 _symmetry_equiv_pos_site_id
 _symmetry_equiv_pos_as_xyz
  1  'x, y, z'
loop_
 _atom_site_type_symbol
 _atom_site_label
 _atom_site_symmetry_multiplicity
 _atom_site_fract_x
 _atom_site_fract_y
 _atom_site_fract_z
 _atom_site_occupancy
  Li  Li0  1  0.250000  0.132579  0.059905  1
  Li  Li1  1  0.250000  0.631389  0.437441  1
  Li  Li2  1  0.750000  0.873769  0.944022  1
  Yb  Yb3  1  0.250000  0.033077  0.682755  1
  Yb  Yb4  1  0.750000  0.957719  0.320928  1
  Yb  Yb5  1  0.750000  0.462343  0.176777  1
  Ho  Ho6  1  0.250000  0.544267  0.826878  1
  Mg  Mg7  1  0.750000  0.367274  0.557007  1
  Pt  Pt8  1  0.250000  0.251518  0.374565  1
  Pt  Pt9  1  0.250000  0.754174  0.117215  1
  Pt  Pt10  1  0.750000  0.734678  0.632782  1
  Pt  Pt11  1  0.750000  0.257212  0.869726  1
