# generated using pymatgen
data_Ti18ReSi16Pd
_symmetry_space_group_name_H-M   'P 1'
_cell_length_a   6.68754432
_cell_length_b   6.68080794
_cell_length_c   12.12981725
_cell_angle_alpha   89.83837739
_cell_angle_beta   90.29603634
_cell_angle_gamma   89.87018118
_symmetry_Int_Tables_number   1
_chemical_formula_structural   Ti18ReSi16Pd
_chemical_formula_sum   'Ti18 Re1 Si16 Pd1'
_cell_volume   541.92759167
_cell_formula_units_Z   1
loop_
 _symmetry_equiv_pos_site_id
 _symmetry_equiv_pos_as_xyz
  1  'x, y, z'
loop_
 _atom_site_type_symbol
 _atom_site_label
 _atom_site_symmetry_multiplicity
 _atom_site_fract_x
 _atom_site_fract_y
 _atom_site_fract_z
 _atom_site_occupancy
  Ti  Ti0  1  0.996558  0.147569  0.623484  1
  Ti  Ti1  1  0.355612  0.498451  0.872168  1
  Ti  Ti2  1  0.649287  0.505337  0.370628  1
  Ti  Ti3  1  0.497306  0.353804  0.130357  1
  Ti  Ti4  1  0.503536  0.647544  0.626844  1
  Ti  Ti5  1  0.001552  0.848762  0.120525  1
  Ti  Ti6  1  0.147245  0.998481  0.376895  1
  Ti  Ti7  1  0.849513  0.003650  0.879323  1
  Ti  Ti8  1  0.996119  0.342819  0.221117  1
  Ti  Ti9  1  0.154253  0.501588  0.469353  1
  Ti  Ti10  1  0.836741  0.499629  0.971462  1
  Ti  Ti11  1  0.500263  0.156048  0.530299  1
  Ti  Ti12  1  0.500037  0.838870  0.028450  1
  Ti  Ti13  1  0.999368  0.656473  0.719934  1
  Ti  Ti14  1  0.347314  0.999609  0.781285  1
  Ti  Ti15  1  0.660200  0.999423  0.279020  1
  Ti  Ti16  1  0.671170  0.327879  0.751105  1
  Ti  Ti17  1  0.830083  0.828954  0.498521  1
  Re  Re18  1  0.328216  0.673028  0.248378  1
  Si  Si19  1  0.046138  0.302482  0.814989  1
  Si  Si20  1  0.202518  0.548495  0.063317  1
  Si  Si21  1  0.802636  0.455706  0.564761  1
  Si  Si22  1  0.548088  0.202480  0.937522  1
  Si  Si23  1  0.454508  0.802191  0.434520  1
  Si  Si24  1  0.959306  0.698078  0.314018  1
  Si  Si25  1  0.302840  0.042201  0.185166  1
  Si  Si26  1  0.697994  0.955653  0.685324  1
  Si  Si27  1  0.293007  0.357731  0.673685  1
  Si  Si28  1  0.136057  0.786568  0.921152  1
  Si  Si29  1  0.856274  0.206387  0.424499  1
  Si  Si30  1  0.787091  0.137234  0.078262  1
  Si  Si31  1  0.206140  0.857797  0.576134  1
  Si  Si32  1  0.706022  0.642275  0.172086  1
  Si  Si33  1  0.357915  0.295355  0.327915  1
  Si  Si34  1  0.644027  0.705910  0.825617  1
  Pd  Pd35  1  0.175069  0.175534  0.001886  1
