# generated using pymatgen
data_NaLaGaPd3
_symmetry_space_group_name_H-M   'P 1'
_cell_length_a   5.61691237
_cell_length_b   5.61691290
_cell_length_c   5.31642800
_cell_angle_alpha   58.11203963
_cell_angle_beta   58.11203626
_cell_angle_gamma   60.00000612
_symmetry_Int_Tables_number   1
_chemical_formula_structural   NaLaGaPd3
_chemical_formula_sum   'Na1 La1 Ga1 Pd3'
_cell_volume   115.10620571
_cell_formula_units_Z   1
loop_
 _symmetry_equiv_pos_site_id
 _symmetry_equiv_pos_as_xyz
  1  'x, y, z'
loop_
 _atom_site_type_symbol
 _atom_site_label
 _atom_site_symmetry_multiplicity
 _atom_site_fract_x
 _atom_site_fract_y
 _atom_site_fract_z
 _atom_site_occupancy
  Na  Na0  1  0.993644  0.993644  0.019069  1
  La  La1  1  0.247271  0.247271  0.258188  1
  Ga  Ga2  1  0.629586  0.629586  0.111242  1
  Pd  Pd3  1  0.626526  0.126448  0.620501  1
  Pd  Pd4  1  0.126448  0.626526  0.620501  1
  Pd  Pd5  1  0.626526  0.626526  0.620501  1
