# generated using pymatgen
data_Ca3Pr8Ho9Pb16
_symmetry_space_group_name_H-M   'P 1'
_cell_length_a   8.21231173
_cell_length_b   8.44454781
_cell_length_c   15.98228200
_cell_angle_alpha   90.00000000
_cell_angle_beta   90.00000000
_cell_angle_gamma   90.07470153
_symmetry_Int_Tables_number   1
_chemical_formula_structural   Ca3Pr8Ho9Pb16
_chemical_formula_sum   'Ca3 Pr8 Ho9 Pb16'
_cell_volume   1108.35847232
_cell_formula_units_Z   1
loop_
 _symmetry_equiv_pos_site_id
 _symmetry_equiv_pos_as_xyz
  1  'x, y, z'
loop_
 _atom_site_type_symbol
 _atom_site_label
 _atom_site_symmetry_multiplicity
 _atom_site_fract_x
 _atom_site_fract_y
 _atom_site_fract_z
 _atom_site_occupancy
  Ca  Ca0  1  0.806110  0.497504  0.750000  1
  Ca  Ca1  1  0.305499  0.002137  0.750000  1
  Ca  Ca2  1  0.193516  0.501383  0.250000  1
  Pr  Pr3  1  0.486570  0.680667  0.594589  1
  Pr  Pr4  1  0.985794  0.820169  0.905285  1
  Pr  Pr5  1  0.514319  0.321692  0.096252  1
  Pr  Pr6  1  0.016785  0.179523  0.402924  1
  Pr  Pr7  1  0.514319  0.321692  0.403748  1
  Pr  Pr8  1  0.016785  0.179523  0.097076  1
  Pr  Pr9  1  0.486570  0.680667  0.905411  1
  Pr  Pr10  1  0.985794  0.820169  0.594715  1
  Ho  Ho11  1  0.639670  0.161951  0.619918  1
  Ho  Ho12  1  0.139738  0.335769  0.878466  1
  Ho  Ho13  1  0.358143  0.838042  0.121988  1
  Ho  Ho14  1  0.859177  0.662673  0.376740  1
  Ho  Ho15  1  0.358143  0.838042  0.378012  1
  Ho  Ho16  1  0.859177  0.662673  0.123260  1
  Ho  Ho17  1  0.639670  0.161951  0.880082  1
  Ho  Ho18  1  0.139738  0.335769  0.621534  1
  Ho  Ho19  1  0.693159  0.995974  0.250000  1
  Pb  Pb20  1  0.700301  0.959349  0.456254  1
  Pb  Pb21  1  0.197400  0.543649  0.040090  1
  Pb  Pb22  1  0.300341  0.042866  0.960117  1
  Pb  Pb23  1  0.802174  0.456996  0.539262  1
  Pb  Pb24  1  0.300341  0.042866  0.539883  1
  Pb  Pb25  1  0.802174  0.456996  0.960738  1
  Pb  Pb26  1  0.700301  0.959349  0.043746  1
  Pb  Pb27  1  0.197400  0.543649  0.459910  1
  Pb  Pb28  1  0.441630  0.375093  0.750000  1
  Pb  Pb29  1  0.939982  0.123688  0.750000  1
  Pb  Pb30  1  0.557052  0.627759  0.250000  1
  Pb  Pb31  1  0.056609  0.877048  0.250000  1
  Pb  Pb32  1  0.676706  0.859931  0.750000  1
  Pb  Pb33  1  0.178495  0.640204  0.750000  1
  Pb  Pb34  1  0.331070  0.140815  0.250000  1
  Pb  Pb35  1  0.819351  0.351771  0.250000  1
