# generated using pymatgen
data_LiEr5(InRh2)6
_symmetry_space_group_name_H-M   'P 1'
_cell_length_a   4.67590500
_cell_length_b   6.53530300
_cell_length_c   13.95423701
_cell_angle_alpha   90.00000000
_cell_angle_beta   89.99953439
_cell_angle_gamma   90.00000000
_symmetry_Int_Tables_number   1
_chemical_formula_structural   LiEr5(InRh2)6
_chemical_formula_sum   'Li1 Er5 In6 Rh12'
_cell_volume   426.41993724
_cell_formula_units_Z   1
loop_
 _symmetry_equiv_pos_site_id
 _symmetry_equiv_pos_as_xyz
  1  'x, y, z'
loop_
 _atom_site_type_symbol
 _atom_site_label
 _atom_site_symmetry_multiplicity
 _atom_site_fract_x
 _atom_site_fract_y
 _atom_site_fract_z
 _atom_site_occupancy
  Li  Li0  1  0.500552  0.500000  0.833363  1
  Er  Er1  1  0.999992  0.000000  0.997549  1
  Er  Er2  1  0.499825  0.500000  0.164956  1
  Er  Er3  1  0.999732  0.000000  0.333357  1
  Er  Er4  1  0.500011  0.500000  0.501695  1
  Er  Er5  1  0.000198  0.000000  0.669091  1
  In  In6  1  0.999972  0.500000  0.994736  1
  In  In7  1  0.499840  0.000000  0.163787  1
  In  In8  1  0.999919  0.500000  0.333332  1
  In  In9  1  0.500002  0.000000  0.502904  1
  In  In10  1  0.000105  0.500000  0.671922  1
  In  In11  1  0.500072  0.000000  0.833322  1
  Rh  Rh12  1  0.499987  0.254734  0.997351  1
  Rh  Rh13  1  0.499987  0.745267  0.997351  1
  Rh  Rh14  1  0.999775  0.250843  0.166634  1
  Rh  Rh15  1  0.999775  0.749157  0.166634  1
  Rh  Rh16  1  0.499777  0.249539  0.333341  1
  Rh  Rh17  1  0.499777  0.750460  0.333341  1
  Rh  Rh18  1  0.999999  0.250888  0.500050  1
  Rh  Rh19  1  0.999999  0.749110  0.500050  1
  Rh  Rh20  1  0.500200  0.254788  0.669298  1
  Rh  Rh21  1  0.500200  0.745211  0.669298  1
  Rh  Rh22  1  0.000153  0.255351  0.833319  1
  Rh  Rh23  1  0.000153  0.744649  0.833319  1
