# generated using pymatgen
data_Ce3ZnCd2Pt3
_symmetry_space_group_name_H-M   'P 1'
_cell_length_a   7.63325975
_cell_length_b   7.63325893
_cell_length_c   3.95163100
_cell_angle_alpha   90.00000000
_cell_angle_beta   90.00000000
_cell_angle_gamma   119.73933713
_symmetry_Int_Tables_number   1
_chemical_formula_structural   Ce3ZnCd2Pt3
_chemical_formula_sum   'Ce3 Zn1 Cd2 Pt3'
_cell_volume   199.92255431
_cell_formula_units_Z   1
loop_
 _symmetry_equiv_pos_site_id
 _symmetry_equiv_pos_as_xyz
  1  'x, y, z'
loop_
 _atom_site_type_symbol
 _atom_site_label
 _atom_site_symmetry_multiplicity
 _atom_site_fract_x
 _atom_site_fract_y
 _atom_site_fract_z
 _atom_site_occupancy
  Ce  Ce0  1  0.422769  0.422769  0.000000  1
  Ce  Ce1  1  0.594534  0.996704  0.000000  1
  Ce  Ce2  1  0.996704  0.594534  0.000000  1
  Zn  Zn3  1  0.744234  0.744234  0.500000  1
  Cd  Cd4  1  0.252221  0.006985  0.500000  1
  Cd  Cd5  1  0.006985  0.252221  0.500000  1
  Pt  Pt6  1  0.671240  0.343537  0.500000  1
  Pt  Pt7  1  0.343537  0.671240  0.500000  1
  Pt  Pt8  1  0.967776  0.967776  0.000000  1
