# generated using pymatgen
data_Yb4Al6TeO12
_symmetry_space_group_name_H-M   'P 1'
_cell_length_a   7.96079347
_cell_length_b   7.96079380
_cell_length_c   7.96079300
_cell_angle_alpha   109.47122114
_cell_angle_beta   109.47122198
_cell_angle_gamma   109.47121845
_symmetry_Int_Tables_number   1
_chemical_formula_structural   Yb4Al6TeO12
_chemical_formula_sum   'Yb4 Al6 Te1 O12'
_cell_volume   388.37134082
_cell_formula_units_Z   1
loop_
 _symmetry_equiv_pos_site_id
 _symmetry_equiv_pos_as_xyz
  1  'x, y, z'
loop_
 _atom_site_type_symbol
 _atom_site_label
 _atom_site_symmetry_multiplicity
 _atom_site_fract_x
 _atom_site_fract_y
 _atom_site_fract_z
 _atom_site_occupancy
  Yb  Yb0  1  0.000000  0.000000  0.391255  1
  Yb  Yb1  1  0.608745  0.608745  0.608745  1
  Yb  Yb2  1  0.391255  0.000000  0.000000  1
  Yb  Yb3  1  0.000000  0.391255  0.000000  1
  Al  Al4  1  0.250000  0.750000  0.500000  1
  Al  Al5  1  0.750000  0.250000  0.500000  1
  Al  Al6  1  0.500000  0.250000  0.750000  1
  Al  Al7  1  0.500000  0.750000  0.250000  1
  Al  Al8  1  0.250000  0.500000  0.750000  1
  Al  Al9  1  0.750000  0.500000  0.250000  1
  Te  Te10  1  0.000000  0.000000  0.000000  1
  O  O11  1  0.584032  0.283083  0.000000  1
  O  O12  1  0.415968  0.415968  0.699051  1
  O  O13  1  0.000000  0.283083  0.584032  1
  O  O14  1  0.283083  0.000000  0.584032  1
  O  O15  1  0.699051  0.415968  0.415968  1
  O  O16  1  0.000000  0.584032  0.283083  1
  O  O17  1  0.584032  0.000000  0.283083  1
  O  O18  1  0.415968  0.699051  0.415968  1
  O  O19  1  0.283083  0.584032  0.000000  1
  O  O20  1  0.716917  0.300949  0.716917  1
  O  O21  1  0.716917  0.716917  0.300949  1
  O  O22  1  0.300949  0.716917  0.716917  1
