# generated using pymatgen
data_LiY4Sc3(B6Ir)4
_symmetry_space_group_name_H-M   'P 1'
_cell_length_a   3.55002800
_cell_length_b   8.97091616
_cell_length_c   11.35306301
_cell_angle_alpha   90.07967654
_cell_angle_beta   90.00000000
_cell_angle_gamma   90.00000000
_symmetry_Int_Tables_number   1
_chemical_formula_structural   LiY4Sc3(B6Ir)4
_chemical_formula_sum   'Li1 Y4 Sc3 B24 Ir4'
_cell_volume   361.56068851
_cell_formula_units_Z   1
loop_
 _symmetry_equiv_pos_site_id
 _symmetry_equiv_pos_as_xyz
  1  'x, y, z'
loop_
 _atom_site_type_symbol
 _atom_site_label
 _atom_site_symmetry_multiplicity
 _atom_site_fract_x
 _atom_site_fract_y
 _atom_site_fract_z
 _atom_site_occupancy
  Li  Li0  1  0.500000  0.446810  0.121424  1
  Y  Y1  1  0.500000  0.320033  0.412270  1
  Y  Y2  1  0.500000  0.680447  0.585566  1
  Y  Y3  1  0.500000  0.182727  0.915809  1
  Y  Y4  1  0.500000  0.816793  0.086540  1
  Sc  Sc5  1  0.500000  0.553414  0.880316  1
  Sc  Sc6  1  0.500000  0.055400  0.623802  1
  Sc  Sc7  1  0.500000  0.944827  0.375014  1
  B  B8  1  0.000000  0.100634  0.472692  1
  B  B9  1  0.000000  0.899524  0.526760  1
  B  B10  1  0.000000  0.401021  0.974539  1
  B  B11  1  0.000000  0.597957  0.027628  1
  B  B12  1  0.000000  0.129587  0.316902  1
  B  B13  1  0.000000  0.870868  0.681737  1
  B  B14  1  0.000000  0.370450  0.821081  1
  B  B15  1  0.000000  0.625769  0.180627  1
  B  B16  1  0.000000  0.056159  0.067205  1
  B  B17  1  0.000000  0.944326  0.934758  1
  B  B18  1  0.000000  0.444307  0.565467  1
  B  B19  1  0.000000  0.555417  0.432166  1
  B  B20  1  0.000000  0.481619  0.282740  1
  B  B21  1  0.000000  0.517821  0.716223  1
  B  B22  1  0.000000  0.018995  0.784935  1
  B  B23  1  0.000000  0.981829  0.214500  1
  B  B24  1  0.000000  0.257893  0.081702  1
  B  B25  1  0.000000  0.744458  0.921811  1
  B  B26  1  0.000000  0.246336  0.579491  1
  B  B27  1  0.000000  0.753912  0.418831  1
  B  B28  1  0.000000  0.296338  0.233323  1
  B  B29  1  0.000000  0.704517  0.766192  1
  B  B30  1  0.000000  0.205773  0.736061  1
  B  B31  1  0.000000  0.792825  0.264680  1
  Ir  Ir32  1  0.500000  0.142096  0.182078  1
  Ir  Ir33  1  0.500000  0.859531  0.817543  1
  Ir  Ir34  1  0.500000  0.359968  0.679704  1
  Ir  Ir35  1  0.500000  0.639622  0.317883  1
