# generated using pymatgen
data_Cu2BiSb(PtS3)2
_symmetry_space_group_name_H-M   'P 1'
_cell_length_a   4.99811700
_cell_length_b   7.73625795
_cell_length_c   12.62009256
_cell_angle_alpha   90.05681104
_cell_angle_beta   90.00000000
_cell_angle_gamma   90.00000000
_symmetry_Int_Tables_number   1
_chemical_formula_structural   Cu2BiSb(PtS3)2
_chemical_formula_sum   'Cu4 Bi2 Sb2 Pt4 S12'
_cell_volume   487.97737520
_cell_formula_units_Z   2
loop_
 _symmetry_equiv_pos_site_id
 _symmetry_equiv_pos_as_xyz
  1  'x, y, z'
loop_
 _atom_site_type_symbol
 _atom_site_label
 _atom_site_symmetry_multiplicity
 _atom_site_fract_x
 _atom_site_fract_y
 _atom_site_fract_z
 _atom_site_occupancy
  Cu  Cu0  1  0.474174  0.886222  0.440295  1
  Cu  Cu1  1  0.974174  0.613778  0.559705  1
  Cu  Cu2  1  0.527179  0.386008  0.059565  1
  Cu  Cu3  1  0.027179  0.113992  0.940435  1
  Bi  Bi4  1  0.403255  0.882297  0.131245  1
  Bi  Bi5  1  0.903255  0.617703  0.868755  1
  Sb  Sb6  1  0.574050  0.379527  0.368647  1
  Sb  Sb7  1  0.074050  0.120473  0.631353  1
  Pt  Pt8  1  0.010303  0.636079  0.250025  1
  Pt  Pt9  1  0.510303  0.863921  0.749975  1
  Pt  Pt10  1  0.992289  0.138196  0.252274  1
  Pt  Pt11  1  0.492289  0.361804  0.747726  1
  S  S12  1  0.766396  0.631893  0.088213  1
  S  S13  1  0.266396  0.868107  0.911787  1
  S  S14  1  0.237712  0.135382  0.414364  1
  S  S15  1  0.737712  0.364618  0.585636  1
  S  S16  1  0.761530  0.884203  0.297525  1
  S  S17  1  0.261530  0.615797  0.702475  1
  S  S18  1  0.245564  0.383874  0.205237  1
  S  S19  1  0.745564  0.116126  0.794763  1
  S  S20  1  0.241043  0.633950  0.413567  1
  S  S21  1  0.741043  0.866050  0.586433  1
  S  S22  1  0.766505  0.137969  0.087368  1
  S  S23  1  0.266505  0.362031  0.912632  1
