# generated using pymatgen
data_Sm4Ho4Re(B8Ru)3
_symmetry_space_group_name_H-M   'P 1'
_cell_length_a   3.69796200
_cell_length_b   9.18939678
_cell_length_c   11.60481105
_cell_angle_alpha   90.11673912
_cell_angle_beta   90.00000000
_cell_angle_gamma   90.00000000
_symmetry_Int_Tables_number   1
_chemical_formula_structural   Sm4Ho4Re(B8Ru)3
_chemical_formula_sum   'Sm4 Ho4 Re1 B24 Ru3'
_cell_volume   394.35433567
_cell_formula_units_Z   1
loop_
 _symmetry_equiv_pos_site_id
 _symmetry_equiv_pos_as_xyz
  1  'x, y, z'
loop_
 _atom_site_type_symbol
 _atom_site_label
 _atom_site_symmetry_multiplicity
 _atom_site_fract_x
 _atom_site_fract_y
 _atom_site_fract_z
 _atom_site_occupancy
  Sm  Sm0  1  0.000000  0.323513  0.414992  1
  Sm  Sm1  1  0.000000  0.679319  0.587515  1
  Sm  Sm2  1  0.000000  0.822744  0.083867  1
  Sm  Sm3  1  0.000000  0.176314  0.913414  1
  Ho  Ho4  1  0.000000  0.943188  0.370723  1
  Ho  Ho5  1  0.000000  0.056328  0.628032  1
  Ho  Ho6  1  0.000000  0.442545  0.128841  1
  Ho  Ho7  1  0.000000  0.556111  0.872265  1
  Re  Re8  1  0.000000  0.861509  0.820288  1
  B  B9  1  0.500000  0.555345  0.431790  1
  B  B10  1  0.500000  0.445046  0.568699  1
  B  B11  1  0.500000  0.054879  0.068864  1
  B  B12  1  0.500000  0.946004  0.931702  1
  B  B13  1  0.500000  0.749145  0.418040  1
  B  B14  1  0.500000  0.251261  0.581663  1
  B  B15  1  0.500000  0.248868  0.082252  1
  B  B16  1  0.500000  0.750650  0.917857  1
  B  B17  1  0.500000  0.789791  0.266347  1
  B  B18  1  0.500000  0.209650  0.732698  1
  B  B19  1  0.500000  0.290330  0.233717  1
  B  B20  1  0.500000  0.708745  0.766398  1
  B  B21  1  0.500000  0.630186  0.185433  1
  B  B22  1  0.500000  0.369035  0.814266  1
  B  B23  1  0.500000  0.131055  0.314817  1
  B  B24  1  0.500000  0.869356  0.685547  1
  B  B25  1  0.500000  0.984824  0.213278  1
  B  B26  1  0.500000  0.016546  0.786462  1
  B  B27  1  0.500000  0.484657  0.287278  1
  B  B28  1  0.500000  0.515438  0.713551  1
  B  B29  1  0.500000  0.602471  0.029143  1
  B  B30  1  0.500000  0.395357  0.971855  1
  B  B31  1  0.500000  0.104340  0.470748  1
  B  B32  1  0.500000  0.896583  0.527741  1
  Ru  Ru33  1  0.000000  0.638589  0.320178  1
  Ru  Ru34  1  0.000000  0.361561  0.679437  1
  Ru  Ru35  1  0.000000  0.138712  0.180305  1
