# generated using pymatgen
data_Ho3Er5(B6Rh)4
_symmetry_space_group_name_H-M   'P 1'
_cell_length_a   3.63955500
_cell_length_b   9.14934500
_cell_length_c   11.47595300
_cell_angle_alpha   90.00320580
_cell_angle_beta   90.00000000
_cell_angle_gamma   90.00000000
_symmetry_Int_Tables_number   1
_chemical_formula_structural   Ho3Er5(B6Rh)4
_chemical_formula_sum   'Ho3 Er5 B24 Rh4'
_cell_volume   382.14400549
_cell_formula_units_Z   1
loop_
 _symmetry_equiv_pos_site_id
 _symmetry_equiv_pos_as_xyz
  1  'x, y, z'
loop_
 _atom_site_type_symbol
 _atom_site_label
 _atom_site_symmetry_multiplicity
 _atom_site_fract_x
 _atom_site_fract_y
 _atom_site_fract_z
 _atom_site_occupancy
  Ho  Ho0  1  0.500000  0.322359  0.413448  1
  Ho  Ho1  1  0.500000  0.677644  0.586552  1
  Ho  Ho2  1  0.500000  0.177610  0.913492  1
  Er  Er3  1  0.500000  0.822289  0.086476  1
  Er  Er4  1  0.500000  0.444687  0.126766  1
  Er  Er5  1  0.500000  0.555480  0.873294  1
  Er  Er6  1  0.500000  0.055387  0.626820  1
  Er  Er7  1  0.500000  0.944559  0.373138  1
  B  B8  1  0.000000  0.110122  0.469977  1
  B  B9  1  0.000000  0.889836  0.529981  1
  B  B10  1  0.000000  0.389758  0.969976  1
  B  B11  1  0.000000  0.610579  0.030125  1
  B  B12  1  0.000000  0.133265  0.315765  1
  B  B13  1  0.000000  0.866686  0.684215  1
  B  B14  1  0.000000  0.366728  0.815841  1
  B  B15  1  0.000000  0.633494  0.184062  1
  B  B16  1  0.000000  0.053748  0.065375  1
  B  B17  1  0.000000  0.945911  0.934829  1
  B  B18  1  0.000000  0.446024  0.565375  1
  B  B19  1  0.000000  0.553991  0.434593  1
  B  B20  1  0.000000  0.482917  0.286569  1
  B  B21  1  0.000000  0.517175  0.713445  1
  B  B22  1  0.000000  0.017079  0.786651  1
  B  B23  1  0.000000  0.982634  0.213213  1
  B  B24  1  0.000000  0.249527  0.079238  1
  B  B25  1  0.000000  0.750554  0.921023  1
  B  B26  1  0.000000  0.250412  0.579209  1
  B  B27  1  0.000000  0.749571  0.420730  1
  B  B28  1  0.000000  0.294689  0.235547  1
  B  B29  1  0.000000  0.705321  0.764479  1
  B  B30  1  0.000000  0.205276  0.735611  1
  B  B31  1  0.000000  0.794797  0.264174  1
  Rh  Rh32  1  0.500000  0.139588  0.178775  1
  Rh  Rh33  1  0.500000  0.860185  0.821338  1
  Rh  Rh34  1  0.500000  0.360163  0.678918  1
  Rh  Rh35  1  0.500000  0.639954  0.320982  1
