# generated using pymatgen
data_Th5Fe16(CoP4)3
_symmetry_space_group_name_H-M   'P 1'
_cell_length_a   12.09988400
_cell_length_b   12.11382056
_cell_length_c   3.77619200
_cell_angle_alpha   90.00000000
_cell_angle_beta   90.00000000
_cell_angle_gamma   119.95228263
_symmetry_Int_Tables_number   1
_chemical_formula_structural   Th5Fe16(CoP4)3
_chemical_formula_sum   'Th5 Fe16 Co3 P12'
_cell_volume   479.57403830
_cell_formula_units_Z   1
loop_
 _symmetry_equiv_pos_site_id
 _symmetry_equiv_pos_as_xyz
  1  'x, y, z'
loop_
 _atom_site_type_symbol
 _atom_site_label
 _atom_site_symmetry_multiplicity
 _atom_site_fract_x
 _atom_site_fract_y
 _atom_site_fract_z
 _atom_site_occupancy
  Th  Th0  1  0.333937  0.666030  0.500000  1
  Th  Th1  1  0.665935  0.334032  0.500000  1
  Th  Th2  1  0.809990  0.999742  0.000000  1
  Th  Th3  1  0.000347  0.809889  0.000000  1
  Th  Th4  1  0.190046  0.190363  0.000000  1
  Fe  Fe5  1  0.621783  0.801564  0.500000  1
  Fe  Fe6  1  0.199429  0.819980  0.500000  1
  Fe  Fe7  1  0.179680  0.378517  0.500000  1
  Fe  Fe8  1  0.378500  0.180477  0.500000  1
  Fe  Fe9  1  0.803092  0.620325  0.500000  1
  Fe  Fe10  1  0.817458  0.197912  0.500000  1
  Fe  Fe11  1  0.285405  0.999916  0.000000  1
  Fe  Fe12  1  0.998964  0.284925  0.000000  1
  Fe  Fe13  1  0.716463  0.715779  0.000000  1
  Fe  Fe14  1  0.441158  0.001402  0.500000  1
  Fe  Fe15  1  0.998716  0.440012  0.500000  1
  Fe  Fe16  1  0.560582  0.560182  0.500000  1
  Fe  Fe17  1  0.513212  0.878301  0.000000  1
  Fe  Fe18  1  0.121471  0.634212  0.000000  1
  Fe  Fe19  1  0.365732  0.486636  0.000000  1
  Fe  Fe20  1  0.486812  0.365781  0.000000  1
  Co  Co21  1  0.877573  0.511870  0.000000  1
  Co  Co22  1  0.633328  0.121863  0.000000  1
  Co  Co23  1  0.000381  0.000457  0.500000  1
  P  P24  1  0.188256  0.999954  0.500000  1
  P  P25  1  0.999367  0.188071  0.500000  1
  P  P26  1  0.812607  0.811932  0.500000  1
  P  P27  1  0.527376  0.692262  0.000000  1
  P  P28  1  0.306961  0.833133  0.000000  1
  P  P29  1  0.166225  0.473015  0.000000  1
  P  P30  1  0.472247  0.167273  0.000000  1
  P  P31  1  0.690506  0.527099  0.000000  1
  P  P32  1  0.833491  0.306893  0.000000  1
  P  P33  1  0.621492  0.996876  0.500000  1
  P  P34  1  0.003123  0.624681  0.500000  1
  P  P35  1  0.378358  0.378643  0.500000  1
