# generated using pymatgen
data_NaSr2TcO6
_symmetry_space_group_name_H-M   'P 1'
_cell_length_a   5.73000352
_cell_length_b   5.98245900
_cell_length_c   8.16020233
_cell_angle_alpha   90.00000000
_cell_angle_beta   89.71892076
_cell_angle_gamma   90.00000000
_symmetry_Int_Tables_number   1
_chemical_formula_structural   NaSr2TcO6
_chemical_formula_sum   'Na2 Sr4 Tc2 O12'
_cell_volume   279.72438080
_cell_formula_units_Z   2
loop_
 _symmetry_equiv_pos_site_id
 _symmetry_equiv_pos_as_xyz
  1  'x, y, z'
loop_
 _atom_site_type_symbol
 _atom_site_label
 _atom_site_symmetry_multiplicity
 _atom_site_fract_x
 _atom_site_fract_y
 _atom_site_fract_z
 _atom_site_occupancy
  Na  Na0  1  0.500000  0.500000  0.000000  1
  Na  Na1  1  0.000000  0.000000  0.500000  1
  Sr  Sr2  1  0.513631  0.059115  0.752426  1
  Sr  Sr3  1  0.986369  0.559115  0.747574  1
  Sr  Sr4  1  0.486369  0.940885  0.247574  1
  Sr  Sr5  1  0.013631  0.440885  0.252426  1
  Tc  Tc6  1  0.500000  0.500000  0.500000  1
  Tc  Tc7  1  0.000000  0.000000  0.000000  1
  O  O8  1  0.670959  0.764865  0.552746  1
  O  O9  1  0.829041  0.264865  0.947254  1
  O  O10  1  0.329041  0.235135  0.447254  1
  O  O11  1  0.170959  0.735135  0.052746  1
  O  O12  1  0.410396  0.468556  0.723771  1
  O  O13  1  0.089604  0.968556  0.776229  1
  O  O14  1  0.589604  0.531444  0.276229  1
  O  O15  1  0.910396  0.031444  0.223771  1
  O  O16  1  0.771381  0.324160  0.541219  1
  O  O17  1  0.728619  0.824160  0.958781  1
  O  O18  1  0.228619  0.675840  0.458781  1
  O  O19  1  0.271381  0.175840  0.041219  1
