# generated using pymatgen
data_Nd2CoAs4Ir3
_symmetry_space_group_name_H-M   'P 1'
_cell_length_a   4.24197100
_cell_length_b   4.24197100
_cell_length_c   9.95209900
_cell_angle_alpha   90.00000000
_cell_angle_beta   90.00000000
_cell_angle_gamma   90.00000000
_symmetry_Int_Tables_number   1
_chemical_formula_structural   Nd2CoAs4Ir3
_chemical_formula_sum   'Nd2 Co1 As4 Ir3'
_cell_volume   179.08123382
_cell_formula_units_Z   1
loop_
 _symmetry_equiv_pos_site_id
 _symmetry_equiv_pos_as_xyz
  1  'x, y, z'
loop_
 _atom_site_type_symbol
 _atom_site_label
 _atom_site_symmetry_multiplicity
 _atom_site_fract_x
 _atom_site_fract_y
 _atom_site_fract_z
 _atom_site_occupancy
  Nd  Nd0  1  0.500000  0.000000  0.744475  1
  Nd  Nd1  1  0.000000  0.500000  0.255894  1
  Co  Co2  1  0.500000  0.000000  0.384460  1
  As  As3  1  0.500000  0.000000  0.150402  1
  As  As4  1  0.000000  0.500000  0.861489  1
  As  As5  1  0.500000  0.500000  0.489119  1
  As  As6  1  0.000000  0.000000  0.489119  1
  Ir  Ir7  1  0.500000  0.500000  0.004151  1
  Ir  Ir8  1  0.000000  0.000000  0.004151  1
  Ir  Ir9  1  0.000000  0.500000  0.616741  1
