# generated using pymatgen
data_HoPu2(NiSn)3
_symmetry_space_group_name_H-M   'P 1'
_cell_length_a   7.27924528
_cell_length_b   7.20224240
_cell_length_c   3.97843400
_cell_angle_alpha   90.00000000
_cell_angle_beta   90.00000000
_cell_angle_gamma   119.65068376
_symmetry_Int_Tables_number   1
_chemical_formula_structural   HoPu2(NiSn)3
_chemical_formula_sum   'Ho1 Pu2 Ni3 Sn3'
_cell_volume   181.26536587
_cell_formula_units_Z   1
loop_
 _symmetry_equiv_pos_site_id
 _symmetry_equiv_pos_as_xyz
  1  'x, y, z'
loop_
 _atom_site_type_symbol
 _atom_site_label
 _atom_site_symmetry_multiplicity
 _atom_site_fract_x
 _atom_site_fract_y
 _atom_site_fract_z
 _atom_site_occupancy
  Ho  Ho0  1  0.000000  0.590267  0.500000  1
  Pu  Pu1  1  0.414790  0.414190  0.500000  1
  Pu  Pu2  1  0.585210  0.999400  0.500000  1
  Ni  Ni3  1  0.000000  0.997702  0.500000  1
  Ni  Ni4  1  0.666221  0.332370  0.000000  1
  Ni  Ni5  1  0.333779  0.666150  0.000000  1
  Sn  Sn6  1  0.749032  0.746947  0.000000  1
  Sn  Sn7  1  0.250968  0.997916  0.000000  1
  Sn  Sn8  1  0.000000  0.255058  0.000000  1
