# generated using pymatgen
data_Sr3MnZnO6
_symmetry_space_group_name_H-M   'P 1'
_cell_length_a   6.68951428
_cell_length_b   6.68951403
_cell_length_c   6.68951404
_cell_angle_alpha   92.86682177
_cell_angle_beta   92.86682728
_cell_angle_gamma   92.86681755
_symmetry_Int_Tables_number   1
_chemical_formula_structural   Sr3MnZnO6
_chemical_formula_sum   'Sr6 Mn2 Zn2 O12'
_cell_volume   298.19013362
_cell_formula_units_Z   2
loop_
 _symmetry_equiv_pos_site_id
 _symmetry_equiv_pos_as_xyz
  1  'x, y, z'
loop_
 _atom_site_type_symbol
 _atom_site_label
 _atom_site_symmetry_multiplicity
 _atom_site_fract_x
 _atom_site_fract_y
 _atom_site_fract_z
 _atom_site_occupancy
  Sr  Sr0  1  0.887406  0.612594  0.250000  1
  Sr  Sr1  1  0.250000  0.887406  0.612594  1
  Sr  Sr2  1  0.612594  0.250000  0.887406  1
  Sr  Sr3  1  0.750000  0.112594  0.387406  1
  Sr  Sr4  1  0.387406  0.750000  0.112594  1
  Sr  Sr5  1  0.112594  0.387406  0.750000  1
  Mn  Mn6  1  0.500000  0.500000  0.500000  1
  Mn  Mn7  1  0.000000  0.000000  0.000000  1
  Zn  Zn8  1  0.250000  0.250000  0.250000  1
  Zn  Zn9  1  0.750000  0.750000  0.750000  1
  O  O10  1  0.221773  0.541341  0.413004  1
  O  O11  1  0.413004  0.221773  0.541341  1
  O  O12  1  0.541341  0.413004  0.221773  1
  O  O13  1  0.913004  0.041341  0.721773  1
  O  O14  1  0.721773  0.913004  0.041341  1
  O  O15  1  0.041341  0.721773  0.913004  1
  O  O16  1  0.778227  0.458659  0.586996  1
  O  O17  1  0.586996  0.778227  0.458659  1
  O  O18  1  0.458659  0.586996  0.778227  1
  O  O19  1  0.086996  0.958659  0.278227  1
  O  O20  1  0.278227  0.086996  0.958659  1
  O  O21  1  0.958659  0.278227  0.086996  1
