# generated using pymatgen
data_Li4PrDy3Si8
_symmetry_space_group_name_H-M   'P 1'
_cell_length_a   3.82712900
_cell_length_b   7.63323951
_cell_length_c   10.26790544
_cell_angle_alpha   89.82772141
_cell_angle_beta   90.00000000
_cell_angle_gamma   90.00000000
_symmetry_Int_Tables_number   1
_chemical_formula_structural   Li4PrDy3Si8
_chemical_formula_sum   'Li4 Pr1 Dy3 Si8'
_cell_volume   299.95899351
_cell_formula_units_Z   1
loop_
 _symmetry_equiv_pos_site_id
 _symmetry_equiv_pos_as_xyz
  1  'x, y, z'
loop_
 _atom_site_type_symbol
 _atom_site_label
 _atom_site_symmetry_multiplicity
 _atom_site_fract_x
 _atom_site_fract_y
 _atom_site_fract_z
 _atom_site_occupancy
  Li  Li0  1  0.250000  0.994506  0.392395  1
  Li  Li1  1  0.750000  0.011042  0.609837  1
  Li  Li2  1  0.250000  0.488841  0.106989  1
  Li  Li3  1  0.750000  0.509849  0.893822  1
  Pr  Pr4  1  0.750000  0.359577  0.363450  1
  Dy  Dy5  1  0.250000  0.134004  0.863355  1
  Dy  Dy6  1  0.750000  0.861306  0.134764  1
  Dy  Dy7  1  0.250000  0.638592  0.636548  1
  Si  Si8  1  0.750000  0.262006  0.063039  1
  Si  Si9  1  0.250000  0.731605  0.931161  1
  Si  Si10  1  0.750000  0.774595  0.431682  1
  Si  Si11  1  0.250000  0.231117  0.575485  1
  Si  Si12  1  0.750000  0.840142  0.819483  1
  Si  Si13  1  0.250000  0.153317  0.174094  1
  Si  Si14  1  0.750000  0.342449  0.684719  1
  Si  Si15  1  0.250000  0.667053  0.319180  1
