# generated using pymatgen
data_Tb5Dy7Tc3Pt
_symmetry_space_group_name_H-M   'P 1'
_cell_length_a   6.32942834
_cell_length_b   7.41853308
_cell_length_c   9.23387149
_cell_angle_alpha   89.98067300
_cell_angle_beta   90.03208149
_cell_angle_gamma   90.00811383
_symmetry_Int_Tables_number   1
_chemical_formula_structural   Tb5Dy7Tc3Pt
_chemical_formula_sum   'Tb5 Dy7 Tc3 Pt1'
_cell_volume   433.57701819
_cell_formula_units_Z   1
loop_
 _symmetry_equiv_pos_site_id
 _symmetry_equiv_pos_as_xyz
  1  'x, y, z'
loop_
 _atom_site_type_symbol
 _atom_site_label
 _atom_site_symmetry_multiplicity
 _atom_site_fract_x
 _atom_site_fract_y
 _atom_site_fract_z
 _atom_site_occupancy
  Tb  Tb0  1  0.328693  0.675766  0.067363  1
  Tb  Tb1  1  0.871544  0.543059  0.250145  1
  Tb  Tb2  1  0.624392  0.038817  0.250100  1
  Tb  Tb3  1  0.129109  0.455357  0.749873  1
  Tb  Tb4  1  0.370086  0.964760  0.749918  1
  Dy  Dy5  1  0.165332  0.177494  0.435650  1
  Dy  Dy6  1  0.668572  0.318875  0.559382  1
  Dy  Dy7  1  0.836644  0.827432  0.939155  1
  Dy  Dy8  1  0.668753  0.318749  0.940507  1
  Dy  Dy9  1  0.836665  0.827354  0.560751  1
  Dy  Dy10  1  0.328641  0.675771  0.432727  1
  Dy  Dy11  1  0.165231  0.177481  0.064385  1
  Tc  Tc12  1  0.038788  0.886144  0.250108  1
  Tc  Tc13  1  0.463142  0.386955  0.250101  1
  Tc  Tc14  1  0.956603  0.113375  0.750007  1
  Pt  Pt15  1  0.547801  0.612612  0.749828  1
