# generated using pymatgen
data_Tm5GePb3
_symmetry_space_group_name_H-M   'P 1'
_cell_length_a   9.23453500
_cell_length_b   9.23453533
_cell_length_c   6.44664400
_cell_angle_alpha   90.00000000
_cell_angle_beta   90.00000000
_cell_angle_gamma   120.00000238
_symmetry_Int_Tables_number   1
_chemical_formula_structural   Tm5GePb3
_chemical_formula_sum   'Tm10 Ge2 Pb6'
_cell_volume   476.09584179
_cell_formula_units_Z   2
loop_
 _symmetry_equiv_pos_site_id
 _symmetry_equiv_pos_as_xyz
  1  'x, y, z'
loop_
 _atom_site_type_symbol
 _atom_site_label
 _atom_site_symmetry_multiplicity
 _atom_site_fract_x
 _atom_site_fract_y
 _atom_site_fract_z
 _atom_site_occupancy
  Tm  Tm0  1  0.748638  0.748638  0.250000  1
  Tm  Tm1  1  0.000000  0.748638  0.750000  1
  Tm  Tm2  1  0.333333  0.666667  0.500000  1
  Tm  Tm3  1  0.251362  0.000000  0.250000  1
  Tm  Tm4  1  0.251362  0.251362  0.750000  1
  Tm  Tm5  1  0.000000  0.251362  0.250000  1
  Tm  Tm6  1  0.666667  0.333333  0.500000  1
  Tm  Tm7  1  0.748638  0.000000  0.750000  1
  Tm  Tm8  1  0.333333  0.666667  0.000000  1
  Tm  Tm9  1  0.666667  0.333333  0.000000  1
  Ge  Ge10  1  0.000000  0.000000  0.000000  1
  Ge  Ge11  1  0.000000  0.000000  0.500000  1
  Pb  Pb12  1  0.392800  0.000000  0.750000  1
  Pb  Pb13  1  0.607200  0.000000  0.250000  1
  Pb  Pb14  1  0.392800  0.392800  0.250000  1
  Pb  Pb15  1  0.000000  0.607200  0.250000  1
  Pb  Pb16  1  0.000000  0.392800  0.750000  1
  Pb  Pb17  1  0.607200  0.607200  0.750000  1
