# generated using pymatgen
data_Dy12In2CoTc2Ni
_symmetry_space_group_name_H-M   'P 1'
_cell_length_a   8.45838465
_cell_length_b   8.45838513
_cell_length_c   8.45838425
_cell_angle_alpha   112.95813581
_cell_angle_beta   111.06097385
_cell_angle_gamma   104.51185460
_symmetry_Int_Tables_number   1
_chemical_formula_structural   Dy12In2CoTc2Ni
_chemical_formula_sum   'Dy12 In2 Co1 Tc2 Ni1'
_cell_volume   463.11682301
_cell_formula_units_Z   1
loop_
 _symmetry_equiv_pos_site_id
 _symmetry_equiv_pos_as_xyz
  1  'x, y, z'
loop_
 _atom_site_type_symbol
 _atom_site_label
 _atom_site_symmetry_multiplicity
 _atom_site_fract_x
 _atom_site_fract_y
 _atom_site_fract_z
 _atom_site_occupancy
  Dy  Dy0  1  0.442220  0.242841  0.199381  1
  Dy  Dy1  1  0.558370  0.756979  0.801389  1
  Dy  Dy2  1  0.043461  0.242841  0.800619  1
  Dy  Dy3  1  0.955590  0.756979  0.198611  1
  Dy  Dy4  1  0.181714  0.283951  0.469745  1
  Dy  Dy5  1  0.814206  0.711970  0.530255  1
  Dy  Dy6  1  0.181714  0.711970  0.897763  1
  Dy  Dy7  1  0.814206  0.283951  0.102237  1
  Dy  Dy8  1  0.332126  0.649807  0.317682  1
  Dy  Dy9  1  0.672261  0.353347  0.681086  1
  Dy  Dy10  1  0.332126  0.014443  0.682318  1
  Dy  Dy11  1  0.672261  0.991176  0.318914  1
  In  In12  1  0.499641  0.499641  0.000000  1
  In  In13  1  0.000485  0.000485  0.000000  1
  Co  Co14  1  0.888386  0.388386  0.500000  1
  Tc  Tc15  1  0.320447  0.998624  0.321823  1
  Tc  Tc16  1  0.676801  0.998624  0.678177  1
  Ni  Ni17  1  0.113983  0.613983  0.500000  1
