# generated using pymatgen
data_BaOs6Pb3O19
_symmetry_space_group_name_H-M   'P 1'
_cell_length_a   8.04153617
_cell_length_b   8.04153741
_cell_length_c   8.05640200
_cell_angle_alpha   109.50867480
_cell_angle_beta   109.50867792
_cell_angle_gamma   109.43373784
_symmetry_Int_Tables_number   1
_chemical_formula_structural   BaOs6Pb3O19
_chemical_formula_sum   'Ba1 Os6 Pb3 O19'
_cell_volume   400.86338309
_cell_formula_units_Z   1
loop_
 _symmetry_equiv_pos_site_id
 _symmetry_equiv_pos_as_xyz
  1  'x, y, z'
loop_
 _atom_site_type_symbol
 _atom_site_label
 _atom_site_symmetry_multiplicity
 _atom_site_fract_x
 _atom_site_fract_y
 _atom_site_fract_z
 _atom_site_occupancy
  Ba  Ba0  1  0.000000  0.000000  0.326671  1
  Os  Os1  1  0.362355  0.500638  0.862580  1
  Os  Os2  1  0.860298  0.362962  0.498965  1
  Os  Os3  1  0.502663  0.139702  0.638668  1
  Os  Os4  1  0.138281  0.637645  0.500223  1
  Os  Os5  1  0.499362  0.861719  0.361942  1
  Os  Os6  1  0.637038  0.497337  0.136005  1
  Pb  Pb7  1  0.000613  0.294195  0.997808  1
  Pb  Pb8  1  0.705805  0.706417  0.703613  1
  Pb  Pb9  1  0.293583  0.999387  0.997195  1
  O  O10  1  0.334788  0.999385  0.332316  1
  O  O11  1  0.332945  0.333379  0.999936  1
  O  O12  1  0.000433  0.667055  0.666991  1
  O  O13  1  0.664595  0.665212  0.997526  1
  O  O14  1  0.000615  0.335405  0.332931  1
  O  O15  1  0.666621  0.999567  0.666557  1
  O  O16  1  0.000000  0.000000  0.983006  1
  O  O17  1  0.365174  0.297277  0.650336  1
  O  O18  1  0.064655  0.348060  0.703590  1
  O  O19  1  0.714985  0.356700  0.648206  1
  O  O20  1  0.353716  0.647041  0.712761  1
  O  O21  1  0.283404  0.935345  0.638935  1
  O  O22  1  0.643300  0.358284  0.291503  1
  O  O23  1  0.293324  0.646284  0.359046  1
  O  O24  1  0.702723  0.067896  0.353059  1
  O  O25  1  0.932104  0.634826  0.285163  1
  O  O26  1  0.651940  0.716596  0.355529  1
  O  O27  1  0.641716  0.285015  0.933221  1
  O  O28  1  0.352959  0.706676  0.065720  1
