# generated using pymatgen
data_Gd4Ho(TcO6)2
_symmetry_space_group_name_H-M   'P 1'
_cell_length_a   6.91730885
_cell_length_b   6.91730894
_cell_length_c   7.63335300
_cell_angle_alpha   73.62106716
_cell_angle_beta   73.62107557
_cell_angle_gamma   48.71236273
_symmetry_Int_Tables_number   1
_chemical_formula_structural   Gd4Ho(TcO6)2
_chemical_formula_sum   'Gd4 Ho1 Tc2 O12'
_cell_volume   260.97183325
_cell_formula_units_Z   1
loop_
 _symmetry_equiv_pos_site_id
 _symmetry_equiv_pos_as_xyz
  1  'x, y, z'
loop_
 _atom_site_type_symbol
 _atom_site_label
 _atom_site_symmetry_multiplicity
 _atom_site_fract_x
 _atom_site_fract_y
 _atom_site_fract_z
 _atom_site_occupancy
  Gd  Gd0  1  0.499548  0.499548  0.500326  1
  Gd  Gd1  1  0.184398  0.184398  0.175064  1
  Gd  Gd2  1  0.815481  0.815481  0.825788  1
  Gd  Gd3  1  0.805349  0.805349  0.357947  1
  Ho  Ho4  1  0.194688  0.194688  0.643625  1
  Tc  Tc5  1  0.714113  0.286675  0.999126  1
  Tc  Tc6  1  0.286675  0.714113  0.999126  1
  O  O7  1  0.998857  0.998857  0.173981  1
  O  O8  1  0.003004  0.003004  0.822794  1
  O  O9  1  0.499275  0.499275  0.797826  1
  O  O10  1  0.501490  0.501490  0.201349  1
  O  O11  1  0.593086  0.094648  0.575913  1
  O  O12  1  0.908197  0.400430  0.428641  1
  O  O13  1  0.400430  0.908197  0.428641  1
  O  O14  1  0.412082  0.913938  0.915067  1
  O  O15  1  0.088251  0.586491  0.081903  1
  O  O16  1  0.586491  0.088251  0.081903  1
  O  O17  1  0.913938  0.412082  0.915067  1
  O  O18  1  0.094648  0.593086  0.575913  1
