# generated using pymatgen
data_La2PrNd3OsI10
_symmetry_space_group_name_H-M   'P 1'
_cell_length_a   8.09349936
_cell_length_b   10.17720150
_cell_length_c   10.01242795
_cell_angle_alpha   107.26973078
_cell_angle_beta   96.45041319
_cell_angle_gamma   105.70485950
_symmetry_Int_Tables_number   1
_chemical_formula_structural   La2PrNd3OsI10
_chemical_formula_sum   'La2 Pr1 Nd3 Os1 I10'
_cell_volume   741.29158158
_cell_formula_units_Z   1
loop_
 _symmetry_equiv_pos_site_id
 _symmetry_equiv_pos_as_xyz
  1  'x, y, z'
loop_
 _atom_site_type_symbol
 _atom_site_label
 _atom_site_symmetry_multiplicity
 _atom_site_fract_x
 _atom_site_fract_y
 _atom_site_fract_z
 _atom_site_occupancy
  La  La0  1  0.386861  0.957909  0.727621  1
  La  La1  1  0.613209  0.041359  0.272120  1
  Pr  Pr2  1  0.469392  0.294289  0.589820  1
  Nd  Nd3  1  0.529932  0.706701  0.410165  1
  Nd  Nd4  1  0.858718  0.132542  0.675589  1
  Nd  Nd5  1  0.141373  0.866730  0.324348  1
  Os  Os6  1  0.500045  0.999436  0.499832  1
  I  I7  1  0.415580  0.630226  0.678581  1
  I  I8  1  0.584883  0.370947  0.320271  1
  I  I9  1  0.288737  0.261486  0.851075  1
  I  I10  1  0.710293  0.738184  0.150191  1
  I  I11  1  0.856172  0.454295  0.771451  1
  I  I12  1  0.145788  0.546187  0.229345  1
  I  I13  1  0.046636  0.178764  0.411482  1
  I  I14  1  0.238410  0.913064  0.041232  1
  I  I15  1  0.761568  0.086979  0.958816  1
  I  I16  1  0.952403  0.820900  0.588062  1
