# generated using pymatgen
data_La13Yb3Cd4CoOs3
_symmetry_space_group_name_H-M   'P 1'
_cell_length_a   9.96791371
_cell_length_b   10.01078717
_cell_length_c   9.96791480
_cell_angle_alpha   60.66493638
_cell_angle_beta   60.54960590
_cell_angle_gamma   60.66493857
_symmetry_Int_Tables_number   1
_chemical_formula_structural   La13Yb3Cd4CoOs3
_chemical_formula_sum   'La13 Yb3 Cd4 Co1 Os3'
_cell_volume   713.28247285
_cell_formula_units_Z   1
loop_
 _symmetry_equiv_pos_site_id
 _symmetry_equiv_pos_as_xyz
  1  'x, y, z'
loop_
 _atom_site_type_symbol
 _atom_site_label
 _atom_site_symmetry_multiplicity
 _atom_site_fract_x
 _atom_site_fract_y
 _atom_site_fract_z
 _atom_site_occupancy
  La  La0  1  0.688641  0.690715  0.307846  1
  La  La1  1  0.157476  0.153842  0.538667  1
  La  La2  1  0.307846  0.690715  0.688641  1
  La  La3  1  0.156925  0.154990  0.156925  1
  La  La4  1  0.538667  0.153842  0.157476  1
  La  La5  1  0.310318  0.685375  0.310318  1
  La  La6  1  0.314536  0.307004  0.684897  1
  La  La7  1  0.689610  0.303254  0.689610  1
  La  La8  1  0.934495  0.561024  0.557385  1
  La  La9  1  0.557385  0.561024  0.934495  1
  La  La10  1  0.157135  0.537894  0.157135  1
  La  La11  1  0.684897  0.307004  0.314536  1
  La  La12  1  0.941296  0.559423  0.941296  1
  Yb  Yb13  1  0.943202  0.939562  0.558118  1
  Yb  Yb14  1  0.559542  0.934538  0.559542  1
  Yb  Yb15  1  0.558118  0.939562  0.943202  1
  Cd  Cd16  1  0.237063  0.921792  0.920953  1
  Cd  Cd17  1  0.919647  0.921701  0.919647  1
  Cd  Cd18  1  0.920953  0.921792  0.237063  1
  Cd  Cd19  1  0.921217  0.236540  0.921217  1
  Co  Co20  1  0.362922  0.366305  0.362922  1
  Os  Os21  1  0.913610  0.369207  0.361637  1
  Os  Os22  1  0.361637  0.369207  0.913610  1
  Os  Os23  1  0.362859  0.913687  0.362859  1
