# generated using pymatgen
data_Yb2TmLu5(B6Ru)4
_symmetry_space_group_name_H-M   'P 1'
_cell_length_a   3.60087400
_cell_length_b   9.05609978
_cell_length_c   11.43950005
_cell_angle_alpha   89.86634822
_cell_angle_beta   90.00000000
_cell_angle_gamma   90.00000000
_symmetry_Int_Tables_number   1
_chemical_formula_structural   Yb2TmLu5(B6Ru)4
_chemical_formula_sum   'Yb2 Tm1 Lu5 B24 Ru4'
_cell_volume   373.03964282
_cell_formula_units_Z   1
loop_
 _symmetry_equiv_pos_site_id
 _symmetry_equiv_pos_as_xyz
  1  'x, y, z'
loop_
 _atom_site_type_symbol
 _atom_site_label
 _atom_site_symmetry_multiplicity
 _atom_site_fract_x
 _atom_site_fract_y
 _atom_site_fract_z
 _atom_site_occupancy
  Yb  Yb0  1  0.000000  0.324462  0.414497  1
  Yb  Yb1  1  0.000000  0.675523  0.585517  1
  Tm  Tm2  1  0.000000  0.822032  0.086198  1
  Lu  Lu3  1  0.000000  0.178049  0.913772  1
  Lu  Lu4  1  0.000000  0.942356  0.370048  1
  Lu  Lu5  1  0.000000  0.057683  0.630007  1
  Lu  Lu6  1  0.000000  0.442885  0.130067  1
  Lu  Lu7  1  0.000000  0.556960  0.869882  1
  B  B8  1  0.500000  0.554462  0.432143  1
  B  B9  1  0.500000  0.445517  0.567876  1
  B  B10  1  0.500000  0.053635  0.065911  1
  B  B11  1  0.500000  0.946628  0.933932  1
  B  B12  1  0.500000  0.749318  0.417887  1
  B  B13  1  0.500000  0.250680  0.582133  1
  B  B14  1  0.500000  0.249102  0.080127  1
  B  B15  1  0.500000  0.750876  0.919621  1
  B  B16  1  0.500000  0.792394  0.263996  1
  B  B17  1  0.500000  0.207494  0.736209  1
  B  B18  1  0.500000  0.290834  0.233936  1
  B  B19  1  0.500000  0.709170  0.766032  1
  B  B20  1  0.500000  0.631268  0.184045  1
  B  B21  1  0.500000  0.368546  0.816093  1
  B  B22  1  0.500000  0.130306  0.314171  1
  B  B23  1  0.500000  0.869718  0.685832  1
  B  B24  1  0.500000  0.982223  0.211556  1
  B  B25  1  0.500000  0.018045  0.788547  1
  B  B26  1  0.500000  0.483349  0.287152  1
  B  B27  1  0.500000  0.516618  0.712855  1
  B  B28  1  0.500000  0.602741  0.028164  1
  B  B29  1  0.500000  0.396954  0.971756  1
  B  B30  1  0.500000  0.098585  0.472806  1
  B  B31  1  0.500000  0.901426  0.527210  1
  Ru  Ru32  1  0.000000  0.640680  0.317842  1
  Ru  Ru33  1  0.000000  0.359226  0.682277  1
  Ru  Ru34  1  0.000000  0.137105  0.177710  1
  Ru  Ru35  1  0.000000  0.863147  0.822196  1
