# generated using pymatgen
data_LaTm(Tc2P)4
_symmetry_space_group_name_H-M   'P 1'
_cell_length_a   3.95884900
_cell_length_b   7.46616206
_cell_length_c   7.46616206
_cell_angle_alpha   89.10630055
_cell_angle_beta   90.00000000
_cell_angle_gamma   90.00000000
_symmetry_Int_Tables_number   1
_chemical_formula_structural   LaTm(Tc2P)4
_chemical_formula_sum   'La1 Tm1 Tc8 P4'
_cell_volume   220.65355485
_cell_formula_units_Z   1
loop_
 _symmetry_equiv_pos_site_id
 _symmetry_equiv_pos_as_xyz
  1  'x, y, z'
loop_
 _atom_site_type_symbol
 _atom_site_label
 _atom_site_symmetry_multiplicity
 _atom_site_fract_x
 _atom_site_fract_y
 _atom_site_fract_z
 _atom_site_occupancy
  La  La0  1  0.000000  0.500000  0.500000  1
  Tm  Tm1  1  0.500000  0.000000  0.000000  1
  Tc  Tc2  1  0.500000  0.156878  0.585386  1
  Tc  Tc3  1  0.500000  0.843122  0.414614  1
  Tc  Tc4  1  0.000000  0.336761  0.079056  1
  Tc  Tc5  1  0.000000  0.663239  0.920944  1
  Tc  Tc6  1  0.500000  0.585386  0.156878  1
  Tc  Tc7  1  0.500000  0.414614  0.843122  1
  Tc  Tc8  1  0.000000  0.079056  0.336761  1
  Tc  Tc9  1  0.000000  0.920944  0.663239  1
  P  P10  1  0.500000  0.717863  0.717863  1
  P  P11  1  0.500000  0.282137  0.282137  1
  P  P12  1  0.000000  0.792965  0.207035  1
  P  P13  1  0.000000  0.207035  0.792965  1
