# generated using pymatgen
data_La10Zn3CuRu6
_symmetry_space_group_name_H-M   'P 1'
_cell_length_a   8.57880520
_cell_length_b   8.52624482
_cell_length_c   8.57880534
_cell_angle_alpha   109.34716000
_cell_angle_beta   109.59499966
_cell_angle_gamma   109.34715837
_symmetry_Int_Tables_number   1
_chemical_formula_structural   La10Zn3CuRu6
_chemical_formula_sum   'La10 Zn3 Cu1 Ru6'
_cell_volume   483.78473887
_cell_formula_units_Z   1
loop_
 _symmetry_equiv_pos_site_id
 _symmetry_equiv_pos_as_xyz
  1  'x, y, z'
loop_
 _atom_site_type_symbol
 _atom_site_label
 _atom_site_symmetry_multiplicity
 _atom_site_fract_x
 _atom_site_fract_y
 _atom_site_fract_z
 _atom_site_occupancy
  La  La0  1  0.247544  0.692468  0.441460  1
  La  La1  1  0.751524  0.811157  0.062250  1
  La  La2  1  0.437751  0.248906  0.689274  1
  La  La3  1  0.693915  0.444925  0.252456  1
  La  La4  1  0.058541  0.751009  0.806085  1
  La  La5  1  0.810726  0.059633  0.748476  1
  La  La6  1  0.218829  0.217536  0.218035  1
  La  La7  1  0.499207  0.998706  0.281171  1
  La  La8  1  0.281965  0.499502  0.000794  1
  La  La9  1  0.000000  0.274519  0.500001  1
  Zn  Zn10  1  0.500660  0.001567  0.916216  1
  Zn  Zn11  1  0.583784  0.585351  0.584443  1
  Zn  Zn12  1  0.915557  0.500909  0.999341  1
  Cu  Cu13  1  0.000000  0.914646  0.500001  1
  Ru  Ru14  1  0.250139  0.126718  0.876160  1
  Ru  Ru15  1  0.749956  0.373017  0.623783  1
  Ru  Ru16  1  0.876216  0.249235  0.126172  1
  Ru  Ru17  1  0.126022  0.876580  0.249863  1
  Ru  Ru18  1  0.623839  0.750558  0.373977  1
  Ru  Ru19  1  0.373827  0.623061  0.750044  1
