# generated using pymatgen
data_Er3Al6Re(Si2Ru)3
_symmetry_space_group_name_H-M   'P 1'
_cell_length_a   8.66614672
_cell_length_b   8.66614787
_cell_length_c   9.26138634
_cell_angle_alpha   89.69958144
_cell_angle_beta   90.30042114
_cell_angle_gamma   119.83668326
_symmetry_Int_Tables_number   1
_chemical_formula_structural   Er3Al6Re(Si2Ru)3
_chemical_formula_sum   'Er6 Al12 Re2 Si12 Ru6'
_cell_volume   603.34144057
_cell_formula_units_Z   2
loop_
 _symmetry_equiv_pos_site_id
 _symmetry_equiv_pos_as_xyz
  1  'x, y, z'
loop_
 _atom_site_type_symbol
 _atom_site_label
 _atom_site_symmetry_multiplicity
 _atom_site_fract_x
 _atom_site_fract_y
 _atom_site_fract_z
 _atom_site_occupancy
  Er  Er0  1  0.191977  0.385877  0.249357  1
  Er  Er1  1  0.808023  0.614123  0.750643  1
  Er  Er2  1  0.614123  0.808023  0.249357  1
  Er  Er3  1  0.385877  0.191977  0.750643  1
  Er  Er4  1  0.193276  0.806724  0.248821  1
  Er  Er5  1  0.806724  0.193276  0.751179  1
  Al  Al6  1  0.166428  0.331317  0.581544  1
  Al  Al7  1  0.833572  0.668683  0.418456  1
  Al  Al8  1  0.668683  0.833572  0.581544  1
  Al  Al9  1  0.833620  0.669537  0.082018  1
  Al  Al10  1  0.331317  0.166428  0.418456  1
  Al  Al11  1  0.166380  0.330463  0.917982  1
  Al  Al12  1  0.165989  0.834011  0.581249  1
  Al  Al13  1  0.330463  0.166380  0.082018  1
  Al  Al14  1  0.834011  0.165989  0.418751  1
  Al  Al15  1  0.669537  0.833620  0.917982  1
  Al  Al16  1  0.835158  0.164842  0.081930  1
  Al  Al17  1  0.164842  0.835158  0.918070  1
  Re  Re18  1  0.500000  0.000000  0.000000  1
  Re  Re19  1  0.000000  0.500000  0.000000  1
  Si  Si20  1  0.333180  0.666820  0.041290  1
  Si  Si21  1  0.666820  0.333180  0.958710  1
  Si  Si22  1  0.666539  0.333461  0.545218  1
  Si  Si23  1  0.333461  0.666539  0.454782  1
  Si  Si24  1  0.562952  0.124766  0.251073  1
  Si  Si25  1  0.437048  0.875234  0.748927  1
  Si  Si26  1  0.875234  0.437048  0.251073  1
  Si  Si27  1  0.124766  0.562952  0.748927  1
  Si  Si28  1  0.561873  0.438127  0.250474  1
  Si  Si29  1  0.438127  0.561873  0.749526  1
  Si  Si30  1  0.999893  0.000107  0.249569  1
  Si  Si31  1  0.000107  0.999893  0.750431  1
  Ru  Ru32  1  0.500000  0.000000  0.500000  1
  Ru  Ru33  1  0.500000  0.500000  0.000000  1
  Ru  Ru34  1  0.000000  0.500000  0.500000  1
  Ru  Ru35  1  0.500000  0.500000  0.500000  1
  Ru  Ru36  1  0.000000  0.000000  0.000000  1
  Ru  Ru37  1  0.000000  0.000000  0.500000  1
