# generated using pymatgen
data_Dy3Y7(SnSb)3
_symmetry_space_group_name_H-M   'P 1'
_cell_length_a   6.43101600
_cell_length_b   9.00406293
_cell_length_c   9.00413500
_cell_angle_alpha   119.99977390
_cell_angle_beta   89.99996691
_cell_angle_gamma   90.00008869
_symmetry_Int_Tables_number   1
_chemical_formula_structural   Dy3Y7(SnSb)3
_chemical_formula_sum   'Dy3 Y7 Sn3 Sb3'
_cell_volume   451.53532349
_cell_formula_units_Z   1
loop_
 _symmetry_equiv_pos_site_id
 _symmetry_equiv_pos_as_xyz
  1  'x, y, z'
loop_
 _atom_site_type_symbol
 _atom_site_label
 _atom_site_symmetry_multiplicity
 _atom_site_fract_x
 _atom_site_fract_y
 _atom_site_fract_z
 _atom_site_occupancy
  Dy  Dy0  1  0.500523  0.333331  0.666665  1
  Dy  Dy1  1  0.500509  0.666665  0.333335  1
  Dy  Dy2  1  0.999478  0.666665  0.333336  1
  Y  Y3  1  0.999499  0.333330  0.666664  1
  Y  Y4  1  0.749989  0.241844  0.000019  1
  Y  Y5  1  0.749990  0.758197  0.758177  1
  Y  Y6  1  0.749991  0.999981  0.241804  1
  Y  Y7  1  0.249994  0.757313  0.000013  1
  Y  Y8  1  0.249999  0.242668  0.242657  1
  Y  Y9  1  0.250001  0.999982  0.757329  1
  Sn  Sn10  1  0.749948  0.607558  0.000028  1
  Sn  Sn11  1  0.749950  0.392504  0.392465  1
  Sn  Sn12  1  0.749949  0.999983  0.607508  1
  Sb  Sb13  1  0.250055  0.390983  0.000019  1
  Sb  Sb14  1  0.250064  0.609021  0.609009  1
  Sb  Sb15  1  0.250064  0.999973  0.390972  1
