# generated using pymatgen
data_Ca10Tl2Cu3Au
_symmetry_space_group_name_H-M   'P 1'
_cell_length_a   9.31139725
_cell_length_b   9.31139684
_cell_length_c   9.29684900
_cell_angle_alpha   129.31485003
_cell_angle_beta   129.31484797
_cell_angle_gamma   74.62217588
_symmetry_Int_Tables_number   1
_chemical_formula_structural   Ca10Tl2Cu3Au
_chemical_formula_sum   'Ca10 Tl2 Cu3 Au1'
_cell_volume   469.82068515
_cell_formula_units_Z   1
loop_
 _symmetry_equiv_pos_site_id
 _symmetry_equiv_pos_as_xyz
  1  'x, y, z'
loop_
 _atom_site_type_symbol
 _atom_site_label
 _atom_site_symmetry_multiplicity
 _atom_site_fract_x
 _atom_site_fract_y
 _atom_site_fract_z
 _atom_site_occupancy
  Ca  Ca0  1  0.529870  0.030386  0.841142  1
  Ca  Ca1  1  0.188728  0.689244  0.158858  1
  Ca  Ca2  1  0.028829  0.190200  0.500000  1
  Ca  Ca3  1  0.690611  0.528130  0.500000  1
  Ca  Ca4  1  0.469614  0.970130  0.158858  1
  Ca  Ca5  1  0.810756  0.311272  0.841142  1
  Ca  Ca6  1  0.971870  0.809389  0.500000  1
  Ca  Ca7  1  0.309800  0.471171  0.500000  1
  Ca  Ca8  1  0.499956  0.500035  0.999991  1
  Ca  Ca9  1  0.999965  0.000044  0.000009  1
  Tl  Tl10  1  0.250299  0.249701  0.000000  1
  Tl  Tl11  1  0.750299  0.749701  0.000000  1
  Cu  Cu12  1  0.379554  0.120446  0.500000  1
  Cu  Cu13  1  0.113143  0.612947  0.726090  1
  Cu  Cu14  1  0.887053  0.386857  0.273910  1
  Au  Au15  1  0.619652  0.880348  0.500000  1
