# generated using pymatgen
data_Er16MgIn3PdRh3
_symmetry_space_group_name_H-M   'P 1'
_cell_length_a   9.60964688
_cell_length_b   9.60140949
_cell_length_c   9.60964700
_cell_angle_alpha   59.97161179
_cell_angle_beta   59.99999616
_cell_angle_gamma   59.97161904
_symmetry_Int_Tables_number   1
_chemical_formula_structural   Er16MgIn3PdRh3
_chemical_formula_sum   'Er16 Mg1 In3 Pd1 Rh3'
_cell_volume   626.68368113
_cell_formula_units_Z   1
loop_
 _symmetry_equiv_pos_site_id
 _symmetry_equiv_pos_as_xyz
  1  'x, y, z'
loop_
 _atom_site_type_symbol
 _atom_site_label
 _atom_site_symmetry_multiplicity
 _atom_site_fract_x
 _atom_site_fract_y
 _atom_site_fract_z
 _atom_site_occupancy
  Er  Er0  1  0.193779  0.185497  0.810362  1
  Er  Er1  1  0.435544  0.063927  0.064985  1
  Er  Er2  1  0.435544  0.063927  0.435544  1
  Er  Er3  1  0.063705  0.436707  0.063705  1
  Er  Er4  1  0.649889  0.050333  0.649889  1
  Er  Er5  1  0.186816  0.814059  0.812309  1
  Er  Er6  1  0.064985  0.063927  0.435544  1
  Er  Er7  1  0.810362  0.185497  0.193779  1
  Er  Er8  1  0.812309  0.814059  0.186816  1
  Er  Er9  1  0.647928  0.653049  0.051097  1
  Er  Er10  1  0.647928  0.653049  0.647928  1
  Er  Er11  1  0.063705  0.436707  0.435883  1
  Er  Er12  1  0.051097  0.653049  0.647928  1
  Er  Er13  1  0.810362  0.185497  0.810362  1
  Er  Er14  1  0.435883  0.436707  0.063705  1
  Er  Er15  1  0.186816  0.814059  0.186816  1
  Mg  Mg16  1  0.421585  0.735246  0.421585  1
  In  In17  1  0.415679  0.417632  0.751011  1
  In  In18  1  0.751011  0.417632  0.415679  1
  In  In19  1  0.415679  0.417632  0.415679  1
  Pd  Pd20  1  0.856874  0.429377  0.856874  1
  Rh  Rh21  1  0.856889  0.857477  0.428744  1
  Rh  Rh22  1  0.428744  0.857477  0.856889  1
  Rh  Rh23  1  0.856889  0.857477  0.856889  1
