# generated using pymatgen
data_Yb7Pr13(Ga2Sn)4
_symmetry_space_group_name_H-M   'P 1'
_cell_length_a   8.04018515
_cell_length_b   8.05069973
_cell_length_c   14.69942314
_cell_angle_alpha   89.95565815
_cell_angle_beta   90.00653353
_cell_angle_gamma   90.02127327
_symmetry_Int_Tables_number   1
_chemical_formula_structural   Yb7Pr13(Ga2Sn)4
_chemical_formula_sum   'Yb7 Pr13 Ga8 Sn4'
_cell_volume   951.48031554
_cell_formula_units_Z   1
loop_
 _symmetry_equiv_pos_site_id
 _symmetry_equiv_pos_as_xyz
  1  'x, y, z'
loop_
 _atom_site_type_symbol
 _atom_site_label
 _atom_site_symmetry_multiplicity
 _atom_site_fract_x
 _atom_site_fract_y
 _atom_site_fract_z
 _atom_site_occupancy
  Yb  Yb0  1  0.830176  0.836865  0.608785  1
  Yb  Yb1  1  0.168390  0.838001  0.107897  1
  Yb  Yb2  1  0.163405  0.829614  0.391465  1
  Yb  Yb3  1  0.998867  0.503685  0.741639  1
  Yb  Yb4  1  0.004665  0.505828  0.243466  1
  Yb  Yb5  1  0.494359  0.994861  0.255903  1
  Yb  Yb6  1  0.501182  0.997496  0.754242  1
  Pr  Pr7  1  0.827784  0.176283  0.390126  1
  Pr  Pr8  1  0.674461  0.668511  0.394892  1
  Pr  Pr9  1  0.669512  0.324931  0.605966  1
  Pr  Pr10  1  0.332599  0.672398  0.605056  1
  Pr  Pr11  1  0.669504  0.674962  0.105701  1
  Pr  Pr12  1  0.674282  0.329795  0.895222  1
  Pr  Pr13  1  0.830374  0.823478  0.891068  1
  Pr  Pr14  1  0.325680  0.331260  0.394421  1
  Pr  Pr15  1  0.177515  0.171426  0.608537  1
  Pr  Pr16  1  0.824389  0.170505  0.109168  1
  Pr  Pr17  1  0.328491  0.666290  0.896124  1
  Pr  Pr18  1  0.331032  0.323504  0.105659  1
  Pr  Pr19  1  0.168666  0.174714  0.890844  1
  Ga  Ga20  1  0.619094  0.380297  0.249915  1
  Ga  Ga21  1  0.121978  0.880137  0.750975  1
  Ga  Ga22  1  0.382283  0.381446  0.750072  1
  Ga  Ga23  1  0.387321  0.612922  0.249557  1
  Ga  Ga24  1  0.876640  0.881659  0.250419  1
  Ga  Ga25  1  0.615542  0.615107  0.751719  1
  Ga  Ga26  1  0.881649  0.121150  0.750671  1
  Ga  Ga27  1  0.117675  0.122725  0.249710  1
  Sn  Sn28  1  0.000053  0.498844  0.503383  1
  Sn  Sn29  1  0.499767  0.995231  0.497744  1
  Sn  Sn30  1  0.500258  0.996947  0.996433  1
  Sn  Sn31  1  0.002407  0.499127  0.003221  1
