# generated using pymatgen
data_YbEu3(In2Pd3)4
_symmetry_space_group_name_H-M   'P 1'
_cell_length_a   4.64231000
_cell_length_b   9.92501524
_cell_length_c   10.49441632
_cell_angle_alpha   90.05738234
_cell_angle_beta   90.00000000
_cell_angle_gamma   90.00000000
_symmetry_Int_Tables_number   1
_chemical_formula_structural   YbEu3(In2Pd3)4
_chemical_formula_sum   'Yb1 Eu3 In8 Pd12'
_cell_volume   483.52996322
_cell_formula_units_Z   1
loop_
 _symmetry_equiv_pos_site_id
 _symmetry_equiv_pos_as_xyz
  1  'x, y, z'
loop_
 _atom_site_type_symbol
 _atom_site_label
 _atom_site_symmetry_multiplicity
 _atom_site_fract_x
 _atom_site_fract_y
 _atom_site_fract_z
 _atom_site_occupancy
  Yb  Yb0  1  0.750000  0.946060  0.776098  1
  Eu  Eu1  1  0.250000  0.446039  0.725541  1
  Eu  Eu2  1  0.250000  0.053955  0.225530  1
  Eu  Eu3  1  0.750000  0.553978  0.274434  1
  In  In4  1  0.250000  0.890074  0.516723  1
  In  In5  1  0.250000  0.610019  0.016270  1
  In  In6  1  0.750000  0.109734  0.484157  1
  In  In7  1  0.750000  0.390072  0.983566  1
  In  In8  1  0.250000  0.159899  0.890296  1
  In  In9  1  0.250000  0.339324  0.390733  1
  In  In10  1  0.750000  0.839420  0.108880  1
  In  In11  1  0.750000  0.661432  0.609645  1
  Pd  Pd12  1  0.250000  0.154254  0.617592  1
  Pd  Pd13  1  0.250000  0.345244  0.117464  1
  Pd  Pd14  1  0.750000  0.845250  0.382510  1
  Pd  Pd15  1  0.750000  0.655647  0.882302  1
  Pd  Pd16  1  0.250000  0.743497  0.740813  1
  Pd  Pd17  1  0.250000  0.757780  0.240773  1
  Pd  Pd18  1  0.750000  0.257749  0.259210  1
  Pd  Pd19  1  0.750000  0.240716  0.759320  1
  Pd  Pd20  1  0.250000  0.893257  0.973766  1
  Pd  Pd21  1  0.250000  0.607131  0.474659  1
  Pd  Pd22  1  0.750000  0.106434  0.024419  1
  Pd  Pd23  1  0.750000  0.393036  0.525296  1
