# generated using pymatgen
data_Ho2HfZr(NiAs)4
_symmetry_space_group_name_H-M   'P 1'
_cell_length_a   4.00232700
_cell_length_b   4.00232787
_cell_length_c   14.82734400
_cell_angle_alpha   90.00000000
_cell_angle_beta   90.00000000
_cell_angle_gamma   120.00001757
_symmetry_Int_Tables_number   1
_chemical_formula_structural   Ho2HfZr(NiAs)4
_chemical_formula_sum   'Ho2 Hf1 Zr1 Ni4 As4'
_cell_volume   205.69282864
_cell_formula_units_Z   1
loop_
 _symmetry_equiv_pos_site_id
 _symmetry_equiv_pos_as_xyz
  1  'x, y, z'
loop_
 _atom_site_type_symbol
 _atom_site_label
 _atom_site_symmetry_multiplicity
 _atom_site_fract_x
 _atom_site_fract_y
 _atom_site_fract_z
 _atom_site_occupancy
  Ho  Ho0  1  0.000000  0.000000  0.999262  1
  Ho  Ho1  1  0.000000  0.000000  0.500738  1
  Hf  Hf2  1  0.000000  0.000000  0.750000  1
  Zr  Zr3  1  0.000000  0.000000  0.250000  1
  Ni  Ni4  1  0.333333  0.666667  0.153978  1
  Ni  Ni5  1  0.666667  0.333333  0.842779  1
  Ni  Ni6  1  0.666667  0.333333  0.657221  1
  Ni  Ni7  1  0.333333  0.666667  0.346022  1
  As  As8  1  0.333333  0.666667  0.621783  1
  As  As9  1  0.666667  0.333333  0.379098  1
  As  As10  1  0.666667  0.333333  0.120902  1
  As  As11  1  0.333333  0.666667  0.878217  1
