# generated using pymatgen
data_Er8TcMo(OsC4)2
_symmetry_space_group_name_H-M   'P 1'
_cell_length_a   5.05256600
_cell_length_b   6.52362463
_cell_length_c   9.78239754
_cell_angle_alpha   89.42451321
_cell_angle_beta   90.00000000
_cell_angle_gamma   90.00000000
_symmetry_Int_Tables_number   1
_chemical_formula_structural   Er8TcMo(OsC4)2
_chemical_formula_sum   'Er8 Tc1 Mo1 Os2 C8'
_cell_volume   322.42177101
_cell_formula_units_Z   1
loop_
 _symmetry_equiv_pos_site_id
 _symmetry_equiv_pos_as_xyz
  1  'x, y, z'
loop_
 _atom_site_type_symbol
 _atom_site_label
 _atom_site_symmetry_multiplicity
 _atom_site_fract_x
 _atom_site_fract_y
 _atom_site_fract_z
 _atom_site_occupancy
  Er  Er0  1  0.250000  0.677230  0.557057  1
  Er  Er1  1  0.750000  0.322490  0.443711  1
  Er  Er2  1  0.750000  0.822783  0.057944  1
  Er  Er3  1  0.250000  0.175490  0.942646  1
  Er  Er4  1  0.250000  0.534826  0.219678  1
  Er  Er5  1  0.750000  0.465775  0.782877  1
  Er  Er6  1  0.750000  0.969759  0.715678  1
  Er  Er7  1  0.250000  0.030912  0.284933  1
  Tc  Tc8  1  0.250000  0.718047  0.866987  1
  Mo  Mo9  1  0.750000  0.282910  0.130830  1
  Os  Os10  1  0.750000  0.779503  0.368447  1
  Os  Os11  1  0.250000  0.220391  0.633768  1
  C  C12  1  0.250000  0.452638  0.757613  1
  C  C13  1  0.750000  0.550079  0.241837  1
  C  C14  1  0.750000  0.045475  0.260179  1
  C  C15  1  0.250000  0.953302  0.740493  1
  C  C16  1  0.250000  0.824299  0.050657  1
  C  C17  1  0.750000  0.173634  0.943244  1
  C  C18  1  0.750000  0.674585  0.553267  1
  C  C19  1  0.250000  0.325871  0.448154  1
