# generated using pymatgen
data_TbNd2GaSi
_symmetry_space_group_name_H-M   'P 1'
_cell_length_a   7.74656600
_cell_length_b   7.72852600
_cell_length_c   4.44797200
_cell_angle_alpha   90.00000000
_cell_angle_beta   90.00000000
_cell_angle_gamma   90.00000000
_symmetry_Int_Tables_number   1
_chemical_formula_structural   TbNd2GaSi
_chemical_formula_sum   'Tb2 Nd4 Ga2 Si2'
_cell_volume   266.29802308
_cell_formula_units_Z   2
loop_
 _symmetry_equiv_pos_site_id
 _symmetry_equiv_pos_as_xyz
  1  'x, y, z'
loop_
 _atom_site_type_symbol
 _atom_site_label
 _atom_site_symmetry_multiplicity
 _atom_site_fract_x
 _atom_site_fract_y
 _atom_site_fract_z
 _atom_site_occupancy
  Tb  Tb0  1  0.497183  0.493952  0.000000  1
  Tb  Tb1  1  0.002817  0.993952  0.000000  1
  Nd  Nd2  1  0.673452  0.176529  0.500000  1
  Nd  Nd3  1  0.826548  0.676529  0.500000  1
  Nd  Nd4  1  0.179362  0.324548  0.500000  1
  Nd  Nd5  1  0.320638  0.824548  0.500000  1
  Ga  Ga6  1  0.615177  0.885795  0.000000  1
  Ga  Ga7  1  0.884823  0.385795  0.000000  1
  Si  Si8  1  0.119635  0.619176  0.000000  1
  Si  Si9  1  0.380365  0.119176  0.000000  1
