# generated using pymatgen
data_PrTm2Ga4Pd7
_symmetry_space_group_name_H-M   'P 1'
_cell_length_a   8.12776898
_cell_length_b   8.12776938
_cell_length_c   9.71924800
_cell_angle_alpha   56.40902908
_cell_angle_beta   56.40902724
_cell_angle_gamma   29.51532567
_symmetry_Int_Tables_number   1
_chemical_formula_structural   PrTm2Ga4Pd7
_chemical_formula_sum   'Pr1 Tm2 Ga4 Pd7'
_cell_volume   259.42878898
_cell_formula_units_Z   1
loop_
 _symmetry_equiv_pos_site_id
 _symmetry_equiv_pos_as_xyz
  1  'x, y, z'
loop_
 _atom_site_type_symbol
 _atom_site_label
 _atom_site_symmetry_multiplicity
 _atom_site_fract_x
 _atom_site_fract_y
 _atom_site_fract_z
 _atom_site_occupancy
  Pr  Pr0  1  0.000000  0.000000  0.000000  1
  Tm  Tm1  1  0.671351  0.671351  0.335178  1
  Tm  Tm2  1  0.328649  0.328649  0.664822  1
  Ga  Ga3  1  0.335341  0.335341  0.272750  1
  Ga  Ga4  1  0.664659  0.664659  0.727250  1
  Ga  Ga5  1  0.886034  0.886034  0.832579  1
  Ga  Ga6  1  0.113966  0.113966  0.167421  1
  Pd  Pd7  1  0.308474  0.308474  0.036876  1
  Pd  Pd8  1  0.691526  0.691526  0.963124  1
  Pd  Pd9  1  0.506928  0.506928  0.707596  1
  Pd  Pd10  1  0.836363  0.836363  0.428871  1
  Pd  Pd11  1  0.493072  0.493072  0.292404  1
  Pd  Pd12  1  0.163637  0.163637  0.571129  1
  Pd  Pd13  1  0.000000  0.000000  0.500000  1
