# generated using pymatgen
data_HoTm11TlCo5
_symmetry_space_group_name_H-M   'P 1'
_cell_length_a   8.15982260
_cell_length_b   8.15982295
_cell_length_c   8.15743400
_cell_angle_alpha   110.89352930
_cell_angle_beta   110.77815278
_cell_angle_gamma   106.78763217
_symmetry_Int_Tables_number   1
_chemical_formula_structural   HoTm11TlCo5
_chemical_formula_sum   'Ho1 Tm11 Tl1 Co5'
_cell_volume   417.36075197
_cell_formula_units_Z   1
loop_
 _symmetry_equiv_pos_site_id
 _symmetry_equiv_pos_as_xyz
  1  'x, y, z'
loop_
 _atom_site_type_symbol
 _atom_site_label
 _atom_site_symmetry_multiplicity
 _atom_site_fract_x
 _atom_site_fract_y
 _atom_site_fract_z
 _atom_site_occupancy
  Ho  Ho0  1  0.288594  0.185538  0.474131  1
  Tm  Tm1  1  0.711705  0.815018  0.526723  1
  Tm  Tm2  1  0.288430  0.814033  0.102463  1
  Tm  Tm3  1  0.712103  0.185300  0.897402  1
  Tm  Tm4  1  0.619793  0.314194  0.304981  1
  Tm  Tm5  1  0.380518  0.686485  0.694947  1
  Tm  Tm6  1  0.008462  0.314429  0.694947  1
  Tm  Tm7  1  0.990787  0.685186  0.304981  1
  Tm  Tm8  1  0.212260  0.405388  0.192273  1
  Tm  Tm9  1  0.788352  0.595722  0.807864  1
  Tm  Tm10  1  0.212142  0.019512  0.807864  1
  Tm  Tm11  1  0.786883  0.980012  0.192273  1
  Tl  Tl12  1  0.500100  0.500029  0.000129  1
  Co  Co13  1  0.999517  0.376802  0.376318  1
  Co  Co14  1  0.999970  0.623466  0.623436  1
  Co  Co15  1  0.387379  0.886300  0.499927  1
  Co  Co16  1  0.613628  0.112548  0.499927  1
  Co  Co17  1  0.999378  0.000038  0.999417  1
