# generated using pymatgen
data_Y2ZnGaNi2
_symmetry_space_group_name_H-M   'P 1'
_cell_length_a   4.29505100
_cell_length_b   6.79740100
_cell_length_c   7.45135500
_cell_angle_alpha   90.00000000
_cell_angle_beta   90.00000000
_cell_angle_gamma   90.00000000
_symmetry_Int_Tables_number   1
_chemical_formula_structural   Y2ZnGaNi2
_chemical_formula_sum   'Y4 Zn2 Ga2 Ni4'
_cell_volume   217.54367999
_cell_formula_units_Z   2
loop_
 _symmetry_equiv_pos_site_id
 _symmetry_equiv_pos_as_xyz
  1  'x, y, z'
loop_
 _atom_site_type_symbol
 _atom_site_label
 _atom_site_symmetry_multiplicity
 _atom_site_fract_x
 _atom_site_fract_y
 _atom_site_fract_z
 _atom_site_occupancy
  Y  Y0  1  0.250000  0.020375  0.807326  1
  Y  Y1  1  0.250000  0.520375  0.692674  1
  Y  Y2  1  0.750000  0.979769  0.191871  1
  Y  Y3  1  0.750000  0.479769  0.308129  1
  Zn  Zn4  1  0.250000  0.170180  0.423654  1
  Zn  Zn5  1  0.250000  0.670180  0.076346  1
  Ga  Ga6  1  0.750000  0.833990  0.573210  1
  Ga  Ga7  1  0.750000  0.333990  0.926790  1
  Ni  Ni8  1  0.250000  0.782992  0.403515  1
  Ni  Ni9  1  0.250000  0.282992  0.096485  1
  Ni  Ni10  1  0.750000  0.212695  0.604237  1
  Ni  Ni11  1  0.750000  0.712695  0.895763  1
