# generated using pymatgen
data_La3Tb(Sn5Pt3)2
_symmetry_space_group_name_H-M   'P 1'
_cell_length_a   13.74407772
_cell_length_b   13.74407790
_cell_length_c   7.49152727
_cell_angle_alpha   89.89299839
_cell_angle_beta   90.10700079
_cell_angle_gamma   160.79991445
_symmetry_Int_Tables_number   1
_chemical_formula_structural   La3Tb(Sn5Pt3)2
_chemical_formula_sum   'La3 Tb1 Sn10 Pt6'
_cell_volume   465.39583039
_cell_formula_units_Z   1
loop_
 _symmetry_equiv_pos_site_id
 _symmetry_equiv_pos_as_xyz
  1  'x, y, z'
loop_
 _atom_site_type_symbol
 _atom_site_label
 _atom_site_symmetry_multiplicity
 _atom_site_fract_x
 _atom_site_fract_y
 _atom_site_fract_z
 _atom_site_occupancy
  La  La0  1  0.172722  0.827278  0.754496  1
  La  La1  1  0.826590  0.173410  0.254134  1
  La  La2  1  0.477563  0.522437  0.735746  1
  Tb  Tb3  1  0.524084  0.475916  0.238567  1
  Sn  Sn4  1  0.879635  0.120365  0.735617  1
  Sn  Sn5  1  0.119954  0.880046  0.234582  1
  Sn  Sn6  1  0.702550  0.297450  0.049950  1
  Sn  Sn7  1  0.296373  0.703627  0.549977  1
  Sn  Sn8  1  0.598101  0.401899  0.605680  1
  Sn  Sn9  1  0.402881  0.597119  0.109792  1
  Sn  Sn10  1  0.953242  0.046758  0.395823  1
  Sn  Sn11  1  0.048138  0.951862  0.898514  1
  Sn  Sn12  1  0.289494  0.710506  0.977560  1
  Sn  Sn13  1  0.710224  0.289776  0.476457  1
  Pt  Pt14  1  0.051060  0.948940  0.510753  1
  Pt  Pt15  1  0.950255  0.049745  0.024315  1
  Pt  Pt16  1  0.777423  0.222577  0.770308  1
  Pt  Pt17  1  0.221875  0.778125  0.269611  1
  Pt  Pt18  1  0.396003  0.603997  0.479374  1
  Pt  Pt19  1  0.601834  0.398166  0.984741  1
