# generated using pymatgen
data_Li2La2As7Rh10
_symmetry_space_group_name_H-M   'P 1'
_cell_length_a   10.02280620
_cell_length_b   9.99893784
_cell_length_c   4.00563128
_cell_angle_alpha   89.91216677
_cell_angle_beta   90.08104025
_cell_angle_gamma   119.54208456
_symmetry_Int_Tables_number   1
_chemical_formula_structural   Li2La2As7Rh10
_chemical_formula_sum   'Li2 La2 As7 Rh10'
_cell_volume   349.24458351
_cell_formula_units_Z   1
loop_
 _symmetry_equiv_pos_site_id
 _symmetry_equiv_pos_as_xyz
  1  'x, y, z'
loop_
 _atom_site_type_symbol
 _atom_site_label
 _atom_site_symmetry_multiplicity
 _atom_site_fract_x
 _atom_site_fract_y
 _atom_site_fract_z
 _atom_site_occupancy
  Li  Li0  1  0.781612  0.550954  0.771655  1
  Li  Li1  1  0.449368  0.227073  0.764632  1
  La  La2  1  0.998644  0.000833  0.763904  1
  La  La3  1  0.330754  0.661287  0.262934  1
  As  As4  1  0.672353  0.329850  0.267250  1
  As  As5  1  0.065980  0.628168  0.760565  1
  As  As6  1  0.377220  0.439015  0.765051  1
  As  As7  1  0.555638  0.932283  0.763316  1
  As  As8  1  0.256228  0.039702  0.262761  1
  As  As9  1  0.958859  0.220339  0.261150  1
  As  As10  1  0.781801  0.742442  0.267149  1
  Rh  Rh11  1  0.755605  0.208932  0.761625  1
  Rh  Rh12  1  0.510207  0.057326  0.262599  1
  Rh  Rh13  1  0.945209  0.453550  0.258177  1
  Rh  Rh14  1  0.550084  0.488276  0.268498  1
  Rh  Rh15  1  0.103598  0.388671  0.760029  1
  Rh  Rh16  1  0.619171  0.718869  0.766635  1
  Rh  Rh17  1  0.286034  0.904283  0.762928  1
  Rh  Rh18  1  0.228084  0.273059  0.262046  1
  Rh  Rh19  1  0.729972  0.961893  0.264302  1
  Rh  Rh20  1  0.043580  0.773195  0.262731  1
