# generated using pymatgen
data_Tb17Mg(ScIr6)2
_symmetry_space_group_name_H-M   'P 1'
_cell_length_a   10.83272000
_cell_length_b   10.83272000
_cell_length_c   6.32220100
_cell_angle_alpha   90.00000000
_cell_angle_beta   90.00000000
_cell_angle_gamma   90.00000000
_symmetry_Int_Tables_number   1
_chemical_formula_structural   Tb17Mg(ScIr6)2
_chemical_formula_sum   'Tb17 Mg1 Sc2 Ir12'
_cell_volume   741.89652138
_cell_formula_units_Z   1
loop_
 _symmetry_equiv_pos_site_id
 _symmetry_equiv_pos_as_xyz
  1  'x, y, z'
loop_
 _atom_site_type_symbol
 _atom_site_label
 _atom_site_symmetry_multiplicity
 _atom_site_fract_x
 _atom_site_fract_y
 _atom_site_fract_z
 _atom_site_occupancy
  Tb  Tb0  1  0.287316  0.087156  0.380078  1
  Tb  Tb1  1  0.287588  0.914552  0.878332  1
  Tb  Tb2  1  0.712412  0.085448  0.878332  1
  Tb  Tb3  1  0.712684  0.912844  0.380078  1
  Tb  Tb4  1  0.584463  0.784685  0.878821  1
  Tb  Tb5  1  0.588061  0.207804  0.379220  1
  Tb  Tb6  1  0.411939  0.792196  0.379220  1
  Tb  Tb7  1  0.415537  0.215315  0.878821  1
  Tb  Tb8  1  0.207804  0.411939  0.620780  1
  Tb  Tb9  1  0.215315  0.584463  0.121179  1
  Tb  Tb10  1  0.784685  0.415537  0.121179  1
  Tb  Tb11  1  0.792196  0.588061  0.620780  1
  Tb  Tb12  1  0.914552  0.712412  0.121668  1
  Tb  Tb13  1  0.912844  0.287316  0.619922  1
  Tb  Tb14  1  0.087156  0.712684  0.619922  1
  Tb  Tb15  1  0.085448  0.287588  0.121668  1
  Tb  Tb16  1  0.500000  0.500000  0.500000  1
  Mg  Mg17  1  0.500000  0.500000  0.000000  1
  Sc  Sc18  1  0.000000  0.000000  0.500000  1
  Sc  Sc19  1  0.000000  0.000000  0.000000  1
  Ir  Ir20  1  0.853977  0.146244  0.248483  1
  Ir  Ir21  1  0.853756  0.853977  0.751517  1
  Ir  Ir22  1  0.146244  0.146023  0.751517  1
  Ir  Ir23  1  0.146023  0.853756  0.248483  1
  Ir  Ir24  1  0.655710  0.345623  0.746913  1
  Ir  Ir25  1  0.654377  0.655710  0.253087  1
  Ir  Ir26  1  0.345623  0.344290  0.253087  1
  Ir  Ir27  1  0.344290  0.654377  0.746913  1
  Ir  Ir28  1  0.500000  0.000000  0.120576  1
  Ir  Ir29  1  0.500000  0.000000  0.625036  1
  Ir  Ir30  1  0.000000  0.500000  0.879424  1
  Ir  Ir31  1  0.000000  0.500000  0.374964  1
