# generated using pymatgen
data_Dy4Mg3ZrIr4
_symmetry_space_group_name_H-M   'P 1'
_cell_length_a   4.17937500
_cell_length_b   7.08764622
_cell_length_c   8.52405400
_cell_angle_alpha   88.37248523
_cell_angle_beta   90.00000000
_cell_angle_gamma   90.00000000
_symmetry_Int_Tables_number   1
_chemical_formula_structural   Dy4Mg3ZrIr4
_chemical_formula_sum   'Dy4 Mg3 Zr1 Ir4'
_cell_volume   252.39708268
_cell_formula_units_Z   1
loop_
 _symmetry_equiv_pos_site_id
 _symmetry_equiv_pos_as_xyz
  1  'x, y, z'
loop_
 _atom_site_type_symbol
 _atom_site_label
 _atom_site_symmetry_multiplicity
 _atom_site_fract_x
 _atom_site_fract_y
 _atom_site_fract_z
 _atom_site_occupancy
  Dy  Dy0  1  0.250000  0.542174  0.169102  1
  Dy  Dy1  1  0.750000  0.473619  0.831415  1
  Dy  Dy2  1  0.250000  0.025793  0.317204  1
  Dy  Dy3  1  0.750000  0.956133  0.677533  1
  Mg  Mg4  1  0.250000  0.137342  0.940029  1
  Mg  Mg5  1  0.750000  0.865512  0.059104  1
  Mg  Mg6  1  0.250000  0.643332  0.565556  1
  Zr  Zr7  1  0.750000  0.366019  0.441858  1
  Ir  Ir8  1  0.750000  0.738515  0.375191  1
  Ir  Ir9  1  0.250000  0.246083  0.613059  1
  Ir  Ir10  1  0.750000  0.248701  0.137260  1
  Ir  Ir11  1  0.250000  0.756776  0.872692  1
