# generated using pymatgen
data_CaPr2Pa(Al3Ir)6
_symmetry_space_group_name_H-M   'P 1'
_cell_length_a   7.60852942
_cell_length_b   7.60729939
_cell_length_c   9.52434300
_cell_angle_alpha   90.00000000
_cell_angle_beta   90.00000000
_cell_angle_gamma   119.44967620
_symmetry_Int_Tables_number   1
_chemical_formula_structural   CaPr2Pa(Al3Ir)6
_chemical_formula_sum   'Ca1 Pr2 Pa1 Al18 Ir6'
_cell_volume   480.04132685
_cell_formula_units_Z   1
loop_
 _symmetry_equiv_pos_site_id
 _symmetry_equiv_pos_as_xyz
  1  'x, y, z'
loop_
 _atom_site_type_symbol
 _atom_site_label
 _atom_site_symmetry_multiplicity
 _atom_site_fract_x
 _atom_site_fract_y
 _atom_site_fract_z
 _atom_site_occupancy
  Ca  Ca0  1  0.672643  0.994039  0.250000  1
  Pr  Pr1  1  0.003693  0.329572  0.750000  1
  Pr  Pr2  1  0.330180  0.004496  0.750000  1
  Pa  Pa3  1  0.996206  0.672933  0.250000  1
  Al  Al4  1  0.132541  0.129438  0.250000  1
  Al  Al5  1  0.869177  0.870533  0.750000  1
  Al  Al6  1  0.000110  0.332155  0.077775  1
  Al  Al7  1  0.996604  0.664450  0.926681  1
  Al  Al8  1  0.996604  0.664450  0.573319  1
  Al  Al9  1  0.339961  0.003840  0.422501  1
  Al  Al10  1  0.000110  0.332155  0.422225  1
  Al  Al11  1  0.665124  0.997249  0.568907  1
  Al  Al12  1  0.665124  0.997249  0.931093  1
  Al  Al13  1  0.339961  0.003840  0.077499  1
  Al  Al14  1  0.333589  0.333800  0.546603  1
  Al  Al15  1  0.663515  0.666362  0.448475  1
  Al  Al16  1  0.663515  0.666362  0.051525  1
  Al  Al17  1  0.333589  0.333800  0.953397  1
  Al  Al18  1  0.337373  0.547237  0.250000  1
  Al  Al19  1  0.660012  0.453672  0.750000  1
  Al  Al20  1  0.549204  0.345374  0.250000  1
  Al  Al21  1  0.454566  0.661690  0.750000  1
  Ir  Ir22  1  0.673506  0.331676  0.003092  1
  Ir  Ir23  1  0.325730  0.670667  0.003398  1
  Ir  Ir24  1  0.325730  0.670667  0.496602  1
  Ir  Ir25  1  0.673506  0.331676  0.496908  1
  Ir  Ir26  1  0.999064  0.995310  0.004964  1
  Ir  Ir27  1  0.999064  0.995310  0.495036  1
