# generated using pymatgen
data_DyHo7CdNi2Ag
_symmetry_space_group_name_H-M   'P 1'
_cell_length_a   9.43927103
_cell_length_b   9.43927145
_cell_length_c   9.43803100
_cell_angle_alpha   60.00435756
_cell_angle_beta   60.00435608
_cell_angle_gamma   60.01138736
_symmetry_Int_Tables_number   1
_chemical_formula_structural   DyHo7CdNi2Ag
_chemical_formula_sum   'Dy2 Ho14 Cd2 Ni4 Ag2'
_cell_volume   594.71555318
_cell_formula_units_Z   2
loop_
 _symmetry_equiv_pos_site_id
 _symmetry_equiv_pos_as_xyz
  1  'x, y, z'
loop_
 _atom_site_type_symbol
 _atom_site_label
 _atom_site_symmetry_multiplicity
 _atom_site_fract_x
 _atom_site_fract_y
 _atom_site_fract_z
 _atom_site_occupancy
  Dy  Dy0  1  0.348570  0.348570  0.348491  1
  Dy  Dy1  1  0.348570  0.348570  0.954367  1
  Ho  Ho2  1  0.351379  0.948708  0.349956  1
  Ho  Ho3  1  0.948708  0.351379  0.349956  1
  Ho  Ho4  1  0.811807  0.188801  0.189361  1
  Ho  Ho5  1  0.188801  0.811807  0.810031  1
  Ho  Ho6  1  0.188801  0.811807  0.189361  1
  Ho  Ho7  1  0.811807  0.188801  0.810031  1
  Ho  Ho8  1  0.189387  0.189387  0.810613  1
  Ho  Ho9  1  0.811780  0.811780  0.188220  1
  Ho  Ho10  1  0.932989  0.563439  0.564927  1
  Ho  Ho11  1  0.563439  0.932989  0.938645  1
  Ho  Ho12  1  0.563439  0.932989  0.564927  1
  Ho  Ho13  1  0.932989  0.563439  0.938645  1
  Ho  Ho14  1  0.563172  0.563172  0.936828  1
  Ho  Ho15  1  0.935833  0.935833  0.564167  1
  Cd  Cd16  1  0.581876  0.259185  0.579470  1
  Cd  Cd17  1  0.259185  0.581876  0.579470  1
  Ni  Ni18  1  0.142804  0.142804  0.143551  1
  Ni  Ni19  1  0.142804  0.142804  0.570841  1
  Ni  Ni20  1  0.141003  0.572888  0.143055  1
  Ni  Ni21  1  0.572888  0.141003  0.143055  1
  Ag  Ag22  1  0.583985  0.583985  0.581496  1
  Ag  Ag23  1  0.583985  0.583985  0.250536  1
