# generated using pymatgen
data_Hf3ZrTiMo7
_symmetry_space_group_name_H-M   'P 1'
_cell_length_a   9.31346961
_cell_length_b   9.29176417
_cell_length_c   9.31347054
_cell_angle_alpha   33.65182341
_cell_angle_beta   33.36741521
_cell_angle_gamma   33.65183005
_symmetry_Int_Tables_number   1
_chemical_formula_structural   Hf3ZrTiMo7
_chemical_formula_sum   'Hf3 Zr1 Ti1 Mo7'
_cell_volume   219.34425043
_cell_formula_units_Z   1
loop_
 _symmetry_equiv_pos_site_id
 _symmetry_equiv_pos_as_xyz
  1  'x, y, z'
loop_
 _atom_site_type_symbol
 _atom_site_label
 _atom_site_symmetry_multiplicity
 _atom_site_fract_x
 _atom_site_fract_y
 _atom_site_fract_z
 _atom_site_occupancy
  Hf  Hf0  1  0.375017  0.377159  0.375017  1
  Hf  Hf1  1  0.002421  0.998218  0.002421  1
  Hf  Hf2  1  0.499845  0.497486  0.499845  1
  Zr  Zr3  1  0.872891  0.876892  0.872891  1
  Ti  Ti4  1  0.437690  0.937845  0.437690  1
  Mo  Mo5  1  0.937292  0.436991  0.937292  1
  Mo  Mo6  1  0.437634  0.437794  0.938250  1
  Mo  Mo7  1  0.937501  0.937238  0.436759  1
  Mo  Mo8  1  0.185707  0.192699  0.185707  1
  Mo  Mo9  1  0.688993  0.682646  0.688993  1
  Mo  Mo10  1  0.938250  0.437794  0.437634  1
  Mo  Mo11  1  0.436759  0.937238  0.937501  1
