# generated using pymatgen
data_Pr6Dy2Sc11Si16Au
_symmetry_space_group_name_H-M   'P 1'
_cell_length_a   7.15061192
_cell_length_b   7.52508727
_cell_length_c   14.24558154
_cell_angle_alpha   89.95607822
_cell_angle_beta   90.10997053
_cell_angle_gamma   90.21596462
_symmetry_Int_Tables_number   1
_chemical_formula_structural   Pr6Dy2Sc11Si16Au
_chemical_formula_sum   'Pr6 Dy2 Sc11 Si16 Au1'
_cell_volume   766.53311513
_cell_formula_units_Z   1
loop_
 _symmetry_equiv_pos_site_id
 _symmetry_equiv_pos_as_xyz
  1  'x, y, z'
loop_
 _atom_site_type_symbol
 _atom_site_label
 _atom_site_symmetry_multiplicity
 _atom_site_fract_x
 _atom_site_fract_y
 _atom_site_fract_z
 _atom_site_occupancy
  Pr  Pr0  1  0.493525  0.681980  0.898132  1
  Pr  Pr1  1  0.491625  0.682903  0.598769  1
  Pr  Pr2  1  0.978648  0.827603  0.599955  1
  Pr  Pr3  1  0.980103  0.828169  0.897010  1
  Pr  Pr4  1  0.510873  0.329860  0.098925  1
  Pr  Pr5  1  0.012310  0.173614  0.098814  1
  Dy  Dy6  1  0.011236  0.176558  0.400673  1
  Dy  Dy7  1  0.511816  0.326454  0.400303  1
  Sc  Sc8  1  0.334187  0.173379  0.622965  1
  Sc  Sc9  1  0.671958  0.821634  0.374179  1
  Sc  Sc10  1  0.171483  0.676810  0.376297  1
  Sc  Sc11  1  0.827351  0.313147  0.875195  1
  Sc  Sc12  1  0.828004  0.312006  0.623856  1
  Sc  Sc13  1  0.841329  0.499811  0.252103  1
  Sc  Sc14  1  0.340666  0.000769  0.251981  1
  Sc  Sc15  1  0.334638  0.171749  0.875679  1
  Sc  Sc16  1  0.172050  0.676339  0.126725  1
  Sc  Sc17  1  0.672499  0.822229  0.128934  1
  Sc  Sc18  1  0.159417  0.493925  0.749372  1
  Si  Si19  1  0.280864  0.882930  0.748687  1
  Si  Si20  1  0.468350  0.619187  0.252635  1
  Si  Si21  1  0.043955  0.123349  0.749224  1
  Si  Si22  1  0.531590  0.383828  0.748875  1
  Si  Si23  1  0.153348  0.461046  0.537776  1
  Si  Si24  1  0.968966  0.877887  0.252630  1
  Si  Si25  1  0.711807  0.122323  0.253813  1
  Si  Si26  1  0.850187  0.537717  0.038086  1
  Si  Si27  1  0.348783  0.961744  0.040125  1
  Si  Si28  1  0.153810  0.465741  0.960174  1
  Si  Si29  1  0.655203  0.047083  0.526369  1
  Si  Si30  1  0.344921  0.970363  0.457720  1
  Si  Si31  1  0.846408  0.529636  0.459718  1
  Si  Si32  1  0.792735  0.590809  0.748834  1
  Si  Si33  1  0.211670  0.380018  0.254289  1
  Si  Si34  1  0.654355  0.041254  0.971242  1
  Au  Au35  1  0.639332  0.016146  0.749934  1
