# generated using pymatgen
data_Tb2Tm2Cd2Si3Ge
_symmetry_space_group_name_H-M   'P 1'
_cell_length_a   7.18325635
_cell_length_b   7.18325567
_cell_length_c   4.18499400
_cell_angle_alpha   90.00000000
_cell_angle_beta   90.00000000
_cell_angle_gamma   89.47006851
_symmetry_Int_Tables_number   1
_chemical_formula_structural   Tb2Tm2Cd2Si3Ge
_chemical_formula_sum   'Tb2 Tm2 Cd2 Si3 Ge1'
_cell_volume   215.93296757
_cell_formula_units_Z   1
loop_
 _symmetry_equiv_pos_site_id
 _symmetry_equiv_pos_as_xyz
  1  'x, y, z'
loop_
 _atom_site_type_symbol
 _atom_site_label
 _atom_site_symmetry_multiplicity
 _atom_site_fract_x
 _atom_site_fract_y
 _atom_site_fract_z
 _atom_site_occupancy
  Tb  Tb0  1  0.680956  0.178517  0.500000  1
  Tb  Tb1  1  0.321483  0.819044  0.500000  1
  Tm  Tm2  1  0.175175  0.324825  0.500000  1
  Tm  Tm3  1  0.823539  0.676461  0.500000  1
  Cd  Cd4  1  0.501855  0.503399  0.000000  1
  Cd  Cd5  1  0.996601  0.998145  0.000000  1
  Si  Si6  1  0.116115  0.616181  0.000000  1
  Si  Si7  1  0.883819  0.383885  0.000000  1
  Si  Si8  1  0.621178  0.878822  0.000000  1
  Ge  Ge9  1  0.379279  0.120721  0.000000  1
