# generated using pymatgen
data_YEr3(WF7)4
_symmetry_space_group_name_H-M   'P 1'
_cell_length_a   5.66707872
_cell_length_b   8.98159798
_cell_length_c   12.06034200
_cell_angle_alpha   62.42237560
_cell_angle_beta   89.97118569
_cell_angle_gamma   90.01997281
_symmetry_Int_Tables_number   1
_chemical_formula_structural   YEr3(WF7)4
_chemical_formula_sum   'Y1 Er3 W4 F28'
_cell_volume   544.11970851
_cell_formula_units_Z   1
loop_
 _symmetry_equiv_pos_site_id
 _symmetry_equiv_pos_as_xyz
  1  'x, y, z'
loop_
 _atom_site_type_symbol
 _atom_site_label
 _atom_site_symmetry_multiplicity
 _atom_site_fract_x
 _atom_site_fract_y
 _atom_site_fract_z
 _atom_site_occupancy
  Y  Y0  1  0.754446  0.815062  0.766983  1
  Er  Er1  1  0.745896  0.816036  0.267193  1
  Er  Er2  1  0.245293  0.184862  0.233108  1
  Er  Er3  1  0.255881  0.186882  0.732726  1
  W  W4  1  0.743765  0.275084  0.453981  1
  W  W5  1  0.244189  0.726505  0.047106  1
  W  W6  1  0.254823  0.726470  0.542886  1
  W  W7  1  0.755603  0.271517  0.956158  1
  F  F8  1  0.468502  0.706664  0.920786  1
  F  F9  1  0.970364  0.293147  0.578957  1
  F  F10  1  0.530732  0.291447  0.079108  1
  F  F11  1  0.031991  0.705465  0.419933  1
  F  F12  1  0.454634  0.282653  0.548376  1
  F  F13  1  0.956186  0.716685  0.954111  1
  F  F14  1  0.547338  0.718395  0.449866  1
  F  F15  1  0.047346  0.280207  0.050517  1
  F  F16  1  0.769033  0.520801  0.857835  1
  F  F17  1  0.265138  0.476104  0.641300  1
  F  F18  1  0.234119  0.476893  0.143794  1
  F  F19  1  0.732832  0.524218  0.356256  1
  F  F20  1  0.759462  0.022048  0.054513  1
  F  F21  1  0.261052  0.976803  0.444458  1
  F  F22  1  0.238487  0.975548  0.947143  1
  F  F23  1  0.737857  0.025344  0.552318  1
  F  F24  1  0.977124  0.731615  0.644705  1
  F  F25  1  0.477920  0.267583  0.852818  1
  F  F26  1  0.016378  0.267217  0.351224  1
  F  F27  1  0.515807  0.734028  0.149158  1
  F  F28  1  0.029709  0.746932  0.176668  1
  F  F29  1  0.526610  0.255070  0.325768  1
  F  F30  1  0.971299  0.251776  0.828544  1
  F  F31  1  0.467805  0.745373  0.671351  1
  F  F32  1  0.431284  0.974335  0.234983  1
  F  F33  1  0.930990  0.026215  0.265372  1
  F  F34  1  0.573247  0.031720  0.765515  1
  F  F35  1  0.076858  0.973290  0.734483  1
