# generated using pymatgen
data_Hf8Fe3Si14Rh5
_symmetry_space_group_name_H-M   'P 1'
_cell_length_a   9.57153449
_cell_length_b   9.57153325
_cell_length_c   9.58343999
_cell_angle_alpha   94.39583419
_cell_angle_beta   94.39584130
_cell_angle_gamma   147.94895661
_symmetry_Int_Tables_number   1
_chemical_formula_structural   Hf8Fe3Si14Rh5
_chemical_formula_sum   'Hf8 Fe3 Si14 Rh5'
_cell_volume   447.60402222
_cell_formula_units_Z   1
loop_
 _symmetry_equiv_pos_site_id
 _symmetry_equiv_pos_as_xyz
  1  'x, y, z'
loop_
 _atom_site_type_symbol
 _atom_site_label
 _atom_site_symmetry_multiplicity
 _atom_site_fract_x
 _atom_site_fract_y
 _atom_site_fract_z
 _atom_site_occupancy
  Hf  Hf0  1  0.137816  0.136432  0.273449  1
  Hf  Hf1  1  0.863568  0.862184  0.726551  1
  Hf  Hf2  1  0.862166  0.137834  0.000000  1
  Hf  Hf3  1  0.138268  0.861732  0.000000  1
  Hf  Hf4  1  0.504791  0.310565  0.808304  1
  Hf  Hf5  1  0.503846  0.696993  0.192079  1
  Hf  Hf6  1  0.689435  0.495209  0.191696  1
  Hf  Hf7  1  0.303007  0.496154  0.807921  1
  Fe  Fe8  1  0.405048  0.903985  0.808092  1
  Fe  Fe9  1  0.096015  0.594952  0.191908  1
  Fe  Fe10  1  0.097850  0.902150  0.500000  1
  Si  Si11  1  0.444856  0.036209  0.592971  1
  Si  Si12  1  0.449507  0.864040  0.403908  1
  Si  Si13  1  0.963791  0.555144  0.407029  1
  Si  Si14  1  0.135960  0.550493  0.596092  1
  Si  Si15  1  0.749958  0.749562  0.999740  1
  Si  Si16  1  0.250438  0.250042  0.000260  1
  Si  Si17  1  0.280304  0.274942  0.586058  1
  Si  Si18  1  0.725058  0.719696  0.413942  1
  Si  Si19  1  0.708461  0.291539  0.000000  1
  Si  Si20  1  0.291615  0.708385  0.000000  1
  Si  Si21  1  0.016068  0.312121  0.289306  1
  Si  Si22  1  0.029619  0.735088  0.704979  1
  Si  Si23  1  0.687879  0.983932  0.710694  1
  Si  Si24  1  0.264912  0.970381  0.295021  1
  Rh  Rh25  1  0.406089  0.593911  0.500000  1
  Rh  Rh26  1  0.611366  0.388634  0.500000  1
  Rh  Rh27  1  0.886274  0.113726  0.500000  1
  Rh  Rh28  1  0.888053  0.392018  0.780359  1
  Rh  Rh29  1  0.607982  0.111947  0.219641  1
