# generated using pymatgen
data_ErUSnGeRu2
_symmetry_space_group_name_H-M   'P 1'
_cell_length_a   4.69392200
_cell_length_b   7.09345494
_cell_length_c   7.36183282
_cell_angle_alpha   96.19475313
_cell_angle_beta   90.00000000
_cell_angle_gamma   90.00000000
_symmetry_Int_Tables_number   1
_chemical_formula_structural   ErUSnGeRu2
_chemical_formula_sum   'Er2 U2 Sn2 Ge2 Ru4'
_cell_volume   243.68920453
_cell_formula_units_Z   2
loop_
 _symmetry_equiv_pos_site_id
 _symmetry_equiv_pos_as_xyz
  1  'x, y, z'
loop_
 _atom_site_type_symbol
 _atom_site_label
 _atom_site_symmetry_multiplicity
 _atom_site_fract_x
 _atom_site_fract_y
 _atom_site_fract_z
 _atom_site_occupancy
  Er  Er0  1  0.250000  0.975842  0.303782  1
  Er  Er1  1  0.750000  0.024158  0.696218  1
  U  U2  1  0.250000  0.495389  0.196631  1
  U  U3  1  0.750000  0.504611  0.803369  1
  Sn  Sn4  1  0.250000  0.831327  0.888976  1
  Sn  Sn5  1  0.750000  0.168673  0.111024  1
  Ge  Ge6  1  0.250000  0.289878  0.597868  1
  Ge  Ge7  1  0.750000  0.710122  0.402132  1
  Ru  Ru8  1  0.750000  0.737655  0.055319  1
  Ru  Ru9  1  0.250000  0.262345  0.944681  1
  Ru  Ru10  1  0.750000  0.357609  0.480692  1
  Ru  Ru11  1  0.250000  0.642391  0.519308  1
