# generated using pymatgen
data_Zr4In2Cu3Ir
_symmetry_space_group_name_H-M   'P 1'
_cell_length_a   7.34708620
_cell_length_b   7.34708641
_cell_length_c   6.90588545
_cell_angle_alpha   90.20184259
_cell_angle_beta   89.79815537
_cell_angle_gamma   89.94627983
_symmetry_Int_Tables_number   1
_chemical_formula_structural   Zr4In2Cu3Ir
_chemical_formula_sum   'Zr8 In4 Cu6 Ir2'
_cell_volume   372.77267267
_cell_formula_units_Z   2
loop_
 _symmetry_equiv_pos_site_id
 _symmetry_equiv_pos_as_xyz
  1  'x, y, z'
loop_
 _atom_site_type_symbol
 _atom_site_label
 _atom_site_symmetry_multiplicity
 _atom_site_fract_x
 _atom_site_fract_y
 _atom_site_fract_z
 _atom_site_occupancy
  Zr  Zr0  1  0.654230  0.654230  0.500000  1
  Zr  Zr1  1  0.808457  0.191543  0.496588  1
  Zr  Zr2  1  0.684719  0.684719  0.000000  1
  Zr  Zr3  1  0.846443  0.153557  0.009342  1
  Zr  Zr4  1  0.191543  0.808457  0.503412  1
  Zr  Zr5  1  0.315281  0.315281  0.000000  1
  Zr  Zr6  1  0.153557  0.846443  0.990658  1
  Zr  Zr7  1  0.345770  0.345770  0.500000  1
  In  In8  1  0.002436  0.503925  0.247629  1
  In  In9  1  0.503925  0.002436  0.752371  1
  In  In10  1  0.496075  0.997564  0.247629  1
  In  In11  1  0.997564  0.496075  0.752371  1
  Cu  Cu12  1  0.877564  0.879181  0.708601  1
  Cu  Cu13  1  0.631370  0.368630  0.795653  1
  Cu  Cu14  1  0.368630  0.631370  0.204347  1
  Cu  Cu15  1  0.122436  0.120819  0.291399  1
  Cu  Cu16  1  0.879181  0.877564  0.291399  1
  Cu  Cu17  1  0.120819  0.122436  0.708601  1
  Ir  Ir18  1  0.622705  0.377295  0.228401  1
  Ir  Ir19  1  0.377295  0.622705  0.771599  1
