# generated using pymatgen
data_AcYbZnIr2
_symmetry_space_group_name_H-M   'P 1'
_cell_length_a   5.74068195
_cell_length_b   5.74068216
_cell_length_c   5.74068233
_cell_angle_alpha   136.91445815
_cell_angle_beta   118.10197992
_cell_angle_gamma   78.38250803
_symmetry_Int_Tables_number   1
_chemical_formula_structural   AcYbZnIr2
_chemical_formula_sum   'Ac1 Yb1 Zn1 Ir2'
_cell_volume   110.75622700
_cell_formula_units_Z   1
loop_
 _symmetry_equiv_pos_site_id
 _symmetry_equiv_pos_as_xyz
  1  'x, y, z'
loop_
 _atom_site_type_symbol
 _atom_site_label
 _atom_site_symmetry_multiplicity
 _atom_site_fract_x
 _atom_site_fract_y
 _atom_site_fract_z
 _atom_site_occupancy
  Ac  Ac0  1  0.701550  0.201550  0.500000  1
  Yb  Yb1  1  0.296286  0.796287  0.500001  1
  Zn  Zn2  1  0.008376  0.008376  0.000000  1
  Ir  Ir3  1  0.725789  0.496893  0.228897  1
  Ir  Ir4  1  0.267997  0.496894  0.771103  1
