# generated using pymatgen
data_Er5Lu(Zr2Sb3)2
_symmetry_space_group_name_H-M   'P 1'
_cell_length_a   8.76431610
_cell_length_b   8.76431726
_cell_length_c   5.96739600
_cell_angle_alpha   90.00000000
_cell_angle_beta   90.00000000
_cell_angle_gamma   119.92072856
_symmetry_Int_Tables_number   1
_chemical_formula_structural   Er5Lu(Zr2Sb3)2
_chemical_formula_sum   'Er5 Lu1 Zr4 Sb6'
_cell_volume   397.28115983
_cell_formula_units_Z   1
loop_
 _symmetry_equiv_pos_site_id
 _symmetry_equiv_pos_as_xyz
  1  'x, y, z'
loop_
 _atom_site_type_symbol
 _atom_site_label
 _atom_site_symmetry_multiplicity
 _atom_site_fract_x
 _atom_site_fract_y
 _atom_site_fract_z
 _atom_site_occupancy
  Er  Er0  1  0.250099  0.999964  0.750000  1
  Er  Er1  1  0.999964  0.250099  0.750000  1
  Er  Er2  1  0.250859  0.250859  0.250000  1
  Er  Er3  1  0.749668  0.999669  0.250000  1
  Er  Er4  1  0.999669  0.749668  0.250000  1
  Lu  Lu5  1  0.749295  0.749295  0.750000  1
  Zr  Zr6  1  0.666750  0.333286  0.000018  1
  Zr  Zr7  1  0.333286  0.666750  0.000018  1
  Zr  Zr8  1  0.333286  0.666750  0.499982  1
  Zr  Zr9  1  0.666750  0.333286  0.499982  1
  Sb  Sb10  1  0.392318  0.392318  0.750000  1
  Sb  Sb11  1  0.608734  0.999195  0.750000  1
  Sb  Sb12  1  0.999195  0.608734  0.750000  1
  Sb  Sb13  1  0.608686  0.608686  0.250000  1
  Sb  Sb14  1  0.391439  0.000001  0.250000  1
  Sb  Sb15  1  0.000001  0.391439  0.250000  1
