# generated using pymatgen
data_Ho4(CuNi)7
_symmetry_space_group_name_H-M   'P 1'
_cell_length_a   5.00620567
_cell_length_b   5.00620644
_cell_length_c   12.50612175
_cell_angle_alpha   78.45425221
_cell_angle_beta   78.45425300
_cell_angle_gamma   60.00000055
_symmetry_Int_Tables_number   1
_chemical_formula_structural   Ho4(CuNi)7
_chemical_formula_sum   'Ho4 Cu7 Ni7'
_cell_volume   264.08934477
_cell_formula_units_Z   1
loop_
 _symmetry_equiv_pos_site_id
 _symmetry_equiv_pos_as_xyz
  1  'x, y, z'
loop_
 _atom_site_type_symbol
 _atom_site_label
 _atom_site_symmetry_multiplicity
 _atom_site_fract_x
 _atom_site_fract_y
 _atom_site_fract_z
 _atom_site_occupancy
  Ho  Ho0  1  0.945295  0.945295  0.164114  1
  Ho  Ho1  1  0.054705  0.054705  0.835886  1
  Ho  Ho2  1  0.851817  0.851817  0.444549  1
  Ho  Ho3  1  0.148183  0.148183  0.555451  1
  Cu  Cu4  1  0.722981  0.722981  0.831057  1
  Cu  Cu5  1  0.277019  0.277019  0.168943  1
  Cu  Cu6  1  0.610439  0.610439  0.168684  1
  Cu  Cu7  1  0.389561  0.389561  0.831316  1
  Cu  Cu8  1  0.000000  0.500000  0.000000  1
  Cu  Cu9  1  0.500000  0.000000  0.000000  1
  Cu  Cu10  1  0.500000  0.500000  0.000000  1
  Ni  Ni11  1  0.500000  0.500000  0.500000  1
  Ni  Ni12  1  0.388899  0.388899  0.333370  1
  Ni  Ni13  1  0.888834  0.388899  0.333370  1
  Ni  Ni14  1  0.388899  0.888834  0.333370  1
  Ni  Ni15  1  0.611101  0.611101  0.666630  1
  Ni  Ni16  1  0.111166  0.611101  0.666630  1
  Ni  Ni17  1  0.611101  0.111166  0.666630  1
