# generated using pymatgen
data_La2PrIn3Ir2Rh
_symmetry_space_group_name_H-M   'P 1'
_cell_length_a   7.70503000
_cell_length_b   7.74963206
_cell_length_c   4.08446000
_cell_angle_alpha   90.00000000
_cell_angle_beta   90.00000000
_cell_angle_gamma   119.80978706
_symmetry_Int_Tables_number   1
_chemical_formula_structural   La2PrIn3Ir2Rh
_chemical_formula_sum   'La2 Pr1 In3 Ir2 Rh1'
_cell_volume   211.61669460
_cell_formula_units_Z   1
loop_
 _symmetry_equiv_pos_site_id
 _symmetry_equiv_pos_as_xyz
  1  'x, y, z'
loop_
 _atom_site_type_symbol
 _atom_site_label
 _atom_site_symmetry_multiplicity
 _atom_site_fract_x
 _atom_site_fract_y
 _atom_site_fract_z
 _atom_site_occupancy
  La  La0  1  0.999801  0.584713  0.500000  1
  La  La1  1  0.415088  0.415287  0.500000  1
  Pr  Pr2  1  0.587152  0.000000  0.500000  1
  In  In3  1  0.751103  0.752950  0.000000  1
  In  In4  1  0.998153  0.247050  0.000000  1
  In  In5  1  0.250482  0.000000  0.000000  1
  Ir  Ir6  1  0.331033  0.664247  0.000000  1
  Ir  Ir7  1  0.666787  0.335753  0.000000  1
  Rh  Rh8  1  0.000402  0.000000  0.500000  1
