# generated using pymatgen
data_Dy3ErVOs7
_symmetry_space_group_name_H-M   'P 1'
_cell_length_a   5.24094082
_cell_length_b   5.24093959
_cell_length_c   8.86996500
_cell_angle_alpha   90.00252577
_cell_angle_beta   89.99747215
_cell_angle_gamma   117.29468726
_symmetry_Int_Tables_number   1
_chemical_formula_structural   Dy3ErVOs7
_chemical_formula_sum   'Dy3 Er1 V1 Os7'
_cell_volume   216.50893747
_cell_formula_units_Z   1
loop_
 _symmetry_equiv_pos_site_id
 _symmetry_equiv_pos_as_xyz
  1  'x, y, z'
loop_
 _atom_site_type_symbol
 _atom_site_label
 _atom_site_symmetry_multiplicity
 _atom_site_fract_x
 _atom_site_fract_y
 _atom_site_fract_z
 _atom_site_occupancy
  Dy  Dy0  1  0.330894  0.669106  0.436842  1
  Dy  Dy1  1  0.668647  0.331353  0.566062  1
  Dy  Dy2  1  0.668613  0.331387  0.934143  1
  Er  Er3  1  0.330711  0.669289  0.063122  1
  V  V4  1  0.834233  0.165767  0.249459  1
  Os  Os5  1  0.996273  0.003727  0.498564  1
  Os  Os6  1  0.996344  0.003656  0.001575  1
  Os  Os7  1  0.824405  0.651542  0.249266  1
  Os  Os8  1  0.348458  0.175595  0.249266  1
  Os  Os9  1  0.170800  0.829200  0.750725  1
  Os  Os10  1  0.174749  0.344128  0.750488  1
  Os  Os11  1  0.655872  0.825251  0.750488  1
