# generated using pymatgen
data_Sc3Al3SiAu2
_symmetry_space_group_name_H-M   'P 1'
_cell_length_a   6.75724300
_cell_length_b   6.75724353
_cell_length_c   4.16016700
_cell_angle_alpha   90.00000000
_cell_angle_beta   90.00000000
_cell_angle_gamma   119.99999250
_symmetry_Int_Tables_number   1
_chemical_formula_structural   Sc3Al3SiAu2
_chemical_formula_sum   'Sc3 Al3 Si1 Au2'
_cell_volume   164.50554354
_cell_formula_units_Z   1
loop_
 _symmetry_equiv_pos_site_id
 _symmetry_equiv_pos_as_xyz
  1  'x, y, z'
loop_
 _atom_site_type_symbol
 _atom_site_label
 _atom_site_symmetry_multiplicity
 _atom_site_fract_x
 _atom_site_fract_y
 _atom_site_fract_z
 _atom_site_occupancy
  Sc  Sc0  1  0.427074  0.423727  0.500000  1
  Sc  Sc1  1  0.576273  0.003347  0.500000  1
  Sc  Sc2  1  0.996653  0.572926  0.500000  1
  Al  Al3  1  0.748930  0.753146  0.000000  1
  Al  Al4  1  0.246854  0.995784  0.000000  1
  Al  Al5  1  0.004216  0.251070  0.000000  1
  Si  Si6  1  0.666667  0.333333  0.000000  1
  Au  Au7  1  0.333333  0.666667  0.000000  1
  Au  Au8  1  0.000000  0.000000  0.500000  1
