# generated using pymatgen
data_CsRb3(HgI4)2
_symmetry_space_group_name_H-M   'P 1'
_cell_length_a   8.50599500
_cell_length_b   8.43055305
_cell_length_c   10.53570080
_cell_angle_alpha   71.74782550
_cell_angle_beta   90.00000000
_cell_angle_gamma   90.00000000
_symmetry_Int_Tables_number   1
_chemical_formula_structural   CsRb3(HgI4)2
_chemical_formula_sum   'Cs1 Rb3 Hg2 I8'
_cell_volume   717.50547663
_cell_formula_units_Z   1
loop_
 _symmetry_equiv_pos_site_id
 _symmetry_equiv_pos_as_xyz
  1  'x, y, z'
loop_
 _atom_site_type_symbol
 _atom_site_label
 _atom_site_symmetry_multiplicity
 _atom_site_fract_x
 _atom_site_fract_y
 _atom_site_fract_z
 _atom_site_occupancy
  Cs  Cs0  1  0.750000  0.738132  0.068353  1
  Rb  Rb1  1  0.750000  0.779506  0.552861  1
  Rb  Rb2  1  0.250000  0.248123  0.937545  1
  Rb  Rb3  1  0.250000  0.224600  0.444844  1
  Hg  Hg4  1  0.750000  0.219751  0.697674  1
  Hg  Hg5  1  0.250000  0.777706  0.302468  1
  I  I6  1  0.993937  0.013005  0.242544  1
  I  I7  1  0.750000  0.417526  0.871581  1
  I  I8  1  0.250000  0.590807  0.577694  1
  I  I9  1  0.750000  0.409181  0.423233  1
  I  I10  1  0.506063  0.013005  0.242544  1
  I  I11  1  0.250000  0.580986  0.126715  1
  I  I12  1  0.488743  0.993836  0.755973  1
  I  I13  1  0.011257  0.993836  0.755973  1
