# generated using pymatgen
data_HoTm3(B4Ir)4
_symmetry_space_group_name_H-M   'P 1'
_cell_length_a   3.55627300
_cell_length_b   5.94966962
_cell_length_c   11.54340800
_cell_angle_alpha   89.97285112
_cell_angle_beta   90.00000000
_cell_angle_gamma   90.00000000
_symmetry_Int_Tables_number   1
_chemical_formula_structural   HoTm3(B4Ir)4
_chemical_formula_sum   'Ho1 Tm3 B16 Ir4'
_cell_volume   244.24289564
_cell_formula_units_Z   1
loop_
 _symmetry_equiv_pos_site_id
 _symmetry_equiv_pos_as_xyz
  1  'x, y, z'
loop_
 _atom_site_type_symbol
 _atom_site_label
 _atom_site_symmetry_multiplicity
 _atom_site_fract_x
 _atom_site_fract_y
 _atom_site_fract_z
 _atom_site_occupancy
  Ho  Ho0  1  0.000000  0.368358  0.648438  1
  Tm  Tm1  1  0.000000  0.131529  0.148340  1
  Tm  Tm2  1  0.000000  0.868658  0.851779  1
  Tm  Tm3  1  0.000000  0.631352  0.351440  1
  B  B4  1  0.500000  0.475361  0.193045  1
  B  B5  1  0.500000  0.524996  0.807461  1
  B  B6  1  0.500000  0.975428  0.306603  1
  B  B7  1  0.500000  0.023837  0.693297  1
  B  B8  1  0.500000  0.291934  0.311618  1
  B  B9  1  0.500000  0.709390  0.688546  1
  B  B10  1  0.500000  0.791913  0.188201  1
  B  B11  1  0.500000  0.207976  0.812295  1
  B  B12  1  0.500000  0.364184  0.469635  1
  B  B13  1  0.500000  0.635898  0.529468  1
  B  B14  1  0.500000  0.864516  0.030031  1
  B  B15  1  0.500000  0.135354  0.970265  1
  B  B16  1  0.500000  0.386853  0.046983  1
  B  B17  1  0.500000  0.613298  0.953384  1
  B  B18  1  0.500000  0.886664  0.452717  1
  B  B19  1  0.500000  0.112271  0.546451  1
  Ir  Ir20  1  0.000000  0.143484  0.402242  1
  Ir  Ir21  1  0.000000  0.856276  0.596866  1
  Ir  Ir22  1  0.000000  0.644362  0.097377  1
  Ir  Ir23  1  0.000000  0.356106  0.903519  1
