# generated using pymatgen
data_Dy2Tm2ReB12Ir
_symmetry_space_group_name_H-M   'P 1'
_cell_length_a   3.65008000
_cell_length_b   9.11568290
_cell_length_c   11.51223202
_cell_angle_alpha   90.29170061
_cell_angle_beta   90.00000000
_cell_angle_gamma   90.00000000
_symmetry_Int_Tables_number   1
_chemical_formula_structural   Dy2Tm2ReB12Ir
_chemical_formula_sum   'Dy4 Tm4 Re2 B24 Ir2'
_cell_volume   383.04120773
_cell_formula_units_Z   2
loop_
 _symmetry_equiv_pos_site_id
 _symmetry_equiv_pos_as_xyz
  1  'x, y, z'
loop_
 _atom_site_type_symbol
 _atom_site_label
 _atom_site_symmetry_multiplicity
 _atom_site_fract_x
 _atom_site_fract_y
 _atom_site_fract_z
 _atom_site_occupancy
  Dy  Dy0  1  0.000000  0.317033  0.410238  1
  Dy  Dy1  1  0.000000  0.682967  0.589762  1
  Dy  Dy2  1  0.000000  0.825888  0.082568  1
  Dy  Dy3  1  0.000000  0.174112  0.917432  1
  Tm  Tm4  1  0.000000  0.946335  0.372315  1
  Tm  Tm5  1  0.000000  0.053665  0.627685  1
  Tm  Tm6  1  0.000000  0.441605  0.125865  1
  Tm  Tm7  1  0.000000  0.558395  0.874135  1
  Re  Re8  1  0.000000  0.138552  0.180290  1
  Re  Re9  1  0.000000  0.861448  0.819710  1
  B  B10  1  0.500000  0.554445  0.433799  1
  B  B11  1  0.500000  0.445555  0.566201  1
  B  B12  1  0.500000  0.053521  0.067435  1
  B  B13  1  0.500000  0.946479  0.932565  1
  B  B14  1  0.500000  0.750360  0.420847  1
  B  B15  1  0.500000  0.249640  0.579153  1
  B  B16  1  0.500000  0.248842  0.081010  1
  B  B17  1  0.500000  0.751158  0.918990  1
  B  B18  1  0.500000  0.791340  0.265850  1
  B  B19  1  0.500000  0.208660  0.734150  1
  B  B20  1  0.500000  0.292653  0.234515  1
  B  B21  1  0.500000  0.707347  0.765485  1
  B  B22  1  0.500000  0.631016  0.183557  1
  B  B23  1  0.500000  0.368984  0.816443  1
  B  B24  1  0.500000  0.131112  0.315276  1
  B  B25  1  0.500000  0.868888  0.684724  1
  B  B26  1  0.500000  0.982516  0.213579  1
  B  B27  1  0.500000  0.017484  0.786421  1
  B  B28  1  0.500000  0.482297  0.286921  1
  B  B29  1  0.500000  0.517703  0.713079  1
  B  B30  1  0.500000  0.604293  0.029200  1
  B  B31  1  0.500000  0.395707  0.970800  1
  B  B32  1  0.500000  0.105277  0.471606  1
  B  B33  1  0.500000  0.894723  0.528394  1
  Ir  Ir34  1  0.000000  0.637259  0.321614  1
  Ir  Ir35  1  0.000000  0.362741  0.678386  1
