# generated using pymatgen
data_ThPb(ClO4)6
_symmetry_space_group_name_H-M   'P 1'
_cell_length_a   9.63236100
_cell_length_b   9.63236220
_cell_length_c   6.00243000
_cell_angle_alpha   90.00000000
_cell_angle_beta   90.00000000
_cell_angle_gamma   119.99999839
_symmetry_Int_Tables_number   1
_chemical_formula_structural   ThPb(ClO4)6
_chemical_formula_sum   'Th1 Pb1 Cl6 O24'
_cell_volume   482.30670356
_cell_formula_units_Z   1
loop_
 _symmetry_equiv_pos_site_id
 _symmetry_equiv_pos_as_xyz
  1  'x, y, z'
loop_
 _atom_site_type_symbol
 _atom_site_label
 _atom_site_symmetry_multiplicity
 _atom_site_fract_x
 _atom_site_fract_y
 _atom_site_fract_z
 _atom_site_occupancy
  Th  Th0  1  0.666667  0.333333  0.750000  1
  Pb  Pb1  1  0.333333  0.666667  0.250000  1
  Cl  Cl2  1  0.297170  0.922591  0.750000  1
  Cl  Cl3  1  0.708349  0.103437  0.250000  1
  Cl  Cl4  1  0.625421  0.702830  0.750000  1
  Cl  Cl5  1  0.395088  0.291651  0.250000  1
  Cl  Cl6  1  0.077409  0.374579  0.750000  1
  Cl  Cl7  1  0.896563  0.604912  0.250000  1
  O  O8  1  0.795852  0.795373  0.750000  1
  O  O9  1  0.953504  0.428425  0.750000  1
  O  O10  1  0.474921  0.046496  0.750000  1
  O  O11  1  0.204627  0.000479  0.750000  1
  O  O12  1  0.963060  0.773445  0.250000  1
  O  O13  1  0.465515  0.256142  0.447764  1
  O  O14  1  0.175996  0.442641  0.947439  1
  O  O15  1  0.539293  0.985774  0.250000  1
  O  O16  1  0.557359  0.733355  0.947439  1
  O  O17  1  0.014226  0.553518  0.250000  1
  O  O18  1  0.999521  0.204148  0.750000  1
  O  O19  1  0.266645  0.824004  0.552561  1
  O  O20  1  0.790626  0.534485  0.447764  1
  O  O21  1  0.465515  0.256142  0.052236  1
  O  O22  1  0.557359  0.733355  0.552561  1
  O  O23  1  0.266645  0.824004  0.947439  1
  O  O24  1  0.790626  0.534485  0.052236  1
  O  O25  1  0.571575  0.525079  0.750000  1
  O  O26  1  0.446482  0.460707  0.250000  1
  O  O27  1  0.175996  0.442641  0.552561  1
  O  O28  1  0.743858  0.209374  0.052236  1
  O  O29  1  0.226555  0.189615  0.250000  1
  O  O30  1  0.743858  0.209374  0.447764  1
  O  O31  1  0.810385  0.036940  0.250000  1
