# generated using pymatgen
data_YbEr(Al5Pt3)2
_symmetry_space_group_name_H-M   'P 1'
_cell_length_a   4.08706500
_cell_length_b   7.44230162
_cell_length_c   20.51194423
_cell_angle_alpha   90.55705334
_cell_angle_beta   90.00000000
_cell_angle_gamma   90.00000000
_symmetry_Int_Tables_number   1
_chemical_formula_structural   YbEr(Al5Pt3)2
_chemical_formula_sum   'Yb2 Er2 Al20 Pt12'
_cell_volume   623.88581675
_cell_formula_units_Z   2
loop_
 _symmetry_equiv_pos_site_id
 _symmetry_equiv_pos_as_xyz
  1  'x, y, z'
loop_
 _atom_site_type_symbol
 _atom_site_label
 _atom_site_symmetry_multiplicity
 _atom_site_fract_x
 _atom_site_fract_y
 _atom_site_fract_z
 _atom_site_occupancy
  Yb  Yb0  1  0.250000  0.117467  0.639899  1
  Yb  Yb1  1  0.750000  0.882533  0.360101  1
  Er  Er2  1  0.250000  0.388012  0.139619  1
  Er  Er3  1  0.750000  0.611988  0.860381  1
  Al  Al4  1  0.750000  0.351992  0.379903  1
  Al  Al5  1  0.750000  0.882844  0.983981  1
  Al  Al6  1  0.750000  0.683542  0.200367  1
  Al  Al7  1  0.250000  0.871241  0.492757  1
  Al  Al8  1  0.250000  0.630354  0.991456  1
  Al  Al9  1  0.250000  0.316458  0.799633  1
  Al  Al10  1  0.750000  0.069344  0.208790  1
  Al  Al11  1  0.250000  0.648008  0.620097  1
  Al  Al12  1  0.250000  0.569126  0.290605  1
  Al  Al13  1  0.250000  0.186140  0.298721  1
  Al  Al14  1  0.750000  0.143723  0.881989  1
  Al  Al15  1  0.250000  0.930656  0.791210  1
  Al  Al16  1  0.750000  0.369646  0.008544  1
  Al  Al17  1  0.750000  0.616582  0.483775  1
  Al  Al18  1  0.750000  0.128759  0.507243  1
  Al  Al19  1  0.250000  0.117156  0.016019  1
  Al  Al20  1  0.250000  0.856277  0.118011  1
  Al  Al21  1  0.250000  0.383418  0.516225  1
  Al  Al22  1  0.750000  0.430874  0.709395  1
  Al  Al23  1  0.750000  0.813860  0.701279  1
  Pt  Pt24  1  0.750000  0.380156  0.256409  1
  Pt  Pt25  1  0.250000  0.878180  0.241363  1
  Pt  Pt26  1  0.250000  0.619844  0.743591  1
  Pt  Pt27  1  0.750000  0.121820  0.758637  1
  Pt  Pt28  1  0.250000  0.159597  0.426093  1
  Pt  Pt29  1  0.750000  0.417881  0.584867  1
  Pt  Pt30  1  0.750000  0.084656  0.085654  1
  Pt  Pt31  1  0.250000  0.915344  0.914346  1
  Pt  Pt32  1  0.750000  0.840403  0.573907  1
  Pt  Pt33  1  0.250000  0.340367  0.925845  1
  Pt  Pt34  1  0.750000  0.659633  0.074155  1
  Pt  Pt35  1  0.250000  0.582119  0.415133  1
