# generated using pymatgen
data_Hf8Ta4Ga11Ge
_symmetry_space_group_name_H-M   'P 1'
_cell_length_a   5.53401400
_cell_length_b   8.44380911
_cell_length_c   9.12128519
_cell_angle_alpha   89.94136321
_cell_angle_beta   90.00000000
_cell_angle_gamma   90.00000000
_symmetry_Int_Tables_number   1
_chemical_formula_structural   Hf8Ta4Ga11Ge
_chemical_formula_sum   'Hf8 Ta4 Ga11 Ge1'
_cell_volume   426.22063072
_cell_formula_units_Z   1
loop_
 _symmetry_equiv_pos_site_id
 _symmetry_equiv_pos_as_xyz
  1  'x, y, z'
loop_
 _atom_site_type_symbol
 _atom_site_label
 _atom_site_symmetry_multiplicity
 _atom_site_fract_x
 _atom_site_fract_y
 _atom_site_fract_z
 _atom_site_occupancy
  Hf  Hf0  1  0.750000  0.470145  0.622020  1
  Hf  Hf1  1  0.250000  0.529848  0.378632  1
  Hf  Hf2  1  0.750000  0.971885  0.376189  1
  Hf  Hf3  1  0.250000  0.029373  0.622562  1
  Hf  Hf4  1  0.750000  0.367097  0.183552  1
  Hf  Hf5  1  0.250000  0.632670  0.817322  1
  Hf  Hf6  1  0.750000  0.868412  0.816781  1
  Hf  Hf7  1  0.250000  0.130953  0.182934  1
  Ta  Ta8  1  0.000725  0.750353  0.110885  1
  Ta  Ta9  1  0.499429  0.248812  0.889431  1
  Ta  Ta10  1  0.000571  0.248812  0.889431  1
  Ta  Ta11  1  0.499275  0.750353  0.110885  1
  Ga  Ga12  1  0.999509  0.750149  0.571903  1
  Ga  Ga13  1  0.499041  0.250313  0.428221  1
  Ga  Ga14  1  0.000959  0.250313  0.428221  1
  Ga  Ga15  1  0.500491  0.750149  0.571903  1
  Ga  Ga16  1  0.250000  0.953035  0.919586  1
  Ga  Ga17  1  0.750000  0.545387  0.920942  1
  Ga  Ga18  1  0.250000  0.454361  0.079011  1
  Ga  Ga19  1  0.750000  0.133788  0.652005  1
  Ga  Ga20  1  0.250000  0.866268  0.348380  1
  Ga  Ga21  1  0.750000  0.633713  0.347118  1
  Ga  Ga22  1  0.250000  0.367131  0.653311  1
  Ge  Ge23  1  0.750000  0.046682  0.078774  1
