# generated using pymatgen
data_TbEr3Fe2(Co2B)6
_symmetry_space_group_name_H-M   'P 1'
_cell_length_a   5.04957100
_cell_length_b   5.04963341
_cell_length_c   12.62236800
_cell_angle_alpha   89.99998788
_cell_angle_beta   90.00010893
_cell_angle_gamma   120.00200408
_symmetry_Int_Tables_number   1
_chemical_formula_structural   TbEr3Fe2(Co2B)6
_chemical_formula_sum   'Tb1 Er3 Fe2 Co12 B6'
_cell_volume   278.72571128
_cell_formula_units_Z   1
loop_
 _symmetry_equiv_pos_site_id
 _symmetry_equiv_pos_as_xyz
  1  'x, y, z'
loop_
 _atom_site_type_symbol
 _atom_site_label
 _atom_site_symmetry_multiplicity
 _atom_site_fract_x
 _atom_site_fract_y
 _atom_site_fract_z
 _atom_site_occupancy
  Tb  Tb0  1  0.999988  0.999998  0.000004  1
  Er  Er1  1  0.999993  0.000000  0.499962  1
  Er  Er2  1  0.999986  0.000002  0.260706  1
  Er  Er3  1  0.999999  0.000003  0.739220  1
  Fe  Fe4  1  0.333309  0.666676  0.000007  1
  Fe  Fe5  1  0.666662  0.333319  0.000004  1
  Co  Co6  1  0.499993  0.000011  0.156082  1
  Co  Co7  1  0.499992  0.499993  0.156059  1
  Co  Co8  1  0.999976  0.499995  0.156101  1
  Co  Co9  1  0.500003  0.000014  0.843975  1
  Co  Co10  1  0.500004  0.499994  0.843963  1
  Co  Co11  1  0.999987  0.499996  0.843956  1
  Co  Co12  1  0.499992  0.000004  0.384949  1
  Co  Co13  1  0.499992  0.499998  0.384938  1
  Co  Co14  1  0.999987  0.499998  0.384944  1
  Co  Co15  1  0.499996  0.000003  0.615049  1
  Co  Co16  1  0.499995  0.499998  0.615058  1
  Co  Co17  1  0.999991  0.499998  0.615044  1
  B  B18  1  0.333335  0.666654  0.499985  1
  B  B19  1  0.666648  0.333345  0.499985  1
  B  B20  1  0.333300  0.666652  0.268656  1
  B  B21  1  0.666679  0.333350  0.268641  1
  B  B22  1  0.666683  0.333338  0.731361  1
  B  B23  1  0.333309  0.666663  0.731346  1
