# generated using pymatgen
data_Ho2Lu4Al24IrOs7
_symmetry_space_group_name_H-M   'P 1'
_cell_length_a   8.77695410
_cell_length_b   8.79581134
_cell_length_c   9.54256040
_cell_angle_alpha   89.99032908
_cell_angle_beta   89.79394556
_cell_angle_gamma   120.02204334
_symmetry_Int_Tables_number   1
_chemical_formula_structural   Ho2Lu4Al24IrOs7
_chemical_formula_sum   'Ho2 Lu4 Al24 Ir1 Os7'
_cell_volume   637.84453985
_cell_formula_units_Z   1
loop_
 _symmetry_equiv_pos_site_id
 _symmetry_equiv_pos_as_xyz
  1  'x, y, z'
loop_
 _atom_site_type_symbol
 _atom_site_label
 _atom_site_symmetry_multiplicity
 _atom_site_fract_x
 _atom_site_fract_y
 _atom_site_fract_z
 _atom_site_occupancy
  Ho  Ho0  1  0.195401  0.809557  0.251733  1
  Ho  Ho1  1  0.804599  0.190443  0.748267  1
  Lu  Lu2  1  0.197918  0.390169  0.252055  1
  Lu  Lu3  1  0.802082  0.609831  0.747945  1
  Lu  Lu4  1  0.608839  0.804242  0.250009  1
  Lu  Lu5  1  0.391161  0.195758  0.749991  1
  Al  Al6  1  0.334036  0.667075  0.021302  1
  Al  Al7  1  0.665964  0.332925  0.978698  1
  Al  Al8  1  0.666591  0.333197  0.520049  1
  Al  Al9  1  0.333409  0.666803  0.479951  1
  Al  Al10  1  0.163073  0.326740  0.576946  1
  Al  Al11  1  0.836927  0.673260  0.423054  1
  Al  Al12  1  0.672973  0.835995  0.575335  1
  Al  Al13  1  0.836133  0.673840  0.076407  1
  Al  Al14  1  0.327027  0.164005  0.424665  1
  Al  Al15  1  0.163867  0.326160  0.923593  1
  Al  Al16  1  0.162437  0.836405  0.577614  1
  Al  Al17  1  0.326330  0.163631  0.075978  1
  Al  Al18  1  0.837563  0.163595  0.422386  1
  Al  Al19  1  0.673670  0.836369  0.924022  1
  Al  Al20  1  0.836403  0.161857  0.077089  1
  Al  Al21  1  0.163597  0.838143  0.922911  1
  Al  Al22  1  0.563757  0.124155  0.249623  1
  Al  Al23  1  0.436243  0.875845  0.750377  1
  Al  Al24  1  0.877515  0.438615  0.250448  1
  Al  Al25  1  0.122485  0.561385  0.749552  1
  Al  Al26  1  0.562944  0.439690  0.249597  1
  Al  Al27  1  0.437056  0.560310  0.750403  1
  Al  Al28  1  0.999225  0.002065  0.250050  1
  Al  Al29  1  0.000775  0.997935  0.749950  1
  Ir  Ir30  1  0.000000  0.500000  0.000000  1
  Os  Os31  1  0.500000  0.000000  0.000000  1
  Os  Os32  1  0.500000  0.000000  0.500000  1
  Os  Os33  1  0.500000  0.500000  0.000000  1
  Os  Os34  1  0.000000  0.500000  0.500000  1
  Os  Os35  1  0.500000  0.500000  0.500000  1
  Os  Os36  1  0.000000  0.000000  0.000000  1
  Os  Os37  1  0.000000  0.000000  0.500000  1
