# generated using pymatgen
data_Lu11ScPb10
_symmetry_space_group_name_H-M   'P 1'
_cell_length_a   11.52935320
_cell_length_b   11.52935468
_cell_length_c   11.53687453
_cell_angle_alpha   147.41645090
_cell_angle_beta   132.51837770
_cell_angle_gamma   58.70635705
_symmetry_Int_Tables_number   1
_chemical_formula_structural   Lu11ScPb10
_chemical_formula_sum   'Lu11 Sc1 Pb10'
_cell_volume   603.85484090
_cell_formula_units_Z   1
loop_
 _symmetry_equiv_pos_site_id
 _symmetry_equiv_pos_as_xyz
  1  'x, y, z'
loop_
 _atom_site_type_symbol
 _atom_site_label
 _atom_site_symmetry_multiplicity
 _atom_site_fract_x
 _atom_site_fract_y
 _atom_site_fract_z
 _atom_site_occupancy
  Lu  Lu0  1  0.696000  0.946000  0.250000  1
  Lu  Lu1  1  0.251738  0.640154  0.610295  1
  Lu  Lu2  1  0.674530  0.940351  0.733504  1
  Lu  Lu3  1  0.029859  0.141441  0.889705  1
  Lu  Lu4  1  0.969936  0.857990  0.110712  1
  Lu  Lu5  1  0.793447  0.560174  0.234158  1
  Lu  Lu6  1  0.206848  0.441025  0.766496  1
  Lu  Lu7  1  0.303791  0.053791  0.750000  1
  Lu  Lu8  1  0.326015  0.059289  0.265842  1
  Lu  Lu9  1  0.304318  0.554318  0.250000  1
  Lu  Lu10  1  0.747277  0.359224  0.389288  1
  Sc  Sc11  1  0.694724  0.444724  0.750000  1
  Pb  Pb12  1  0.478124  0.570481  0.895690  1
  Pb  Pb13  1  0.598344  0.787554  0.799837  1
  Pb  Pb14  1  0.674791  0.082435  0.604310  1
  Pb  Pb15  1  0.000179  0.750179  0.750000  1
  Pb  Pb16  1  0.987717  0.298507  0.700163  1
  Pb  Pb17  1  0.524102  0.424344  0.098630  1
  Pb  Pb18  1  0.007700  0.703662  0.298790  1
  Pb  Pb19  1  0.404872  0.208911  0.201210  1
  Pb  Pb20  1  0.325713  0.925471  0.401370  1
  Pb  Pb21  1  0.999972  0.249972  0.250000  1
