# generated using pymatgen
data_Dy17Ho3Ir11Os
_symmetry_space_group_name_H-M   'P 1'
_cell_length_a   10.86147700
_cell_length_b   10.86161800
_cell_length_c   6.38924800
_cell_angle_alpha   90.00000000
_cell_angle_beta   90.00000000
_cell_angle_gamma   90.00000000
_symmetry_Int_Tables_number   1
_chemical_formula_structural   Dy17Ho3Ir11Os
_chemical_formula_sum   'Dy17 Ho3 Ir11 Os1'
_cell_volume   753.76012218
_cell_formula_units_Z   1
loop_
 _symmetry_equiv_pos_site_id
 _symmetry_equiv_pos_as_xyz
  1  'x, y, z'
loop_
 _atom_site_type_symbol
 _atom_site_label
 _atom_site_symmetry_multiplicity
 _atom_site_fract_x
 _atom_site_fract_y
 _atom_site_fract_z
 _atom_site_occupancy
  Dy  Dy0  1  0.292396  0.087069  0.376075  1
  Dy  Dy1  1  0.292804  0.912973  0.879948  1
  Dy  Dy2  1  0.707196  0.087027  0.879948  1
  Dy  Dy3  1  0.707604  0.912931  0.376075  1
  Dy  Dy4  1  0.587008  0.792721  0.879901  1
  Dy  Dy5  1  0.586996  0.207807  0.376116  1
  Dy  Dy6  1  0.413004  0.792193  0.376116  1
  Dy  Dy7  1  0.412992  0.207279  0.879901  1
  Dy  Dy8  1  0.209288  0.411927  0.621964  1
  Dy  Dy9  1  0.209198  0.587847  0.121607  1
  Dy  Dy10  1  0.790802  0.412153  0.121607  1
  Dy  Dy11  1  0.790712  0.588073  0.621964  1
  Dy  Dy12  1  0.912133  0.709114  0.121577  1
  Dy  Dy13  1  0.911842  0.290911  0.621993  1
  Dy  Dy14  1  0.088158  0.709089  0.621993  1
  Dy  Dy15  1  0.087867  0.290886  0.121577  1
  Dy  Dy16  1  0.000000  0.000000  0.499354  1
  Ho  Ho17  1  0.000000  0.000000  0.999257  1
  Ho  Ho18  1  0.500000  0.500000  0.999241  1
  Ho  Ho19  1  0.500000  0.500000  0.499315  1
  Ir  Ir20  1  0.847850  0.153738  0.249725  1
  Ir  Ir21  1  0.847811  0.846669  0.750208  1
  Ir  Ir22  1  0.152189  0.153331  0.750208  1
  Ir  Ir23  1  0.152150  0.846262  0.249725  1
  Ir  Ir24  1  0.653059  0.348105  0.749723  1
  Ir  Ir25  1  0.653432  0.651875  0.250171  1
  Ir  Ir26  1  0.346568  0.348125  0.250171  1
  Ir  Ir27  1  0.346941  0.651895  0.749723  1
  Ir  Ir28  1  0.500000  0.000000  0.622888  1
  Ir  Ir29  1  0.000000  0.500000  0.878412  1
  Ir  Ir30  1  0.000000  0.500000  0.378875  1
  Os  Os31  1  0.500000  0.000000  0.124638  1
