# generated using pymatgen
data_Pr8ZnInRh2
_symmetry_space_group_name_H-M   'P 1'
_cell_length_a   9.99656077
_cell_length_b   9.99656161
_cell_length_c   10.00876800
_cell_angle_alpha   59.95959286
_cell_angle_beta   59.95959005
_cell_angle_gamma   59.95295014
_symmetry_Int_Tables_number   1
_chemical_formula_structural   Pr8ZnInRh2
_chemical_formula_sum   'Pr16 Zn2 In2 Rh4'
_cell_volume   706.55647448
_cell_formula_units_Z   2
loop_
 _symmetry_equiv_pos_site_id
 _symmetry_equiv_pos_as_xyz
  1  'x, y, z'
loop_
 _atom_site_type_symbol
 _atom_site_label
 _atom_site_symmetry_multiplicity
 _atom_site_fract_x
 _atom_site_fract_y
 _atom_site_fract_z
 _atom_site_occupancy
  Pr  Pr0  1  0.808059  0.808059  0.191941  1
  Pr  Pr1  1  0.808693  0.191691  0.808132  1
  Pr  Pr2  1  0.191110  0.191110  0.808890  1
  Pr  Pr3  1  0.648694  0.052089  0.649609  1
  Pr  Pr4  1  0.061379  0.061379  0.438621  1
  Pr  Pr5  1  0.437615  0.437615  0.062385  1
  Pr  Pr6  1  0.650070  0.650070  0.651012  1
  Pr  Pr7  1  0.808693  0.191691  0.191484  1
  Pr  Pr8  1  0.191691  0.808693  0.808132  1
  Pr  Pr9  1  0.052089  0.648694  0.649609  1
  Pr  Pr10  1  0.438414  0.064967  0.059015  1
  Pr  Pr11  1  0.438414  0.064967  0.437604  1
  Pr  Pr12  1  0.064967  0.438414  0.059015  1
  Pr  Pr13  1  0.650070  0.650070  0.048849  1
  Pr  Pr14  1  0.191691  0.808693  0.191484  1
  Pr  Pr15  1  0.064967  0.438414  0.437604  1
  Zn  Zn16  1  0.419213  0.419213  0.420604  1
  Zn  Zn17  1  0.419213  0.419213  0.740967  1
  In  In18  1  0.419479  0.735598  0.422460  1
  In  In19  1  0.735598  0.419479  0.422460  1
  Rh  Rh20  1  0.858250  0.426290  0.857731  1
  Rh  Rh21  1  0.857670  0.857670  0.857231  1
  Rh  Rh22  1  0.857670  0.857670  0.427430  1
  Rh  Rh23  1  0.426290  0.858250  0.857731  1
