# generated using pymatgen
data_HoCo3TcSn6
_symmetry_space_group_name_H-M   'P 1'
_cell_length_a   6.68884582
_cell_length_b   6.74533321
_cell_length_c   6.83606979
_cell_angle_alpha   120.16092941
_cell_angle_beta   119.89257078
_cell_angle_gamma   88.93805283
_symmetry_Int_Tables_number   1
_chemical_formula_structural   HoCo3TcSn6
_chemical_formula_sum   'Ho1 Co3 Tc1 Sn6'
_cell_volume   219.85978040
_cell_formula_units_Z   1
loop_
 _symmetry_equiv_pos_site_id
 _symmetry_equiv_pos_as_xyz
  1  'x, y, z'
loop_
 _atom_site_type_symbol
 _atom_site_label
 _atom_site_symmetry_multiplicity
 _atom_site_fract_x
 _atom_site_fract_y
 _atom_site_fract_z
 _atom_site_occupancy
  Ho  Ho0  1  0.999031  0.009368  0.000000  1
  Co  Co1  1  0.264293  0.590674  0.000000  1
  Co  Co2  1  0.752664  0.751572  0.356603  1
  Co  Co3  1  0.396061  0.394969  0.643398  1
  Tc  Tc4  1  0.592110  0.260491  0.000000  1
  Sn  Sn5  1  0.886387  0.539770  0.000000  1
  Sn  Sn6  1  0.535741  0.870895  0.000000  1
  Sn  Sn7  1  0.466555  0.471843  0.358646  1
  Sn  Sn8  1  0.494902  0.993887  0.490554  1
  Sn  Sn9  1  0.004347  0.503335  0.509448  1
  Sn  Sn10  1  0.107910  0.113197  0.641355  1
