# generated using pymatgen
data_SmTm4(FeB3)2
_symmetry_space_group_name_H-M   'P 1'
_cell_length_a   8.15917738
_cell_length_b   8.15917711
_cell_length_c   8.15917665
_cell_angle_alpha   38.50710717
_cell_angle_beta   38.50710833
_cell_angle_gamma   38.50710008
_symmetry_Int_Tables_number   1
_chemical_formula_structural   SmTm4(FeB3)2
_chemical_formula_sum   'Sm1 Tm4 Fe2 B6'
_cell_volume   189.18445456
_cell_formula_units_Z   1
loop_
 _symmetry_equiv_pos_site_id
 _symmetry_equiv_pos_as_xyz
  1  'x, y, z'
loop_
 _atom_site_type_symbol
 _atom_site_label
 _atom_site_symmetry_multiplicity
 _atom_site_fract_x
 _atom_site_fract_y
 _atom_site_fract_z
 _atom_site_occupancy
  Sm  Sm0  1  0.000000  0.000000  0.000000  1
  Tm  Tm1  1  0.582915  0.582915  0.582915  1
  Tm  Tm2  1  0.417085  0.417085  0.417085  1
  Tm  Tm3  1  0.749554  0.749554  0.749554  1
  Tm  Tm4  1  0.250446  0.250446  0.250446  1
  Fe  Fe5  1  0.884047  0.884047  0.884047  1
  Fe  Fe6  1  0.115953  0.115953  0.115953  1
  B  B7  1  0.500000  0.831803  0.168197  1
  B  B8  1  0.168197  0.500000  0.831803  1
  B  B9  1  0.831803  0.168197  0.500000  1
  B  B10  1  0.500000  0.168197  0.831803  1
  B  B11  1  0.831803  0.500000  0.168197  1
  B  B12  1  0.168197  0.831803  0.500000  1
