# generated using pymatgen
data_Hf4ZrSn3B
_symmetry_space_group_name_H-M   'P 1'
_cell_length_a   8.52436800
_cell_length_b   8.52436729
_cell_length_c   5.78494500
_cell_angle_alpha   90.00000000
_cell_angle_beta   90.00000000
_cell_angle_gamma   119.99999498
_symmetry_Int_Tables_number   1
_chemical_formula_structural   Hf4ZrSn3B
_chemical_formula_sum   'Hf8 Zr2 Sn6 B2'
_cell_volume   364.04429714
_cell_formula_units_Z   2
loop_
 _symmetry_equiv_pos_site_id
 _symmetry_equiv_pos_as_xyz
  1  'x, y, z'
loop_
 _atom_site_type_symbol
 _atom_site_label
 _atom_site_symmetry_multiplicity
 _atom_site_fract_x
 _atom_site_fract_y
 _atom_site_fract_z
 _atom_site_occupancy
  Hf  Hf0  1  0.666667  0.333333  0.000000  1
  Hf  Hf1  1  0.333333  0.666667  0.000000  1
  Hf  Hf2  1  0.774152  0.774152  0.749827  1
  Hf  Hf3  1  0.225848  0.000000  0.749827  1
  Hf  Hf4  1  0.000000  0.225848  0.749827  1
  Hf  Hf5  1  0.225848  0.225848  0.250173  1
  Hf  Hf6  1  0.774152  0.000000  0.250173  1
  Hf  Hf7  1  0.000000  0.774152  0.250173  1
  Zr  Zr8  1  0.333333  0.666667  0.500000  1
  Zr  Zr9  1  0.666667  0.333333  0.500000  1
  Sn  Sn10  1  0.398928  0.398928  0.752057  1
  Sn  Sn11  1  0.601072  0.000000  0.752057  1
  Sn  Sn12  1  0.000000  0.601072  0.752057  1
  Sn  Sn13  1  0.601072  0.601072  0.247943  1
  Sn  Sn14  1  0.398928  0.000000  0.247943  1
  Sn  Sn15  1  0.000000  0.398928  0.247943  1
  B  B16  1  0.000000  0.000000  0.000000  1
  B  B17  1  0.000000  0.000000  0.500000  1
