# generated using pymatgen
data_HoTa8MoS16
_symmetry_space_group_name_H-M   'P 1'
_cell_length_a   6.67003400
_cell_length_b   6.67003373
_cell_length_c   13.09280700
_cell_angle_alpha   90.00000000
_cell_angle_beta   90.00000000
_cell_angle_gamma   120.00001125
_symmetry_Int_Tables_number   1
_chemical_formula_structural   HoTa8MoS16
_chemical_formula_sum   'Ho1 Ta8 Mo1 S16'
_cell_volume   504.45150999
_cell_formula_units_Z   1
loop_
 _symmetry_equiv_pos_site_id
 _symmetry_equiv_pos_as_xyz
  1  'x, y, z'
loop_
 _atom_site_type_symbol
 _atom_site_label
 _atom_site_symmetry_multiplicity
 _atom_site_fract_x
 _atom_site_fract_y
 _atom_site_fract_z
 _atom_site_occupancy
  Ho  Ho0  1  0.000000  0.000000  0.000000  1
  Ta  Ta1  1  0.505100  0.494900  0.734537  1
  Ta  Ta2  1  0.010200  0.505100  0.265463  1
  Ta  Ta3  1  0.494900  0.989800  0.265463  1
  Ta  Ta4  1  0.505100  0.010200  0.734537  1
  Ta  Ta5  1  0.989800  0.494900  0.734537  1
  Ta  Ta6  1  0.494900  0.505100  0.265463  1
  Ta  Ta7  1  0.000000  0.000000  0.736038  1
  Ta  Ta8  1  0.000000  0.000000  0.263962  1
  Mo  Mo9  1  0.000000  0.000000  0.500000  1
  S  S10  1  0.832809  0.167191  0.384173  1
  S  S11  1  0.832809  0.665618  0.384173  1
  S  S12  1  0.334382  0.167191  0.384173  1
  S  S13  1  0.661817  0.830909  0.855721  1
  S  S14  1  0.167191  0.334382  0.615827  1
  S  S15  1  0.169091  0.830909  0.855721  1
  S  S16  1  0.169091  0.338183  0.855721  1
  S  S17  1  0.830909  0.169091  0.144279  1
  S  S18  1  0.338183  0.169091  0.144279  1
  S  S19  1  0.665618  0.832809  0.615827  1
  S  S20  1  0.333333  0.666667  0.142106  1
  S  S21  1  0.666667  0.333333  0.612346  1
  S  S22  1  0.666667  0.333333  0.857894  1
  S  S23  1  0.333333  0.666667  0.387654  1
  S  S24  1  0.830909  0.661817  0.144279  1
  S  S25  1  0.167191  0.832809  0.615827  1
