# generated using pymatgen
data_NiPt2PbO7
_symmetry_space_group_name_H-M   'P 1'
_cell_length_a   7.17196604
_cell_length_b   7.17196595
_cell_length_c   7.07454600
_cell_angle_alpha   60.44832840
_cell_angle_beta   60.44832877
_cell_angle_gamma   61.12731054
_symmetry_Int_Tables_number   1
_chemical_formula_structural   NiPt2PbO7
_chemical_formula_sum   'Ni2 Pt4 Pb2 O14'
_cell_volume   261.20668628
_cell_formula_units_Z   2
loop_
 _symmetry_equiv_pos_site_id
 _symmetry_equiv_pos_as_xyz
  1  'x, y, z'
loop_
 _atom_site_type_symbol
 _atom_site_label
 _atom_site_symmetry_multiplicity
 _atom_site_fract_x
 _atom_site_fract_y
 _atom_site_fract_z
 _atom_site_occupancy
  Ni  Ni0  1  0.125000  0.125000  0.625000  1
  Ni  Ni1  1  0.125000  0.125000  0.125000  1
  Pt  Pt2  1  0.625000  0.625000  0.125000  1
  Pt  Pt3  1  0.625000  0.125000  0.625000  1
  Pt  Pt4  1  0.125000  0.625000  0.625000  1
  Pt  Pt5  1  0.625000  0.625000  0.625000  1
  Pb  Pb6  1  0.125000  0.625000  0.125000  1
  Pb  Pb7  1  0.625000  0.125000  0.125000  1
  O  O8  1  0.239629  0.239629  0.260371  1
  O  O9  1  0.010371  0.010371  0.989629  1
  O  O10  1  0.533146  0.962531  0.538536  1
  O  O11  1  0.287469  0.716854  0.284214  1
  O  O12  1  0.536267  0.536267  0.963733  1
  O  O13  1  0.962531  0.533146  0.538536  1
  O  O14  1  0.533146  0.962531  0.965786  1
  O  O15  1  0.968338  0.968338  0.531662  1
  O  O16  1  0.962531  0.533146  0.965786  1
  O  O17  1  0.716854  0.287469  0.284214  1
  O  O18  1  0.287469  0.716854  0.711464  1
  O  O19  1  0.716854  0.287469  0.711464  1
  O  O20  1  0.281662  0.281662  0.718338  1
  O  O21  1  0.713733  0.713733  0.286267  1
