# generated using pymatgen
data_PrU5O16
_symmetry_space_group_name_H-M   'P 1'
_cell_length_a   6.78769884
_cell_length_b   6.81303036
_cell_length_c   8.42330000
_cell_angle_alpha   90.00000000
_cell_angle_beta   90.00000000
_cell_angle_gamma   115.81155883
_symmetry_Int_Tables_number   1
_chemical_formula_structural   PrU5O16
_chemical_formula_sum   'Pr1 U5 O16'
_cell_volume   350.67039094
_cell_formula_units_Z   1
loop_
 _symmetry_equiv_pos_site_id
 _symmetry_equiv_pos_as_xyz
  1  'x, y, z'
loop_
 _atom_site_type_symbol
 _atom_site_label
 _atom_site_symmetry_multiplicity
 _atom_site_fract_x
 _atom_site_fract_y
 _atom_site_fract_z
 _atom_site_occupancy
  Pr  Pr0  1  0.307789  0.684485  0.250000  1
  U  U1  1  0.996250  0.999713  0.250000  1
  U  U2  1  0.317235  0.685702  0.750000  1
  U  U3  1  0.683099  0.318614  0.750000  1
  U  U4  1  0.684395  0.317280  0.250000  1
  U  U5  1  0.999659  0.001632  0.750000  1
  O  O6  1  0.317081  0.687752  0.970945  1
  O  O7  1  0.517342  0.502512  0.750000  1
  O  O8  1  0.999661  0.998767  0.506823  1
  O  O9  1  0.022273  0.316568  0.250000  1
  O  O10  1  0.965993  0.673814  0.750000  1
  O  O11  1  0.314743  0.044185  0.250000  1
  O  O12  1  0.689370  0.310888  0.492457  1
  O  O13  1  0.037817  0.326922  0.750000  1
  O  O14  1  0.682020  0.964242  0.250000  1
  O  O15  1  0.330832  0.046194  0.750000  1
  O  O16  1  0.689370  0.310888  0.007543  1
  O  O17  1  0.317081  0.687752  0.529055  1
  O  O18  1  0.508188  0.473892  0.250000  1
  O  O19  1  0.944563  0.675736  0.250000  1
  O  O20  1  0.999661  0.998767  0.993177  1
  O  O21  1  0.675580  0.973696  0.750000  1
