# generated using pymatgen
data_KEuVSe4
_symmetry_space_group_name_H-M   'P 1'
_cell_length_a   6.92877197
_cell_length_b   7.01107800
_cell_length_c   9.16259057
_cell_angle_alpha   90.00000000
_cell_angle_beta   107.26460950
_cell_angle_gamma   90.00000000
_symmetry_Int_Tables_number   1
_chemical_formula_structural   KEuVSe4
_chemical_formula_sum   'K2 Eu2 V2 Se8'
_cell_volume   425.04742400
_cell_formula_units_Z   2
loop_
 _symmetry_equiv_pos_site_id
 _symmetry_equiv_pos_as_xyz
  1  'x, y, z'
loop_
 _atom_site_type_symbol
 _atom_site_label
 _atom_site_symmetry_multiplicity
 _atom_site_fract_x
 _atom_site_fract_y
 _atom_site_fract_z
 _atom_site_occupancy
  K  K0  1  0.230147  0.750000  0.433305  1
  K  K1  1  0.769852  0.250000  0.566694  1
  Eu  Eu2  1  0.728891  0.250000  0.047170  1
  Eu  Eu3  1  0.271110  0.750000  0.952830  1
  V  V4  1  0.287880  0.250000  0.183009  1
  V  V5  1  0.712118  0.750000  0.816991  1
  Se  Se6  1  0.897271  0.750000  0.068642  1
  Se  Se7  1  0.506445  0.507320  0.229733  1
  Se  Se8  1  0.506445  0.992680  0.229733  1
  Se  Se9  1  0.085522  0.250000  0.340476  1
  Se  Se10  1  0.914477  0.750000  0.659523  1
  Se  Se11  1  0.493555  0.007320  0.770266  1
  Se  Se12  1  0.493555  0.492680  0.770266  1
  Se  Se13  1  0.102728  0.250000  0.931358  1
