# generated using pymatgen
data_Nd4Dy2Al24Os7Pt
_symmetry_space_group_name_H-M   'P 1'
_cell_length_a   8.90219680
_cell_length_b   8.90219718
_cell_length_c   9.61123374
_cell_angle_alpha   89.66771149
_cell_angle_beta   90.33228895
_cell_angle_gamma   119.97786331
_symmetry_Int_Tables_number   1
_chemical_formula_structural   Nd4Dy2Al24Os7Pt
_chemical_formula_sum   'Nd4 Dy2 Al24 Os7 Pt1'
_cell_volume   659.76802328
_cell_formula_units_Z   1
loop_
 _symmetry_equiv_pos_site_id
 _symmetry_equiv_pos_as_xyz
  1  'x, y, z'
loop_
 _atom_site_type_symbol
 _atom_site_label
 _atom_site_symmetry_multiplicity
 _atom_site_fract_x
 _atom_site_fract_y
 _atom_site_fract_z
 _atom_site_occupancy
  Nd  Nd0  1  0.189743  0.383162  0.251002  1
  Nd  Nd1  1  0.810257  0.616838  0.748998  1
  Nd  Nd2  1  0.616838  0.810257  0.251002  1
  Nd  Nd3  1  0.383162  0.189743  0.748998  1
  Dy  Dy4  1  0.195406  0.804594  0.251650  1
  Dy  Dy5  1  0.804594  0.195406  0.748350  1
  Al  Al6  1  0.331109  0.668891  0.016432  1
  Al  Al7  1  0.668891  0.331109  0.983568  1
  Al  Al8  1  0.666593  0.333407  0.513107  1
  Al  Al9  1  0.333407  0.666593  0.486893  1
  Al  Al10  1  0.162032  0.325837  0.576429  1
  Al  Al11  1  0.837968  0.674163  0.423571  1
  Al  Al12  1  0.674163  0.837968  0.576429  1
  Al  Al13  1  0.843337  0.675535  0.076857  1
  Al  Al14  1  0.325837  0.162032  0.423571  1
  Al  Al15  1  0.156663  0.324465  0.923143  1
  Al  Al16  1  0.163610  0.836390  0.572642  1
  Al  Al17  1  0.324465  0.156663  0.076857  1
  Al  Al18  1  0.836390  0.163610  0.427358  1
  Al  Al19  1  0.675535  0.843337  0.923143  1
  Al  Al20  1  0.836556  0.163444  0.072187  1
  Al  Al21  1  0.163444  0.836556  0.927813  1
  Al  Al22  1  0.559798  0.122558  0.249026  1
  Al  Al23  1  0.440202  0.877442  0.750974  1
  Al  Al24  1  0.877442  0.440202  0.249026  1
  Al  Al25  1  0.122558  0.559798  0.750974  1
  Al  Al26  1  0.563085  0.436915  0.252003  1
  Al  Al27  1  0.436915  0.563085  0.747997  1
  Al  Al28  1  0.002519  0.997481  0.250184  1
  Al  Al29  1  0.997481  0.002519  0.749816  1
  Os  Os30  1  0.500000  0.000000  0.000000  1
  Os  Os31  1  0.000000  0.500000  0.000000  1
  Os  Os32  1  0.500000  0.000000  0.500000  1
  Os  Os33  1  0.000000  0.500000  0.500000  1
  Os  Os34  1  0.500000  0.500000  0.500000  1
  Os  Os35  1  0.000000  0.000000  0.000000  1
  Os  Os36  1  0.000000  0.000000  0.500000  1
  Pt  Pt37  1  0.500000  0.500000  0.000000  1
