# generated using pymatgen
data_Nd4Al(CdAu5)2
_symmetry_space_group_name_H-M   'P 1'
_cell_length_a   8.70935800
_cell_length_b   8.70935848
_cell_length_c   10.47569800
_cell_angle_alpha   90.00000000
_cell_angle_beta   90.00000000
_cell_angle_gamma   107.74018842
_symmetry_Int_Tables_number   1
_chemical_formula_structural   Nd4Al(CdAu5)2
_chemical_formula_sum   'Nd8 Al2 Cd4 Au20'
_cell_volume   756.82688261
_cell_formula_units_Z   2
loop_
 _symmetry_equiv_pos_site_id
 _symmetry_equiv_pos_as_xyz
  1  'x, y, z'
loop_
 _atom_site_type_symbol
 _atom_site_label
 _atom_site_symmetry_multiplicity
 _atom_site_fract_x
 _atom_site_fract_y
 _atom_site_fract_z
 _atom_site_occupancy
  Nd  Nd0  1  0.702190  0.297810  0.000000  1
  Nd  Nd1  1  0.202190  0.797810  0.500000  1
  Nd  Nd2  1  0.799653  0.799653  0.296153  1
  Nd  Nd3  1  0.299653  0.299653  0.203847  1
  Nd  Nd4  1  0.797810  0.202190  0.500000  1
  Nd  Nd5  1  0.297810  0.702190  0.000000  1
  Nd  Nd6  1  0.700347  0.700347  0.796153  1
  Nd  Nd7  1  0.200347  0.200347  0.703847  1
  Al  Al8  1  0.000000  0.000000  0.000000  1
  Al  Al9  1  0.500000  0.500000  0.500000  1
  Cd  Cd10  1  0.517969  0.017969  0.250000  1
  Cd  Cd11  1  0.982031  0.482031  0.750000  1
  Cd  Cd12  1  0.017969  0.517969  0.250000  1
  Cd  Cd13  1  0.482031  0.982031  0.750000  1
  Au  Au14  1  0.176860  0.431479  0.477075  1
  Au  Au15  1  0.903817  0.903817  0.593118  1
  Au  Au16  1  0.568521  0.823140  0.522925  1
  Au  Au17  1  0.892850  0.164490  0.207975  1
  Au  Au18  1  0.392850  0.664490  0.292025  1
  Au  Au19  1  0.664490  0.392850  0.292025  1
  Au  Au20  1  0.403817  0.403817  0.906882  1
  Au  Au21  1  0.931479  0.676860  0.022925  1
  Au  Au22  1  0.335510  0.607150  0.707975  1
  Au  Au23  1  0.323140  0.068521  0.977075  1
  Au  Au24  1  0.596183  0.596183  0.093118  1
  Au  Au25  1  0.676860  0.931479  0.022925  1
  Au  Au26  1  0.096183  0.096183  0.406882  1
  Au  Au27  1  0.607150  0.335510  0.707975  1
  Au  Au28  1  0.107150  0.835510  0.792025  1
  Au  Au29  1  0.068521  0.323140  0.977075  1
  Au  Au30  1  0.823140  0.568521  0.522925  1
  Au  Au31  1  0.164490  0.892850  0.207975  1
  Au  Au32  1  0.431479  0.176860  0.477075  1
  Au  Au33  1  0.835510  0.107150  0.792025  1
