# generated using pymatgen
data_Rb2Tc7W5Se14
_symmetry_space_group_name_H-M   'P 1'
_cell_length_a   9.89742000
_cell_length_b   9.90738974
_cell_length_c   9.86737638
_cell_angle_alpha   59.92948530
_cell_angle_beta   60.68195641
_cell_angle_gamma   60.34652905
_symmetry_Int_Tables_number   1
_chemical_formula_structural   Rb2Tc7W5Se14
_chemical_formula_sum   'Rb2 Tc7 W5 Se14'
_cell_volume   689.06039817
_cell_formula_units_Z   1
loop_
 _symmetry_equiv_pos_site_id
 _symmetry_equiv_pos_as_xyz
  1  'x, y, z'
loop_
 _atom_site_type_symbol
 _atom_site_label
 _atom_site_symmetry_multiplicity
 _atom_site_fract_x
 _atom_site_fract_y
 _atom_site_fract_z
 _atom_site_occupancy
  Rb  Rb0  1  0.379198  0.374204  0.377656  1
  Rb  Rb1  1  0.620047  0.621616  0.627089  1
  Tc  Tc2  1  0.303878  0.123758  0.991715  1
  Tc  Tc3  1  0.195751  0.884769  0.062170  1
  Tc  Tc4  1  0.886176  0.058875  0.195579  1
  Tc  Tc5  1  0.937811  0.801535  0.116376  1
  Tc  Tc6  1  0.801621  0.116141  0.938864  1
  Tc  Tc7  1  0.116403  0.939043  0.803938  1
  Tc  Tc8  1  0.991133  0.302668  0.124660  1
  W  W9  1  0.878257  0.006250  0.700103  1
  W  W10  1  0.124481  0.994748  0.297044  1
  W  W11  1  0.003850  0.702252  0.878369  1
  W  W12  1  0.701897  0.878215  0.001984  1
  W  W13  1  0.059838  0.189998  0.892313  1
  Se  Se14  1  0.981413  0.242373  0.642920  1
  Se  Se15  1  0.238359  0.643752  0.984437  1
  Se  Se16  1  0.644191  0.981458  0.238626  1
  Se  Se17  1  0.022498  0.761101  0.358400  1
  Se  Se18  1  0.758382  0.356068  0.023895  1
  Se  Se19  1  0.359399  0.016046  0.764672  1
  Se  Se20  1  0.169542  0.415398  0.814808  1
  Se  Se21  1  0.417395  0.811692  0.170025  1
  Se  Se22  1  0.810795  0.173293  0.412066  1
  Se  Se23  1  0.826290  0.581118  0.190253  1
  Se  Se24  1  0.582139  0.192752  0.821729  1
  Se  Se25  1  0.189757  0.829254  0.581063  1
  Se  Se26  1  0.776913  0.777892  0.772582  1
  Se  Se27  1  0.222581  0.223730  0.216665  1
