# generated using pymatgen
data_Nd4PdPt(SeO3)8
_symmetry_space_group_name_H-M   'P 1'
_cell_length_a   7.10062134
_cell_length_b   8.30572185
_cell_length_c   11.02810669
_cell_angle_alpha   70.90198085
_cell_angle_beta   89.98355348
_cell_angle_gamma   90.02415500
_symmetry_Int_Tables_number   1
_chemical_formula_structural   Nd4PdPt(SeO3)8
_chemical_formula_sum   'Nd4 Pd1 Pt1 Se8 O24'
_cell_volume   614.59375239
_cell_formula_units_Z   1
loop_
 _symmetry_equiv_pos_site_id
 _symmetry_equiv_pos_as_xyz
  1  'x, y, z'
loop_
 _atom_site_type_symbol
 _atom_site_label
 _atom_site_symmetry_multiplicity
 _atom_site_fract_x
 _atom_site_fract_y
 _atom_site_fract_z
 _atom_site_occupancy
  Nd  Nd0  1  0.661478  0.761320  0.083974  1
  Nd  Nd1  1  0.161584  0.738496  0.915899  1
  Nd  Nd2  1  0.338522  0.238680  0.916026  1
  Nd  Nd3  1  0.838416  0.261504  0.084101  1
  Pd  Pd4  1  0.000000  0.000000  0.500000  1
  Pt  Pt5  1  0.500000  0.500000  0.500000  1
  Se  Se6  1  0.677518  0.630230  0.821221  1
  Se  Se7  1  0.177535  0.869543  0.178778  1
  Se  Se8  1  0.322482  0.369770  0.178779  1
  Se  Se9  1  0.822465  0.130457  0.821222  1
  Se  Se10  1  0.327764  0.121280  0.634409  1
  Se  Se11  1  0.829635  0.378132  0.365260  1
  Se  Se12  1  0.672236  0.878720  0.365591  1
  Se  Se13  1  0.170365  0.621868  0.634740  1
  O  O14  1  0.398154  0.314927  0.656756  1
  O  O15  1  0.895973  0.185219  0.342826  1
  O  O16  1  0.601846  0.685073  0.343244  1
  O  O17  1  0.104027  0.814781  0.657174  1
  O  O18  1  0.613934  0.423682  0.847566  1
  O  O19  1  0.114026  0.075995  0.152933  1
  O  O20  1  0.386066  0.576318  0.152434  1
  O  O21  1  0.885974  0.924005  0.847067  1
  O  O22  1  0.841613  0.587738  0.948068  1
  O  O23  1  0.341640  0.912307  0.051818  1
  O  O24  1  0.158387  0.412262  0.051932  1
  O  O25  1  0.658360  0.087693  0.948182  1
  O  O26  1  0.105228  0.181151  0.569079  1
  O  O27  1  0.605288  0.318564  0.431037  1
  O  O28  1  0.894772  0.818849  0.430921  1
  O  O29  1  0.394712  0.681436  0.568963  1
  O  O30  1  0.505939  0.715520  0.894759  1
  O  O31  1  0.005856  0.784540  0.105140  1
  O  O32  1  0.494061  0.284480  0.105241  1
  O  O33  1  0.994144  0.215460  0.894860  1
  O  O34  1  0.286750  0.029001  0.795928  1
  O  O35  1  0.786506  0.471778  0.204064  1
  O  O36  1  0.713250  0.970999  0.204072  1
  O  O37  1  0.213494  0.528222  0.795936  1
