# generated using pymatgen
data_Ce5Tc2Hg
_symmetry_space_group_name_H-M   'P 1'
_cell_length_a   7.80591476
_cell_length_b   7.81025633
_cell_length_c   8.63370156
_cell_angle_alpha   117.06901479
_cell_angle_beta   116.87596991
_cell_angle_gamma   90.00001634
_symmetry_Int_Tables_number   1
_chemical_formula_structural   Ce5Tc2Hg
_chemical_formula_sum   'Ce10 Tc4 Hg2'
_cell_volume   403.81354593
_cell_formula_units_Z   2
loop_
 _symmetry_equiv_pos_site_id
 _symmetry_equiv_pos_as_xyz
  1  'x, y, z'
loop_
 _atom_site_type_symbol
 _atom_site_label
 _atom_site_symmetry_multiplicity
 _atom_site_fract_x
 _atom_site_fract_y
 _atom_site_fract_z
 _atom_site_occupancy
  Ce  Ce0  1  0.500000  0.500000  0.000000  1
  Ce  Ce1  1  0.000000  0.000000  0.000000  1
  Ce  Ce2  1  0.977006  0.793671  0.271168  1
  Ce  Ce3  1  0.293107  0.476675  0.270362  1
  Ce  Ce4  1  0.794162  0.293671  0.271168  1
  Ce  Ce5  1  0.477254  0.976675  0.270362  1
  Ce  Ce6  1  0.022994  0.206329  0.728832  1
  Ce  Ce7  1  0.706893  0.523325  0.729638  1
  Ce  Ce8  1  0.205838  0.706329  0.728832  1
  Ce  Ce9  1  0.522746  0.023325  0.729638  1
  Tc  Tc10  1  0.639363  0.860730  0.000103  1
  Tc  Tc11  1  0.360637  0.139270  0.999897  1
  Tc  Tc12  1  0.860741  0.360730  0.000103  1
  Tc  Tc13  1  0.139259  0.639270  0.999897  1
  Hg  Hg14  1  0.750232  0.750000  0.500000  1
  Hg  Hg15  1  0.249768  0.250000  0.500000  1
