# generated using pymatgen
data_Ti2AlInPt12
_symmetry_space_group_name_H-M   'P 1'
_cell_length_a   5.61023155
_cell_length_b   5.61023219
_cell_length_c   7.94795400
_cell_angle_alpha   90.00000000
_cell_angle_beta   90.00000000
_cell_angle_gamma   89.98460941
_symmetry_Int_Tables_number   1
_chemical_formula_structural   Ti2AlInPt12
_chemical_formula_sum   'Ti2 Al1 In1 Pt12'
_cell_volume   250.15947170
_cell_formula_units_Z   1
loop_
 _symmetry_equiv_pos_site_id
 _symmetry_equiv_pos_as_xyz
  1  'x, y, z'
loop_
 _atom_site_type_symbol
 _atom_site_label
 _atom_site_symmetry_multiplicity
 _atom_site_fract_x
 _atom_site_fract_y
 _atom_site_fract_z
 _atom_site_occupancy
  Ti  Ti0  1  0.500000  0.000000  0.250039  1
  Ti  Ti1  1  0.000000  0.500000  0.250122  1
  Al  Al2  1  0.000000  0.500000  0.749831  1
  In  In3  1  0.500000  0.000000  0.750086  1
  Pt  Pt4  1  0.244234  0.255766  0.006741  1
  Pt  Pt5  1  0.750205  0.250205  0.007908  1
  Pt  Pt6  1  0.249795  0.749795  0.007908  1
  Pt  Pt7  1  0.755766  0.744234  0.006741  1
  Pt  Pt8  1  0.000000  0.000000  0.249971  1
  Pt  Pt9  1  0.500000  0.500000  0.249971  1
  Pt  Pt10  1  0.753376  0.253376  0.492649  1
  Pt  Pt11  1  0.247501  0.252499  0.492675  1
  Pt  Pt12  1  0.752499  0.747501  0.492675  1
  Pt  Pt13  1  0.246624  0.746624  0.492649  1
  Pt  Pt14  1  0.000000  0.000000  0.750018  1
  Pt  Pt15  1  0.500000  0.500000  0.750018  1
