# generated using pymatgen
data_Dy5YSc2O12
_symmetry_space_group_name_H-M   'P 1'
_cell_length_a   6.61262430
_cell_length_b   6.61163165
_cell_length_c   6.61237401
_cell_angle_alpha   92.01215267
_cell_angle_beta   92.01994588
_cell_angle_gamma   92.02652734
_symmetry_Int_Tables_number   1
_chemical_formula_structural   Dy5YSc2O12
_chemical_formula_sum   'Dy5 Y1 Sc2 O12'
_cell_volume   288.54283745
_cell_formula_units_Z   1
loop_
 _symmetry_equiv_pos_site_id
 _symmetry_equiv_pos_as_xyz
  1  'x, y, z'
loop_
 _atom_site_type_symbol
 _atom_site_label
 _atom_site_symmetry_multiplicity
 _atom_site_fract_x
 _atom_site_fract_y
 _atom_site_fract_z
 _atom_site_occupancy
  Dy  Dy0  1  0.931778  0.439343  0.747057  1
  Dy  Dy1  1  0.439389  0.747083  0.931765  1
  Dy  Dy2  1  0.252901  0.068198  0.560654  1
  Dy  Dy3  1  0.068200  0.560625  0.252929  1
  Dy  Dy4  1  0.560644  0.252923  0.068198  1
  Y  Y5  1  0.747052  0.931838  0.439303  1
  Sc  Sc6  1  0.499972  0.499983  0.500035  1
  Sc  Sc7  1  0.000011  0.000022  0.999975  1
  O  O8  1  0.593104  0.463296  0.806343  1
  O  O9  1  0.462711  0.806153  0.593395  1
  O  O10  1  0.806522  0.592463  0.463332  1
  O  O11  1  0.406879  0.536688  0.193635  1
  O  O12  1  0.536353  0.194152  0.406847  1
  O  O13  1  0.193639  0.406878  0.536694  1
  O  O14  1  0.069711  0.913975  0.306188  1
  O  O15  1  0.913968  0.306386  0.069180  1
  O  O16  1  0.693444  0.930726  0.085355  1
  O  O17  1  0.086055  0.693626  0.930792  1
  O  O18  1  0.931292  0.086453  0.694374  1
  O  O19  1  0.306375  0.069188  0.913948  1
