# generated using pymatgen
data_Mn3P6IN12
_symmetry_space_group_name_H-M   'P 1'
_cell_length_a   7.32709044
_cell_length_b   7.32709044
_cell_length_c   7.32708964
_cell_angle_alpha   109.66610109
_cell_angle_beta   109.66609850
_cell_angle_gamma   109.66607690
_symmetry_Int_Tables_number   1
_chemical_formula_structural   Mn3P6IN12
_chemical_formula_sum   'Mn3 P6 I1 N12'
_cell_volume   300.60713772
_cell_formula_units_Z   1
loop_
 _symmetry_equiv_pos_site_id
 _symmetry_equiv_pos_as_xyz
  1  'x, y, z'
loop_
 _atom_site_type_symbol
 _atom_site_label
 _atom_site_symmetry_multiplicity
 _atom_site_fract_x
 _atom_site_fract_y
 _atom_site_fract_z
 _atom_site_occupancy
  Mn  Mn0  1  0.002606  0.381559  0.002606  1
  Mn  Mn1  1  0.002606  0.002606  0.381559  1
  Mn  Mn2  1  0.381559  0.002606  0.002606  1
  P  P3  1  0.499310  0.255402  0.748029  1
  P  P4  1  0.255402  0.748029  0.499310  1
  P  P5  1  0.748029  0.499310  0.255402  1
  P  P6  1  0.748029  0.255402  0.499310  1
  P  P7  1  0.499310  0.748029  0.255402  1
  P  P8  1  0.255402  0.499310  0.748029  1
  I  I9  1  0.992645  0.992645  0.992645  1
  N  N10  1  0.426743  0.708284  0.426743  1
  N  N11  1  0.708284  0.426743  0.426743  1
  N  N12  1  0.426743  0.426743  0.708284  1
  N  N13  1  0.721127  0.284218  0.721127  1
  N  N14  1  0.997875  0.565444  0.280108  1
  N  N15  1  0.280108  0.565444  0.997875  1
  N  N16  1  0.280108  0.997875  0.565444  1
  N  N17  1  0.997875  0.280108  0.565444  1
  N  N18  1  0.721127  0.721127  0.284218  1
  N  N19  1  0.565444  0.997875  0.280108  1
  N  N20  1  0.284218  0.721127  0.721127  1
  N  N21  1  0.565444  0.280108  0.997875  1
