# generated using pymatgen
data_Dy4Y6Si5Pb
_symmetry_space_group_name_H-M   'P 1'
_cell_length_a   8.54629400
_cell_length_b   8.57810915
_cell_length_c   6.43021100
_cell_angle_alpha   90.00000000
_cell_angle_beta   90.00000000
_cell_angle_gamma   119.87738700
_symmetry_Int_Tables_number   1
_chemical_formula_structural   Dy4Y6Si5Pb
_chemical_formula_sum   'Dy4 Y6 Si5 Pb1'
_cell_volume   408.75258429
_cell_formula_units_Z   1
loop_
 _symmetry_equiv_pos_site_id
 _symmetry_equiv_pos_as_xyz
  1  'x, y, z'
loop_
 _atom_site_type_symbol
 _atom_site_label
 _atom_site_symmetry_multiplicity
 _atom_site_fract_x
 _atom_site_fract_y
 _atom_site_fract_z
 _atom_site_occupancy
  Dy  Dy0  1  0.674655  0.343283  0.004015  1
  Dy  Dy1  1  0.331371  0.656717  0.495985  1
  Dy  Dy2  1  0.331371  0.656717  0.004015  1
  Dy  Dy3  1  0.674655  0.343283  0.495985  1
  Y  Y4  1  0.987607  0.747305  0.750000  1
  Y  Y5  1  0.998761  0.242844  0.250000  1
  Y  Y6  1  0.755917  0.757156  0.250000  1
  Y  Y7  1  0.766311  0.000000  0.750000  1
  Y  Y8  1  0.240302  0.252695  0.750000  1
  Y  Y9  1  0.240624  0.000000  0.250000  1
  Si  Si10  1  0.393633  0.392244  0.250000  1
  Si  Si11  1  0.001389  0.607756  0.250000  1
  Si  Si12  1  0.998602  0.394375  0.750000  1
  Si  Si13  1  0.604227  0.605625  0.750000  1
  Si  Si14  1  0.606099  0.000000  0.250000  1
  Pb  Pb15  1  0.394477  0.000000  0.750000  1
