# generated using pymatgen
data_Dy3Y17(Ir3Ru)3
_symmetry_space_group_name_H-M   'P 1'
_cell_length_a   10.87642200
_cell_length_b   10.87661600
_cell_length_c   6.43478100
_cell_angle_alpha   90.00000000
_cell_angle_beta   90.00000000
_cell_angle_gamma   90.00240214
_symmetry_Int_Tables_number   1
_chemical_formula_structural   Dy3Y17(Ir3Ru)3
_chemical_formula_sum   'Dy3 Y17 Ir9 Ru3'
_cell_volume   761.22600506
_cell_formula_units_Z   1
loop_
 _symmetry_equiv_pos_site_id
 _symmetry_equiv_pos_as_xyz
  1  'x, y, z'
loop_
 _atom_site_type_symbol
 _atom_site_label
 _atom_site_symmetry_multiplicity
 _atom_site_fract_x
 _atom_site_fract_y
 _atom_site_fract_z
 _atom_site_occupancy
  Dy  Dy0  1  0.000000  0.000000  0.999457  1
  Dy  Dy1  1  0.500000  0.500000  0.999466  1
  Dy  Dy2  1  0.500000  0.500000  0.499431  1
  Y  Y3  1  0.293757  0.086893  0.378624  1
  Y  Y4  1  0.293699  0.913477  0.878840  1
  Y  Y5  1  0.706301  0.086523  0.878840  1
  Y  Y6  1  0.706243  0.913107  0.378624  1
  Y  Y7  1  0.586482  0.793727  0.878931  1
  Y  Y8  1  0.586838  0.206285  0.378674  1
  Y  Y9  1  0.413162  0.793715  0.378674  1
  Y  Y10  1  0.413518  0.206273  0.878931  1
  Y  Y11  1  0.207906  0.412466  0.622795  1
  Y  Y12  1  0.207607  0.587468  0.119987  1
  Y  Y13  1  0.792393  0.412532  0.119987  1
  Y  Y14  1  0.792094  0.587534  0.622795  1
  Y  Y15  1  0.912491  0.707633  0.120063  1
  Y  Y16  1  0.912417  0.292150  0.622821  1
  Y  Y17  1  0.087583  0.707850  0.622821  1
  Y  Y18  1  0.087509  0.292367  0.120063  1
  Y  Y19  1  0.000000  0.000000  0.499431  1
  Ir  Ir20  1  0.847993  0.152687  0.249261  1
  Ir  Ir21  1  0.847636  0.847412  0.750342  1
  Ir  Ir22  1  0.152364  0.152588  0.750342  1
  Ir  Ir23  1  0.152007  0.847313  0.249261  1
  Ir  Ir24  1  0.652230  0.348021  0.749726  1
  Ir  Ir25  1  0.652292  0.651649  0.249881  1
  Ir  Ir26  1  0.347708  0.348351  0.249881  1
  Ir  Ir27  1  0.347770  0.651979  0.749726  1
  Ir  Ir28  1  0.000000  0.500000  0.376857  1
  Ru  Ru29  1  0.500000  0.000000  0.124570  1
  Ru  Ru30  1  0.500000  0.000000  0.624509  1
  Ru  Ru31  1  0.000000  0.500000  0.876390  1
