# generated using pymatgen
data_NpH6Ir
_symmetry_space_group_name_H-M   'P 1'
_cell_length_a   4.69832282
_cell_length_b   4.69832334
_cell_length_c   4.77866152
_cell_angle_alpha   57.18668256
_cell_angle_beta   57.18669586
_cell_angle_gamma   57.76536327
_symmetry_Int_Tables_number   1
_chemical_formula_structural   NpH6Ir
_chemical_formula_sum   'Np1 H6 Ir1'
_cell_volume   70.08603732
_cell_formula_units_Z   1
loop_
 _symmetry_equiv_pos_site_id
 _symmetry_equiv_pos_as_xyz
  1  'x, y, z'
loop_
 _atom_site_type_symbol
 _atom_site_label
 _atom_site_symmetry_multiplicity
 _atom_site_fract_x
 _atom_site_fract_y
 _atom_site_fract_z
 _atom_site_occupancy
  Np  Np0  1  0.500000  0.500000  0.500000  1
  H  H1  1  0.564781  0.097228  0.101529  1
  H  H2  1  0.097228  0.564781  0.101529  1
  H  H3  1  0.903194  0.903194  0.428836  1
  H  H4  1  0.096806  0.096806  0.571163  1
  H  H5  1  0.902772  0.435218  0.898471  1
  H  H6  1  0.435218  0.902772  0.898471  1
  Ir  Ir7  1  0.000000  0.000000  0.000000  1
