# generated using pymatgen
data_Hf3AsN
_symmetry_space_group_name_H-M   'P 1'
_cell_length_a   5.83292356
_cell_length_b   5.83292405
_cell_length_c   8.47196000
_cell_angle_alpha   90.00000000
_cell_angle_beta   90.00000000
_cell_angle_gamma   145.83148977
_symmetry_Int_Tables_number   1
_chemical_formula_structural   Hf3AsN
_chemical_formula_sum   'Hf6 As2 N2'
_cell_volume   161.88470531
_cell_formula_units_Z   2
loop_
 _symmetry_equiv_pos_site_id
 _symmetry_equiv_pos_as_xyz
  1  'x, y, z'
loop_
 _atom_site_type_symbol
 _atom_site_label
 _atom_site_symmetry_multiplicity
 _atom_site_fract_x
 _atom_site_fract_y
 _atom_site_fract_z
 _atom_site_occupancy
  Hf  Hf0  1  0.632143  0.367857  0.945211  1
  Hf  Hf1  1  0.367857  0.632143  0.445211  1
  Hf  Hf2  1  0.367857  0.632143  0.054789  1
  Hf  Hf3  1  0.632143  0.367857  0.554789  1
  Hf  Hf4  1  0.943493  0.056507  0.750000  1
  Hf  Hf5  1  0.056507  0.943493  0.250000  1
  As  As6  1  0.256966  0.743034  0.750000  1
  As  As7  1  0.743034  0.256966  0.250000  1
  N  N8  1  0.000000  0.000000  0.000000  1
  N  N9  1  0.000000  0.000000  0.500000  1
