# generated using pymatgen
data_Y6InFeCu
_symmetry_space_group_name_H-M   'P 1'
_cell_length_a   8.43086575
_cell_length_b   8.43110069
_cell_length_c   8.43086566
_cell_angle_alpha   111.51889816
_cell_angle_beta   109.09019303
_cell_angle_gamma   107.82537829
_symmetry_Int_Tables_number   1
_chemical_formula_structural   Y6InFeCu
_chemical_formula_sum   'Y12 In2 Fe2 Cu2'
_cell_volume   460.83327418
_cell_formula_units_Z   2
loop_
 _symmetry_equiv_pos_site_id
 _symmetry_equiv_pos_as_xyz
  1  'x, y, z'
loop_
 _atom_site_type_symbol
 _atom_site_label
 _atom_site_symmetry_multiplicity
 _atom_site_fract_x
 _atom_site_fract_y
 _atom_site_fract_z
 _atom_site_occupancy
  Y  Y0  1  0.446599  0.239749  0.206849  1
  Y  Y1  1  0.553401  0.760251  0.793151  1
  Y  Y2  1  0.032900  0.239749  0.793151  1
  Y  Y3  1  0.967100  0.760251  0.206849  1
  Y  Y4  1  0.183020  0.287565  0.470587  1
  Y  Y5  1  0.816980  0.712435  0.529413  1
  Y  Y6  1  0.183023  0.712435  0.895456  1
  Y  Y7  1  0.816977  0.287565  0.104544  1
  Y  Y8  1  0.311384  0.612379  0.300997  1
  Y  Y9  1  0.688616  0.387621  0.699003  1
  Y  Y10  1  0.311384  0.010380  0.698996  1
  Y  Y11  1  0.688616  0.989620  0.301004  1
  In  In12  1  0.500000  0.500000  0.000000  1
  In  In13  1  0.000000  0.000000  0.000000  1
  Fe  Fe14  1  0.108750  0.608742  0.499992  1
  Fe  Fe15  1  0.891250  0.391258  0.500008  1
  Cu  Cu16  1  0.363041  0.000000  0.363041  1
  Cu  Cu17  1  0.636959  0.000000  0.636959  1
