# generated using pymatgen
data_YbEu7DyPt6
_symmetry_space_group_name_H-M   'P 1'
_cell_length_a   7.79211780
_cell_length_b   7.79211809
_cell_length_c   7.79211865
_cell_angle_alpha   69.66657770
_cell_angle_beta   69.66657907
_cell_angle_gamma   69.66658134
_symmetry_Int_Tables_number   1
_chemical_formula_structural   YbEu7DyPt6
_chemical_formula_sum   'Yb1 Eu7 Dy1 Pt6'
_cell_volume   401.91948024
_cell_formula_units_Z   1
loop_
 _symmetry_equiv_pos_site_id
 _symmetry_equiv_pos_as_xyz
  1  'x, y, z'
loop_
 _atom_site_type_symbol
 _atom_site_label
 _atom_site_symmetry_multiplicity
 _atom_site_fract_x
 _atom_site_fract_y
 _atom_site_fract_z
 _atom_site_occupancy
  Yb  Yb0  1  0.001296  0.001296  0.001296  1
  Eu  Eu1  1  0.197545  0.197545  0.197545  1
  Eu  Eu2  1  0.331910  0.604762  0.846390  1
  Eu  Eu3  1  0.846390  0.331910  0.604762  1
  Eu  Eu4  1  0.604762  0.846390  0.331910  1
  Eu  Eu5  1  0.668380  0.395628  0.152356  1
  Eu  Eu6  1  0.152356  0.668380  0.395628  1
  Eu  Eu7  1  0.395628  0.152356  0.668380  1
  Dy  Dy8  1  0.806484  0.806484  0.806484  1
  Pt  Pt9  1  0.151995  0.953217  0.599046  1
  Pt  Pt10  1  0.599046  0.151995  0.953217  1
  Pt  Pt11  1  0.953217  0.599046  0.151995  1
  Pt  Pt12  1  0.834103  0.037167  0.419721  1
  Pt  Pt13  1  0.419721  0.834103  0.037167  1
  Pt  Pt14  1  0.037167  0.419721  0.834103  1
