# generated using pymatgen
data_NbTeI2Br
_symmetry_space_group_name_H-M   'P 1'
_cell_length_a   7.81693000
_cell_length_b   7.29198618
_cell_length_c   13.44645066
_cell_angle_alpha   81.91708358
_cell_angle_beta   90.00000000
_cell_angle_gamma   90.00000000
_symmetry_Int_Tables_number   1
_chemical_formula_structural   NbTeI2Br
_chemical_formula_sum   'Nb4 Te4 I8 Br4'
_cell_volume   758.84609687
_cell_formula_units_Z   4
loop_
 _symmetry_equiv_pos_site_id
 _symmetry_equiv_pos_as_xyz
  1  'x, y, z'
loop_
 _atom_site_type_symbol
 _atom_site_label
 _atom_site_symmetry_multiplicity
 _atom_site_fract_x
 _atom_site_fract_y
 _atom_site_fract_z
 _atom_site_occupancy
  Nb  Nb0  1  0.359262  0.066496  0.346693  1
  Nb  Nb1  1  0.359262  0.933504  0.153307  1
  Nb  Nb2  1  0.640738  0.933504  0.653307  1
  Nb  Nb3  1  0.640738  0.066496  0.846693  1
  Te  Te4  1  0.097928  0.825335  0.302298  1
  Te  Te5  1  0.097928  0.174665  0.197702  1
  Te  Te6  1  0.902072  0.174665  0.697702  1
  Te  Te7  1  0.902072  0.825335  0.802298  1
  I  I8  1  0.678388  0.851661  0.044233  1
  I  I9  1  0.678388  0.148339  0.455767  1
  I  I10  1  0.321612  0.148339  0.955767  1
  I  I11  1  0.321612  0.851661  0.544233  1
  I  I12  1  0.778435  0.366113  0.928454  1
  I  I13  1  0.778435  0.633887  0.571546  1
  I  I14  1  0.221565  0.633887  0.071546  1
  I  I15  1  0.221565  0.366113  0.428454  1
  Br  Br16  1  0.455347  0.229923  0.698383  1
  Br  Br17  1  0.455347  0.770077  0.801617  1
  Br  Br18  1  0.544653  0.770077  0.301617  1
  Br  Br19  1  0.544653  0.229923  0.198383  1
