# generated using pymatgen
data_Pr4Tm6Si7Ag
_symmetry_space_group_name_H-M   'P 1'
_cell_length_a   7.56323704
_cell_length_b   7.75224834
_cell_length_c   14.82140100
_cell_angle_alpha   90.00000000
_cell_angle_beta   90.00000000
_cell_angle_gamma   90.48175860
_symmetry_Int_Tables_number   1
_chemical_formula_structural   Pr4Tm6Si7Ag
_chemical_formula_sum   'Pr8 Tm12 Si14 Ag2'
_cell_volume   868.97902424
_cell_formula_units_Z   2
loop_
 _symmetry_equiv_pos_site_id
 _symmetry_equiv_pos_as_xyz
  1  'x, y, z'
loop_
 _atom_site_type_symbol
 _atom_site_label
 _atom_site_symmetry_multiplicity
 _atom_site_fract_x
 _atom_site_fract_y
 _atom_site_fract_z
 _atom_site_occupancy
  Pr  Pr0  1  0.017780  0.173543  0.400499  1
  Pr  Pr1  1  0.522229  0.322759  0.400025  1
  Pr  Pr2  1  0.477771  0.677241  0.900025  1
  Pr  Pr3  1  0.484235  0.678448  0.600305  1
  Pr  Pr4  1  0.978475  0.828919  0.598893  1
  Pr  Pr5  1  0.982220  0.826457  0.900499  1
  Pr  Pr6  1  0.515765  0.321552  0.100305  1
  Pr  Pr7  1  0.021525  0.171081  0.098893  1
  Tm  Tm8  1  0.329977  0.173824  0.624638  1
  Tm  Tm9  1  0.675303  0.822692  0.376487  1
  Tm  Tm10  1  0.656682  0.992694  0.750410  1
  Tm  Tm11  1  0.174553  0.676350  0.375272  1
  Tm  Tm12  1  0.825447  0.323650  0.875272  1
  Tm  Tm13  1  0.820166  0.324279  0.622596  1
  Tm  Tm14  1  0.842641  0.493806  0.252403  1
  Tm  Tm15  1  0.343318  0.007306  0.250410  1
  Tm  Tm16  1  0.324697  0.177308  0.876487  1
  Tm  Tm17  1  0.179834  0.675721  0.122596  1
  Tm  Tm18  1  0.670023  0.826176  0.124638  1
  Tm  Tm19  1  0.157359  0.506194  0.752403  1
  Si  Si20  1  0.276010  0.880172  0.749420  1
  Si  Si21  1  0.468660  0.615061  0.250261  1
  Si  Si22  1  0.028234  0.117528  0.750653  1
  Si  Si23  1  0.531340  0.384939  0.750261  1
  Si  Si24  1  0.971766  0.882472  0.250653  1
  Si  Si25  1  0.723990  0.119828  0.249420  1
  Si  Si26  1  0.352945  0.967121  0.038839  1
  Si  Si27  1  0.155110  0.465460  0.957856  1
  Si  Si28  1  0.647055  0.032879  0.538839  1
  Si  Si29  1  0.350977  0.965995  0.460362  1
  Si  Si30  1  0.844890  0.534540  0.457856  1
  Si  Si31  1  0.777094  0.620817  0.750579  1
  Si  Si32  1  0.222906  0.379183  0.250579  1
  Si  Si33  1  0.649023  0.034005  0.960362  1
  Ag  Ag34  1  0.151991  0.465423  0.540503  1
  Ag  Ag35  1  0.848009  0.534577  0.040503  1
