# generated using pymatgen
data_PrSn2P6BrN12
_symmetry_space_group_name_H-M   'P 1'
_cell_length_a   7.48774180
_cell_length_b   7.54589831
_cell_length_c   7.54590023
_cell_angle_alpha   109.10182940
_cell_angle_beta   109.77255503
_cell_angle_gamma   109.77253051
_symmetry_Int_Tables_number   1
_chemical_formula_structural   PrSn2P6BrN12
_chemical_formula_sum   'Pr1 Sn2 P6 Br1 N12'
_cell_volume   327.24997956
_cell_formula_units_Z   1
loop_
 _symmetry_equiv_pos_site_id
 _symmetry_equiv_pos_as_xyz
  1  'x, y, z'
loop_
 _atom_site_type_symbol
 _atom_site_label
 _atom_site_symmetry_multiplicity
 _atom_site_fract_x
 _atom_site_fract_y
 _atom_site_fract_z
 _atom_site_occupancy
  Pr  Pr0  1  0.352450  0.009939  0.009939  1
  Sn  Sn1  1  0.014990  0.356097  0.018437  1
  Sn  Sn2  1  0.014990  0.018437  0.356097  1
  P  P3  1  0.508777  0.267543  0.758178  1
  P  P4  1  0.261514  0.755755  0.508038  1
  P  P5  1  0.754515  0.511325  0.262017  1
  P  P6  1  0.754515  0.262017  0.511325  1
  P  P7  1  0.508777  0.758178  0.267543  1
  P  P8  1  0.261514  0.508038  0.755755  1
  Br  Br9  1  0.897291  0.842983  0.842983  1
  N  N10  1  0.403962  0.699854  0.406685  1
  N  N11  1  0.684391  0.385021  0.385021  1
  N  N12  1  0.403962  0.406685  0.699854  1
  N  N13  1  0.720015  0.304511  0.722395  1
  N  N14  1  0.005267  0.600300  0.301466  1
  N  N15  1  0.301784  0.609213  0.007927  1
  N  N16  1  0.301784  0.007927  0.609213  1
  N  N17  1  0.005267  0.301466  0.600300  1
  N  N18  1  0.720015  0.722395  0.304511  1
  N  N19  1  0.594292  0.007075  0.314103  1
  N  N20  1  0.295634  0.711136  0.711136  1
  N  N21  1  0.594292  0.314103  0.007075  1
