# generated using pymatgen
data_Li4ScSb3Rh8
_symmetry_space_group_name_H-M   'P 1'
_cell_length_a   6.19245900
_cell_length_b   6.16872000
_cell_length_c   6.19251000
_cell_angle_alpha   90.00236383
_cell_angle_beta   89.99900073
_cell_angle_gamma   90.00042644
_symmetry_Int_Tables_number   1
_chemical_formula_structural   Li4ScSb3Rh8
_chemical_formula_sum   'Li4 Sc1 Sb3 Rh8'
_cell_volume   236.55106851
_cell_formula_units_Z   1
loop_
 _symmetry_equiv_pos_site_id
 _symmetry_equiv_pos_as_xyz
  1  'x, y, z'
loop_
 _atom_site_type_symbol
 _atom_site_label
 _atom_site_symmetry_multiplicity
 _atom_site_fract_x
 _atom_site_fract_y
 _atom_site_fract_z
 _atom_site_occupancy
  Li  Li0  1  0.499946  0.750085  0.249924  1
  Li  Li1  1  0.000051  0.249922  0.249931  1
  Li  Li2  1  0.000036  0.750087  0.750072  1
  Li  Li3  1  0.499963  0.249921  0.750071  1
  Sc  Sc4  1  0.499956  0.249936  0.249980  1
  Sb  Sb5  1  0.000005  0.750026  0.250014  1
  Sb  Sb6  1  0.000012  0.250006  0.749997  1
  Sb  Sb7  1  0.500001  0.750023  0.749997  1
  Rh  Rh8  1  0.248586  0.998486  0.998587  1
  Rh  Rh9  1  0.751415  0.998486  0.998593  1
  Rh  Rh10  1  0.751414  0.501518  0.998590  1
  Rh  Rh11  1  0.248611  0.501499  0.998614  1
  Rh  Rh12  1  0.248593  0.501513  0.501411  1
  Rh  Rh13  1  0.248604  0.998491  0.501411  1
  Rh  Rh14  1  0.751403  0.501499  0.501404  1
  Rh  Rh15  1  0.751403  0.998501  0.501405  1
