# generated using pymatgen
data_Pr4TlPd2Rh2Pb
_symmetry_space_group_name_H-M   'P 1'
_cell_length_a   7.90988036
_cell_length_b   7.92089036
_cell_length_c   3.89612900
_cell_angle_alpha   90.00000000
_cell_angle_beta   90.00000000
_cell_angle_gamma   90.03452057
_symmetry_Int_Tables_number   1
_chemical_formula_structural   Pr4TlPd2Rh2Pb
_chemical_formula_sum   'Pr4 Tl1 Pd2 Rh2 Pb1'
_cell_volume   244.10527560
_cell_formula_units_Z   1
loop_
 _symmetry_equiv_pos_site_id
 _symmetry_equiv_pos_as_xyz
  1  'x, y, z'
loop_
 _atom_site_type_symbol
 _atom_site_label
 _atom_site_symmetry_multiplicity
 _atom_site_fract_x
 _atom_site_fract_y
 _atom_site_fract_z
 _atom_site_occupancy
  Pr  Pr0  1  0.338587  0.823874  0.500000  1
  Pr  Pr1  1  0.682923  0.175939  0.500000  1
  Pr  Pr2  1  0.815751  0.674376  0.500000  1
  Pr  Pr3  1  0.162693  0.324487  0.500000  1
  Tl  Tl4  1  0.500508  0.499247  0.000000  1
  Pd  Pd5  1  0.376845  0.128740  0.000000  1
  Pd  Pd6  1  0.123948  0.627760  0.000000  1
  Rh  Rh7  1  0.875907  0.373342  0.000000  1
  Rh  Rh8  1  0.624024  0.873138  0.000000  1
  Pb  Pb9  1  0.998813  0.999096  0.000000  1
