# generated using pymatgen
data_Dy10InGaSb4
_symmetry_space_group_name_H-M   'P 1'
_cell_length_a   6.43619000
_cell_length_b   8.92857308
_cell_length_c   8.93258261
_cell_angle_alpha   119.98516308
_cell_angle_beta   90.00005230
_cell_angle_gamma   89.99989676
_symmetry_Int_Tables_number   1
_chemical_formula_structural   Dy10InGaSb4
_chemical_formula_sum   'Dy10 In1 Ga1 Sb4'
_cell_volume   444.61437249
_cell_formula_units_Z   1
loop_
 _symmetry_equiv_pos_site_id
 _symmetry_equiv_pos_as_xyz
  1  'x, y, z'
loop_
 _atom_site_type_symbol
 _atom_site_label
 _atom_site_symmetry_multiplicity
 _atom_site_fract_x
 _atom_site_fract_y
 _atom_site_fract_z
 _atom_site_occupancy
  Dy  Dy0  1  0.502333  0.340478  0.676418  1
  Dy  Dy1  1  0.502333  0.664060  0.323582  1
  Dy  Dy2  1  0.997670  0.664060  0.323583  1
  Dy  Dy3  1  0.997670  0.340478  0.676417  1
  Dy  Dy4  1  0.749999  0.245266  0.000000  1
  Dy  Dy5  1  0.750001  0.753504  0.766188  1
  Dy  Dy6  1  0.750001  0.987317  0.233812  1
  Dy  Dy7  1  0.249999  0.759244  0.000000  1
  Dy  Dy8  1  0.250003  0.243738  0.239959  1
  Dy  Dy9  1  0.250003  0.003779  0.760041  1
  In  In10  1  0.249983  0.395458  0.000000  1
  Ga  Ga11  1  0.750001  0.603581  0.000000  1
  Sb  Sb12  1  0.750001  0.388889  0.392479  1
  Sb  Sb13  1  0.750001  0.996410  0.607521  1
  Sb  Sb14  1  0.250003  0.609331  0.604924  1
  Sb  Sb15  1  0.250003  0.004408  0.395076  1
