# generated using pymatgen
data_YTm4Co19Si11P
_symmetry_space_group_name_H-M   'P 1'
_cell_length_a   12.10738845
_cell_length_b   12.14249250
_cell_length_c   3.71399700
_cell_angle_alpha   90.00000000
_cell_angle_beta   90.00000000
_cell_angle_gamma   120.08109112
_symmetry_Int_Tables_number   1
_chemical_formula_structural   YTm4Co19Si11P
_chemical_formula_sum   'Y1 Tm4 Co19 Si11 P1'
_cell_volume   472.47087983
_cell_formula_units_Z   1
loop_
 _symmetry_equiv_pos_site_id
 _symmetry_equiv_pos_as_xyz
  1  'x, y, z'
loop_
 _atom_site_type_symbol
 _atom_site_label
 _atom_site_symmetry_multiplicity
 _atom_site_fract_x
 _atom_site_fract_y
 _atom_site_fract_z
 _atom_site_occupancy
  Y  Y0  1  0.667272  0.333441  0.000000  1
  Tm  Tm1  1  0.332694  0.666166  0.000000  1
  Tm  Tm2  1  0.184842  0.185801  0.500000  1
  Tm  Tm3  1  0.815224  0.001000  0.500000  1
  Tm  Tm4  1  0.999964  0.813936  0.500000  1
  Co  Co5  1  0.823973  0.196909  0.000000  1
  Co  Co6  1  0.803035  0.623287  0.000000  1
  Co  Co7  1  0.376604  0.179773  0.000000  1
  Co  Co8  1  0.197395  0.819842  0.000000  1
  Co  Co9  1  0.622551  0.802791  0.000000  1
  Co  Co10  1  0.176434  0.373691  0.000000  1
  Co  Co11  1  0.558358  0.558857  0.000000  1
  Co  Co12  1  0.441647  0.000411  0.000000  1
  Co  Co13  1  0.000062  0.441618  0.000000  1
  Co  Co14  1  0.645192  0.123243  0.500000  1
  Co  Co15  1  0.877476  0.520911  0.500000  1
  Co  Co16  1  0.478338  0.356170  0.500000  1
  Co  Co17  1  0.123465  0.643585  0.500000  1
  Co  Co18  1  0.520851  0.876958  0.500000  1
  Co  Co19  1  0.354668  0.478832  0.500000  1
  Co  Co20  1  0.718764  0.719158  0.500000  1
  Co  Co21  1  0.280862  0.999563  0.500000  1
  Co  Co22  1  0.000402  0.277882  0.500000  1
  Co  Co23  1  0.000004  0.004817  0.000000  1
  Si  Si24  1  0.370049  0.370490  0.000000  1
  Si  Si25  1  0.629782  0.000290  0.000000  1
  Si  Si26  1  0.000081  0.629479  0.000000  1
  Si  Si27  1  0.840992  0.318279  0.500000  1
  Si  Si28  1  0.682347  0.522406  0.500000  1
  Si  Si29  1  0.477982  0.160320  0.500000  1
  Si  Si30  1  0.317702  0.839049  0.500000  1
  Si  Si31  1  0.520783  0.682240  0.500000  1
  Si  Si32  1  0.160126  0.478381  0.500000  1
  Si  Si33  1  0.817614  0.817551  0.000000  1
  Si  Si34  1  0.182278  0.999606  0.000000  1
  P  P35  1  0.000186  0.183265  0.000000  1
