# generated using pymatgen
data_Ti8Mn3Tc4Pd
_symmetry_space_group_name_H-M   'P 1'
_cell_length_a   6.16455000
_cell_length_b   4.33365200
_cell_length_c   8.69902300
_cell_angle_alpha   90.00000000
_cell_angle_beta   89.99958476
_cell_angle_gamma   90.00000000
_symmetry_Int_Tables_number   1
_chemical_formula_structural   Ti8Mn3Tc4Pd
_chemical_formula_sum   'Ti8 Mn3 Tc4 Pd1'
_cell_volume   232.39452503
_cell_formula_units_Z   1
loop_
 _symmetry_equiv_pos_site_id
 _symmetry_equiv_pos_as_xyz
  1  'x, y, z'
loop_
 _atom_site_type_symbol
 _atom_site_label
 _atom_site_symmetry_multiplicity
 _atom_site_fract_x
 _atom_site_fract_y
 _atom_site_fract_z
 _atom_site_occupancy
  Ti  Ti0  1  0.496087  0.750001  0.131761  1
  Ti  Ti1  1  0.003911  0.750001  0.131760  1
  Ti  Ti2  1  0.502748  0.250000  0.375052  1
  Ti  Ti3  1  0.997267  0.250000  0.375053  1
  Ti  Ti4  1  0.004027  0.750001  0.618228  1
  Ti  Ti5  1  0.495965  0.750001  0.618228  1
  Ti  Ti6  1  0.011045  0.250000  0.874917  1
  Ti  Ti7  1  0.488968  0.250000  0.874916  1
  Mn  Mn8  1  0.250003  0.250000  0.123909  1
  Mn  Mn9  1  0.749961  0.750001  0.375121  1
  Mn  Mn10  1  0.250001  0.250000  0.626064  1
  Tc  Tc11  1  0.750006  0.250000  0.125877  1
  Tc  Tc12  1  0.250001  0.750001  0.374996  1
  Tc  Tc13  1  0.750003  0.250000  0.624112  1
  Tc  Tc14  1  0.250001  0.750001  0.874999  1
  Pd  Pd15  1  0.750008  0.750001  0.875002  1
