# generated using pymatgen
data_Sc5Si2GeH
_symmetry_space_group_name_H-M   'P 1'
_cell_length_a   7.92646702
_cell_length_b   7.92743826
_cell_length_c   5.77117900
_cell_angle_alpha   90.00000000
_cell_angle_beta   90.00000000
_cell_angle_gamma   120.00405404
_symmetry_Int_Tables_number   1
_chemical_formula_structural   Sc5Si2GeH
_chemical_formula_sum   'Sc10 Si4 Ge2 H2'
_cell_volume   314.04360857
_cell_formula_units_Z   2
loop_
 _symmetry_equiv_pos_site_id
 _symmetry_equiv_pos_as_xyz
  1  'x, y, z'
loop_
 _atom_site_type_symbol
 _atom_site_label
 _atom_site_symmetry_multiplicity
 _atom_site_fract_x
 _atom_site_fract_y
 _atom_site_fract_z
 _atom_site_occupancy
  Sc  Sc0  1  0.668131  0.334531  0.002976  1
  Sc  Sc1  1  0.331869  0.666401  0.002976  1
  Sc  Sc2  1  0.331869  0.666401  0.497024  1
  Sc  Sc3  1  0.668131  0.334531  0.497024  1
  Sc  Sc4  1  0.753471  0.751150  0.750000  1
  Sc  Sc5  1  0.246529  0.997679  0.750000  1
  Sc  Sc6  1  0.000000  0.249854  0.750000  1
  Sc  Sc7  1  0.248430  0.248247  0.250000  1
  Sc  Sc8  1  0.751570  0.999817  0.250000  1
  Sc  Sc9  1  0.000000  0.751235  0.250000  1
  Si  Si10  1  0.000000  0.609315  0.750000  1
  Si  Si11  1  0.610264  0.610492  0.250000  1
  Si  Si12  1  0.389736  0.000227  0.250000  1
  Si  Si13  1  0.000000  0.390136  0.250000  1
  Ge  Ge14  1  0.389990  0.389899  0.750000  1
  Ge  Ge15  1  0.610010  0.999909  0.750000  1
  H  H16  1  0.000000  0.000087  0.500525  1
  H  H17  1  0.000000  0.000087  0.999475  1
