# generated using pymatgen
data_Dy11Tm3(LuBi2)6
_symmetry_space_group_name_H-M   'P 1'
_cell_length_a   8.19818997
_cell_length_b   9.45308421
_cell_length_c   12.00002186
_cell_angle_alpha   89.97147854
_cell_angle_beta   89.92880714
_cell_angle_gamma   89.98817860
_symmetry_Int_Tables_number   1
_chemical_formula_structural   Dy11Tm3(LuBi2)6
_chemical_formula_sum   'Dy11 Tm3 Lu6 Bi12'
_cell_volume   929.97900201
_cell_formula_units_Z   1
loop_
 _symmetry_equiv_pos_site_id
 _symmetry_equiv_pos_as_xyz
  1  'x, y, z'
loop_
 _atom_site_type_symbol
 _atom_site_label
 _atom_site_symmetry_multiplicity
 _atom_site_fract_x
 _atom_site_fract_y
 _atom_site_fract_z
 _atom_site_occupancy
  Dy  Dy0  1  0.524164  0.250407  0.987914  1
  Dy  Dy1  1  0.352800  0.250985  0.283851  1
  Dy  Dy2  1  0.645971  0.751750  0.716333  1
  Dy  Dy3  1  0.146097  0.751033  0.782772  1
  Dy  Dy4  1  0.855188  0.251531  0.216564  1
  Dy  Dy5  1  0.186132  0.250106  0.780794  1
  Dy  Dy6  1  0.814237  0.750724  0.218922  1
  Dy  Dy7  1  0.314462  0.750448  0.282371  1
  Dy  Dy8  1  0.686309  0.250565  0.718313  1
  Dy  Dy9  1  0.809218  0.563490  0.941044  1
  Dy  Dy10  1  0.692322  0.063288  0.441425  1
  Tm  Tm11  1  0.190878  0.434800  0.058728  1
  Tm  Tm12  1  0.692147  0.433605  0.441324  1
  Tm  Tm13  1  0.306863  0.565175  0.558879  1
  Lu  Lu14  1  0.023899  0.250633  0.510973  1
  Lu  Lu15  1  0.976994  0.750326  0.489088  1
  Lu  Lu16  1  0.476323  0.750589  0.010829  1
  Lu  Lu17  1  0.193200  0.066578  0.059694  1
  Lu  Lu18  1  0.807376  0.932433  0.940503  1
  Lu  Lu19  1  0.307479  0.932937  0.558723  1
  Bi  Bi20  1  0.403480  0.248966  0.543338  1
  Bi  Bi21  1  0.595141  0.747078  0.457900  1
  Bi  Bi22  1  0.096787  0.752620  0.043287  1
  Bi  Bi23  1  0.907132  0.245021  0.957201  1
  Bi  Bi24  1  0.066530  0.004451  0.328294  1
  Bi  Bi25  1  0.933974  0.996551  0.671522  1
  Bi  Bi26  1  0.432030  0.995053  0.827193  1
  Bi  Bi27  1  0.934024  0.504743  0.671338  1
  Bi  Bi28  1  0.565037  0.003610  0.172761  1
  Bi  Bi29  1  0.066394  0.496833  0.328452  1
  Bi  Bi30  1  0.565763  0.497539  0.172801  1
  Bi  Bi31  1  0.431647  0.506133  0.826870  1
