# generated using pymatgen
data_Ac4S3N2
_symmetry_space_group_name_H-M   'P 1'
_cell_length_a   4.27642300
_cell_length_b   6.84296300
_cell_length_c   16.27848400
_cell_angle_alpha   90.00000000
_cell_angle_beta   90.00000000
_cell_angle_gamma   90.00000000
_symmetry_Int_Tables_number   1
_chemical_formula_structural   Ac4S3N2
_chemical_formula_sum   'Ac8 S6 N4'
_cell_volume   476.36385968
_cell_formula_units_Z   2
loop_
 _symmetry_equiv_pos_site_id
 _symmetry_equiv_pos_as_xyz
  1  'x, y, z'
loop_
 _atom_site_type_symbol
 _atom_site_label
 _atom_site_symmetry_multiplicity
 _atom_site_fract_x
 _atom_site_fract_y
 _atom_site_fract_z
 _atom_site_occupancy
  Ac  Ac0  1  0.000000  0.269629  0.843549  1
  Ac  Ac1  1  0.500000  0.230371  0.343549  1
  Ac  Ac2  1  0.500000  0.724803  0.935123  1
  Ac  Ac3  1  0.500000  0.769629  0.656451  1
  Ac  Ac4  1  0.000000  0.224803  0.564877  1
  Ac  Ac5  1  0.000000  0.775197  0.435123  1
  Ac  Ac6  1  0.500000  0.275197  0.064877  1
  Ac  Ac7  1  0.000000  0.730371  0.156451  1
  S  S8  1  0.500000  0.221646  0.699704  1
  S  S9  1  0.000000  0.278354  0.199704  1
  S  S10  1  0.000000  0.721646  0.800296  1
  S  S11  1  0.000000  0.000000  0.000000  1
  S  S12  1  0.500000  0.778354  0.300296  1
  S  S13  1  0.500000  0.500000  0.500000  1
  N  N14  1  0.000000  0.870379  0.583922  1
  N  N15  1  0.500000  0.629621  0.083922  1
  N  N16  1  0.000000  0.129621  0.416078  1
  N  N17  1  0.500000  0.370379  0.916078  1
