# generated using pymatgen
data_PrEr5(SbO7)2
_symmetry_space_group_name_H-M   'P 1'
_cell_length_a   6.44292549
_cell_length_b   6.44292462
_cell_length_c   7.50870000
_cell_angle_alpha   90.03901281
_cell_angle_beta   89.96098719
_cell_angle_gamma   109.04791173
_symmetry_Int_Tables_number   1
_chemical_formula_structural   PrEr5(SbO7)2
_chemical_formula_sum   'Pr1 Er5 Sb2 O14'
_cell_volume   294.62907908
_cell_formula_units_Z   1
loop_
 _symmetry_equiv_pos_site_id
 _symmetry_equiv_pos_as_xyz
  1  'x, y, z'
loop_
 _atom_site_type_symbol
 _atom_site_label
 _atom_site_symmetry_multiplicity
 _atom_site_fract_x
 _atom_site_fract_y
 _atom_site_fract_z
 _atom_site_occupancy
  Pr  Pr0  1  0.500000  0.500000  0.000000  1
  Er  Er1  1  0.500000  0.500000  0.500000  1
  Er  Er2  1  0.531573  0.000717  0.746215  1
  Er  Er3  1  0.000717  0.531573  0.253785  1
  Er  Er4  1  0.468427  0.999283  0.253785  1
  Er  Er5  1  0.999283  0.468427  0.746215  1
  Sb  Sb6  1  0.000000  0.000000  0.500000  1
  Sb  Sb7  1  0.000000  0.000000  0.000000  1
  O  O8  1  0.677511  0.927578  0.469756  1
  O  O9  1  0.927578  0.677511  0.530244  1
  O  O10  1  0.676930  0.932014  0.030709  1
  O  O11  1  0.932014  0.676930  0.969291  1
  O  O12  1  0.322489  0.072422  0.530244  1
  O  O13  1  0.072422  0.322489  0.469756  1
  O  O14  1  0.323070  0.067986  0.969291  1
  O  O15  1  0.067986  0.323070  0.030709  1
  O  O16  1  0.928697  0.071303  0.750233  1
  O  O17  1  0.071303  0.928697  0.249767  1
  O  O18  1  0.365169  0.634831  0.737674  1
  O  O19  1  0.634831  0.365169  0.262326  1
  O  O20  1  0.640844  0.359156  0.738952  1
  O  O21  1  0.359156  0.640844  0.261048  1
