# generated using pymatgen
data_U4Mn4(Si2Rh)3
_symmetry_space_group_name_H-M   'P 1'
_cell_length_a   6.94672590
_cell_length_b   6.98543441
_cell_length_c   6.98543400
_cell_angle_alpha   109.38706274
_cell_angle_beta   109.62648567
_cell_angle_gamma   109.62649634
_symmetry_Int_Tables_number   1
_chemical_formula_structural   U4Mn4(Si2Rh)3
_chemical_formula_sum   'U4 Mn4 Si6 Rh3'
_cell_volume   260.20993332
_cell_formula_units_Z   1
loop_
 _symmetry_equiv_pos_site_id
 _symmetry_equiv_pos_as_xyz
  1  'x, y, z'
loop_
 _atom_site_type_symbol
 _atom_site_label
 _atom_site_symmetry_multiplicity
 _atom_site_fract_x
 _atom_site_fract_y
 _atom_site_fract_z
 _atom_site_occupancy
  U  U0  1  0.500000  0.491785  0.508215  1
  U  U1  1  0.000000  0.019876  0.506568  1
  U  U2  1  0.500000  0.991785  0.008215  1
  U  U3  1  0.000000  0.493432  0.980124  1
  Mn  Mn4  1  0.750645  0.250147  0.500497  1
  Mn  Mn5  1  0.500000  0.251034  0.748966  1
  Mn  Mn6  1  0.500000  0.751034  0.248966  1
  Mn  Mn7  1  0.249355  0.499503  0.749853  1
  Si  Si8  1  0.320972  0.321808  0.999164  1
  Si  Si9  1  0.000000  0.317425  0.317014  1
  Si  Si10  1  0.000000  0.682986  0.682575  1
  Si  Si11  1  0.679028  0.000836  0.678192  1
  Si  Si12  1  0.321853  0.999921  0.321931  1
  Si  Si13  1  0.678147  0.678069  0.000079  1
  Rh  Rh14  1  0.749201  0.499815  0.249386  1
  Rh  Rh15  1  0.250799  0.750614  0.500185  1
  Rh  Rh16  1  0.000000  0.999935  0.000065  1
