# generated using pymatgen
data_Tb2LuGa2
_symmetry_space_group_name_H-M   'P 1'
_cell_length_a   7.59669400
_cell_length_b   7.59669400
_cell_length_c   4.34645700
_cell_angle_alpha   90.00000000
_cell_angle_beta   90.00000000
_cell_angle_gamma   90.00000000
_symmetry_Int_Tables_number   1
_chemical_formula_structural   Tb2LuGa2
_chemical_formula_sum   'Tb4 Lu2 Ga4'
_cell_volume   250.83298915
_cell_formula_units_Z   2
loop_
 _symmetry_equiv_pos_site_id
 _symmetry_equiv_pos_as_xyz
  1  'x, y, z'
loop_
 _atom_site_type_symbol
 _atom_site_label
 _atom_site_symmetry_multiplicity
 _atom_site_fract_x
 _atom_site_fract_y
 _atom_site_fract_z
 _atom_site_occupancy
  Tb  Tb0  1  0.325975  0.174024  0.500000  1
  Tb  Tb1  1  0.825975  0.325975  0.500000  1
  Tb  Tb2  1  0.174024  0.674025  0.500000  1
  Tb  Tb3  1  0.674025  0.825975  0.500000  1
  Lu  Lu4  1  0.000000  0.000000  0.000000  1
  Lu  Lu5  1  0.500000  0.500000  0.000000  1
  Ga  Ga6  1  0.621247  0.121248  0.000000  1
  Ga  Ga7  1  0.121248  0.378752  0.000000  1
  Ga  Ga8  1  0.878753  0.621247  0.000000  1
  Ga  Ga9  1  0.378752  0.878753  0.000000  1
