# generated using pymatgen
data_Ta6Ga4CuOsC2
_symmetry_space_group_name_H-M   'P 1'
_cell_length_a   8.36316017
_cell_length_b   8.29419822
_cell_length_c   8.29419738
_cell_angle_alpha   59.53168843
_cell_angle_beta   59.72456630
_cell_angle_gamma   59.72457113
_symmetry_Int_Tables_number   1
_chemical_formula_structural   Ta6Ga4CuOsC2
_chemical_formula_sum   'Ta12 Ga8 Cu2 Os2 C4'
_cell_volume   403.67856590
_cell_formula_units_Z   2
loop_
 _symmetry_equiv_pos_site_id
 _symmetry_equiv_pos_as_xyz
  1  'x, y, z'
loop_
 _atom_site_type_symbol
 _atom_site_label
 _atom_site_symmetry_multiplicity
 _atom_site_fract_x
 _atom_site_fract_y
 _atom_site_fract_z
 _atom_site_occupancy
  Ta  Ta0  1  0.568464  0.938744  0.556303  1
  Ta  Ta1  1  0.315158  0.684842  0.684842  1
  Ta  Ta2  1  0.688923  0.311077  0.311077  1
  Ta  Ta3  1  0.313511  0.693697  0.311256  1
  Ta  Ta4  1  0.681536  0.693697  0.311256  1
  Ta  Ta5  1  0.313511  0.311256  0.693697  1
  Ta  Ta6  1  0.568464  0.556303  0.938744  1
  Ta  Ta7  1  0.934842  0.565158  0.565158  1
  Ta  Ta8  1  0.561077  0.938923  0.938923  1
  Ta  Ta9  1  0.936489  0.938744  0.556303  1
  Ta  Ta10  1  0.681536  0.311256  0.693697  1
  Ta  Ta11  1  0.936489  0.556303  0.938744  1
  Ga  Ga12  1  0.918976  0.909970  0.909970  1
  Ga  Ga13  1  0.988914  0.340030  0.340030  1
  Ga  Ga14  1  0.331054  0.997552  0.340339  1
  Ga  Ga15  1  0.331054  0.340339  0.997552  1
  Ga  Ga16  1  0.918946  0.252448  0.909661  1
  Ga  Ga17  1  0.918946  0.909661  0.252448  1
  Ga  Ga18  1  0.261086  0.909970  0.909970  1
  Ga  Ga19  1  0.331024  0.340030  0.340030  1
  Cu  Cu20  1  0.125000  0.625000  0.125000  1
  Cu  Cu21  1  0.125000  0.125000  0.625000  1
  Os  Os22  1  0.125000  0.125000  0.125000  1
  Os  Os23  1  0.625000  0.125000  0.125000  1
  C  C24  1  0.625000  0.625000  0.625000  1
  C  C25  1  0.125000  0.625000  0.625000  1
  C  C26  1  0.625000  0.125000  0.625000  1
  C  C27  1  0.625000  0.625000  0.125000  1
