# generated using pymatgen
data_Li2CoSn3O8
_symmetry_space_group_name_H-M   'P 1'
_cell_length_a   10.67483225
_cell_length_b   10.67483225
_cell_length_c   10.05516100
_cell_angle_alpha   90.00000000
_cell_angle_beta   90.00000000
_cell_angle_gamma   120.04970094
_symmetry_Int_Tables_number   1
_chemical_formula_structural   Li2CoSn3O8
_chemical_formula_sum   'Li12 Co6 Sn18 O48'
_cell_volume   991.79989405
_cell_formula_units_Z   6
loop_
 _symmetry_equiv_pos_site_id
 _symmetry_equiv_pos_as_xyz
  1  'x, y, z'
loop_
 _atom_site_type_symbol
 _atom_site_label
 _atom_site_symmetry_multiplicity
 _atom_site_fract_x
 _atom_site_fract_y
 _atom_site_fract_z
 _atom_site_occupancy
  Li  Li0  1  0.334950  0.696779  0.720168  1
  Li  Li1  1  0.334016  0.833584  0.491586  1
  Li  Li2  1  0.665050  0.303221  0.220168  1
  Li  Li3  1  0.833584  0.334016  0.491586  1
  Li  Li4  1  0.165767  0.165767  0.989792  1
  Li  Li5  1  0.303221  0.665050  0.220168  1
  Li  Li6  1  0.665984  0.166416  0.991586  1
  Li  Li7  1  0.166416  0.665984  0.991586  1
  Li  Li8  1  0.978552  0.978552  0.716291  1
  Li  Li9  1  0.696779  0.334950  0.720168  1
  Li  Li10  1  0.021448  0.021448  0.216291  1
  Li  Li11  1  0.834233  0.834233  0.489792  1
  Co  Co12  1  0.666580  0.000097  0.305267  1
  Co  Co13  1  0.999903  0.333420  0.805267  1
  Co  Co14  1  0.666368  0.666368  0.808973  1
  Co  Co15  1  0.333632  0.333632  0.308973  1
  Co  Co16  1  0.333420  0.999903  0.805267  1
  Co  Co17  1  0.000097  0.666580  0.305267  1
  Sn  Sn18  1  0.161029  0.505739  0.497721  1
  Sn  Sn19  1  0.159262  0.984467  0.496290  1
  Sn  Sn20  1  0.508411  0.681196  0.496229  1
  Sn  Sn21  1  0.984467  0.159262  0.496290  1
  Sn  Sn22  1  0.681196  0.508411  0.496229  1
  Sn  Sn23  1  0.505739  0.161029  0.497721  1
  Sn  Sn24  1  0.318804  0.491589  0.996229  1
  Sn  Sn25  1  0.003865  0.666872  0.717246  1
  Sn  Sn26  1  0.670820  0.670820  0.216056  1
  Sn  Sn27  1  0.838971  0.494261  0.997721  1
  Sn  Sn28  1  0.015533  0.840738  0.996290  1
  Sn  Sn29  1  0.666872  0.003865  0.717246  1
  Sn  Sn30  1  0.996135  0.333128  0.217246  1
  Sn  Sn31  1  0.333128  0.996135  0.217246  1
  Sn  Sn32  1  0.494261  0.838971  0.997721  1
  Sn  Sn33  1  0.329180  0.329180  0.716056  1
  Sn  Sn34  1  0.491589  0.318804  0.996229  1
  Sn  Sn35  1  0.840738  0.015533  0.996290  1
  O  O36  1  0.497199  0.168086  0.116424  1
  O  O37  1  0.335068  0.665719  0.899076  1
  O  O38  1  0.833172  0.000315  0.615624  1
  O  O39  1  0.831914  0.502801  0.616424  1
  O  O40  1  0.842065  0.842065  0.112376  1
  O  O41  1  0.663362  0.663362  0.607179  1
  O  O42  1  0.336638  0.336638  0.107179  1
  O  O43  1  0.664757  0.169379  0.617323  1
  O  O44  1  0.331371  0.150238  0.370621  1
  O  O45  1  0.517771  0.517771  0.367613  1
  O  O46  1  0.666899  0.997078  0.103714  1
  O  O47  1  0.665719  0.335068  0.899076  1
  O  O48  1  0.169379  0.664757  0.617323  1
  O  O49  1  0.849762  0.668629  0.870621  1
  O  O50  1  0.166828  0.999685  0.115624  1
  O  O51  1  0.997078  0.666899  0.103714  1
  O  O52  1  0.334281  0.664932  0.399076  1
  O  O53  1  0.664932  0.334281  0.399076  1
  O  O54  1  0.989589  0.508760  0.858292  1
  O  O55  1  0.508760  0.989589  0.858292  1
  O  O56  1  0.820874  0.150796  0.859497  1
  O  O57  1  0.000315  0.833172  0.615624  1
  O  O58  1  0.482229  0.482229  0.867613  1
  O  O59  1  0.179126  0.849204  0.359497  1
  O  O60  1  0.661071  0.815555  0.356188  1
  O  O61  1  0.150238  0.331371  0.370621  1
  O  O62  1  0.333101  0.002922  0.603714  1
  O  O63  1  0.495623  0.664506  0.109837  1
  O  O64  1  0.002922  0.333101  0.603714  1
  O  O65  1  0.168086  0.497199  0.116424  1
  O  O66  1  0.338929  0.184445  0.856188  1
  O  O67  1  0.502801  0.831914  0.616424  1
  O  O68  1  0.997930  0.997930  0.897512  1
  O  O69  1  0.999685  0.166828  0.115624  1
  O  O70  1  0.002070  0.002070  0.397512  1
  O  O71  1  0.157935  0.157935  0.612376  1
  O  O72  1  0.150796  0.820874  0.859497  1
  O  O73  1  0.668629  0.849762  0.870621  1
  O  O74  1  0.184445  0.338929  0.856188  1
  O  O75  1  0.815555  0.661071  0.356188  1
  O  O76  1  0.830621  0.335243  0.117323  1
  O  O77  1  0.010411  0.491240  0.358292  1
  O  O78  1  0.335494  0.504377  0.609837  1
  O  O79  1  0.491240  0.010411  0.358292  1
  O  O80  1  0.335243  0.830621  0.117323  1
  O  O81  1  0.849204  0.179126  0.359497  1
  O  O82  1  0.664506  0.495623  0.109837  1
  O  O83  1  0.504377  0.335494  0.609837  1
