# generated using pymatgen
data_Zr5(CoAu2)2
_symmetry_space_group_name_H-M   'P 1'
_cell_length_a   3.25200100
_cell_length_b   7.29749400
_cell_length_c   17.14945600
_cell_angle_alpha   90.00000000
_cell_angle_beta   90.00000000
_cell_angle_gamma   90.00000000
_symmetry_Int_Tables_number   1
_chemical_formula_structural   Zr5(CoAu2)2
_chemical_formula_sum   'Zr10 Co4 Au8'
_cell_volume   406.98159111
_cell_formula_units_Z   2
loop_
 _symmetry_equiv_pos_site_id
 _symmetry_equiv_pos_as_xyz
  1  'x, y, z'
loop_
 _atom_site_type_symbol
 _atom_site_label
 _atom_site_symmetry_multiplicity
 _atom_site_fract_x
 _atom_site_fract_y
 _atom_site_fract_z
 _atom_site_occupancy
  Zr  Zr0  1  0.500000  0.500000  0.500000  1
  Zr  Zr1  1  0.500000  0.000000  0.000000  1
  Zr  Zr2  1  0.500000  0.865202  0.417749  1
  Zr  Zr3  1  0.500000  0.134798  0.582251  1
  Zr  Zr4  1  0.500000  0.634798  0.917749  1
  Zr  Zr5  1  0.500000  0.365202  0.082251  1
  Zr  Zr6  1  0.500000  0.235004  0.280514  1
  Zr  Zr7  1  0.500000  0.764996  0.719486  1
  Zr  Zr8  1  0.500000  0.264996  0.780514  1
  Zr  Zr9  1  0.500000  0.735004  0.219486  1
  Co  Co10  1  0.000000  0.942648  0.306431  1
  Co  Co11  1  0.000000  0.057352  0.693569  1
  Co  Co12  1  0.000000  0.557352  0.806431  1
  Co  Co13  1  0.000000  0.442648  0.193569  1
  Au  Au14  1  0.000000  0.201324  0.429624  1
  Au  Au15  1  0.000000  0.798676  0.570376  1
  Au  Au16  1  0.000000  0.298676  0.929624  1
  Au  Au17  1  0.000000  0.701324  0.070376  1
  Au  Au18  1  0.000000  0.558439  0.347372  1
  Au  Au19  1  0.000000  0.441561  0.652628  1
  Au  Au20  1  0.000000  0.941561  0.847372  1
  Au  Au21  1  0.000000  0.058439  0.152628  1
