# generated using pymatgen
data_LiHo2Al3Si2Pd
_symmetry_space_group_name_H-M   'P 1'
_cell_length_a   6.81193700
_cell_length_b   6.72802079
_cell_length_c   4.21375500
_cell_angle_alpha   90.00000000
_cell_angle_beta   90.00000000
_cell_angle_gamma   120.41344183
_symmetry_Int_Tables_number   1
_chemical_formula_structural   LiHo2Al3Si2Pd
_chemical_formula_sum   'Li1 Ho2 Al3 Si2 Pd1'
_cell_volume   166.54569902
_cell_formula_units_Z   1
loop_
 _symmetry_equiv_pos_site_id
 _symmetry_equiv_pos_as_xyz
  1  'x, y, z'
loop_
 _atom_site_type_symbol
 _atom_site_label
 _atom_site_symmetry_multiplicity
 _atom_site_fract_x
 _atom_site_fract_y
 _atom_site_fract_z
 _atom_site_occupancy
  Li  Li0  1  0.415716  0.000000  0.000000  1
  Ho  Ho1  1  0.998039  0.423663  0.000000  1
  Ho  Ho2  1  0.574376  0.576336  0.000000  1
  Al  Al3  1  0.757983  0.000000  0.499999  1
  Al  Al4  1  0.240220  0.237822  0.499999  1
  Al  Al5  1  0.002397  0.762177  0.499999  1
  Si  Si6  1  0.664480  0.328850  0.499999  1
  Si  Si7  1  0.335631  0.671149  0.499999  1
  Pd  Pd8  1  0.011157  0.000000  0.000000  1
