# generated using pymatgen
data_LaTm4Zr3(Ni4P3)4
_symmetry_space_group_name_H-M   'P 1'
_cell_length_a   12.36363900
_cell_length_b   12.36363985
_cell_length_c   3.79987700
_cell_angle_alpha   90.00000000
_cell_angle_beta   90.00000000
_cell_angle_gamma   120.00000646
_symmetry_Int_Tables_number   1
_chemical_formula_structural   LaTm4Zr3(Ni4P3)4
_chemical_formula_sum   'La1 Tm4 Zr3 Ni16 P12'
_cell_volume   503.02874617
_cell_formula_units_Z   1
loop_
 _symmetry_equiv_pos_site_id
 _symmetry_equiv_pos_as_xyz
  1  'x, y, z'
loop_
 _atom_site_type_symbol
 _atom_site_label
 _atom_site_symmetry_multiplicity
 _atom_site_fract_x
 _atom_site_fract_y
 _atom_site_fract_z
 _atom_site_occupancy
  La  La0  1  0.333333  0.666667  0.000000  1
  Tm  Tm1  1  0.182913  0.184782  0.500000  1
  Tm  Tm2  1  0.815218  0.998131  0.500000  1
  Tm  Tm3  1  0.001869  0.817087  0.500000  1
  Tm  Tm4  1  0.666667  0.333333  0.000000  1
  Zr  Zr5  1  0.563409  0.559908  0.000000  1
  Zr  Zr6  1  0.440092  0.003501  0.000000  1
  Zr  Zr7  1  0.996499  0.436591  0.000000  1
  Ni  Ni8  1  0.731785  0.726159  0.500000  1
  Ni  Ni9  1  0.273841  0.005627  0.500000  1
  Ni  Ni10  1  0.994373  0.268215  0.500000  1
  Ni  Ni11  1  0.179833  0.369859  0.000000  1
  Ni  Ni12  1  0.630141  0.809973  0.000000  1
  Ni  Ni13  1  0.190027  0.820167  0.000000  1
  Ni  Ni14  1  0.811771  0.623886  0.000000  1
  Ni  Ni15  1  0.812116  0.188229  0.000000  1
  Ni  Ni16  1  0.376114  0.187884  0.000000  1
  Ni  Ni17  1  0.359365  0.478067  0.500000  1
  Ni  Ni18  1  0.521933  0.881300  0.500000  1
  Ni  Ni19  1  0.118700  0.640635  0.500000  1
  Ni  Ni20  1  0.872716  0.512246  0.500000  1
  Ni  Ni21  1  0.639532  0.127284  0.500000  1
  Ni  Ni22  1  0.487754  0.360468  0.500000  1
  Ni  Ni23  1  0.000000  0.000000  0.000000  1
  P  P24  1  0.825532  0.822489  0.000000  1
  P  P25  1  0.177511  0.003043  0.000000  1
  P  P26  1  0.996957  0.174468  0.000000  1
  P  P27  1  0.165058  0.468232  0.500000  1
  P  P28  1  0.531768  0.696827  0.500000  1
  P  P29  1  0.303173  0.834942  0.500000  1
  P  P30  1  0.695794  0.522455  0.500000  1
  P  P31  1  0.826662  0.304206  0.500000  1
  P  P32  1  0.477545  0.173338  0.500000  1
  P  P33  1  0.353978  0.356336  0.000000  1
  P  P34  1  0.643664  0.997642  0.000000  1
  P  P35  1  0.002358  0.646022  0.000000  1
