# generated using pymatgen
data_Ti4CoIr
_symmetry_space_group_name_H-M   'P 1'
_cell_length_a   8.09823814
_cell_length_b   8.09823831
_cell_length_c   8.09823800
_cell_angle_alpha   60.00000127
_cell_angle_beta   60.00000059
_cell_angle_gamma   60.00000107
_symmetry_Int_Tables_number   1
_chemical_formula_structural   Ti4CoIr
_chemical_formula_sum   'Ti16 Co4 Ir4'
_cell_volume   375.54038281
_cell_formula_units_Z   4
loop_
 _symmetry_equiv_pos_site_id
 _symmetry_equiv_pos_as_xyz
  1  'x, y, z'
loop_
 _atom_site_type_symbol
 _atom_site_label
 _atom_site_symmetry_multiplicity
 _atom_site_fract_x
 _atom_site_fract_y
 _atom_site_fract_z
 _atom_site_occupancy
  Ti  Ti0  1  0.066407  0.644531  0.644531  1
  Ti  Ti1  1  0.644531  0.066407  0.644531  1
  Ti  Ti2  1  0.644531  0.644531  0.066407  1
  Ti  Ti3  1  0.644531  0.644531  0.644531  1
  Ti  Ti4  1  0.805108  0.805108  0.194892  1
  Ti  Ti5  1  0.194892  0.194892  0.805108  1
  Ti  Ti6  1  0.805108  0.194892  0.805108  1
  Ti  Ti7  1  0.194892  0.805108  0.194892  1
  Ti  Ti8  1  0.194892  0.805108  0.805108  1
  Ti  Ti9  1  0.805108  0.194892  0.194892  1
  Ti  Ti10  1  0.435700  0.435700  0.064300  1
  Ti  Ti11  1  0.064300  0.064300  0.435700  1
  Ti  Ti12  1  0.435700  0.064300  0.435700  1
  Ti  Ti13  1  0.064300  0.435700  0.064300  1
  Ti  Ti14  1  0.064300  0.435700  0.435700  1
  Ti  Ti15  1  0.435700  0.064300  0.064300  1
  Co  Co16  1  0.429483  0.856839  0.856839  1
  Co  Co17  1  0.856839  0.429483  0.856839  1
  Co  Co18  1  0.856839  0.856839  0.429483  1
  Co  Co19  1  0.856839  0.856839  0.856839  1
  Ir  Ir20  1  0.758056  0.413981  0.413981  1
  Ir  Ir21  1  0.413981  0.758056  0.413981  1
  Ir  Ir22  1  0.413981  0.413981  0.758056  1
  Ir  Ir23  1  0.413981  0.413981  0.413981  1
