# generated using pymatgen
data_Zr6AgAuN2
_symmetry_space_group_name_H-M   'P 1'
_cell_length_a   6.09582353
_cell_length_b   6.09582279
_cell_length_c   9.10180400
_cell_angle_alpha   90.00000000
_cell_angle_beta   90.00000000
_cell_angle_gamma   147.98426496
_symmetry_Int_Tables_number   1
_chemical_formula_structural   Zr6AgAuN2
_chemical_formula_sum   'Zr6 Ag1 Au1 N2'
_cell_volume   179.30513167
_cell_formula_units_Z   1
loop_
 _symmetry_equiv_pos_site_id
 _symmetry_equiv_pos_as_xyz
  1  'x, y, z'
loop_
 _atom_site_type_symbol
 _atom_site_label
 _atom_site_symmetry_multiplicity
 _atom_site_fract_x
 _atom_site_fract_y
 _atom_site_fract_z
 _atom_site_occupancy
  Zr  Zr0  1  0.623123  0.376877  0.954146  1
  Zr  Zr1  1  0.375382  0.624618  0.452252  1
  Zr  Zr2  1  0.375382  0.624618  0.047748  1
  Zr  Zr3  1  0.623123  0.376877  0.545854  1
  Zr  Zr4  1  0.955825  0.044175  0.750000  1
  Zr  Zr5  1  0.045807  0.954193  0.250000  1
  Ag  Ag6  1  0.251346  0.748654  0.750000  1
  Au  Au7  1  0.749860  0.250140  0.250000  1
  N  N8  1  0.000075  0.999925  0.000351  1
  N  N9  1  0.000075  0.999925  0.499649  1
