# generated using pymatgen
data_Y2Mn(Co2B)3
_symmetry_space_group_name_H-M   'P 1'
_cell_length_a   5.08047900
_cell_length_b   5.08027188
_cell_length_c   12.66430400
_cell_angle_alpha   89.99993010
_cell_angle_beta   90.00016235
_cell_angle_gamma   120.00134216
_symmetry_Int_Tables_number   1
_chemical_formula_structural   Y2Mn(Co2B)3
_chemical_formula_sum   'Y4 Mn2 Co12 B6'
_cell_volume   283.07251289
_cell_formula_units_Z   2
loop_
 _symmetry_equiv_pos_site_id
 _symmetry_equiv_pos_as_xyz
  1  'x, y, z'
loop_
 _atom_site_type_symbol
 _atom_site_label
 _atom_site_symmetry_multiplicity
 _atom_site_fract_x
 _atom_site_fract_y
 _atom_site_fract_z
 _atom_site_occupancy
  Y  Y0  1  0.999988  0.000000  0.000085  1
  Y  Y1  1  0.999992  0.000000  0.499918  1
  Y  Y2  1  0.999987  0.000000  0.260140  1
  Y  Y3  1  0.000001  0.000000  0.739733  1
  Mn  Mn4  1  0.333338  0.666698  0.000083  1
  Mn  Mn5  1  0.666639  0.333302  0.000083  1
  Co  Co6  1  0.499986  0.000000  0.157615  1
  Co  Co7  1  0.499986  0.500000  0.157633  1
  Co  Co8  1  0.999985  0.500000  0.157633  1
  Co  Co9  1  0.500001  0.000000  0.842464  1
  Co  Co10  1  0.499999  0.500001  0.842468  1
  Co  Co11  1  0.999999  0.499999  0.842468  1
  Co  Co12  1  0.499987  0.000000  0.385133  1
  Co  Co13  1  0.499987  0.500000  0.385157  1
  Co  Co14  1  0.999987  0.500000  0.385157  1
  Co  Co15  1  0.499996  0.000000  0.614782  1
  Co  Co16  1  0.499996  0.500000  0.614780  1
  Co  Co17  1  0.999995  0.500000  0.614780  1
  B  B18  1  0.333337  0.666692  0.499971  1
  B  B19  1  0.666645  0.333308  0.499971  1
  B  B20  1  0.333300  0.666626  0.268847  1
  B  B21  1  0.666674  0.333374  0.268847  1
  B  B22  1  0.666649  0.333303  0.731126  1
  B  B23  1  0.333346  0.666697  0.731126  1
