# generated using pymatgen
data_Er3Si3P3Pd20
_symmetry_space_group_name_H-M   'P 1'
_cell_length_a   8.67781662
_cell_length_b   8.67813719
_cell_length_c   8.67879001
_cell_angle_alpha   59.99506030
_cell_angle_beta   59.99873077
_cell_angle_gamma   60.00619789
_symmetry_Int_Tables_number   1
_chemical_formula_structural   Er3Si3P3Pd20
_chemical_formula_sum   'Er3 Si3 P3 Pd20'
_cell_volume   462.14804213
_cell_formula_units_Z   1
loop_
 _symmetry_equiv_pos_site_id
 _symmetry_equiv_pos_as_xyz
  1  'x, y, z'
loop_
 _atom_site_type_symbol
 _atom_site_label
 _atom_site_symmetry_multiplicity
 _atom_site_fract_x
 _atom_site_fract_y
 _atom_site_fract_z
 _atom_site_occupancy
  Er  Er0  1  0.250548  0.249452  0.250548  1
  Er  Er1  1  0.999076  0.000924  0.999076  1
  Er  Er2  1  0.750548  0.749452  0.750548  1
  Si  Si3  1  0.266971  0.733028  0.734904  1
  Si  Si4  1  0.734903  0.265096  0.266972  1
  Si  Si5  1  0.732912  0.267087  0.732912  1
  P  P6  1  0.735519  0.733388  0.266611  1
  P  P7  1  0.265102  0.734897  0.265102  1
  P  P8  1  0.266612  0.264481  0.735518  1
  Pd  Pd9  1  0.382498  0.382840  0.849391  1
  Pd  Pd10  1  0.382556  0.384735  0.384648  1
  Pd  Pd11  1  0.384648  0.848060  0.382556  1
  Pd  Pd12  1  0.849391  0.385272  0.382498  1
  Pd  Pd13  1  0.615265  0.617444  0.151939  1
  Pd  Pd14  1  0.617160  0.617502  0.614728  1
  Pd  Pd15  1  0.151939  0.615352  0.615265  1
  Pd  Pd16  1  0.614728  0.150608  0.617160  1
  Pd  Pd17  1  0.000448  0.346073  0.997705  1
  Pd  Pd18  1  0.344225  0.002296  0.653927  1
  Pd  Pd19  1  0.653927  0.999553  0.344225  1
  Pd  Pd20  1  0.997705  0.655775  0.000448  1
  Pd  Pd21  1  0.001758  0.998242  0.345973  1
  Pd  Pd22  1  0.344345  0.999665  0.000335  1
  Pd  Pd23  1  0.999965  0.000035  0.654250  1
  Pd  Pd24  1  0.000336  0.655655  0.344344  1
  Pd  Pd25  1  0.654249  0.345750  0.999966  1
  Pd  Pd26  1  0.001325  0.344630  0.655369  1
  Pd  Pd27  1  0.345972  0.654027  0.001759  1
  Pd  Pd28  1  0.655370  0.998676  0.001324  1
