# generated using pymatgen
data_La7Nd9Cd4OsRu3
_symmetry_space_group_name_H-M   'P 1'
_cell_length_a   10.00138152
_cell_length_b   9.97950225
_cell_length_c   10.02317280
_cell_angle_alpha   59.71111960
_cell_angle_beta   60.15086990
_cell_angle_gamma   60.31996527
_symmetry_Int_Tables_number   1
_chemical_formula_structural   La7Nd9Cd4OsRu3
_chemical_formula_sum   'La7 Nd9 Cd4 Os1 Ru3'
_cell_volume   708.32022244
_cell_formula_units_Z   1
loop_
 _symmetry_equiv_pos_site_id
 _symmetry_equiv_pos_as_xyz
  1  'x, y, z'
loop_
 _atom_site_type_symbol
 _atom_site_label
 _atom_site_symmetry_multiplicity
 _atom_site_fract_x
 _atom_site_fract_y
 _atom_site_fract_z
 _atom_site_occupancy
  La  La0  1  0.346374  0.344969  0.346537  1
  La  La1  1  0.345216  0.344184  0.962606  1
  La  La2  1  0.346242  0.960369  0.345046  1
  La  La3  1  0.962370  0.345565  0.345847  1
  La  La4  1  0.812474  0.189092  0.187245  1
  La  La5  1  0.188235  0.814297  0.811204  1
  La  La6  1  0.189304  0.811111  0.187989  1
  Nd  Nd7  1  0.809603  0.191997  0.810049  1
  Nd  Nd8  1  0.190977  0.192473  0.806639  1
  Nd  Nd9  1  0.807112  0.810342  0.192062  1
  Nd  Nd10  1  0.933384  0.565750  0.566533  1
  Nd  Nd11  1  0.565277  0.938492  0.936730  1
  Nd  Nd12  1  0.563568  0.936502  0.563047  1
  Nd  Nd13  1  0.937683  0.563902  0.937987  1
  Nd  Nd14  1  0.563312  0.561275  0.937222  1
  Nd  Nd15  1  0.938024  0.939837  0.563017  1
  Cd  Cd16  1  0.582080  0.578059  0.578815  1
  Cd  Cd17  1  0.581069  0.580483  0.259446  1
  Cd  Cd18  1  0.579345  0.259425  0.581806  1
  Cd  Cd19  1  0.259839  0.577778  0.580966  1
  Os  Os20  1  0.582060  0.142102  0.139460  1
  Ru  Ru21  1  0.132081  0.133168  0.143798  1
  Ru  Ru22  1  0.141023  0.128088  0.585543  1
  Ru  Ru23  1  0.143343  0.590736  0.130406  1
