# generated using pymatgen
data_Ho2Lu2Zn4Ir3Rh
_symmetry_space_group_name_H-M   'P 1'
_cell_length_a   4.01623700
_cell_length_b   6.93591068
_cell_length_c   8.07121372
_cell_angle_alpha   89.85878831
_cell_angle_beta   90.00000000
_cell_angle_gamma   90.00000000
_symmetry_Int_Tables_number   1
_chemical_formula_structural   Ho2Lu2Zn4Ir3Rh
_chemical_formula_sum   'Ho2 Lu2 Zn4 Ir3 Rh1'
_cell_volume   224.83315398
_cell_formula_units_Z   1
loop_
 _symmetry_equiv_pos_site_id
 _symmetry_equiv_pos_as_xyz
  1  'x, y, z'
loop_
 _atom_site_type_symbol
 _atom_site_label
 _atom_site_symmetry_multiplicity
 _atom_site_fract_x
 _atom_site_fract_y
 _atom_site_fract_z
 _atom_site_occupancy
  Ho  Ho0  1  0.750000  0.466607  0.819962  1
  Ho  Ho1  1  0.750000  0.962814  0.680958  1
  Lu  Lu2  1  0.250000  0.535961  0.181914  1
  Lu  Lu3  1  0.250000  0.034118  0.316340  1
  Zn  Zn4  1  0.250000  0.638187  0.564327  1
  Zn  Zn5  1  0.750000  0.360930  0.434352  1
  Zn  Zn6  1  0.750000  0.861338  0.066545  1
  Zn  Zn7  1  0.250000  0.139896  0.935987  1
  Ir  Ir8  1  0.250000  0.758478  0.876474  1
  Ir  Ir9  1  0.750000  0.243194  0.125806  1
  Ir  Ir10  1  0.750000  0.741966  0.375254  1
  Rh  Rh11  1  0.250000  0.256512  0.622081  1
