# generated using pymatgen
data_Ho4Ga4IrRu3
_symmetry_space_group_name_H-M   'P 1'
_cell_length_a   4.49369600
_cell_length_b   7.16434344
_cell_length_c   7.13061476
_cell_angle_alpha   89.90681251
_cell_angle_beta   90.00000000
_cell_angle_gamma   90.00000000
_symmetry_Int_Tables_number   1
_chemical_formula_structural   Ho4Ga4IrRu3
_chemical_formula_sum   'Ho4 Ga4 Ir1 Ru3'
_cell_volume   229.56542819
_cell_formula_units_Z   1
loop_
 _symmetry_equiv_pos_site_id
 _symmetry_equiv_pos_as_xyz
  1  'x, y, z'
loop_
 _atom_site_type_symbol
 _atom_site_label
 _atom_site_symmetry_multiplicity
 _atom_site_fract_x
 _atom_site_fract_y
 _atom_site_fract_z
 _atom_site_occupancy
  Ho  Ho0  1  0.250000  0.303830  0.518829  1
  Ho  Ho1  1  0.250000  0.195313  0.020850  1
  Ho  Ho2  1  0.750000  0.698172  0.480601  1
  Ho  Ho3  1  0.750000  0.804469  0.980177  1
  Ga  Ga4  1  0.250000  0.895472  0.698707  1
  Ga  Ga5  1  0.250000  0.608842  0.196011  1
  Ga  Ga6  1  0.750000  0.102706  0.301865  1
  Ga  Ga7  1  0.750000  0.393142  0.801151  1
  Ir  Ir8  1  0.750000  0.434929  0.162889  1
  Ru  Ru9  1  0.250000  0.935694  0.339922  1
  Ru  Ru10  1  0.250000  0.563380  0.838592  1
  Ru  Ru11  1  0.750000  0.064052  0.660407  1
