# generated using pymatgen
data_CeSc(Fe3P2)2
_symmetry_space_group_name_H-M   'P 1'
_cell_length_a   3.67639500
_cell_length_b   10.47669701
_cell_length_c   12.09035501
_cell_angle_alpha   89.99538309
_cell_angle_beta   90.00000000
_cell_angle_gamma   90.00000000
_symmetry_Int_Tables_number   1
_chemical_formula_structural   CeSc(Fe3P2)2
_chemical_formula_sum   'Ce3 Sc3 Fe18 P12'
_cell_volume   465.67787311
_cell_formula_units_Z   3
loop_
 _symmetry_equiv_pos_site_id
 _symmetry_equiv_pos_as_xyz
  1  'x, y, z'
loop_
 _atom_site_type_symbol
 _atom_site_label
 _atom_site_symmetry_multiplicity
 _atom_site_fract_x
 _atom_site_fract_y
 _atom_site_fract_z
 _atom_site_occupancy
  Ce  Ce0  1  0.000000  0.501500  0.531454  1
  Ce  Ce1  1  0.500000  0.001400  0.470950  1
  Ce  Ce2  1  0.500000  0.821128  0.204624  1
  Sc  Sc3  1  0.500000  0.183842  0.205133  1
  Sc  Sc4  1  0.000000  0.680707  0.800476  1
  Sc  Sc5  1  0.000000  0.319752  0.791701  1
  Fe  Fe6  1  0.500000  0.496599  0.150708  1
  Fe  Fe7  1  0.000000  0.005357  0.848436  1
  Fe  Fe8  1  0.500000  0.496937  0.697809  1
  Fe  Fe9  1  0.000000  0.000075  0.301788  1
  Fe  Fe10  1  0.000000  0.492731  0.984117  1
  Fe  Fe11  1  0.500000  0.007502  0.010565  1
  Fe  Fe12  1  0.500000  0.324916  0.994600  1
  Fe  Fe13  1  0.500000  0.664513  0.991529  1
  Fe  Fe14  1  0.000000  0.178219  0.001942  1
  Fe  Fe15  1  0.000000  0.834228  0.003783  1
  Fe  Fe16  1  0.500000  0.300634  0.428229  1
  Fe  Fe17  1  0.500000  0.696389  0.434088  1
  Fe  Fe18  1  0.000000  0.198718  0.570431  1
  Fe  Fe19  1  0.000000  0.800189  0.576491  1
  Fe  Fe20  1  0.500000  0.881098  0.715951  1
  Fe  Fe21  1  0.500000  0.116983  0.708283  1
  Fe  Fe22  1  0.000000  0.617615  0.286719  1
  Fe  Fe23  1  0.000000  0.382392  0.289855  1
  P  P24  1  0.500000  0.497761  0.878765  1
  P  P25  1  0.000000  0.007385  0.114903  1
  P  P26  1  0.500000  0.500752  0.338464  1
  P  P27  1  0.000000  0.998152  0.662824  1
  P  P28  1  0.500000  0.302227  0.616453  1
  P  P29  1  0.500000  0.696168  0.623914  1
  P  P30  1  0.000000  0.196948  0.381793  1
  P  P31  1  0.000000  0.799657  0.389724  1
  P  P32  1  0.500000  0.845807  0.895489  1
  P  P33  1  0.500000  0.151793  0.883331  1
  P  P34  1  0.000000  0.649606  0.100764  1
  P  P35  1  0.000000  0.350320  0.113912  1
