# generated using pymatgen
data_Ca3In(Ru2O7)2
_symmetry_space_group_name_H-M   'P 1'
_cell_length_a   7.21752404
_cell_length_b   7.29492129
_cell_length_c   7.29492200
_cell_angle_alpha   59.99999677
_cell_angle_beta   59.64462704
_cell_angle_gamma   59.64463227
_symmetry_Int_Tables_number   1
_chemical_formula_structural   Ca3In(Ru2O7)2
_chemical_formula_sum   'Ca3 In1 Ru4 O14'
_cell_volume   270.12246886
_cell_formula_units_Z   1
loop_
 _symmetry_equiv_pos_site_id
 _symmetry_equiv_pos_as_xyz
  1  'x, y, z'
loop_
 _atom_site_type_symbol
 _atom_site_label
 _atom_site_symmetry_multiplicity
 _atom_site_fract_x
 _atom_site_fract_y
 _atom_site_fract_z
 _atom_site_occupancy
  Ca  Ca0  1  0.125000  0.125000  0.125000  1
  Ca  Ca1  1  0.125000  0.125000  0.625000  1
  Ca  Ca2  1  0.125000  0.625000  0.125000  1
  In  In3  1  0.625000  0.125000  0.125000  1
  Ru  Ru4  1  0.625000  0.625000  0.625000  1
  Ru  Ru5  1  0.125000  0.625000  0.625000  1
  Ru  Ru6  1  0.625000  0.625000  0.125000  1
  Ru  Ru7  1  0.625000  0.125000  0.625000  1
  O  O8  1  0.971181  0.009607  0.009607  1
  O  O9  1  0.278819  0.240393  0.240393  1
  O  O10  1  0.301542  0.302199  0.698129  1
  O  O11  1  0.555709  0.550422  0.946934  1
  O  O12  1  0.694291  0.303066  0.699578  1
  O  O13  1  0.694291  0.303066  0.303066  1
  O  O14  1  0.301542  0.698129  0.698129  1
  O  O15  1  0.301542  0.698129  0.302199  1
  O  O16  1  0.694291  0.699578  0.303066  1
  O  O17  1  0.948458  0.551871  0.551871  1
  O  O18  1  0.555709  0.946934  0.946934  1
  O  O19  1  0.948458  0.947801  0.551871  1
  O  O20  1  0.948458  0.551871  0.947801  1
  O  O21  1  0.555709  0.946934  0.550422  1
