# generated using pymatgen
data_La2CeDy(SbRh)4
_symmetry_space_group_name_H-M   'P 1'
_cell_length_a   4.68028700
_cell_length_b   7.57870454
_cell_length_c   7.82526183
_cell_angle_alpha   90.86090524
_cell_angle_beta   90.00000000
_cell_angle_gamma   90.00000000
_symmetry_Int_Tables_number   1
_chemical_formula_structural   La2CeDy(SbRh)4
_chemical_formula_sum   'La2 Ce1 Dy1 Sb4 Rh4'
_cell_volume   277.53471401
_cell_formula_units_Z   1
loop_
 _symmetry_equiv_pos_site_id
 _symmetry_equiv_pos_as_xyz
  1  'x, y, z'
loop_
 _atom_site_type_symbol
 _atom_site_label
 _atom_site_symmetry_multiplicity
 _atom_site_fract_x
 _atom_site_fract_y
 _atom_site_fract_z
 _atom_site_occupancy
  La  La0  1  0.250000  0.514424  0.217378  1
  La  La1  1  0.750000  0.481345  0.788372  1
  Ce  Ce2  1  0.750000  0.988596  0.689323  1
  Dy  Dy3  1  0.250000  0.008913  0.302294  1
  Sb  Sb4  1  0.250000  0.188901  0.913388  1
  Sb  Sb5  1  0.750000  0.293314  0.400911  1
  Sb  Sb6  1  0.250000  0.689587  0.595665  1
  Sb  Sb7  1  0.750000  0.810527  0.088889  1
  Rh  Rh8  1  0.750000  0.174935  0.076337  1
  Rh  Rh9  1  0.250000  0.273366  0.574650  1
  Rh  Rh10  1  0.750000  0.755534  0.434035  1
  Rh  Rh11  1  0.250000  0.820559  0.918759  1
