# generated using pymatgen
data_Al2FeMo3C
_symmetry_space_group_name_H-M   'P 1'
_cell_length_a   8.02780203
_cell_length_b   8.02947981
_cell_length_c   8.02918304
_cell_angle_alpha   59.99077808
_cell_angle_beta   59.98846848
_cell_angle_gamma   59.98853475
_symmetry_Int_Tables_number   1
_chemical_formula_structural   Al2FeMo3C
_chemical_formula_sum   'Al8 Fe4 Mo12 C4'
_cell_volume   365.87661870
_cell_formula_units_Z   4
loop_
 _symmetry_equiv_pos_site_id
 _symmetry_equiv_pos_as_xyz
  1  'x, y, z'
loop_
 _atom_site_type_symbol
 _atom_site_label
 _atom_site_symmetry_multiplicity
 _atom_site_fract_x
 _atom_site_fract_y
 _atom_site_fract_z
 _atom_site_occupancy
  Al  Al0  1  0.756343  0.414583  0.414675  1
  Al  Al1  1  0.414734  0.756377  0.414580  1
  Al  Al2  1  0.414747  0.414518  0.756405  1
  Al  Al3  1  0.414600  0.414372  0.414460  1
  Al  Al4  1  0.493657  0.835417  0.835325  1
  Al  Al5  1  0.835266  0.493623  0.835420  1
  Al  Al6  1  0.835253  0.835482  0.493595  1
  Al  Al7  1  0.835400  0.835628  0.835540  1
  Fe  Fe8  1  0.125000  0.625000  0.625000  1
  Fe  Fe9  1  0.625000  0.125000  0.625000  1
  Fe  Fe10  1  0.625000  0.625000  0.125000  1
  Fe  Fe11  1  0.625000  0.625000  0.625000  1
  Mo  Mo12  1  0.805469  0.805386  0.194634  1
  Mo  Mo13  1  0.194542  0.194534  0.805367  1
  Mo  Mo14  1  0.805452  0.194637  0.805440  1
  Mo  Mo15  1  0.194580  0.805315  0.194527  1
  Mo  Mo16  1  0.194660  0.805392  0.805463  1
  Mo  Mo17  1  0.805365  0.194568  0.194524  1
  Mo  Mo18  1  0.444531  0.444614  0.055366  1
  Mo  Mo19  1  0.055458  0.055466  0.444633  1
  Mo  Mo20  1  0.444548  0.055363  0.444560  1
  Mo  Mo21  1  0.055420  0.444685  0.055473  1
  Mo  Mo22  1  0.055340  0.444608  0.444537  1
  Mo  Mo23  1  0.444635  0.055432  0.055476  1
  C  C24  1  0.625000  0.125000  0.125000  1
  C  C25  1  0.125000  0.625000  0.125000  1
  C  C26  1  0.125000  0.125000  0.625000  1
  C  C27  1  0.125000  0.125000  0.125000  1
