# generated using pymatgen
data_Pr16CdHg3Ir3Pt
_symmetry_space_group_name_H-M   'P 1'
_cell_length_a   10.00742046
_cell_length_b   10.02527435
_cell_length_c   10.02527510
_cell_angle_alpha   60.17167458
_cell_angle_beta   60.17305168
_cell_angle_gamma   60.17304452
_symmetry_Int_Tables_number   1
_chemical_formula_structural   Pr16CdHg3Ir3Pt
_chemical_formula_sum   'Pr16 Cd1 Hg3 Ir3 Pt1'
_cell_volume   713.99301537
_cell_formula_units_Z   1
loop_
 _symmetry_equiv_pos_site_id
 _symmetry_equiv_pos_as_xyz
  1  'x, y, z'
loop_
 _atom_site_type_symbol
 _atom_site_label
 _atom_site_symmetry_multiplicity
 _atom_site_fract_x
 _atom_site_fract_y
 _atom_site_fract_z
 _atom_site_occupancy
  Pr  Pr0  1  0.347616  0.347369  0.347369  1
  Pr  Pr1  1  0.352678  0.352424  0.948110  1
  Pr  Pr2  1  0.352678  0.948110  0.352424  1
  Pr  Pr3  1  0.945923  0.353178  0.353178  1
  Pr  Pr4  1  0.804711  0.191429  0.191429  1
  Pr  Pr5  1  0.188493  0.809391  0.809391  1
  Pr  Pr6  1  0.190105  0.805683  0.190928  1
  Pr  Pr7  1  0.808334  0.189854  0.808716  1
  Pr  Pr8  1  0.190105  0.190928  0.805683  1
  Pr  Pr9  1  0.808334  0.808716  0.189854  1
  Pr  Pr10  1  0.940314  0.561898  0.561898  1
  Pr  Pr11  1  0.561008  0.939698  0.939698  1
  Pr  Pr12  1  0.561039  0.941170  0.561755  1
  Pr  Pr13  1  0.938966  0.561520  0.939445  1
  Pr  Pr14  1  0.561039  0.561755  0.941170  1
  Pr  Pr15  1  0.938966  0.939445  0.561520  1
  Cd  Cd16  1  0.262642  0.578928  0.578928  1
  Hg  Hg17  1  0.582712  0.585013  0.585013  1
  Hg  Hg18  1  0.582585  0.585192  0.247703  1
  Hg  Hg19  1  0.582585  0.247703  0.585192  1
  Ir  Ir20  1  0.141538  0.141975  0.573773  1
  Ir  Ir21  1  0.141538  0.573773  0.141975  1
  Ir  Ir22  1  0.573580  0.141871  0.141871  1
  Pt  Pt23  1  0.142511  0.142976  0.142976  1
