# generated using pymatgen
data_La2Lu3Ga4
_symmetry_space_group_name_H-M   'P 1'
_cell_length_a   7.62936400
_cell_length_b   7.94271700
_cell_length_c   15.27388500
_cell_angle_alpha   90.00000000
_cell_angle_beta   90.00000000
_cell_angle_gamma   90.00000000
_symmetry_Int_Tables_number   1
_chemical_formula_structural   La2Lu3Ga4
_chemical_formula_sum   'La8 Lu12 Ga16'
_cell_volume   925.56503726
_cell_formula_units_Z   4
loop_
 _symmetry_equiv_pos_site_id
 _symmetry_equiv_pos_as_xyz
  1  'x, y, z'
loop_
 _atom_site_type_symbol
 _atom_site_label
 _atom_site_symmetry_multiplicity
 _atom_site_fract_x
 _atom_site_fract_y
 _atom_site_fract_z
 _atom_site_occupancy
  La  La0  1  0.013038  0.175967  0.404212  1
  La  La1  1  0.513038  0.324033  0.404212  1
  La  La2  1  0.486962  0.675967  0.904212  1
  La  La3  1  0.486962  0.675967  0.595788  1
  La  La4  1  0.986962  0.824033  0.595788  1
  La  La5  1  0.986962  0.824033  0.904212  1
  La  La6  1  0.513038  0.324033  0.095788  1
  La  La7  1  0.013038  0.175967  0.095788  1
  Lu  Lu8  1  0.328950  0.173574  0.623574  1
  Lu  Lu9  1  0.671050  0.826426  0.376426  1
  Lu  Lu10  1  0.662586  0.998625  0.750000  1
  Lu  Lu11  1  0.171050  0.673574  0.376426  1
  Lu  Lu12  1  0.828950  0.326426  0.876426  1
  Lu  Lu13  1  0.828950  0.326426  0.623574  1
  Lu  Lu14  1  0.837414  0.498625  0.250000  1
  Lu  Lu15  1  0.337414  0.001375  0.250000  1
  Lu  Lu16  1  0.328950  0.173574  0.876426  1
  Lu  Lu17  1  0.171050  0.673574  0.123574  1
  Lu  Lu18  1  0.671050  0.826426  0.123574  1
  Lu  Lu19  1  0.162586  0.501375  0.750000  1
  Ga  Ga20  1  0.283681  0.880709  0.750000  1
  Ga  Ga21  1  0.466516  0.619549  0.250000  1
  Ga  Ga22  1  0.033484  0.119549  0.750000  1
  Ga  Ga23  1  0.533484  0.380451  0.750000  1
  Ga  Ga24  1  0.154755  0.463873  0.539751  1
  Ga  Ga25  1  0.966516  0.880451  0.250000  1
  Ga  Ga26  1  0.716319  0.119291  0.250000  1
  Ga  Ga27  1  0.845245  0.536127  0.039751  1
  Ga  Ga28  1  0.345245  0.963873  0.039751  1
  Ga  Ga29  1  0.154755  0.463873  0.960249  1
  Ga  Ga30  1  0.654755  0.036127  0.539751  1
  Ga  Ga31  1  0.345245  0.963873  0.460249  1
  Ga  Ga32  1  0.845245  0.536127  0.460249  1
  Ga  Ga33  1  0.783681  0.619291  0.750000  1
  Ga  Ga34  1  0.216319  0.380709  0.250000  1
  Ga  Ga35  1  0.654755  0.036127  0.960249  1
