# generated using pymatgen
data_TbHoPaP4Pd7
_symmetry_space_group_name_H-M   'P 1'
_cell_length_a   7.94271836
_cell_length_b   7.94271807
_cell_length_c   9.44386570
_cell_angle_alpha   55.35784623
_cell_angle_beta   55.35784706
_cell_angle_gamma   29.34199250
_symmetry_Int_Tables_number   1
_chemical_formula_structural   TbHoPaP4Pd7
_chemical_formula_sum   'Tb1 Ho1 Pa1 P4 Pd7'
_cell_volume   236.22734699
_cell_formula_units_Z   1
loop_
 _symmetry_equiv_pos_site_id
 _symmetry_equiv_pos_as_xyz
  1  'x, y, z'
loop_
 _atom_site_type_symbol
 _atom_site_label
 _atom_site_symmetry_multiplicity
 _atom_site_fract_x
 _atom_site_fract_y
 _atom_site_fract_z
 _atom_site_occupancy
  Tb  Tb0  1  0.319160  0.319160  0.679831  1
  Ho  Ho1  1  0.680803  0.680803  0.320304  1
  Pa  Pa2  1  0.999905  0.999905  0.000034  1
  P  P3  1  0.345948  0.345948  0.244052  1
  P  P4  1  0.653605  0.653605  0.756389  1
  P  P5  1  0.896514  0.896514  0.823748  1
  P  P6  1  0.103705  0.103705  0.176557  1
  Pd  Pd7  1  0.306923  0.306923  0.027153  1
  Pd  Pd8  1  0.692820  0.692820  0.973711  1
  Pd  Pd9  1  0.510902  0.510902  0.709283  1
  Pd  Pd10  1  0.830524  0.830524  0.426761  1
  Pd  Pd11  1  0.489348  0.489348  0.290398  1
  Pd  Pd12  1  0.169332  0.169332  0.572377  1
  Pd  Pd13  1  0.000510  0.000510  0.499402  1
