# generated using pymatgen
data_Lu5CoBiAs
_symmetry_space_group_name_H-M   'P 1'
_cell_length_a   8.31446374
_cell_length_b   8.31446329
_cell_length_c   8.71424723
_cell_angle_alpha   125.27537849
_cell_angle_beta   125.27537888
_cell_angle_gamma   77.84540986
_symmetry_Int_Tables_number   1
_chemical_formula_structural   Lu5CoBiAs
_chemical_formula_sum   'Lu10 Co2 Bi2 As2'
_cell_volume   394.61091355
_cell_formula_units_Z   2
loop_
 _symmetry_equiv_pos_site_id
 _symmetry_equiv_pos_as_xyz
  1  'x, y, z'
loop_
 _atom_site_type_symbol
 _atom_site_label
 _atom_site_symmetry_multiplicity
 _atom_site_fract_x
 _atom_site_fract_y
 _atom_site_fract_z
 _atom_site_occupancy
  Lu  Lu0  1  0.000000  0.000000  0.000000  1
  Lu  Lu1  1  0.500000  0.500000  0.000000  1
  Lu  Lu2  1  0.767696  0.267696  0.773319  1
  Lu  Lu3  1  0.232304  0.732304  0.226681  1
  Lu  Lu4  1  0.494378  0.994378  0.226681  1
  Lu  Lu5  1  0.300683  0.459547  0.500000  1
  Lu  Lu6  1  0.040453  0.199317  0.500000  1
  Lu  Lu7  1  0.505622  0.005622  0.773319  1
  Lu  Lu8  1  0.699317  0.540453  0.500000  1
  Lu  Lu9  1  0.959547  0.800683  0.500000  1
  Co  Co10  1  0.637783  0.862217  0.500000  1
  Co  Co11  1  0.362217  0.137783  0.500000  1
  Bi  Bi12  1  0.250000  0.250000  0.000000  1
  Bi  Bi13  1  0.750000  0.750000  0.000000  1
  As  As14  1  0.152493  0.652493  0.804988  1
  As  As15  1  0.847507  0.347507  0.195012  1
