# generated using pymatgen
data_Dy6Si24Os5Ru3
_symmetry_space_group_name_H-M   'P 1'
_cell_length_a   10.12648232
_cell_length_b   10.12648153
_cell_length_c   8.15186200
_cell_angle_alpha   90.00072562
_cell_angle_beta   90.00072078
_cell_angle_gamma   132.52878451
_symmetry_Int_Tables_number   1
_chemical_formula_structural   Dy6Si24Os5Ru3
_chemical_formula_sum   'Dy6 Si24 Os5 Ru3'
_cell_volume   616.03425002
_cell_formula_units_Z   1
loop_
 _symmetry_equiv_pos_site_id
 _symmetry_equiv_pos_as_xyz
  1  'x, y, z'
loop_
 _atom_site_type_symbol
 _atom_site_label
 _atom_site_symmetry_multiplicity
 _atom_site_fract_x
 _atom_site_fract_y
 _atom_site_fract_z
 _atom_site_occupancy
  Dy  Dy0  1  0.499478  0.499478  0.500038  1
  Dy  Dy1  1  0.000013  0.000013  0.999401  1
  Dy  Dy2  1  0.501451  0.001353  0.749523  1
  Dy  Dy3  1  0.998415  0.498590  0.250416  1
  Dy  Dy4  1  0.498590  0.998415  0.250416  1
  Dy  Dy5  1  0.001353  0.501451  0.749523  1
  Si  Si6  1  0.795879  0.204375  0.500192  1
  Si  Si7  1  0.296051  0.703915  0.000205  1
  Si  Si8  1  0.204375  0.795879  0.500192  1
  Si  Si9  1  0.703915  0.296051  0.000205  1
  Si  Si10  1  0.333331  0.333331  0.833580  1
  Si  Si11  1  0.667187  0.667187  0.166887  1
  Si  Si12  1  0.166124  0.166124  0.331515  1
  Si  Si13  1  0.831185  0.831185  0.665703  1
  Si  Si14  1  0.120895  0.886657  0.728193  1
  Si  Si15  1  0.113874  0.880335  0.272013  1
  Si  Si16  1  0.611317  0.378427  0.228509  1
  Si  Si17  1  0.622321  0.388795  0.771746  1
  Si  Si18  1  0.880335  0.113874  0.272013  1
  Si  Si19  1  0.886657  0.120895  0.728193  1
  Si  Si20  1  0.388795  0.622321  0.771746  1
  Si  Si21  1  0.378427  0.611317  0.228509  1
  Si  Si22  1  0.345199  0.111669  0.503969  1
  Si  Si23  1  0.888138  0.655272  0.496683  1
  Si  Si24  1  0.388154  0.155066  0.005678  1
  Si  Si25  1  0.844895  0.612450  0.994788  1
  Si  Si26  1  0.655272  0.888138  0.496683  1
  Si  Si27  1  0.111669  0.345199  0.503969  1
  Si  Si28  1  0.612450  0.844895  0.994788  1
  Si  Si29  1  0.155066  0.388154  0.005678  1
  Os  Os30  1  0.669737  0.330291  0.499880  1
  Os  Os31  1  0.170026  0.829763  0.000070  1
  Os  Os32  1  0.330291  0.669737  0.499880  1
  Os  Os33  1  0.829763  0.170026  0.000070  1
  Os  Os34  1  0.126484  0.126484  0.627060  1
  Ru  Ru35  1  0.873282  0.873282  0.372523  1
  Ru  Ru36  1  0.372143  0.372143  0.127860  1
  Ru  Ru37  1  0.627461  0.627461  0.871703  1
