# generated using pymatgen
data_Hf3TiPd2N
_symmetry_space_group_name_H-M   'P 1'
_cell_length_a   8.62656847
_cell_length_b   8.62656918
_cell_length_c   8.62656900
_cell_angle_alpha   59.99999687
_cell_angle_beta   59.99999413
_cell_angle_gamma   59.99999661
_symmetry_Int_Tables_number   1
_chemical_formula_structural   Hf3TiPd2N
_chemical_formula_sum   'Hf12 Ti4 Pd8 N4'
_cell_volume   453.94082766
_cell_formula_units_Z   4
loop_
 _symmetry_equiv_pos_site_id
 _symmetry_equiv_pos_as_xyz
  1  'x, y, z'
loop_
 _atom_site_type_symbol
 _atom_site_label
 _atom_site_symmetry_multiplicity
 _atom_site_fract_x
 _atom_site_fract_y
 _atom_site_fract_z
 _atom_site_occupancy
  Hf  Hf0  1  0.815967  0.184033  0.184033  1
  Hf  Hf1  1  0.184033  0.815967  0.184033  1
  Hf  Hf2  1  0.815967  0.815967  0.184033  1
  Hf  Hf3  1  0.184033  0.815967  0.815967  1
  Hf  Hf4  1  0.815967  0.184033  0.815967  1
  Hf  Hf5  1  0.184033  0.184033  0.815967  1
  Hf  Hf6  1  0.434033  0.065967  0.065967  1
  Hf  Hf7  1  0.065967  0.434033  0.065967  1
  Hf  Hf8  1  0.434033  0.434033  0.065967  1
  Hf  Hf9  1  0.065967  0.434033  0.434033  1
  Hf  Hf10  1  0.434033  0.065967  0.434033  1
  Hf  Hf11  1  0.065967  0.065967  0.434033  1
  Ti  Ti12  1  0.625000  0.625000  0.125000  1
  Ti  Ti13  1  0.625000  0.625000  0.625000  1
  Ti  Ti14  1  0.125000  0.625000  0.625000  1
  Ti  Ti15  1  0.625000  0.125000  0.625000  1
  Pd  Pd16  1  0.412088  0.412088  0.763737  1
  Pd  Pd17  1  0.412088  0.412088  0.412088  1
  Pd  Pd18  1  0.763737  0.412088  0.412088  1
  Pd  Pd19  1  0.412088  0.763737  0.412088  1
  Pd  Pd20  1  0.837912  0.837912  0.486263  1
  Pd  Pd21  1  0.837912  0.837912  0.837912  1
  Pd  Pd22  1  0.486263  0.837912  0.837912  1
  Pd  Pd23  1  0.837912  0.486263  0.837912  1
  N  N24  1  0.125000  0.125000  0.625000  1
  N  N25  1  0.125000  0.125000  0.125000  1
  N  N26  1  0.625000  0.125000  0.125000  1
  N  N27  1  0.125000  0.625000  0.125000  1
