# generated using pymatgen
data_Tb16In2Ag2IrRh3
_symmetry_space_group_name_H-M   'P 1'
_cell_length_a   9.61871312
_cell_length_b   9.64688133
_cell_length_c   9.64061500
_cell_angle_alpha   60.02148872
_cell_angle_beta   59.92465200
_cell_angle_gamma   60.25017322
_symmetry_Int_Tables_number   1
_chemical_formula_structural   Tb16In2Ag2IrRh3
_chemical_formula_sum   'Tb16 In2 Ag2 Ir1 Rh3'
_cell_volume   633.47554952
_cell_formula_units_Z   1
loop_
 _symmetry_equiv_pos_site_id
 _symmetry_equiv_pos_as_xyz
  1  'x, y, z'
loop_
 _atom_site_type_symbol
 _atom_site_label
 _atom_site_symmetry_multiplicity
 _atom_site_fract_x
 _atom_site_fract_y
 _atom_site_fract_z
 _atom_site_occupancy
  Tb  Tb0  1  0.807819  0.807209  0.192486  1
  Tb  Tb1  1  0.810767  0.190591  0.808004  1
  Tb  Tb2  1  0.188918  0.189017  0.811033  1
  Tb  Tb3  1  0.647734  0.052845  0.649711  1
  Tb  Tb4  1  0.063639  0.063699  0.436331  1
  Tb  Tb5  1  0.441532  0.439142  0.059663  1
  Tb  Tb6  1  0.649903  0.649939  0.649636  1
  Tb  Tb7  1  0.810767  0.190591  0.190637  1
  Tb  Tb8  1  0.190413  0.810450  0.808546  1
  Tb  Tb9  1  0.052073  0.647660  0.650134  1
  Tb  Tb10  1  0.438124  0.066455  0.059853  1
  Tb  Tb11  1  0.438124  0.066455  0.435569  1
  Tb  Tb12  1  0.065590  0.438240  0.059002  1
  Tb  Tb13  1  0.649903  0.649939  0.050523  1
  Tb  Tb14  1  0.190413  0.810450  0.190590  1
  Tb  Tb15  1  0.065590  0.438240  0.437168  1
  In  In16  1  0.416886  0.741441  0.420837  1
  In  In17  1  0.741178  0.416841  0.420991  1
  Ag  Ag18  1  0.416490  0.416103  0.418062  1
  Ag  Ag19  1  0.416490  0.416103  0.749342  1
  Ir  Ir20  1  0.856560  0.426253  0.858594  1
  Rh  Rh21  1  0.857443  0.857526  0.859705  1
  Rh  Rh22  1  0.857443  0.857526  0.425328  1
  Rh  Rh23  1  0.426200  0.857285  0.858257  1
