# generated using pymatgen
data_Ce3SmDy6(Al2Ru3)2
_symmetry_space_group_name_H-M   'P 1'
_cell_length_a   8.44261169
_cell_length_b   8.44440055
_cell_length_c   8.45585942
_cell_angle_alpha   110.17255095
_cell_angle_beta   110.23189811
_cell_angle_gamma   110.06025196
_symmetry_Int_Tables_number   1
_chemical_formula_structural   Ce3SmDy6(Al2Ru3)2
_chemical_formula_sum   'Ce3 Sm1 Dy6 Al4 Ru6'
_cell_volume   451.93908597
_cell_formula_units_Z   1
loop_
 _symmetry_equiv_pos_site_id
 _symmetry_equiv_pos_as_xyz
  1  'x, y, z'
loop_
 _atom_site_type_symbol
 _atom_site_label
 _atom_site_symmetry_multiplicity
 _atom_site_fract_x
 _atom_site_fract_y
 _atom_site_fract_z
 _atom_site_occupancy
  Ce  Ce0  1  0.253283  0.200994  0.943388  1
  Ce  Ce1  1  0.942391  0.253345  0.200106  1
  Ce  Ce2  1  0.200107  0.942809  0.253574  1
  Sm  Sm3  1  0.506271  0.993670  0.722191  1
  Dy  Dy4  1  0.781350  0.780139  0.780849  1
  Dy  Dy5  1  0.313522  0.566162  0.753047  1
  Dy  Dy6  1  0.753186  0.314737  0.566535  1
  Dy  Dy7  1  0.567072  0.751827  0.311896  1
  Dy  Dy8  1  0.720705  0.508661  0.994543  1
  Dy  Dy9  1  0.991862  0.719155  0.505914  1
  Al  Al10  1  0.413052  0.412750  0.411888  1
  Al  Al11  1  0.093033  0.496858  0.003203  1
  Al  Al12  1  0.003565  0.092661  0.496451  1
  Al  Al13  1  0.497228  0.003842  0.096100  1
  Ru  Ru14  1  0.906068  0.118923  0.752316  1
  Ru  Ru15  1  0.752408  0.903004  0.118729  1
  Ru  Ru16  1  0.118844  0.752823  0.904347  1
  Ru  Ru17  1  0.221743  0.592446  0.366359  1
  Ru  Ru18  1  0.368020  0.226269  0.594275  1
  Ru  Ru19  1  0.596291  0.368926  0.224288  1
