# generated using pymatgen
data_HgBi3(Ru2O7)2
_symmetry_space_group_name_H-M   'P 1'
_cell_length_a   7.27980839
_cell_length_b   7.27980910
_cell_length_c   7.27980832
_cell_angle_alpha   61.07445024
_cell_angle_beta   61.07444521
_cell_angle_gamma   61.07444852
_symmetry_Int_Tables_number   1
_chemical_formula_structural   HgBi3(Ru2O7)2
_chemical_formula_sum   'Hg1 Bi3 Ru4 O14'
_cell_volume   279.39925267
_cell_formula_units_Z   1
loop_
 _symmetry_equiv_pos_site_id
 _symmetry_equiv_pos_as_xyz
  1  'x, y, z'
loop_
 _atom_site_type_symbol
 _atom_site_label
 _atom_site_symmetry_multiplicity
 _atom_site_fract_x
 _atom_site_fract_y
 _atom_site_fract_z
 _atom_site_occupancy
  Hg  Hg0  1  0.125000  0.125000  0.125000  1
  Bi  Bi1  1  0.125000  0.125000  0.625000  1
  Bi  Bi2  1  0.125000  0.625000  0.125000  1
  Bi  Bi3  1  0.625000  0.125000  0.125000  1
  Ru  Ru4  1  0.625000  0.625000  0.125000  1
  Ru  Ru5  1  0.625000  0.125000  0.625000  1
  Ru  Ru6  1  0.125000  0.625000  0.625000  1
  Ru  Ru7  1  0.625000  0.625000  0.625000  1
  O  O8  1  0.244238  0.244238  0.244238  1
  O  O9  1  0.005762  0.005762  0.005762  1
  O  O10  1  0.544855  0.952187  0.544855  1
  O  O11  1  0.303747  0.682579  0.303747  1
  O  O12  1  0.544855  0.544855  0.952187  1
  O  O13  1  0.952187  0.544855  0.544855  1
  O  O14  1  0.567421  0.946253  0.946253  1
  O  O15  1  0.946253  0.946253  0.567421  1
  O  O16  1  0.946253  0.567421  0.946253  1
  O  O17  1  0.682579  0.303747  0.303747  1
  O  O18  1  0.297813  0.705145  0.705145  1
  O  O19  1  0.705145  0.297813  0.705145  1
  O  O20  1  0.303747  0.303747  0.682579  1
  O  O21  1  0.705145  0.705145  0.297813  1
