# generated using pymatgen
data_V8Ga3SiTc4
_symmetry_space_group_name_H-M   'P 1'
_cell_length_a   4.79923227
_cell_length_b   4.78059929
_cell_length_c   9.51232800
_cell_angle_alpha   90.00000000
_cell_angle_beta   90.00000000
_cell_angle_gamma   89.82990315
_symmetry_Int_Tables_number   1
_chemical_formula_structural   V8Ga3SiTc4
_chemical_formula_sum   'V8 Ga3 Si1 Tc4'
_cell_volume   218.24234246
_cell_formula_units_Z   1
loop_
 _symmetry_equiv_pos_site_id
 _symmetry_equiv_pos_as_xyz
  1  'x, y, z'
loop_
 _atom_site_type_symbol
 _atom_site_label
 _atom_site_symmetry_multiplicity
 _atom_site_fract_x
 _atom_site_fract_y
 _atom_site_fract_z
 _atom_site_occupancy
  V  V0  1  0.500263  0.998439  0.377823  1
  V  V1  1  0.501816  0.998270  0.875189  1
  V  V2  1  0.501816  0.998270  0.124811  1
  V  V3  1  0.500263  0.998439  0.622177  1
  V  V4  1  0.250452  0.502066  0.000000  1
  V  V5  1  0.249484  0.498154  0.500000  1
  V  V6  1  0.999098  0.247541  0.253292  1
  V  V7  1  0.999098  0.247541  0.746708  1
  Ga  Ga8  1  0.494980  0.494057  0.250358  1
  Ga  Ga9  1  0.494980  0.494057  0.749642  1
  Ga  Ga10  1  0.006298  0.005493  0.000000  1
  Si  Si11  1  0.006659  0.004132  0.500000  1
  Tc  Tc12  1  0.747049  0.502458  0.000000  1
  Tc  Tc13  1  0.751790  0.499655  0.500000  1
  Tc  Tc14  1  0.997977  0.755713  0.253331  1
  Tc  Tc15  1  0.997977  0.755713  0.746669  1
