# generated using pymatgen
data_La3Sn6Ru
_symmetry_space_group_name_H-M   'P 1'
_cell_length_a   8.80528503
_cell_length_b   8.80528455
_cell_length_c   13.60710500
_cell_angle_alpha   90.00000000
_cell_angle_beta   90.00000000
_cell_angle_gamma   148.34300554
_symmetry_Int_Tables_number   1
_chemical_formula_structural   La3Sn6Ru
_chemical_formula_sum   'La6 Sn12 Ru2'
_cell_volume   553.69881862
_cell_formula_units_Z   2
loop_
 _symmetry_equiv_pos_site_id
 _symmetry_equiv_pos_as_xyz
  1  'x, y, z'
loop_
 _atom_site_type_symbol
 _atom_site_label
 _atom_site_symmetry_multiplicity
 _atom_site_fract_x
 _atom_site_fract_y
 _atom_site_fract_z
 _atom_site_occupancy
  La  La0  1  0.603184  0.396816  0.250000  1
  La  La1  1  0.396816  0.603184  0.750000  1
  La  La2  1  0.399281  0.600719  0.404572  1
  La  La3  1  0.600719  0.399281  0.595428  1
  La  La4  1  0.399281  0.600719  0.095428  1
  La  La5  1  0.600719  0.399281  0.904572  1
  Sn  Sn6  1  0.927426  0.072574  0.923608  1
  Sn  Sn7  1  0.072574  0.927426  0.076392  1
  Sn  Sn8  1  0.927426  0.072574  0.576392  1
  Sn  Sn9  1  0.072574  0.927426  0.423608  1
  Sn  Sn10  1  0.959027  0.040973  0.250000  1
  Sn  Sn11  1  0.040973  0.959027  0.750000  1
  Sn  Sn12  1  0.746322  0.253679  0.433031  1
  Sn  Sn13  1  0.253679  0.746321  0.566969  1
  Sn  Sn14  1  0.746322  0.253679  0.066969  1
  Sn  Sn15  1  0.253679  0.746321  0.933031  1
  Sn  Sn16  1  0.234258  0.765742  0.250000  1
  Sn  Sn17  1  0.765742  0.234258  0.750000  1
  Ru  Ru18  1  0.800313  0.199687  0.250000  1
  Ru  Ru19  1  0.199687  0.800313  0.750000  1
