# generated using pymatgen
data_CdAgIr4(PbO7)2
_symmetry_space_group_name_H-M   'P 1'
_cell_length_a   7.36916467
_cell_length_b   7.27877443
_cell_length_c   7.31205475
_cell_angle_alpha   59.55976008
_cell_angle_beta   59.74129882
_cell_angle_gamma   59.58834670
_symmetry_Int_Tables_number   1
_chemical_formula_structural   CdAgIr4(PbO7)2
_chemical_formula_sum   'Cd1 Ag1 Ir4 Pb2 O14'
_cell_volume   274.99790739
_cell_formula_units_Z   1
loop_
 _symmetry_equiv_pos_site_id
 _symmetry_equiv_pos_as_xyz
  1  'x, y, z'
loop_
 _atom_site_type_symbol
 _atom_site_label
 _atom_site_symmetry_multiplicity
 _atom_site_fract_x
 _atom_site_fract_y
 _atom_site_fract_z
 _atom_site_occupancy
  Cd  Cd0  1  0.125000  0.125000  0.625000  1
  Ag  Ag1  1  0.125000  0.625000  0.125000  1
  Ir  Ir2  1  0.125000  0.625000  0.625000  1
  Ir  Ir3  1  0.625000  0.125000  0.625000  1
  Ir  Ir4  1  0.625000  0.625000  0.125000  1
  Ir  Ir5  1  0.625000  0.625000  0.625000  1
  Pb  Pb6  1  0.625000  0.125000  0.125000  1
  Pb  Pb7  1  0.125000  0.125000  0.125000  1
  O  O8  1  0.689685  0.707833  0.299642  1
  O  O9  1  0.301086  0.297395  0.709111  1
  O  O10  1  0.692409  0.297395  0.709111  1
  O  O11  1  0.302840  0.707833  0.299642  1
  O  O12  1  0.306039  0.695278  0.692644  1
  O  O13  1  0.706031  0.293655  0.294284  1
  O  O14  1  0.560315  0.542167  0.950358  1
  O  O15  1  0.948914  0.952605  0.540889  1
  O  O16  1  0.557591  0.952605  0.540889  1
  O  O17  1  0.947160  0.542167  0.950358  1
  O  O18  1  0.943961  0.554722  0.557356  1
  O  O19  1  0.543969  0.956345  0.955716  1
  O  O20  1  0.236492  0.267219  0.259797  1
  O  O21  1  0.013508  0.982781  0.990203  1
