# generated using pymatgen
data_Y5Ho(MoO7)2
_symmetry_space_group_name_H-M   'P 1'
_cell_length_a   6.48311613
_cell_length_b   6.48394485
_cell_length_c   7.47021224
_cell_angle_alpha   90.01509852
_cell_angle_beta   90.01874708
_cell_angle_gamma   108.67301341
_symmetry_Int_Tables_number   1
_chemical_formula_structural   Y5Ho(MoO7)2
_chemical_formula_sum   'Y5 Ho1 Mo2 O14'
_cell_volume   297.48946084
_cell_formula_units_Z   1
loop_
 _symmetry_equiv_pos_site_id
 _symmetry_equiv_pos_as_xyz
  1  'x, y, z'
loop_
 _atom_site_type_symbol
 _atom_site_label
 _atom_site_symmetry_multiplicity
 _atom_site_fract_x
 _atom_site_fract_y
 _atom_site_fract_z
 _atom_site_occupancy
  Y  Y0  1  0.467781  0.468360  0.999626  1
  Y  Y1  1  0.464022  0.999574  0.256583  1
  Y  Y2  1  0.535600  0.000241  0.756012  1
  Y  Y3  1  0.000429  0.535187  0.243493  1
  Y  Y4  1  0.531453  0.531228  0.500436  1
  Ho  Ho5  1  0.998897  0.464352  0.744003  1
  Mo  Mo6  1  0.998837  0.998883  0.999427  1
  Mo  Mo7  1  0.001048  0.001287  0.500314  1
  O  O8  1  0.057155  0.311215  0.463149  1
  O  O9  1  0.073220  0.925416  0.249996  1
  O  O10  1  0.630475  0.369063  0.250076  1
  O  O11  1  0.311205  0.057771  0.537865  1
  O  O12  1  0.918457  0.673362  0.527203  1
  O  O13  1  0.926501  0.075613  0.749958  1
  O  O14  1  0.673451  0.917093  0.474671  1
  O  O15  1  0.362874  0.637464  0.249876  1
  O  O16  1  0.689893  0.942535  0.038175  1
  O  O17  1  0.638691  0.362537  0.750193  1
  O  O18  1  0.082472  0.327656  0.024181  1
  O  O19  1  0.943578  0.688680  0.960521  1
  O  O20  1  0.367877  0.630183  0.749784  1
  O  O21  1  0.326083  0.082302  0.974459  1
