# generated using pymatgen
data_Ba(HfSe2)8
_symmetry_space_group_name_H-M   'P 1'
_cell_length_a   7.52720400
_cell_length_b   7.52720360
_cell_length_c   15.68041100
_cell_angle_alpha   90.00000000
_cell_angle_beta   90.00000000
_cell_angle_gamma   119.99999296
_symmetry_Int_Tables_number   1
_chemical_formula_structural   Ba(HfSe2)8
_chemical_formula_sum   'Ba1 Hf8 Se16'
_cell_volume   769.40579659
_cell_formula_units_Z   1
loop_
 _symmetry_equiv_pos_site_id
 _symmetry_equiv_pos_as_xyz
  1  'x, y, z'
loop_
 _atom_site_type_symbol
 _atom_site_label
 _atom_site_symmetry_multiplicity
 _atom_site_fract_x
 _atom_site_fract_y
 _atom_site_fract_z
 _atom_site_occupancy
  Ba  Ba0  1  0.000000  0.000000  0.000000  1
  Hf  Hf1  1  0.501903  0.498097  0.738707  1
  Hf  Hf2  1  0.498097  0.501903  0.261293  1
  Hf  Hf3  1  0.501903  0.003805  0.738707  1
  Hf  Hf4  1  0.498097  0.996195  0.261293  1
  Hf  Hf5  1  0.996195  0.498097  0.738707  1
  Hf  Hf6  1  0.003805  0.501903  0.261293  1
  Hf  Hf7  1  0.000000  0.000000  0.736441  1
  Hf  Hf8  1  0.000000  0.000000  0.263559  1
  Se  Se9  1  0.832677  0.665357  0.158140  1
  Se  Se10  1  0.833166  0.666332  0.638168  1
  Se  Se11  1  0.832677  0.167323  0.158140  1
  Se  Se12  1  0.833166  0.166834  0.638168  1
  Se  Se13  1  0.333333  0.666667  0.157876  1
  Se  Se14  1  0.333333  0.666667  0.640948  1
  Se  Se15  1  0.334643  0.167323  0.158140  1
  Se  Se16  1  0.333668  0.166834  0.638168  1
  Se  Se17  1  0.665357  0.832677  0.841860  1
  Se  Se18  1  0.666332  0.833166  0.361832  1
  Se  Se19  1  0.666667  0.333333  0.842124  1
  Se  Se20  1  0.666667  0.333333  0.359052  1
  Se  Se21  1  0.167323  0.832677  0.841860  1
  Se  Se22  1  0.166834  0.833166  0.361832  1
  Se  Se23  1  0.167323  0.334643  0.841860  1
  Se  Se24  1  0.166834  0.333668  0.361832  1
