# generated using pymatgen
data_PrTiFeO5
_symmetry_space_group_name_H-M   'P 1'
_cell_length_a   7.70617300
_cell_length_b   8.80916600
_cell_length_c   5.91754300
_cell_angle_alpha   90.00000000
_cell_angle_beta   90.00000000
_cell_angle_gamma   90.00000000
_symmetry_Int_Tables_number   1
_chemical_formula_structural   PrTiFeO5
_chemical_formula_sum   'Pr4 Ti4 Fe4 O20'
_cell_volume   401.71215318
_cell_formula_units_Z   4
loop_
 _symmetry_equiv_pos_site_id
 _symmetry_equiv_pos_as_xyz
  1  'x, y, z'
loop_
 _atom_site_type_symbol
 _atom_site_label
 _atom_site_symmetry_multiplicity
 _atom_site_fract_x
 _atom_site_fract_y
 _atom_site_fract_z
 _atom_site_occupancy
  Pr  Pr0  1  0.139604  0.171429  0.000000  1
  Pr  Pr1  1  0.639603  0.328571  0.000000  1
  Pr  Pr2  1  0.360396  0.671429  0.000000  1
  Pr  Pr3  1  0.860396  0.828571  0.000000  1
  Ti  Ti4  1  0.880960  0.143106  0.499999  1
  Ti  Ti5  1  0.380960  0.356895  0.499999  1
  Ti  Ti6  1  0.619039  0.643106  0.499999  1
  Ti  Ti7  1  0.119040  0.856895  0.499999  1
  Fe  Fe8  1  0.500000  0.000000  0.247074  1
  Fe  Fe9  1  0.000000  0.500000  0.247074  1
  Fe  Fe10  1  0.500000  0.000000  0.752925  1
  Fe  Fe11  1  0.000000  0.500000  0.752925  1
  O  O12  1  0.664587  0.054819  0.000000  1
  O  O13  1  0.164587  0.445181  0.000000  1
  O  O14  1  0.835414  0.554819  0.000000  1
  O  O15  1  0.335414  0.945180  0.000000  1
  O  O16  1  0.396161  0.214065  0.256214  1
  O  O17  1  0.896161  0.285935  0.256214  1
  O  O18  1  0.103838  0.714065  0.256214  1
  O  O19  1  0.603838  0.785935  0.256214  1
  O  O20  1  0.000000  0.000000  0.286460  1
  O  O21  1  0.500000  0.500000  0.286460  1
  O  O22  1  0.661689  0.074454  0.499999  1
  O  O23  1  0.161688  0.425546  0.499999  1
  O  O24  1  0.838312  0.574454  0.499999  1
  O  O25  1  0.338312  0.925546  0.499999  1
  O  O26  1  0.000000  0.000000  0.713539  1
  O  O27  1  0.500000  0.500000  0.713539  1
  O  O28  1  0.396161  0.214065  0.743785  1
  O  O29  1  0.896161  0.285935  0.743785  1
  O  O30  1  0.103838  0.714065  0.743785  1
  O  O31  1  0.603838  0.785935  0.743785  1
