# generated using pymatgen
data_ZrScCo9NiP6
_symmetry_space_group_name_H-M   'P 1'
_cell_length_a   3.59641600
_cell_length_b   10.13783700
_cell_length_c   11.66211700
_cell_angle_alpha   90.00000000
_cell_angle_beta   90.00000000
_cell_angle_gamma   90.00000000
_symmetry_Int_Tables_number   1
_chemical_formula_structural   ZrScCo9NiP6
_chemical_formula_sum   'Zr2 Sc2 Co18 Ni2 P12'
_cell_volume   425.19937695
_cell_formula_units_Z   2
loop_
 _symmetry_equiv_pos_site_id
 _symmetry_equiv_pos_as_xyz
  1  'x, y, z'
loop_
 _atom_site_type_symbol
 _atom_site_label
 _atom_site_symmetry_multiplicity
 _atom_site_fract_x
 _atom_site_fract_y
 _atom_site_fract_z
 _atom_site_occupancy
  Zr  Zr0  1  0.250000  0.580834  0.701944  1
  Zr  Zr1  1  0.250000  0.919166  0.201944  1
  Sc  Sc2  1  0.750000  0.419531  0.297214  1
  Sc  Sc3  1  0.750000  0.080469  0.797214  1
  Co  Co4  1  0.250000  0.717329  0.992536  1
  Co  Co5  1  0.250000  0.782671  0.492536  1
  Co  Co6  1  0.250000  0.409888  0.484346  1
  Co  Co7  1  0.250000  0.090112  0.984346  1
  Co  Co8  1  0.750000  0.592794  0.514228  1
  Co  Co9  1  0.750000  0.907206  0.014228  1
  Co  Co10  1  0.250000  0.222124  0.177583  1
  Co  Co11  1  0.250000  0.277877  0.677583  1
  Co  Co12  1  0.750000  0.776286  0.822904  1
  Co  Co13  1  0.750000  0.723714  0.322904  1
  Co  Co14  1  0.250000  0.881440  0.700361  1
  Co  Co15  1  0.250000  0.618560  0.200361  1
  Co  Co16  1  0.750000  0.116848  0.299530  1
  Co  Co17  1  0.750000  0.383152  0.799530  1
  Co  Co18  1  0.250000  0.465551  0.931933  1
  Co  Co19  1  0.250000  0.034449  0.431933  1
  Co  Co20  1  0.750000  0.533424  0.069706  1
  Co  Co21  1  0.750000  0.966576  0.569706  1
  Ni  Ni22  1  0.750000  0.282477  0.007646  1
  Ni  Ni23  1  0.750000  0.217523  0.507646  1
  P  P24  1  0.250000  0.420043  0.116426  1
  P  P25  1  0.250000  0.079957  0.616426  1
  P  P26  1  0.750000  0.579604  0.886486  1
  P  P27  1  0.750000  0.920396  0.386486  1
  P  P28  1  0.250000  0.264786  0.866711  1
  P  P29  1  0.250000  0.235214  0.366711  1
  P  P30  1  0.750000  0.733259  0.131208  1
  P  P31  1  0.750000  0.766741  0.631208  1
  P  P32  1  0.250000  0.599801  0.389247  1
  P  P33  1  0.250000  0.900199  0.889247  1
  P  P34  1  0.750000  0.400438  0.609991  1
  P  P35  1  0.750000  0.099562  0.109991  1
