# generated using pymatgen
data_Lu10Al5BiC8
_symmetry_space_group_name_H-M   'P 1'
_cell_length_a   10.73155600
_cell_length_b   10.73155600
_cell_length_c   3.46605800
_cell_angle_alpha   90.00000000
_cell_angle_beta   90.00000000
_cell_angle_gamma   90.00000000
_symmetry_Int_Tables_number   1
_chemical_formula_structural   Lu10Al5BiC8
_chemical_formula_sum   'Lu10 Al5 Bi1 C8'
_cell_volume   399.17305528
_cell_formula_units_Z   1
loop_
 _symmetry_equiv_pos_site_id
 _symmetry_equiv_pos_as_xyz
  1  'x, y, z'
loop_
 _atom_site_type_symbol
 _atom_site_label
 _atom_site_symmetry_multiplicity
 _atom_site_fract_x
 _atom_site_fract_y
 _atom_site_fract_z
 _atom_site_occupancy
  Lu  Lu0  1  0.550755  0.739496  0.500000  1
  Lu  Lu1  1  0.449245  0.260504  0.500000  1
  Lu  Lu2  1  0.049022  0.768519  0.500000  1
  Lu  Lu3  1  0.950978  0.231481  0.500000  1
  Lu  Lu4  1  0.260504  0.550755  0.500000  1
  Lu  Lu5  1  0.739496  0.449245  0.500000  1
  Lu  Lu6  1  0.231481  0.049022  0.500000  1
  Lu  Lu7  1  0.768519  0.950978  0.500000  1
  Lu  Lu8  1  0.500000  0.000000  0.000000  1
  Lu  Lu9  1  0.000000  0.500000  0.000000  1
  Al  Al10  1  0.709521  0.195843  0.000000  1
  Al  Al11  1  0.290479  0.804157  0.000000  1
  Al  Al12  1  0.195843  0.290479  0.000000  1
  Al  Al13  1  0.804157  0.709521  0.000000  1
  Al  Al14  1  0.000000  0.000000  0.000000  1
  Bi  Bi15  1  0.500000  0.500000  0.000000  1
  C  C16  1  0.626942  0.127298  0.500000  1
  C  C17  1  0.373058  0.872702  0.500000  1
  C  C18  1  0.127298  0.373058  0.500000  1
  C  C19  1  0.872702  0.626942  0.500000  1
  C  C20  1  0.162365  0.661023  0.000000  1
  C  C21  1  0.837635  0.338977  0.000000  1
  C  C22  1  0.661023  0.837635  0.000000  1
  C  C23  1  0.338977  0.162365  0.000000  1
