# generated using pymatgen
data_LiDy4Co19P12
_symmetry_space_group_name_H-M   'P 1'
_cell_length_a   3.65618300
_cell_length_b   10.25844752
_cell_length_c   11.76886718
_cell_angle_alpha   89.89248020
_cell_angle_beta   90.00000000
_cell_angle_gamma   90.00000000
_symmetry_Int_Tables_number   1
_chemical_formula_structural   LiDy4Co19P12
_chemical_formula_sum   'Li1 Dy4 Co19 P12'
_cell_volume   441.41131622
_cell_formula_units_Z   1
loop_
 _symmetry_equiv_pos_site_id
 _symmetry_equiv_pos_as_xyz
  1  'x, y, z'
loop_
 _atom_site_type_symbol
 _atom_site_label
 _atom_site_symmetry_multiplicity
 _atom_site_fract_x
 _atom_site_fract_y
 _atom_site_fract_z
 _atom_site_occupancy
  Li  Li0  1  0.250000  0.703212  0.990549  1
  Dy  Dy1  1  0.250000  0.581844  0.701217  1
  Dy  Dy2  1  0.250000  0.918867  0.203353  1
  Dy  Dy3  1  0.750000  0.417655  0.297994  1
  Dy  Dy4  1  0.750000  0.081435  0.796885  1
  Co  Co5  1  0.250000  0.784397  0.491725  1
  Co  Co6  1  0.750000  0.288876  0.010393  1
  Co  Co7  1  0.750000  0.215990  0.507739  1
  Co  Co8  1  0.250000  0.406177  0.488176  1
  Co  Co9  1  0.250000  0.096005  0.987488  1
  Co  Co10  1  0.750000  0.593149  0.513237  1
  Co  Co11  1  0.750000  0.908776  0.012896  1
  Co  Co12  1  0.250000  0.222820  0.176036  1
  Co  Co13  1  0.250000  0.278504  0.675694  1
  Co  Co14  1  0.750000  0.780212  0.821279  1
  Co  Co15  1  0.750000  0.720277  0.327711  1
  Co  Co16  1  0.250000  0.883868  0.696858  1
  Co  Co17  1  0.250000  0.618790  0.200211  1
  Co  Co18  1  0.750000  0.117960  0.300715  1
  Co  Co19  1  0.750000  0.380453  0.801094  1
  Co  Co20  1  0.250000  0.465194  0.932017  1
  Co  Co21  1  0.250000  0.032886  0.431382  1
  Co  Co22  1  0.750000  0.533354  0.067101  1
  Co  Co23  1  0.750000  0.968534  0.566822  1
  P  P24  1  0.250000  0.421198  0.112651  1
  P  P25  1  0.250000  0.081388  0.611431  1
  P  P26  1  0.750000  0.578791  0.884094  1
  P  P27  1  0.750000  0.919010  0.387838  1
  P  P28  1  0.250000  0.269413  0.868218  1
  P  P29  1  0.250000  0.229686  0.369277  1
  P  P30  1  0.750000  0.729510  0.137401  1
  P  P31  1  0.750000  0.771627  0.630250  1
  P  P32  1  0.250000  0.601284  0.393312  1
  P  P33  1  0.250000  0.898398  0.890967  1
  P  P34  1  0.750000  0.397381  0.608395  1
  P  P35  1  0.750000  0.103078  0.107592  1
