# generated using pymatgen
data_Zr6Al6CuRu11
_symmetry_space_group_name_H-M   'P 1'
_cell_length_a   4.46875300
_cell_length_b   6.23314200
_cell_length_c   13.51224000
_cell_angle_alpha   90.00254345
_cell_angle_beta   89.99835671
_cell_angle_gamma   89.99999106
_symmetry_Int_Tables_number   1
_chemical_formula_structural   Zr6Al6CuRu11
_chemical_formula_sum   'Zr6 Al6 Cu1 Ru11'
_cell_volume   376.37495941
_cell_formula_units_Z   1
loop_
 _symmetry_equiv_pos_site_id
 _symmetry_equiv_pos_as_xyz
  1  'x, y, z'
loop_
 _atom_site_type_symbol
 _atom_site_label
 _atom_site_symmetry_multiplicity
 _atom_site_fract_x
 _atom_site_fract_y
 _atom_site_fract_z
 _atom_site_occupancy
  Zr  Zr0  1  0.000032  0.001554  0.000592  1
  Zr  Zr1  1  0.500217  0.501014  0.167211  1
  Zr  Zr2  1  0.000201  0.999711  0.333303  1
  Zr  Zr3  1  0.499994  0.501009  0.499453  1
  Zr  Zr4  1  0.999800  0.001569  0.666097  1
  Zr  Zr5  1  0.499765  0.492342  0.833356  1
  Al  Al6  1  0.000016  0.496601  0.001347  1
  Al  Al7  1  0.500184  0.001220  0.166325  1
  Al  Al8  1  0.000161  0.499333  0.333358  1
  Al  Al9  1  0.499994  0.001183  0.500373  1
  Al  Al10  1  0.999825  0.496621  0.665259  1
  Al  Al11  1  0.499852  0.004864  0.833296  1
  Cu  Cu12  1  0.999703  0.749379  0.833337  1
  Ru  Ru13  1  0.500014  0.249725  0.999027  1
  Ru  Ru14  1  0.500050  0.751902  0.996905  1
  Ru  Ru15  1  0.000196  0.251056  0.165831  1
  Ru  Ru16  1  0.000240  0.747984  0.165332  1
  Ru  Ru17  1  0.500202  0.247245  0.333344  1
  Ru  Ru18  1  0.500215  0.751603  0.333337  1
  Ru  Ru19  1  0.999993  0.250969  0.500805  1
  Ru  Ru20  1  0.999994  0.748084  0.501314  1
  Ru  Ru21  1  0.499781  0.249731  0.667662  1
  Ru  Ru22  1  0.499769  0.751816  0.669776  1
  Ru  Ru23  1  0.999812  0.253486  0.833364  1
