# generated using pymatgen
data_Ca2RuO5
_symmetry_space_group_name_H-M   'P 1'
_cell_length_a   5.26419200
_cell_length_b   7.49290191
_cell_length_c   11.16473436
_cell_angle_alpha   70.45203500
_cell_angle_beta   90.00036828
_cell_angle_gamma   89.99977095
_symmetry_Int_Tables_number   1
_chemical_formula_structural   Ca2RuO5
_chemical_formula_sum   'Ca8 Ru4 O20'
_cell_volume   414.99971297
_cell_formula_units_Z   4
loop_
 _symmetry_equiv_pos_site_id
 _symmetry_equiv_pos_as_xyz
  1  'x, y, z'
loop_
 _atom_site_type_symbol
 _atom_site_label
 _atom_site_symmetry_multiplicity
 _atom_site_fract_x
 _atom_site_fract_y
 _atom_site_fract_z
 _atom_site_occupancy
  Ca  Ca0  1  0.598325  0.843589  0.812889  1
  Ca  Ca1  1  0.901695  0.843591  0.312817  1
  Ca  Ca2  1  0.020417  0.663284  0.626844  1
  Ca  Ca3  1  0.520388  0.336663  0.873178  1
  Ca  Ca4  1  0.479612  0.663337  0.126822  1
  Ca  Ca5  1  0.979583  0.336716  0.373156  1
  Ca  Ca6  1  0.098305  0.156409  0.687183  1
  Ca  Ca7  1  0.401675  0.156411  0.187111  1
  Ru  Ru8  1  0.500000  0.000000  0.500000  1
  Ru  Ru9  1  0.000000  0.000000  0.000000  1
  Ru  Ru10  1  0.500000  0.500000  0.500000  1
  Ru  Ru11  1  0.000000  0.500000  0.000000  1
  O  O12  1  0.782465  0.999427  0.607164  1
  O  O13  1  0.859612  0.747662  0.002230  1
  O  O14  1  0.302083  0.886808  0.650864  1
  O  O15  1  0.313650  0.607029  0.932463  1
  O  O16  1  0.717402  0.999374  0.107223  1
  O  O17  1  0.640272  0.747654  0.502233  1
  O  O18  1  0.197969  0.886789  0.150900  1
  O  O19  1  0.849728  0.563160  0.829301  1
  O  O20  1  0.186411  0.607040  0.432474  1
  O  O21  1  0.349749  0.436849  0.670681  1
  O  O22  1  0.650251  0.563151  0.329319  1
  O  O23  1  0.813589  0.392960  0.567526  1
  O  O24  1  0.150272  0.436840  0.170699  1
  O  O25  1  0.802031  0.113211  0.849100  1
  O  O26  1  0.359728  0.252346  0.497767  1
  O  O27  1  0.282598  0.000626  0.892777  1
  O  O28  1  0.686350  0.392971  0.067537  1
  O  O29  1  0.697917  0.113192  0.349136  1
  O  O30  1  0.140388  0.252338  0.997770  1
  O  O31  1  0.217535  0.000573  0.392836  1
