# generated using pymatgen
data_Tb5GeMoO12
_symmetry_space_group_name_H-M   'P 1'
_cell_length_a   6.85385890
_cell_length_b   6.85385885
_cell_length_c   7.32720145
_cell_angle_alpha   74.42854917
_cell_angle_beta   74.42854649
_cell_angle_gamma   51.40141586
_symmetry_Int_Tables_number   1
_chemical_formula_structural   Tb5GeMoO12
_chemical_formula_sum   'Tb5 Ge1 Mo1 O12'
_cell_volume   256.78863562
_cell_formula_units_Z   1
loop_
 _symmetry_equiv_pos_site_id
 _symmetry_equiv_pos_as_xyz
  1  'x, y, z'
loop_
 _atom_site_type_symbol
 _atom_site_label
 _atom_site_symmetry_multiplicity
 _atom_site_fract_x
 _atom_site_fract_y
 _atom_site_fract_z
 _atom_site_occupancy
  Tb  Tb0  1  0.312991  0.293008  0.360693  1
  Tb  Tb1  1  0.706992  0.687009  0.639307  1
  Tb  Tb2  1  0.309824  0.304634  0.829837  1
  Tb  Tb3  1  0.695366  0.690176  0.170163  1
  Tb  Tb4  1  0.997938  0.002062  0.500000  1
  Ge  Ge5  1  0.747833  0.252167  0.000000  1
  Mo  Mo6  1  0.234588  0.765412  0.000000  1
  O  O7  1  0.897657  0.422576  0.919647  1
  O  O8  1  0.427019  0.897487  0.919027  1
  O  O9  1  0.102513  0.572981  0.080973  1
  O  O10  1  0.577424  0.102343  0.080353  1
  O  O11  1  0.100693  0.596292  0.575011  1
  O  O12  1  0.597247  0.091585  0.577155  1
  O  O13  1  0.908415  0.402753  0.422845  1
  O  O14  1  0.403708  0.899307  0.424989  1
  O  O15  1  0.986295  0.014962  0.819106  1
  O  O16  1  0.985038  0.013705  0.180894  1
  O  O17  1  0.503803  0.495346  0.816815  1
  O  O18  1  0.504654  0.496197  0.183185  1
