# generated using pymatgen
data_Th5Al2Fe3
_symmetry_space_group_name_H-M   'P 1'
_cell_length_a   8.32759885
_cell_length_b   8.32612137
_cell_length_c   8.32794012
_cell_angle_alpha   109.49014384
_cell_angle_beta   109.48596905
_cell_angle_gamma   109.44573923
_symmetry_Int_Tables_number   1
_chemical_formula_structural   Th5Al2Fe3
_chemical_formula_sum   'Th10 Al4 Fe6'
_cell_volume   444.46162743
_cell_formula_units_Z   2
loop_
 _symmetry_equiv_pos_site_id
 _symmetry_equiv_pos_as_xyz
  1  'x, y, z'
loop_
 _atom_site_type_symbol
 _atom_site_label
 _atom_site_symmetry_multiplicity
 _atom_site_fract_x
 _atom_site_fract_y
 _atom_site_fract_z
 _atom_site_occupancy
  Th  Th0  1  0.794370  0.794289  0.794299  1
  Th  Th1  1  0.306365  0.556218  0.750037  1
  Th  Th2  1  0.750044  0.306420  0.556498  1
  Th  Th3  1  0.556567  0.750066  0.306521  1
  Th  Th4  1  0.705816  0.500088  0.999958  1
  Th  Th5  1  0.000066  0.705845  0.499969  1
  Th  Th6  1  0.499950  0.000141  0.705770  1
  Th  Th7  1  0.249883  0.193565  0.943442  1
  Th  Th8  1  0.943485  0.250121  0.193641  1
  Th  Th9  1  0.193742  0.943664  0.250102  1
  Al  Al10  1  0.403968  0.403933  0.403989  1
  Al  Al11  1  0.096050  0.500045  0.000052  1
  Al  Al12  1  0.000028  0.096033  0.500024  1
  Al  Al13  1  0.500001  0.000026  0.096055  1
  Fe  Fe14  1  0.875132  0.125028  0.749986  1
  Fe  Fe15  1  0.749883  0.874956  0.124847  1
  Fe  Fe16  1  0.125081  0.750016  0.875167  1
  Fe  Fe17  1  0.249886  0.624757  0.374911  1
  Fe  Fe18  1  0.374861  0.249913  0.624790  1
  Fe  Fe19  1  0.624821  0.374875  0.249941  1
