# generated using pymatgen
data_Sr2Pt2I
_symmetry_space_group_name_H-M   'P 1'
_cell_length_a   4.51210200
_cell_length_b   4.51210154
_cell_length_c   17.95644300
_cell_angle_alpha   90.00000000
_cell_angle_beta   90.00000000
_cell_angle_gamma   119.99998873
_symmetry_Int_Tables_number   1
_chemical_formula_structural   Sr2Pt2I
_chemical_formula_sum   'Sr4 Pt4 I2'
_cell_volume   316.59843605
_cell_formula_units_Z   2
loop_
 _symmetry_equiv_pos_site_id
 _symmetry_equiv_pos_as_xyz
  1  'x, y, z'
loop_
 _atom_site_type_symbol
 _atom_site_label
 _atom_site_symmetry_multiplicity
 _atom_site_fract_x
 _atom_site_fract_y
 _atom_site_fract_z
 _atom_site_occupancy
  Sr  Sr0  1  0.000000  0.000000  0.108536  1
  Sr  Sr1  1  0.000000  0.000000  0.891464  1
  Sr  Sr2  1  0.000000  0.000000  0.608536  1
  Sr  Sr3  1  0.000000  0.000000  0.391464  1
  Pt  Pt4  1  0.333333  0.666667  0.501797  1
  Pt  Pt5  1  0.666667  0.333333  0.498203  1
  Pt  Pt6  1  0.666667  0.333333  0.001797  1
  Pt  Pt7  1  0.333333  0.666667  0.998203  1
  I  I8  1  0.333333  0.666667  0.250000  1
  I  I9  1  0.666667  0.333333  0.750000  1
