# generated using pymatgen
data_Er3CdIn3CuPd
_symmetry_space_group_name_H-M   'P 1'
_cell_length_a   7.82129400
_cell_length_b   7.82129424
_cell_length_c   3.80273700
_cell_angle_alpha   90.00000000
_cell_angle_beta   90.00000000
_cell_angle_gamma   120.00000742
_symmetry_Int_Tables_number   1
_chemical_formula_structural   Er3CdIn3CuPd
_chemical_formula_sum   'Er3 Cd1 In3 Cu1 Pd1'
_cell_volume   201.45781789
_cell_formula_units_Z   1
loop_
 _symmetry_equiv_pos_site_id
 _symmetry_equiv_pos_as_xyz
  1  'x, y, z'
loop_
 _atom_site_type_symbol
 _atom_site_label
 _atom_site_symmetry_multiplicity
 _atom_site_fract_x
 _atom_site_fract_y
 _atom_site_fract_z
 _atom_site_occupancy
  Er  Er0  1  0.384458  0.974388  0.500000  1
  Er  Er1  1  0.589930  0.615542  0.500000  1
  Er  Er2  1  0.025612  0.410070  0.500000  1
  Cd  Cd3  1  0.666667  0.333333  0.000000  1
  In  In4  1  0.257102  0.252729  0.000000  1
  In  In5  1  0.747271  0.004374  0.000000  1
  In  In6  1  0.995626  0.742898  0.000000  1
  Cu  Cu7  1  0.000000  0.000000  0.500000  1
  Pd  Pd8  1  0.333333  0.666667  0.000000  1
