# generated using pymatgen
data_Ti15V4Si16Rh
_symmetry_space_group_name_H-M   'P 1'
_cell_length_a   6.61537767
_cell_length_b   6.61281285
_cell_length_c   12.07647987
_cell_angle_alpha   90.02420276
_cell_angle_beta   90.25225578
_cell_angle_gamma   89.80034319
_symmetry_Int_Tables_number   1
_chemical_formula_structural   Ti15V4Si16Rh
_chemical_formula_sum   'Ti15 V4 Si16 Rh1'
_cell_volume   528.29238966
_cell_formula_units_Z   1
loop_
 _symmetry_equiv_pos_site_id
 _symmetry_equiv_pos_as_xyz
  1  'x, y, z'
loop_
 _atom_site_type_symbol
 _atom_site_label
 _atom_site_symmetry_multiplicity
 _atom_site_fract_x
 _atom_site_fract_y
 _atom_site_fract_z
 _atom_site_occupancy
  Ti  Ti0  1  0.501350  0.649696  0.628643  1
  Ti  Ti1  1  0.003258  0.843206  0.119480  1
  Ti  Ti2  1  0.150784  0.999600  0.374829  1
  Ti  Ti3  1  0.845070  0.003138  0.881943  1
  Ti  Ti4  1  0.002637  0.345582  0.220412  1
  Ti  Ti5  1  0.156711  0.501076  0.469094  1
  Ti  Ti6  1  0.837768  0.498689  0.970850  1
  Ti  Ti7  1  0.501630  0.157216  0.530732  1
  Ti  Ti8  1  0.501098  0.836376  0.029798  1
  Ti  Ti9  1  0.998064  0.656869  0.720206  1
  Ti  Ti10  1  0.345683  0.001665  0.779533  1
  Ti  Ti11  1  0.657511  0.999328  0.279733  1
  Ti  Ti12  1  0.330604  0.669249  0.246817  1
  Ti  Ti13  1  0.669303  0.328263  0.752700  1
  Ti  Ti14  1  0.829652  0.831428  0.500092  1
  V  V15  1  0.993417  0.152005  0.623729  1
  V  V16  1  0.353670  0.496825  0.867786  1
  V  V17  1  0.652407  0.505898  0.373049  1
  V  V18  1  0.499649  0.354231  0.130951  1
  Si  Si19  1  0.049044  0.298954  0.815778  1
  Si  Si20  1  0.207252  0.535807  0.058747  1
  Si  Si21  1  0.800062  0.454204  0.564011  1
  Si  Si22  1  0.536581  0.206010  0.941015  1
  Si  Si23  1  0.455917  0.798326  0.435137  1
  Si  Si24  1  0.954776  0.698396  0.314184  1
  Si  Si25  1  0.301499  0.051173  0.181975  1
  Si  Si26  1  0.702480  0.956958  0.686537  1
  Si  Si27  1  0.289272  0.357007  0.672892  1
  Si  Si28  1  0.140971  0.785082  0.919980  1
  Si  Si29  1  0.858259  0.209626  0.423749  1
  Si  Si30  1  0.785708  0.139529  0.080508  1
  Si  Si31  1  0.204128  0.865687  0.577102  1
  Si  Si32  1  0.704909  0.636827  0.175293  1
  Si  Si33  1  0.366377  0.297081  0.326110  1
  Si  Si34  1  0.638384  0.704788  0.827040  1
  Rh  Rh35  1  0.174116  0.174209  0.999562  1
