# generated using pymatgen
data_RbNd6RhI12
_symmetry_space_group_name_H-M   'P 1'
_cell_length_a   10.06429915
_cell_length_b   10.06429701
_cell_length_c   10.06429700
_cell_angle_alpha   105.53761634
_cell_angle_beta   105.53760113
_cell_angle_gamma   105.53760838
_symmetry_Int_Tables_number   1
_chemical_formula_structural   RbNd6RhI12
_chemical_formula_sum   'Rb1 Nd6 Rh1 I12'
_cell_volume   880.65395096
_cell_formula_units_Z   1
loop_
 _symmetry_equiv_pos_site_id
 _symmetry_equiv_pos_as_xyz
  1  'x, y, z'
loop_
 _atom_site_type_symbol
 _atom_site_label
 _atom_site_symmetry_multiplicity
 _atom_site_fract_x
 _atom_site_fract_y
 _atom_site_fract_z
 _atom_site_occupancy
  Rb  Rb0  1  0.500000  0.500000  0.500000  1
  Nd  Nd1  1  0.904853  0.981812  0.699159  1
  Nd  Nd2  1  0.981812  0.699159  0.904853  1
  Nd  Nd3  1  0.699159  0.904853  0.981812  1
  Nd  Nd4  1  0.095147  0.018188  0.300841  1
  Nd  Nd5  1  0.018188  0.300841  0.095147  1
  Nd  Nd6  1  0.300841  0.095147  0.018188  1
  Rh  Rh7  1  0.000000  0.000000  0.000000  1
  I  I8  1  0.564460  0.886750  0.649579  1
  I  I9  1  0.886750  0.649579  0.564460  1
  I  I10  1  0.649579  0.564460  0.886750  1
  I  I11  1  0.435540  0.113250  0.350421  1
  I  I12  1  0.113250  0.350421  0.435540  1
  I  I13  1  0.350421  0.435540  0.113250  1
  I  I14  1  0.675517  0.223562  0.075136  1
  I  I15  1  0.223562  0.075136  0.675517  1
  I  I16  1  0.075136  0.675517  0.223562  1
  I  I17  1  0.324483  0.776438  0.924864  1
  I  I18  1  0.776438  0.924864  0.324483  1
  I  I19  1  0.924864  0.324483  0.776438  1
