# generated using pymatgen
data_YHoFeAuO7
_symmetry_space_group_name_H-M   'P 1'
_cell_length_a   7.28243591
_cell_length_b   7.33491094
_cell_length_c   7.28244334
_cell_angle_alpha   59.76205547
_cell_angle_beta   59.54061225
_cell_angle_gamma   59.76200067
_symmetry_Int_Tables_number   1
_chemical_formula_structural   YHoFeAuO7
_chemical_formula_sum   'Y2 Ho2 Fe2 Au2 O14'
_cell_volume   273.11304228
_cell_formula_units_Z   2
loop_
 _symmetry_equiv_pos_site_id
 _symmetry_equiv_pos_as_xyz
  1  'x, y, z'
loop_
 _atom_site_type_symbol
 _atom_site_label
 _atom_site_symmetry_multiplicity
 _atom_site_fract_x
 _atom_site_fract_y
 _atom_site_fract_z
 _atom_site_occupancy
  Y  Y0  1  0.000000  0.500002  0.500000  1
  Y  Y1  1  0.499992  0.500005  0.000003  1
  Ho  Ho2  1  0.500000  0.999998  0.499996  1
  Ho  Ho3  1  0.500006  0.500000  0.499994  1
  Fe  Fe4  1  0.999967  0.499992  0.999996  1
  Fe  Fe5  1  0.999974  0.000038  0.000006  1
  Au  Au6  1  0.500028  0.999966  0.000064  1
  Au  Au7  1  0.000053  0.999961  0.499985  1
  O  O8  1  0.620968  0.629030  0.620965  1
  O  O9  1  0.379034  0.370967  0.379037  1
  O  O10  1  0.341370  0.913092  0.906117  1
  O  O11  1  0.093890  0.660584  0.658618  1
  O  O12  1  0.914795  0.335210  0.914790  1
  O  O13  1  0.906121  0.913094  0.341367  1
  O  O14  1  0.341374  0.339426  0.906113  1
  O  O15  1  0.341019  0.908997  0.341016  1
  O  O16  1  0.906110  0.339425  0.341373  1
  O  O17  1  0.658621  0.660587  0.093884  1
  O  O18  1  0.093878  0.086909  0.658627  1
  O  O19  1  0.658622  0.086910  0.093880  1
  O  O20  1  0.658978  0.091013  0.658970  1
  O  O21  1  0.085201  0.664798  0.085201  1
