# generated using pymatgen
data_Ti6C2N3
_symmetry_space_group_name_H-M   'P 1'
_cell_length_a   5.19951797
_cell_length_b   5.19951932
_cell_length_c   5.17539300
_cell_angle_alpha   99.65186795
_cell_angle_beta   99.65187049
_cell_angle_gamma   119.90388015
_symmetry_Int_Tables_number   1
_chemical_formula_structural   Ti6C2N3
_chemical_formula_sum   'Ti6 C2 N3'
_cell_volume   114.28740211
_cell_formula_units_Z   1
loop_
 _symmetry_equiv_pos_site_id
 _symmetry_equiv_pos_as_xyz
  1  'x, y, z'
loop_
 _atom_site_type_symbol
 _atom_site_label
 _atom_site_symmetry_multiplicity
 _atom_site_fract_x
 _atom_site_fract_y
 _atom_site_fract_z
 _atom_site_occupancy
  Ti  Ti0  1  0.435082  0.084824  0.251933  1
  Ti  Ti1  1  0.084824  0.435082  0.251933  1
  Ti  Ti2  1  0.736491  0.736491  0.265282  1
  Ti  Ti3  1  0.263510  0.263510  0.734718  1
  Ti  Ti4  1  0.915176  0.564918  0.748065  1
  Ti  Ti5  1  0.564918  0.915176  0.748065  1
  C  C6  1  0.834436  0.165563  0.500000  1
  C  C7  1  0.165563  0.834436  0.500000  1
  N  N8  1  0.666893  0.333106  0.000000  1
  N  N9  1  0.333106  0.666893  0.000000  1
  N  N10  1  0.499999  0.499999  0.500000  1
