# generated using pymatgen
data_Ca12PdRh3
_symmetry_space_group_name_H-M   'P 1'
_cell_length_a   6.53002804
_cell_length_b   7.67950003
_cell_length_c   9.63645500
_cell_angle_alpha   90.00000000
_cell_angle_beta   90.00000000
_cell_angle_gamma   89.81737194
_symmetry_Int_Tables_number   1
_chemical_formula_structural   Ca12PdRh3
_chemical_formula_sum   'Ca12 Pd1 Rh3'
_cell_volume   483.24023171
_cell_formula_units_Z   1
loop_
 _symmetry_equiv_pos_site_id
 _symmetry_equiv_pos_as_xyz
  1  'x, y, z'
loop_
 _atom_site_type_symbol
 _atom_site_label
 _atom_site_symmetry_multiplicity
 _atom_site_fract_x
 _atom_site_fract_y
 _atom_site_fract_z
 _atom_site_occupancy
  Ca  Ca0  1  0.336659  0.667933  0.070404  1
  Ca  Ca1  1  0.163124  0.169728  0.430502  1
  Ca  Ca2  1  0.661411  0.325793  0.563714  1
  Ca  Ca3  1  0.843892  0.836008  0.935736  1
  Ca  Ca4  1  0.661411  0.325793  0.936286  1
  Ca  Ca5  1  0.843892  0.836008  0.564264  1
  Ca  Ca6  1  0.336659  0.667933  0.429596  1
  Ca  Ca7  1  0.163124  0.169728  0.069498  1
  Ca  Ca8  1  0.856931  0.543691  0.250000  1
  Ca  Ca9  1  0.640543  0.039770  0.250000  1
  Ca  Ca10  1  0.134025  0.455166  0.750000  1
  Ca  Ca11  1  0.356061  0.963812  0.750000  1
  Pd  Pd12  1  0.548925  0.622082  0.750000  1
  Rh  Rh13  1  0.044686  0.876677  0.250000  1
  Rh  Rh14  1  0.458758  0.376073  0.250000  1
  Rh  Rh15  1  0.949899  0.123806  0.750000  1
