# generated using pymatgen
data_Hf9TaTcNiW2
_symmetry_space_group_name_H-M   'P 1'
_cell_length_a   8.72025000
_cell_length_b   8.69546860
_cell_length_c   8.49024900
_cell_angle_alpha   90.00000000
_cell_angle_beta   90.00000000
_cell_angle_gamma   119.90603595
_symmetry_Int_Tables_number   1
_chemical_formula_structural   Hf9TaTcNiW2
_chemical_formula_sum   'Hf18 Ta2 Tc2 Ni2 W4'
_cell_volume   558.06324083
_cell_formula_units_Z   2
loop_
 _symmetry_equiv_pos_site_id
 _symmetry_equiv_pos_as_xyz
  1  'x, y, z'
loop_
 _atom_site_type_symbol
 _atom_site_label
 _atom_site_symmetry_multiplicity
 _atom_site_fract_x
 _atom_site_fract_y
 _atom_site_fract_z
 _atom_site_occupancy
  Hf  Hf0  1  0.201381  0.800031  0.441922  1
  Hf  Hf1  1  0.201381  0.401351  0.441922  1
  Hf  Hf2  1  0.598093  0.799048  0.442101  1
  Hf  Hf3  1  0.800369  0.200357  0.558247  1
  Hf  Hf4  1  0.800369  0.600011  0.558247  1
  Hf  Hf5  1  0.400505  0.200253  0.557832  1
  Hf  Hf6  1  0.800369  0.200357  0.941753  1
  Hf  Hf7  1  0.800369  0.600011  0.941753  1
  Hf  Hf8  1  0.400505  0.200253  0.942168  1
  Hf  Hf9  1  0.201381  0.800031  0.058078  1
  Hf  Hf10  1  0.201381  0.401351  0.058078  1
  Hf  Hf11  1  0.598093  0.799048  0.057899  1
  Hf  Hf12  1  0.542454  0.456380  0.250000  1
  Hf  Hf13  1  0.542454  0.086074  0.250000  1
  Hf  Hf14  1  0.913888  0.456944  0.250000  1
  Hf  Hf15  1  0.457349  0.542334  0.750000  1
  Hf  Hf16  1  0.457349  0.915016  0.750000  1
  Hf  Hf17  1  0.084591  0.542297  0.750000  1
  Ta  Ta18  1  0.997850  0.998925  0.495344  1
  Ta  Ta19  1  0.997850  0.998925  0.004656  1
  Tc  Tc20  1  0.886522  0.115333  0.250000  1
  Tc  Tc21  1  0.886522  0.771187  0.250000  1
  Ni  Ni22  1  0.334528  0.667264  0.250000  1
  Ni  Ni23  1  0.666747  0.333374  0.750000  1
  W  W24  1  0.230611  0.115306  0.250000  1
  W  W25  1  0.112377  0.885753  0.750000  1
  W  W26  1  0.112377  0.226622  0.750000  1
  W  W27  1  0.772337  0.886168  0.750000  1
