# generated using pymatgen
data_CeHoSe2
_symmetry_space_group_name_H-M   'P 1'
_cell_length_a   7.28508093
_cell_length_b   7.28508036
_cell_length_c   7.28508174
_cell_angle_alpha   32.45609302
_cell_angle_beta   32.45610016
_cell_angle_gamma   32.45610088
_symmetry_Int_Tables_number   1
_chemical_formula_structural   CeHoSe2
_chemical_formula_sum   'Ce1 Ho1 Se2'
_cell_volume   99.00540842
_cell_formula_units_Z   1
loop_
 _symmetry_equiv_pos_site_id
 _symmetry_equiv_pos_as_xyz
  1  'x, y, z'
loop_
 _atom_site_type_symbol
 _atom_site_label
 _atom_site_symmetry_multiplicity
 _atom_site_fract_x
 _atom_site_fract_y
 _atom_site_fract_z
 _atom_site_occupancy
  Ce  Ce0  1  0.500000  0.500000  0.500000  1
  Ho  Ho1  1  0.000000  0.000000  0.000000  1
  Se  Se2  1  0.745369  0.745369  0.745369  1
  Se  Se3  1  0.254631  0.254631  0.254631  1
