# generated using pymatgen
data_Zr4TaNb5Si8
_symmetry_space_group_name_H-M   'P 1'
_cell_length_a   6.88975414
_cell_length_b   6.89035100
_cell_length_c   12.78100227
_cell_angle_alpha   90.00000000
_cell_angle_beta   90.02347019
_cell_angle_gamma   90.00000000
_symmetry_Int_Tables_number   1
_chemical_formula_structural   Zr4TaNb5Si8
_chemical_formula_sum   'Zr8 Ta2 Nb10 Si16'
_cell_volume   606.75022490
_cell_formula_units_Z   2
loop_
 _symmetry_equiv_pos_site_id
 _symmetry_equiv_pos_as_xyz
  1  'x, y, z'
loop_
 _atom_site_type_symbol
 _atom_site_label
 _atom_site_symmetry_multiplicity
 _atom_site_fract_x
 _atom_site_fract_y
 _atom_site_fract_z
 _atom_site_occupancy
  Zr  Zr0  1  0.001212  0.659163  0.031854  1
  Zr  Zr1  1  0.999321  0.340837  0.531501  1
  Zr  Zr2  1  0.658985  0.000938  0.968523  1
  Zr  Zr3  1  0.159313  0.499089  0.781856  1
  Zr  Zr4  1  0.841015  0.500938  0.281477  1
  Zr  Zr5  1  0.498788  0.159163  0.218146  1
  Zr  Zr6  1  0.500679  0.840837  0.718499  1
  Zr  Zr7  1  0.340687  0.999089  0.468144  1
  Ta  Ta8  1  0.169682  0.830289  0.249947  1
  Ta  Ta9  1  0.330318  0.330289  0.000053  1
  Nb  Nb10  1  0.346605  0.504805  0.375899  1
  Nb  Nb11  1  0.847447  0.995139  0.373678  1
  Nb  Nb12  1  0.005056  0.153039  0.126109  1
  Nb  Nb13  1  0.995445  0.847025  0.626140  1
  Nb  Nb14  1  0.652553  0.495139  0.876322  1
  Nb  Nb15  1  0.504555  0.347025  0.623860  1
  Nb  Nb16  1  0.494944  0.653039  0.123891  1
  Nb  Nb17  1  0.153395  0.004805  0.874101  1
  Nb  Nb18  1  0.669604  0.669606  0.499942  1
  Nb  Nb19  1  0.830396  0.169606  0.750058  1
  Si  Si20  1  0.044535  0.702014  0.436865  1
  Si  Si21  1  0.956012  0.298307  0.936951  1
  Si  Si22  1  0.702030  0.044474  0.562993  1
  Si  Si23  1  0.201693  0.455991  0.186796  1
  Si  Si24  1  0.797970  0.544474  0.687007  1
  Si  Si25  1  0.455465  0.202014  0.813135  1
  Si  Si26  1  0.543988  0.798307  0.313049  1
  Si  Si27  1  0.298307  0.955991  0.063204  1
  Si  Si28  1  0.865496  0.791607  0.822593  1
  Si  Si29  1  0.134611  0.207944  0.322431  1
  Si  Si30  1  0.792135  0.865310  0.177586  1
  Si  Si31  1  0.291509  0.634421  0.572622  1
  Si  Si32  1  0.707865  0.365310  0.072414  1
  Si  Si33  1  0.634504  0.291607  0.427407  1
  Si  Si34  1  0.365389  0.707944  0.927569  1
  Si  Si35  1  0.208491  0.134421  0.677378  1
