# generated using pymatgen
data_Er10Sn6PH
_symmetry_space_group_name_H-M   'P 1'
_cell_length_a   8.94568000
_cell_length_b   8.94568025
_cell_length_c   6.51862200
_cell_angle_alpha   90.00000000
_cell_angle_beta   90.00000000
_cell_angle_gamma   119.99999168
_symmetry_Int_Tables_number   1
_chemical_formula_structural   Er10Sn6PH
_chemical_formula_sum   'Er10 Sn6 P1 H1'
_cell_volume   451.76563912
_cell_formula_units_Z   1
loop_
 _symmetry_equiv_pos_site_id
 _symmetry_equiv_pos_as_xyz
  1  'x, y, z'
loop_
 _atom_site_type_symbol
 _atom_site_label
 _atom_site_symmetry_multiplicity
 _atom_site_fract_x
 _atom_site_fract_y
 _atom_site_fract_z
 _atom_site_occupancy
  Er  Er0  1  0.666667  0.333333  0.000000  1
  Er  Er1  1  0.333333  0.666667  0.000000  1
  Er  Er2  1  0.333333  0.666667  0.500000  1
  Er  Er3  1  0.666667  0.333333  0.500000  1
  Er  Er4  1  0.757139  0.757139  0.751082  1
  Er  Er5  1  0.242861  0.000000  0.751082  1
  Er  Er6  1  0.000000  0.242861  0.751082  1
  Er  Er7  1  0.242861  0.242861  0.248918  1
  Er  Er8  1  0.757139  0.000000  0.248918  1
  Er  Er9  1  0.000000  0.757139  0.248918  1
  Sn  Sn10  1  0.395944  0.395944  0.750030  1
  Sn  Sn11  1  0.604056  0.000000  0.750030  1
  Sn  Sn12  1  0.000000  0.604056  0.750030  1
  Sn  Sn13  1  0.604056  0.604056  0.249970  1
  Sn  Sn14  1  0.395944  0.000000  0.249970  1
  Sn  Sn15  1  0.000000  0.395944  0.249970  1
  P  P16  1  0.000000  0.000000  0.500000  1
  H  H17  1  0.000000  0.000000  0.000000  1
