# generated using pymatgen
data_Tb7DyEr12(CoBi2)4
_symmetry_space_group_name_H-M   'P 1'
_cell_length_a   7.97358570
_cell_length_b   8.86584000
_cell_length_c   12.39379410
_cell_angle_alpha   90.00000000
_cell_angle_beta   89.99989260
_cell_angle_gamma   90.00000000
_symmetry_Int_Tables_number   1
_chemical_formula_structural   Tb7DyEr12(CoBi2)4
_chemical_formula_sum   'Tb7 Dy1 Er12 Co4 Bi8'
_cell_volume   876.14872383
_cell_formula_units_Z   1
loop_
 _symmetry_equiv_pos_site_id
 _symmetry_equiv_pos_as_xyz
  1  'x, y, z'
loop_
 _atom_site_type_symbol
 _atom_site_label
 _atom_site_symmetry_multiplicity
 _atom_site_fract_x
 _atom_site_fract_y
 _atom_site_fract_z
 _atom_site_occupancy
  Tb  Tb0  1  0.344700  0.250000  0.300830  1
  Tb  Tb1  1  0.154883  0.250000  0.801296  1
  Tb  Tb2  1  0.844857  0.750000  0.199045  1
  Tb  Tb3  1  0.120898  0.750000  0.813450  1
  Tb  Tb4  1  0.879309  0.250000  0.186494  1
  Tb  Tb5  1  0.620831  0.250000  0.686529  1
  Tb  Tb6  1  0.379245  0.750000  0.313317  1
  Dy  Dy7  1  0.655206  0.750000  0.699285  1
  Er  Er8  1  0.552169  0.750000  0.997216  1
  Er  Er9  1  0.447623  0.250000  0.003165  1
  Er  Er10  1  0.052199  0.250000  0.502510  1
  Er  Er11  1  0.947552  0.750000  0.497334  1
  Er  Er12  1  0.826045  0.463540  0.935964  1
  Er  Er13  1  0.173754  0.536614  0.064094  1
  Er  Er14  1  0.326418  0.536416  0.563721  1
  Er  Er15  1  0.173754  0.963386  0.064094  1
  Er  Er16  1  0.673749  0.463432  0.435924  1
  Er  Er17  1  0.826045  0.036460  0.935964  1
  Er  Er18  1  0.673749  0.036568  0.435924  1
  Er  Er19  1  0.326418  0.963584  0.563721  1
  Co  Co20  1  0.936984  0.750000  0.992907  1
  Co  Co21  1  0.063009  0.250000  0.007237  1
  Co  Co22  1  0.437088  0.250000  0.506861  1
  Co  Co23  1  0.563086  0.750000  0.493167  1
  Bi  Bi24  1  0.933904  0.007726  0.672580  1
  Bi  Bi25  1  0.066260  0.992144  0.327213  1
  Bi  Bi26  1  0.433665  0.992210  0.827429  1
  Bi  Bi27  1  0.066260  0.507856  0.327213  1
  Bi  Bi28  1  0.566387  0.007840  0.172751  1
  Bi  Bi29  1  0.933904  0.492274  0.672580  1
  Bi  Bi30  1  0.566387  0.492160  0.172751  1
  Bi  Bi31  1  0.433665  0.507790  0.827429  1
