# generated using pymatgen
data_Sc2Be4IrRu4
_symmetry_space_group_name_H-M   'P 1'
_cell_length_a   3.20580000
_cell_length_b   8.58933612
_cell_length_c   10.22342001
_cell_angle_alpha   90.00754267
_cell_angle_beta   90.00000000
_cell_angle_gamma   90.00000000
_symmetry_Int_Tables_number   1
_chemical_formula_structural   Sc2Be4IrRu4
_chemical_formula_sum   'Sc4 Be8 Ir2 Ru8'
_cell_volume   281.50895986
_cell_formula_units_Z   2
loop_
 _symmetry_equiv_pos_site_id
 _symmetry_equiv_pos_as_xyz
  1  'x, y, z'
loop_
 _atom_site_type_symbol
 _atom_site_label
 _atom_site_symmetry_multiplicity
 _atom_site_fract_x
 _atom_site_fract_y
 _atom_site_fract_z
 _atom_site_occupancy
  Sc  Sc0  1  0.500000  0.839169  0.184387  1
  Sc  Sc1  1  0.500000  0.160831  0.815613  1
  Sc  Sc2  1  0.500000  0.660722  0.684536  1
  Sc  Sc3  1  0.500000  0.339278  0.315464  1
  Be  Be4  1  0.500000  0.964277  0.594379  1
  Be  Be5  1  0.500000  0.035723  0.405621  1
  Be  Be6  1  0.500000  0.843582  0.902355  1
  Be  Be7  1  0.500000  0.156418  0.097645  1
  Be  Be8  1  0.500000  0.656387  0.402336  1
  Be  Be9  1  0.500000  0.343613  0.597664  1
  Be  Be10  1  0.500000  0.464466  0.905572  1
  Be  Be11  1  0.500000  0.535534  0.094428  1
  Ir  Ir12  1  0.000000  0.000000  0.000000  1
  Ir  Ir13  1  0.000000  0.500000  0.500000  1
  Ru  Ru14  1  0.000000  0.659144  0.954727  1
  Ru  Ru15  1  0.000000  0.340856  0.045273  1
  Ru  Ru16  1  0.000000  0.840887  0.454570  1
  Ru  Ru17  1  0.000000  0.159113  0.545430  1
  Ru  Ru18  1  0.000000  0.405694  0.757375  1
  Ru  Ru19  1  0.000000  0.594306  0.242625  1
  Ru  Ru20  1  0.000000  0.905681  0.742695  1
  Ru  Ru21  1  0.000000  0.094319  0.257305  1
