# generated using pymatgen
data_CaTbHo2(Ga2Ag)4
_symmetry_space_group_name_H-M   'P 1'
_cell_length_a   4.36184700
_cell_length_b   6.99961221
_cell_length_c   10.31312483
_cell_angle_alpha   89.59519363
_cell_angle_beta   90.00000000
_cell_angle_gamma   90.00000000
_symmetry_Int_Tables_number   1
_chemical_formula_structural   CaTbHo2(Ga2Ag)4
_chemical_formula_sum   'Ca1 Tb1 Ho2 Ga8 Ag4'
_cell_volume   314.86460518
_cell_formula_units_Z   1
loop_
 _symmetry_equiv_pos_site_id
 _symmetry_equiv_pos_as_xyz
  1  'x, y, z'
loop_
 _atom_site_type_symbol
 _atom_site_label
 _atom_site_symmetry_multiplicity
 _atom_site_fract_x
 _atom_site_fract_y
 _atom_site_fract_z
 _atom_site_occupancy
  Ca  Ca0  1  0.750000  0.222817  0.174172  1
  Tb  Tb1  1  0.250000  0.277929  0.674221  1
  Ho  Ho2  1  0.250000  0.779056  0.826835  1
  Ho  Ho3  1  0.750000  0.720365  0.325561  1
  Ga  Ga4  1  0.250000  0.925899  0.152793  1
  Ga  Ga5  1  0.750000  0.070505  0.844136  1
  Ga  Ga6  1  0.750000  0.573954  0.655236  1
  Ga  Ga7  1  0.250000  0.429981  0.348137  1
  Ga  Ga8  1  0.250000  0.704036  0.536210  1
  Ga  Ga9  1  0.750000  0.299813  0.465273  1
  Ga  Ga10  1  0.750000  0.797113  0.035188  1
  Ga  Ga11  1  0.250000  0.199975  0.964201  1
  Ag  Ag12  1  0.250000  0.544438  0.095677  1
  Ag  Ag13  1  0.750000  0.455586  0.903028  1
  Ag  Ag14  1  0.750000  0.954866  0.595726  1
  Ag  Ag15  1  0.250000  0.043667  0.403607  1
