# generated using pymatgen
data_LiTb11(SiAu)12
_symmetry_space_group_name_H-M   'P 1'
_cell_length_a   4.35509300
_cell_length_b   7.52489690
_cell_length_c   22.60499400
_cell_angle_alpha   89.97204841
_cell_angle_beta   90.00000000
_cell_angle_gamma   90.00000000
_symmetry_Int_Tables_number   1
_chemical_formula_structural   LiTb11(SiAu)12
_chemical_formula_sum   'Li1 Tb11 Si12 Au12'
_cell_volume   740.80231631
_cell_formula_units_Z   1
loop_
 _symmetry_equiv_pos_site_id
 _symmetry_equiv_pos_as_xyz
  1  'x, y, z'
loop_
 _atom_site_type_symbol
 _atom_site_label
 _atom_site_symmetry_multiplicity
 _atom_site_fract_x
 _atom_site_fract_y
 _atom_site_fract_z
 _atom_site_occupancy
  Li  Li0  1  0.250000  0.716372  0.332791  1
  Tb  Tb1  1  0.750000  0.256006  0.665028  1
  Tb  Tb2  1  0.750000  0.233446  0.172087  1
  Tb  Tb3  1  0.250000  0.753335  0.834195  1
  Tb  Tb4  1  0.250000  0.766025  0.171660  1
  Tb  Tb5  1  0.750000  0.247728  0.832578  1
  Tb  Tb6  1  0.750000  0.283324  0.333015  1
  Tb  Tb7  1  0.250000  0.743693  0.662727  1
  Tb  Tb8  1  0.250000  0.740251  0.002839  1
  Tb  Tb9  1  0.750000  0.260298  0.003308  1
  Tb  Tb10  1  0.750000  0.232342  0.495282  1
  Tb  Tb11  1  0.250000  0.766832  0.492798  1
  Si  Si12  1  0.250000  0.085143  0.094344  1
  Si  Si13  1  0.750000  0.919647  0.928554  1
  Si  Si14  1  0.750000  0.583597  0.426753  1
  Si  Si15  1  0.250000  0.413714  0.578497  1
  Si  Si16  1  0.250000  0.081987  0.271649  1
  Si  Si17  1  0.750000  0.916788  0.752679  1
  Si  Si18  1  0.750000  0.589282  0.243831  1
  Si  Si19  1  0.250000  0.419166  0.746643  1
  Si  Si20  1  0.250000  0.076735  0.390429  1
  Si  Si21  1  0.750000  0.915202  0.579494  1
  Si  Si22  1  0.750000  0.585303  0.089955  1
  Si  Si23  1  0.250000  0.414145  0.918977  1
  Au  Au24  1  0.250000  0.423048  0.248522  1
  Au  Au25  1  0.750000  0.585093  0.750198  1
  Au  Au26  1  0.750000  0.915030  0.261539  1
  Au  Au27  1  0.250000  0.082460  0.746800  1
  Au  Au28  1  0.250000  0.416049  0.417825  1
  Au  Au29  1  0.750000  0.580448  0.571684  1
  Au  Au30  1  0.750000  0.919447  0.078295  1
  Au  Au31  1  0.250000  0.082336  0.915849  1
  Au  Au32  1  0.250000  0.417357  0.089631  1
  Au  Au33  1  0.750000  0.584644  0.915409  1
  Au  Au34  1  0.750000  0.911013  0.402515  1
  Au  Au35  1  0.250000  0.082714  0.581612  1
