# generated using pymatgen
data_TbY3(Mn2I)2
_symmetry_space_group_name_H-M   'P 1'
_cell_length_a   3.87813000
_cell_length_b   3.87812991
_cell_length_c   17.70227800
_cell_angle_alpha   90.00000000
_cell_angle_beta   90.00000000
_cell_angle_gamma   120.00000073
_symmetry_Int_Tables_number   1
_chemical_formula_structural   TbY3(Mn2I)2
_chemical_formula_sum   'Tb1 Y3 Mn4 I2'
_cell_volume   230.57090373
_cell_formula_units_Z   1
loop_
 _symmetry_equiv_pos_site_id
 _symmetry_equiv_pos_as_xyz
  1  'x, y, z'
loop_
 _atom_site_type_symbol
 _atom_site_label
 _atom_site_symmetry_multiplicity
 _atom_site_fract_x
 _atom_site_fract_y
 _atom_site_fract_z
 _atom_site_occupancy
  Tb  Tb0  1  0.000000  0.000000  0.109949  1
  Y  Y1  1  0.000000  0.000000  0.889928  1
  Y  Y2  1  0.000000  0.000000  0.610110  1
  Y  Y3  1  0.000000  0.000000  0.389772  1
  Mn  Mn4  1  0.333333  0.666667  0.509011  1
  Mn  Mn5  1  0.666667  0.333333  0.491045  1
  Mn  Mn6  1  0.666667  0.333333  0.009114  1
  Mn  Mn7  1  0.333333  0.666667  0.990806  1
  I  I8  1  0.333333  0.666667  0.250268  1
  I  I9  1  0.666667  0.333333  0.749996  1
