# generated using pymatgen
data_La3InGaSn3
_symmetry_space_group_name_H-M   'P 1'
_cell_length_a   6.67111418
_cell_length_b   6.67111455
_cell_length_c   10.49231599
_cell_angle_alpha   89.93776358
_cell_angle_beta   89.93776268
_cell_angle_gamma   102.29013920
_symmetry_Int_Tables_number   1
_chemical_formula_structural   La3InGaSn3
_chemical_formula_sum   'La6 In2 Ga2 Sn6'
_cell_volume   456.24550043
_cell_formula_units_Z   2
loop_
 _symmetry_equiv_pos_site_id
 _symmetry_equiv_pos_as_xyz
  1  'x, y, z'
loop_
 _atom_site_type_symbol
 _atom_site_label
 _atom_site_symmetry_multiplicity
 _atom_site_fract_x
 _atom_site_fract_y
 _atom_site_fract_z
 _atom_site_occupancy
  La  La0  1  0.639638  0.639638  0.260849  1
  La  La1  1  0.360362  0.360362  0.739151  1
  La  La2  1  0.796792  0.203208  0.000000  1
  La  La3  1  0.203208  0.796792  0.000000  1
  La  La4  1  0.202676  0.797324  0.500000  1
  La  La5  1  0.797324  0.202676  0.500000  1
  In  In6  1  0.312043  0.312043  0.043507  1
  In  In7  1  0.687957  0.687957  0.956493  1
  Ga  Ga8  1  0.691146  0.691146  0.549268  1
  Ga  Ga9  1  0.308854  0.308854  0.450732  1
  Sn  Sn10  1  0.087317  0.491869  0.253891  1
  Sn  Sn11  1  0.912683  0.508131  0.746109  1
  Sn  Sn12  1  0.491869  0.087317  0.253891  1
  Sn  Sn13  1  0.508131  0.912683  0.746109  1
  Sn  Sn14  1  0.026762  0.026762  0.251911  1
  Sn  Sn15  1  0.973238  0.973238  0.748089  1
