# generated using pymatgen
data_DyTm3Sn6Rh7
_symmetry_space_group_name_H-M   'P 1'
_cell_length_a   7.58984979
_cell_length_b   7.58984911
_cell_length_c   7.58985035
_cell_angle_alpha   109.50542565
_cell_angle_beta   109.50542750
_cell_angle_gamma   109.50541909
_symmetry_Int_Tables_number   1
_chemical_formula_structural   DyTm3Sn6Rh7
_chemical_formula_sum   'Dy1 Tm3 Sn6 Rh7'
_cell_volume   336.14484523
_cell_formula_units_Z   1
loop_
 _symmetry_equiv_pos_site_id
 _symmetry_equiv_pos_as_xyz
  1  'x, y, z'
loop_
 _atom_site_type_symbol
 _atom_site_label
 _atom_site_symmetry_multiplicity
 _atom_site_fract_x
 _atom_site_fract_y
 _atom_site_fract_z
 _atom_site_occupancy
  Dy  Dy0  1  0.500000  0.500000  0.500000  1
  Tm  Tm1  1  0.000000  0.000000  0.500000  1
  Tm  Tm2  1  0.000000  0.500000  0.000000  1
  Tm  Tm3  1  0.500000  0.000000  0.000000  1
  Sn  Sn4  1  0.685111  0.685111  0.000650  1
  Sn  Sn5  1  0.314889  0.999350  0.314889  1
  Sn  Sn6  1  0.999350  0.314889  0.314889  1
  Sn  Sn7  1  0.314889  0.314889  0.999350  1
  Sn  Sn8  1  0.685111  0.000650  0.685111  1
  Sn  Sn9  1  0.000650  0.685111  0.685111  1
  Rh  Rh10  1  0.750350  0.249650  0.500000  1
  Rh  Rh11  1  0.750350  0.500000  0.249650  1
  Rh  Rh12  1  0.500000  0.249650  0.750350  1
  Rh  Rh13  1  0.249650  0.500000  0.750350  1
  Rh  Rh14  1  0.249650  0.750350  0.500000  1
  Rh  Rh15  1  0.500000  0.750350  0.249650  1
  Rh  Rh16  1  0.000000  0.000000  0.000000  1
