# generated using pymatgen
data_LuI35
_symmetry_space_group_name_H-M   'P 1'
_cell_length_a   17.58017498
_cell_length_b   12.54030950
_cell_length_c   11.87107100
_cell_angle_alpha   88.81408644
_cell_angle_beta   66.02770740
_cell_angle_gamma   92.31545562
_symmetry_Int_Tables_number   1
_chemical_formula_structural   LuI35
_chemical_formula_sum   'Lu1 I35'
_cell_volume   2387.43274716
_cell_formula_units_Z   1
loop_
 _symmetry_equiv_pos_site_id
 _symmetry_equiv_pos_as_xyz
  1  'x, y, z'
loop_
 _atom_site_type_symbol
 _atom_site_label
 _atom_site_symmetry_multiplicity
 _atom_site_fract_x
 _atom_site_fract_y
 _atom_site_fract_z
 _atom_site_occupancy
  Lu  Lu0  1  0.219974  0.426041  0.472361  1
  I  I1  1  0.509796  0.270042  0.534063  1
  I  I2  1  0.762020  0.590334  0.566107  1
  I  I3  1  0.483746  0.687170  0.753731  1
  I  I4  1  0.059123  0.885934  0.851710  1
  I  I5  1  0.893169  0.147577  0.000848  1
  I  I6  1  0.653861  0.311145  0.286596  1
  I  I7  1  0.620569  0.359713  0.838751  1
  I  I8  1  0.349985  0.758934  0.692339  1
  I  I9  1  0.347555  0.570302  0.234135  1
  I  I10  1  0.635985  0.141012  0.807308  1
  I  I11  1  0.901007  0.550358  0.345993  1
  I  I12  1  0.055742  0.946812  0.617960  1
  I  I13  1  0.892657  0.096883  0.249874  1
  I  I14  1  0.885575  0.202831  0.770780  1
  I  I15  1  0.658963  0.048979  0.254238  1
  I  I16  1  0.034439  0.813348  0.104592  1
  I  I17  1  0.360817  0.983424  0.734836  1
  I  I18  1  0.895139  0.318676  0.310417  1
  I  I19  1  0.867965  0.921165  0.710895  1
  I  I20  1  0.911655  0.660813  0.783360  1
  I  I21  1  0.330395  0.052894  0.244710  1
  I  I22  1  0.338544  0.317658  0.238345  1
  I  I23  1  0.621402  0.618957  0.815654  1
  I  I24  1  0.093983  0.440852  0.385906  1
  I  I25  1  0.691501  0.901662  0.803566  1
  I  I26  1  0.876750  0.440981  0.791544  1
  I  I27  1  0.499315  0.045255  0.248044  1
  I  I28  1  0.162469  0.243110  0.629808  1
  I  I29  1  0.671465  0.780324  0.269582  1
  I  I30  1  0.854056  0.801237  0.187506  1
  I  I31  1  0.375317  0.217655  0.768358  1
  I  I32  1  0.344300  0.489213  0.580609  1
  I  I33  1  0.656725  0.542853  0.255890  1
  I  I34  1  0.169864  0.610852  0.629051  1
  I  I35  1  0.314176  0.805006  0.230535  1
