# generated using pymatgen
data_Th4Al18FeRh5
_symmetry_space_group_name_H-M   'P 1'
_cell_length_a   7.64935734
_cell_length_b   7.64935727
_cell_length_c   9.55069873
_cell_angle_alpha   90.10507299
_cell_angle_beta   90.10507292
_cell_angle_gamma   119.33673259
_symmetry_Int_Tables_number   1
_chemical_formula_structural   Th4Al18FeRh5
_chemical_formula_sum   'Th4 Al18 Fe1 Rh5'
_cell_volume   487.16580586
_cell_formula_units_Z   1
loop_
 _symmetry_equiv_pos_site_id
 _symmetry_equiv_pos_as_xyz
  1  'x, y, z'
loop_
 _atom_site_type_symbol
 _atom_site_label
 _atom_site_symmetry_multiplicity
 _atom_site_fract_x
 _atom_site_fract_y
 _atom_site_fract_z
 _atom_site_occupancy
  Th  Th0  1  0.994345  0.672055  0.248397  1
  Th  Th1  1  0.005655  0.327945  0.751603  1
  Th  Th2  1  0.672055  0.994345  0.248397  1
  Th  Th3  1  0.327945  0.005655  0.751603  1
  Al  Al4  1  0.130261  0.130261  0.245124  1
  Al  Al5  1  0.869739  0.869739  0.754876  1
  Al  Al6  1  0.004033  0.330002  0.072886  1
  Al  Al7  1  0.995967  0.669998  0.927114  1
  Al  Al8  1  0.995120  0.664106  0.574618  1
  Al  Al9  1  0.335894  0.004880  0.425382  1
  Al  Al10  1  0.004880  0.335894  0.425382  1
  Al  Al11  1  0.664106  0.995120  0.574618  1
  Al  Al12  1  0.669998  0.995967  0.927114  1
  Al  Al13  1  0.330002  0.004033  0.072886  1
  Al  Al14  1  0.336295  0.336295  0.546661  1
  Al  Al15  1  0.663705  0.663705  0.453339  1
  Al  Al16  1  0.668866  0.668866  0.042795  1
  Al  Al17  1  0.331134  0.331134  0.957205  1
  Al  Al18  1  0.340649  0.545547  0.249556  1
  Al  Al19  1  0.659351  0.454453  0.750444  1
  Al  Al20  1  0.545547  0.340649  0.249556  1
  Al  Al21  1  0.454453  0.659351  0.750444  1
  Fe  Fe22  1  0.000000  0.000000  0.000000  1
  Rh  Rh23  1  0.672360  0.327640  0.000000  1
  Rh  Rh24  1  0.327640  0.672360  0.000000  1
  Rh  Rh25  1  0.327694  0.672306  0.500000  1
  Rh  Rh26  1  0.672306  0.327694  0.500000  1
  Rh  Rh27  1  0.000000  0.000000  0.500000  1
