# generated using pymatgen
data_TbYb3IrRu3O14
_symmetry_space_group_name_H-M   'P 1'
_cell_length_a   7.21728654
_cell_length_b   7.21728629
_cell_length_c   7.21728681
_cell_angle_alpha   60.24112712
_cell_angle_beta   60.24112818
_cell_angle_gamma   60.24112794
_symmetry_Int_Tables_number   1
_chemical_formula_structural   TbYb3IrRu3O14
_chemical_formula_sum   'Tb1 Yb3 Ir1 Ru3 O14'
_cell_volume   267.28281625
_cell_formula_units_Z   1
loop_
 _symmetry_equiv_pos_site_id
 _symmetry_equiv_pos_as_xyz
  1  'x, y, z'
loop_
 _atom_site_type_symbol
 _atom_site_label
 _atom_site_symmetry_multiplicity
 _atom_site_fract_x
 _atom_site_fract_y
 _atom_site_fract_z
 _atom_site_occupancy
  Tb  Tb0  1  0.625000  0.625000  0.625000  1
  Yb  Yb1  1  0.625000  0.625000  0.125000  1
  Yb  Yb2  1  0.625000  0.125000  0.625000  1
  Yb  Yb3  1  0.125000  0.625000  0.625000  1
  Ir  Ir4  1  0.125000  0.125000  0.125000  1
  Ru  Ru5  1  0.125000  0.125000  0.625000  1
  Ru  Ru6  1  0.125000  0.625000  0.125000  1
  Ru  Ru7  1  0.625000  0.125000  0.125000  1
  O  O8  1  0.748180  0.748180  0.748180  1
  O  O9  1  0.501820  0.501820  0.501820  1
  O  O10  1  0.049925  0.450644  0.049925  1
  O  O11  1  0.800786  0.202465  0.800786  1
  O  O12  1  0.049925  0.049925  0.450644  1
  O  O13  1  0.450644  0.049925  0.049925  1
  O  O14  1  0.047535  0.449214  0.449214  1
  O  O15  1  0.449214  0.449214  0.047535  1
  O  O16  1  0.449214  0.047535  0.449214  1
  O  O17  1  0.202465  0.800786  0.800786  1
  O  O18  1  0.799356  0.200075  0.200075  1
  O  O19  1  0.200075  0.799356  0.200075  1
  O  O20  1  0.800786  0.800786  0.202465  1
  O  O21  1  0.200075  0.200075  0.799356  1
