# generated using pymatgen
data_Ho5LuAl16Os7
_symmetry_space_group_name_H-M   'P 1'
_cell_length_a   8.91351748
_cell_length_b   8.92562858
_cell_length_c   8.92563021
_cell_angle_alpha   59.91025452
_cell_angle_beta   60.04488342
_cell_angle_gamma   60.04488123
_symmetry_Int_Tables_number   1
_chemical_formula_structural   Ho5LuAl16Os7
_chemical_formula_sum   'Ho5 Lu1 Al16 Os7'
_cell_volume   502.12320143
_cell_formula_units_Z   1
loop_
 _symmetry_equiv_pos_site_id
 _symmetry_equiv_pos_as_xyz
  1  'x, y, z'
loop_
 _atom_site_type_symbol
 _atom_site_label
 _atom_site_symmetry_multiplicity
 _atom_site_fract_x
 _atom_site_fract_y
 _atom_site_fract_z
 _atom_site_occupancy
  Ho  Ho0  1  0.711408  0.711564  0.288592  1
  Ho  Ho1  1  0.288436  0.711564  0.288592  1
  Ho  Ho2  1  0.712004  0.287996  0.287996  1
  Ho  Ho3  1  0.288436  0.288592  0.711564  1
  Ho  Ho4  1  0.711408  0.288592  0.711564  1
  Lu  Lu5  1  0.287634  0.712366  0.712366  1
  Al  Al6  1  0.879012  0.878823  0.363153  1
  Al  Al7  1  0.879012  0.363153  0.878823  1
  Al  Al8  1  0.362938  0.878641  0.878641  1
  Al  Al9  1  0.879780  0.878641  0.878641  1
  Al  Al10  1  0.121359  0.120220  0.637062  1
  Al  Al11  1  0.121359  0.637062  0.120220  1
  Al  Al12  1  0.636847  0.120988  0.120988  1
  Al  Al13  1  0.121177  0.120988  0.120988  1
  Al  Al14  1  0.667319  0.667516  0.997847  1
  Al  Al15  1  0.667319  0.997847  0.667516  1
  Al  Al16  1  0.998646  0.667403  0.667403  1
  Al  Al17  1  0.666550  0.667403  0.667403  1
  Al  Al18  1  0.332597  0.333450  0.001354  1
  Al  Al19  1  0.332597  0.001354  0.333450  1
  Al  Al20  1  0.002153  0.332681  0.332681  1
  Al  Al21  1  0.332484  0.332681  0.332681  1
  Os  Os22  1  0.000142  0.999858  0.999858  1
  Os  Os23  1  0.000623  0.999377  0.500782  1
  Os  Os24  1  0.499218  0.999377  0.500782  1
  Os  Os25  1  0.999850  0.500150  0.500150  1
  Os  Os26  1  0.499218  0.500782  0.999377  1
  Os  Os27  1  0.000623  0.500782  0.999377  1
  Os  Os28  1  0.499850  0.000150  0.000150  1
