# generated using pymatgen
data_Ca3Yb(Pr4Ga3)4
_symmetry_space_group_name_H-M   'P 1'
_cell_length_a   7.92720600
_cell_length_b   7.92720600
_cell_length_c   14.67886100
_cell_angle_alpha   90.00000000
_cell_angle_beta   90.00000000
_cell_angle_gamma   90.00000000
_symmetry_Int_Tables_number   1
_chemical_formula_structural   Ca3Yb(Pr4Ga3)4
_chemical_formula_sum   'Ca3 Yb1 Pr16 Ga12'
_cell_volume   922.42835867
_cell_formula_units_Z   1
loop_
 _symmetry_equiv_pos_site_id
 _symmetry_equiv_pos_as_xyz
  1  'x, y, z'
loop_
 _atom_site_type_symbol
 _atom_site_label
 _atom_site_symmetry_multiplicity
 _atom_site_fract_x
 _atom_site_fract_y
 _atom_site_fract_z
 _atom_site_occupancy
  Ca  Ca0  1  0.000000  0.500000  0.742492  1
  Ca  Ca1  1  0.000000  0.500000  0.242217  1
  Ca  Ca2  1  0.500000  0.000000  0.257457  1
  Yb  Yb3  1  0.500000  0.000000  0.758706  1
  Pr  Pr4  1  0.823068  0.830932  0.602031  1
  Pr  Pr5  1  0.176427  0.830940  0.101652  1
  Pr  Pr6  1  0.169327  0.823728  0.398015  1
  Pr  Pr7  1  0.830673  0.176272  0.398015  1
  Pr  Pr8  1  0.676272  0.669327  0.398015  1
  Pr  Pr9  1  0.669068  0.323068  0.602031  1
  Pr  Pr10  1  0.330932  0.676932  0.602031  1
  Pr  Pr11  1  0.669060  0.676427  0.101652  1
  Pr  Pr12  1  0.675886  0.330141  0.898140  1
  Pr  Pr13  1  0.830141  0.824114  0.898140  1
  Pr  Pr14  1  0.323728  0.330673  0.398015  1
  Pr  Pr15  1  0.176932  0.169068  0.602031  1
  Pr  Pr16  1  0.823573  0.169060  0.101652  1
  Pr  Pr17  1  0.324114  0.669859  0.898140  1
  Pr  Pr18  1  0.330940  0.323573  0.101652  1
  Pr  Pr19  1  0.169859  0.175886  0.898140  1
  Ga  Ga20  1  0.616871  0.383209  0.249821  1
  Ga  Ga21  1  0.116670  0.883896  0.750204  1
  Ga  Ga22  1  0.383896  0.383330  0.750204  1
  Ga  Ga23  1  0.383129  0.616791  0.249821  1
  Ga  Ga24  1  0.883209  0.883129  0.249821  1
  Ga  Ga25  1  0.616104  0.616670  0.750204  1
  Ga  Ga26  1  0.000000  0.500000  0.503401  1
  Ga  Ga27  1  0.883330  0.116104  0.750204  1
  Ga  Ga28  1  0.500000  0.000000  0.496465  1
  Ga  Ga29  1  0.500000  0.000000  0.996759  1
  Ga  Ga30  1  0.116791  0.116871  0.249821  1
  Ga  Ga31  1  0.000000  0.500000  0.003050  1
