# generated using pymatgen
data_Tm2Np(SnIr)3
_symmetry_space_group_name_H-M   'P 1'
_cell_length_a   7.41135562
_cell_length_b   7.41135364
_cell_length_c   3.93588900
_cell_angle_alpha   90.00000000
_cell_angle_beta   90.00000000
_cell_angle_gamma   118.70861744
_symmetry_Int_Tables_number   1
_chemical_formula_structural   Tm2Np(SnIr)3
_chemical_formula_sum   'Tm2 Np1 Sn3 Ir3'
_cell_volume   189.61567287
_cell_formula_units_Z   1
loop_
 _symmetry_equiv_pos_site_id
 _symmetry_equiv_pos_as_xyz
  1  'x, y, z'
loop_
 _atom_site_type_symbol
 _atom_site_label
 _atom_site_symmetry_multiplicity
 _atom_site_fract_x
 _atom_site_fract_y
 _atom_site_fract_z
 _atom_site_occupancy
  Tm  Tm0  1  0.000425  0.595713  0.500000  1
  Tm  Tm1  1  0.595713  0.000425  0.500000  1
  Np  Np2  1  0.412996  0.412996  0.500000  1
  Sn  Sn3  1  0.989133  0.259258  0.000000  1
  Sn  Sn4  1  0.751861  0.751861  0.000000  1
  Sn  Sn5  1  0.259258  0.989133  0.000000  1
  Ir  Ir6  1  0.335364  0.646831  0.000000  1
  Ir  Ir7  1  0.008418  0.008418  0.500000  1
  Ir  Ir8  1  0.646831  0.335364  0.000000  1
