# generated using pymatgen
data_Sc12ZnNi4Sn
_symmetry_space_group_name_H-M   'P 1'
_cell_length_a   7.77336125
_cell_length_b   7.77336193
_cell_length_c   7.77336130
_cell_angle_alpha   111.69626471
_cell_angle_beta   110.55752230
_cell_angle_gamma   106.21045226
_symmetry_Int_Tables_number   1
_chemical_formula_structural   Sc12ZnNi4Sn
_chemical_formula_sum   'Sc12 Zn1 Ni4 Sn1'
_cell_volume   360.67041161
_cell_formula_units_Z   1
loop_
 _symmetry_equiv_pos_site_id
 _symmetry_equiv_pos_as_xyz
  1  'x, y, z'
loop_
 _atom_site_type_symbol
 _atom_site_label
 _atom_site_symmetry_multiplicity
 _atom_site_fract_x
 _atom_site_fract_y
 _atom_site_fract_z
 _atom_site_occupancy
  Sc  Sc0  1  0.676650  0.875931  0.199281  1
  Sc  Sc1  1  0.323350  0.522631  0.199281  1
  Sc  Sc2  1  0.816831  0.786831  0.603663  1
  Sc  Sc3  1  0.183169  0.786831  0.970000  1
  Sc  Sc4  1  0.816831  0.213169  0.030000  1
  Sc  Sc5  1  0.183169  0.213169  0.396337  1
  Sc  Sc6  1  0.676650  0.477369  0.800719  1
  Sc  Sc7  1  0.323350  0.124069  0.800719  1
  Sc  Sc8  1  0.568727  0.270887  0.297839  1
  Sc  Sc9  1  0.431273  0.729113  0.702161  1
  Sc  Sc10  1  0.026952  0.729113  0.297839  1
  Sc  Sc11  1  0.973048  0.270887  0.702161  1
  Zn  Zn12  1  0.000000  0.500000  0.500000  1
  Ni  Ni13  1  0.350416  0.500000  0.850416  1
  Ni  Ni14  1  0.649584  0.500000  0.149584  1
  Ni  Ni15  1  0.869938  0.869938  0.000000  1
  Ni  Ni16  1  0.130062  0.130062  0.000000  1
  Sn  Sn17  1  0.500000  0.000000  0.500000  1
