# generated using pymatgen
data_SrSm2Y(Pt2O7)2
_symmetry_space_group_name_H-M   'P 1'
_cell_length_a   7.38559175
_cell_length_b   7.38247930
_cell_length_c   7.37664557
_cell_angle_alpha   60.04850305
_cell_angle_beta   59.95986922
_cell_angle_gamma   59.98604739
_symmetry_Int_Tables_number   1
_chemical_formula_structural   SrSm2Y(Pt2O7)2
_chemical_formula_sum   'Sr1 Sm2 Y1 Pt4 O14'
_cell_volume   284.38886623
_cell_formula_units_Z   1
loop_
 _symmetry_equiv_pos_site_id
 _symmetry_equiv_pos_as_xyz
  1  'x, y, z'
loop_
 _atom_site_type_symbol
 _atom_site_label
 _atom_site_symmetry_multiplicity
 _atom_site_fract_x
 _atom_site_fract_y
 _atom_site_fract_z
 _atom_site_occupancy
  Sr  Sr0  1  0.125000  0.625000  0.125000  1
  Sm  Sm1  1  0.625000  0.125000  0.125000  1
  Sm  Sm2  1  0.125000  0.125000  0.125000  1
  Y  Y3  1  0.125000  0.125000  0.625000  1
  Pt  Pt4  1  0.625000  0.625000  0.625000  1
  Pt  Pt5  1  0.125000  0.625000  0.625000  1
  Pt  Pt6  1  0.625000  0.625000  0.125000  1
  Pt  Pt7  1  0.625000  0.125000  0.625000  1
  O  O8  1  0.292626  0.720711  0.694037  1
  O  O9  1  0.539317  0.961532  0.959835  1
  O  O10  1  0.695575  0.717796  0.293239  1
  O  O11  1  0.289913  0.288037  0.708998  1
  O  O12  1  0.997341  0.017451  0.987866  1
  O  O13  1  0.293390  0.717796  0.293239  1
  O  O14  1  0.713052  0.288037  0.708998  1
  O  O15  1  0.956610  0.532204  0.956761  1
  O  O16  1  0.554425  0.532204  0.956761  1
  O  O17  1  0.960087  0.961963  0.541002  1
  O  O18  1  0.252659  0.232549  0.262134  1
  O  O19  1  0.536948  0.961963  0.541002  1
  O  O20  1  0.710683  0.288468  0.290165  1
  O  O21  1  0.957374  0.529289  0.555963  1
