# generated using pymatgen
data_LiHo8Si4AgB16
_symmetry_space_group_name_H-M   'P 1'
_cell_length_a   7.13723200
_cell_length_b   7.13723200
_cell_length_c   7.77083900
_cell_angle_alpha   90.00000000
_cell_angle_beta   90.00000000
_cell_angle_gamma   90.00000000
_symmetry_Int_Tables_number   1
_chemical_formula_structural   LiHo8Si4AgB16
_chemical_formula_sum   'Li1 Ho8 Si4 Ag1 B16'
_cell_volume   395.84716516
_cell_formula_units_Z   1
loop_
 _symmetry_equiv_pos_site_id
 _symmetry_equiv_pos_as_xyz
  1  'x, y, z'
loop_
 _atom_site_type_symbol
 _atom_site_label
 _atom_site_symmetry_multiplicity
 _atom_site_fract_x
 _atom_site_fract_y
 _atom_site_fract_z
 _atom_site_occupancy
  Li  Li0  1  0.500000  0.500000  0.500000  1
  Ho  Ho1  1  0.681774  0.183725  0.234784  1
  Ho  Ho2  1  0.318226  0.816275  0.765216  1
  Ho  Ho3  1  0.318226  0.816275  0.234784  1
  Ho  Ho4  1  0.816275  0.681774  0.234784  1
  Ho  Ho5  1  0.816275  0.681774  0.765216  1
  Ho  Ho6  1  0.681774  0.183725  0.765216  1
  Ho  Ho7  1  0.183725  0.318226  0.765216  1
  Ho  Ho8  1  0.183725  0.318226  0.234784  1
  Si  Si9  1  0.116456  0.613853  0.500000  1
  Si  Si10  1  0.883544  0.386147  0.500000  1
  Si  Si11  1  0.386147  0.116456  0.500000  1
  Si  Si12  1  0.613853  0.883544  0.500000  1
  Ag  Ag13  1  0.000000  0.000000  0.500000  1
  B  B14  1  0.174414  0.040151  0.000000  1
  B  B15  1  0.825586  0.959849  0.000000  1
  B  B16  1  0.959849  0.174414  0.000000  1
  B  B17  1  0.326627  0.540365  0.000000  1
  B  B18  1  0.040151  0.825586  0.000000  1
  B  B19  1  0.673373  0.459635  0.000000  1
  B  B20  1  0.540365  0.673373  0.000000  1
  B  B21  1  0.459635  0.326627  0.000000  1
  B  B22  1  0.089098  0.588738  0.000000  1
  B  B23  1  0.910902  0.411262  0.000000  1
  B  B24  1  0.411262  0.089098  0.000000  1
  B  B25  1  0.588738  0.910902  0.000000  1
  B  B26  1  0.000000  0.000000  0.161939  1
  B  B27  1  0.000000  0.000000  0.838061  1
  B  B28  1  0.500000  0.500000  0.836528  1
  B  B29  1  0.500000  0.500000  0.163472  1
