# generated using pymatgen
data_Rb(Cr5Se8)2
_symmetry_space_group_name_H-M   'P 1'
_cell_length_a   7.30331949
_cell_length_b   9.67854971
_cell_length_c   9.82212921
_cell_angle_alpha   72.68584477
_cell_angle_beta   68.22401861
_cell_angle_gamma   79.13641505
_symmetry_Int_Tables_number   1
_chemical_formula_structural   Rb(Cr5Se8)2
_chemical_formula_sum   'Rb1 Cr10 Se16'
_cell_volume   613.13381239
_cell_formula_units_Z   1
loop_
 _symmetry_equiv_pos_site_id
 _symmetry_equiv_pos_as_xyz
  1  'x, y, z'
loop_
 _atom_site_type_symbol
 _atom_site_label
 _atom_site_symmetry_multiplicity
 _atom_site_fract_x
 _atom_site_fract_y
 _atom_site_fract_z
 _atom_site_occupancy
  Rb  Rb0  1  0.000000  0.000000  0.000000  1
  Cr  Cr1  1  0.839768  0.685871  0.476077  1
  Cr  Cr2  1  0.340705  0.685056  0.475316  1
  Cr  Cr3  1  0.659295  0.314944  0.524684  1
  Cr  Cr4  1  0.160232  0.314129  0.523923  1
  Cr  Cr5  1  0.815795  0.410503  0.163741  1
  Cr  Cr6  1  0.316324  0.406634  0.163375  1
  Cr  Cr7  1  0.683676  0.593366  0.836625  1
  Cr  Cr8  1  0.184205  0.589497  0.836259  1
  Cr  Cr9  1  0.500000  0.000000  0.500000  1
  Cr  Cr10  1  0.000000  0.000000  0.500000  1
  Se  Se11  1  0.788245  0.151482  0.347161  1
  Se  Se12  1  0.288571  0.151062  0.347111  1
  Se  Se13  1  0.711429  0.848938  0.652889  1
  Se  Se14  1  0.211755  0.848518  0.652839  1
  Se  Se15  1  0.958760  0.475968  0.344245  1
  Se  Se16  1  0.459495  0.476081  0.343803  1
  Se  Se17  1  0.540505  0.523919  0.656197  1
  Se  Se18  1  0.041240  0.524032  0.655755  1
  Se  Se19  1  0.629207  0.827047  0.325933  1
  Se  Se20  1  0.129808  0.826859  0.326217  1
  Se  Se21  1  0.870192  0.173141  0.673783  1
  Se  Se22  1  0.370793  0.172953  0.674067  1
  Se  Se23  1  0.338852  0.655773  0.992924  1
  Se  Se24  1  0.840970  0.658408  0.991663  1
  Se  Se25  1  0.159030  0.341592  0.008337  1
  Se  Se26  1  0.661148  0.344227  0.007076  1
