# generated using pymatgen
data_PrSmAl2(Co3B)2
_symmetry_space_group_name_H-M   'P 1'
_cell_length_a   5.23130000
_cell_length_b   5.23170707
_cell_length_c   6.69843700
_cell_angle_alpha   90.00000000
_cell_angle_beta   90.00000000
_cell_angle_gamma   119.99986255
_symmetry_Int_Tables_number   1
_chemical_formula_structural   PrSmAl2(Co3B)2
_chemical_formula_sum   'Pr1 Sm1 Al2 Co6 B2'
_cell_volume   158.76609251
_cell_formula_units_Z   1
loop_
 _symmetry_equiv_pos_site_id
 _symmetry_equiv_pos_as_xyz
  1  'x, y, z'
loop_
 _atom_site_type_symbol
 _atom_site_label
 _atom_site_symmetry_multiplicity
 _atom_site_fract_x
 _atom_site_fract_y
 _atom_site_fract_z
 _atom_site_occupancy
  Pr  Pr0  1  0.999975  0.000009  0.000000  1
  Sm  Sm1  1  0.999986  0.999997  0.500000  1
  Al  Al2  1  0.333254  0.666674  0.000000  1
  Al  Al3  1  0.666714  0.333327  0.000000  1
  Co  Co4  1  0.499986  0.000000  0.296470  1
  Co  Co5  1  0.499985  0.500001  0.296474  1
  Co  Co6  1  0.999983  0.499997  0.296513  1
  Co  Co7  1  0.499986  0.000000  0.703530  1
  Co  Co8  1  0.499985  0.500001  0.703525  1
  Co  Co9  1  0.999983  0.499997  0.703486  1
  B  B10  1  0.333301  0.666714  0.500000  1
  B  B11  1  0.666662  0.333285  0.500000  1
