# generated using pymatgen
data_Nd2Pa(InPt)3
_symmetry_space_group_name_H-M   'P 1'
_cell_length_a   7.68743015
_cell_length_b   7.73780861
_cell_length_c   4.03317500
_cell_angle_alpha   90.00000000
_cell_angle_beta   90.00000000
_cell_angle_gamma   120.21701953
_symmetry_Int_Tables_number   1
_chemical_formula_structural   Nd2Pa(InPt)3
_chemical_formula_sum   'Nd2 Pa1 In3 Pt3'
_cell_volume   207.31129991
_cell_formula_units_Z   1
loop_
 _symmetry_equiv_pos_site_id
 _symmetry_equiv_pos_as_xyz
  1  'x, y, z'
loop_
 _atom_site_type_symbol
 _atom_site_label
 _atom_site_symmetry_multiplicity
 _atom_site_fract_x
 _atom_site_fract_y
 _atom_site_fract_z
 _atom_site_occupancy
  Nd  Nd0  1  0.592776  0.002282  0.500000  1
  Nd  Nd1  1  0.407224  0.409505  0.500000  1
  Pa  Pa2  1  0.000000  0.587774  0.500000  1
  In  In3  1  0.000000  0.242884  0.000000  1
  In  In4  1  0.263083  0.009835  0.000000  1
  In  In5  1  0.736917  0.746752  0.000000  1
  Pt  Pt6  1  0.000000  0.978480  0.500000  1
  Pt  Pt7  1  0.698052  0.360269  0.000000  1
  Pt  Pt8  1  0.301948  0.662218  0.000000  1
