# generated using pymatgen
data_Dy2BeSi4Ni
_symmetry_space_group_name_H-M   'P 1'
_cell_length_a   8.46714240
_cell_length_b   8.46714283
_cell_length_c   3.91693600
_cell_angle_alpha   90.00000000
_cell_angle_beta   90.00000000
_cell_angle_gamma   152.61506034
_symmetry_Int_Tables_number   1
_chemical_formula_structural   Dy2BeSi4Ni
_chemical_formula_sum   'Dy2 Be1 Si4 Ni1'
_cell_volume   129.16544300
_cell_formula_units_Z   1
loop_
 _symmetry_equiv_pos_site_id
 _symmetry_equiv_pos_as_xyz
  1  'x, y, z'
loop_
 _atom_site_type_symbol
 _atom_site_label
 _atom_site_symmetry_multiplicity
 _atom_site_fract_x
 _atom_site_fract_y
 _atom_site_fract_z
 _atom_site_occupancy
  Dy  Dy0  1  0.106847  0.893153  0.250000  1
  Dy  Dy1  1  0.897953  0.102047  0.750000  1
  Be  Be2  1  0.672725  0.327275  0.750000  1
  Si  Si3  1  0.751485  0.248515  0.250000  1
  Si  Si4  1  0.249771  0.750229  0.750000  1
  Si  Si5  1  0.538869  0.461131  0.750000  1
  Si  Si6  1  0.459850  0.540150  0.250000  1
  Ni  Ni7  1  0.322500  0.677500  0.250000  1
