# generated using pymatgen
data_Lu6Mn2B13C
_symmetry_space_group_name_H-M   'P 1'
_cell_length_a   7.84289710
_cell_length_b   7.84289617
_cell_length_c   9.04898000
_cell_angle_alpha   90.00000000
_cell_angle_beta   90.00000000
_cell_angle_gamma   155.11560155
_symmetry_Int_Tables_number   1
_chemical_formula_structural   Lu6Mn2B13C
_chemical_formula_sum   'Lu6 Mn2 B13 C1'
_cell_volume   234.21612649
_cell_formula_units_Z   1
loop_
 _symmetry_equiv_pos_site_id
 _symmetry_equiv_pos_as_xyz
  1  'x, y, z'
loop_
 _atom_site_type_symbol
 _atom_site_label
 _atom_site_symmetry_multiplicity
 _atom_site_fract_x
 _atom_site_fract_y
 _atom_site_fract_z
 _atom_site_occupancy
  Lu  Lu0  1  0.895548  0.104452  0.438220  1
  Lu  Lu1  1  0.104796  0.895204  0.560347  1
  Lu  Lu2  1  0.895548  0.104452  0.061780  1
  Lu  Lu3  1  0.104796  0.895204  0.939653  1
  Lu  Lu4  1  0.240855  0.759145  0.250000  1
  Lu  Lu5  1  0.758379  0.241621  0.750000  1
  Mn  Mn6  1  0.052023  0.947977  0.250000  1
  Mn  Mn7  1  0.947355  0.052645  0.750000  1
  B  B8  1  0.727826  0.272174  0.465405  1
  B  B9  1  0.272615  0.727385  0.532590  1
  B  B10  1  0.727826  0.272174  0.034595  1
  B  B11  1  0.272615  0.727385  0.967410  1
  B  B12  1  0.630448  0.369552  0.152572  1
  B  B13  1  0.369289  0.630711  0.848500  1
  B  B14  1  0.630448  0.369552  0.347428  1
  B  B15  1  0.369289  0.630711  0.651500  1
  B  B16  1  0.519361  0.480639  0.101050  1
  B  B17  1  0.478990  0.521010  0.904994  1
  B  B18  1  0.519361  0.480639  0.398950  1
  B  B19  1  0.478990  0.521010  0.595006  1
  B  B20  1  0.544446  0.455554  0.750000  1
  C  C21  1  0.459197  0.540803  0.250000  1
