# generated using pymatgen
data_Ac14Pd5Pt
_symmetry_space_group_name_H-M   'P 1'
_cell_length_a   6.92803903
_cell_length_b   10.81809422
_cell_length_c   10.81809452
_cell_angle_alpha   119.70132324
_cell_angle_beta   90.00920260
_cell_angle_gamma   89.99080360
_symmetry_Int_Tables_number   1
_chemical_formula_structural   Ac14Pd5Pt
_chemical_formula_sum   'Ac14 Pd5 Pt1'
_cell_volume   704.27408838
_cell_formula_units_Z   1
loop_
 _symmetry_equiv_pos_site_id
 _symmetry_equiv_pos_as_xyz
  1  'x, y, z'
loop_
 _atom_site_type_symbol
 _atom_site_label
 _atom_site_symmetry_multiplicity
 _atom_site_fract_x
 _atom_site_fract_y
 _atom_site_fract_z
 _atom_site_occupancy
  Ac  Ac0  1  0.458773  0.333638  0.666362  1
  Ac  Ac1  1  0.960897  0.667439  0.332561  1
  Ac  Ac2  1  0.249096  0.125599  0.874401  1
  Ac  Ac3  1  0.249409  0.749808  0.877040  1
  Ac  Ac4  1  0.249409  0.122960  0.250192  1
  Ac  Ac5  1  0.756108  0.873572  0.126428  1
  Ac  Ac6  1  0.749226  0.250900  0.125732  1
  Ac  Ac7  1  0.749226  0.874268  0.749100  1
  Ac  Ac8  1  0.439812  0.540622  0.459378  1
  Ac  Ac9  1  0.436877  0.918918  0.457870  1
  Ac  Ac10  1  0.436877  0.542130  0.081082  1
  Ac  Ac11  1  0.940032  0.459339  0.540661  1
  Ac  Ac12  1  0.937489  0.081731  0.540913  1
  Ac  Ac13  1  0.937489  0.459087  0.918269  1
  Pd  Pd14  1  0.189583  0.376183  0.187964  1
  Pd  Pd15  1  0.189583  0.812036  0.623817  1
  Pd  Pd16  1  0.689353  0.187941  0.812059  1
  Pd  Pd17  1  0.689421  0.623545  0.811195  1
  Pd  Pd18  1  0.689421  0.188805  0.376455  1
  Pt  Pt19  1  0.187922  0.811476  0.188524  1
