# generated using pymatgen
data_AlMo(SeO3)4
_symmetry_space_group_name_H-M   'P 1'
_cell_length_a   8.28042400
_cell_length_b   8.24425509
_cell_length_c   8.00967048
_cell_angle_alpha   90.84435063
_cell_angle_beta   90.00000000
_cell_angle_gamma   90.00000000
_symmetry_Int_Tables_number   1
_chemical_formula_structural   AlMo(SeO3)4
_chemical_formula_sum   'Al2 Mo2 Se8 O24'
_cell_volume   546.72821454
_cell_formula_units_Z   2
loop_
 _symmetry_equiv_pos_site_id
 _symmetry_equiv_pos_as_xyz
  1  'x, y, z'
loop_
 _atom_site_type_symbol
 _atom_site_label
 _atom_site_symmetry_multiplicity
 _atom_site_fract_x
 _atom_site_fract_y
 _atom_site_fract_z
 _atom_site_occupancy
  Al  Al0  1  0.000000  0.000000  0.500000  1
  Al  Al1  1  0.500000  0.000000  0.000000  1
  Mo  Mo2  1  0.000000  0.500000  0.000000  1
  Mo  Mo3  1  0.500000  0.500000  0.500000  1
  Se  Se4  1  0.334819  0.690972  0.169872  1
  Se  Se5  1  0.834819  0.309028  0.330128  1
  Se  Se6  1  0.687818  0.840367  0.687170  1
  Se  Se7  1  0.187818  0.159633  0.812830  1
  Se  Se8  1  0.665181  0.309028  0.830128  1
  Se  Se9  1  0.165181  0.690972  0.669872  1
  Se  Se10  1  0.312182  0.159633  0.312830  1
  Se  Se11  1  0.812182  0.840367  0.187170  1
  O  O12  1  0.235807  0.556981  0.032627  1
  O  O13  1  0.735807  0.443019  0.467373  1
  O  O14  1  0.772774  0.965910  0.545455  1
  O  O15  1  0.272774  0.034090  0.954545  1
  O  O16  1  0.540716  0.962797  0.767155  1
  O  O17  1  0.472348  0.551547  0.255964  1
  O  O18  1  0.972348  0.448453  0.244036  1
  O  O19  1  0.040716  0.037203  0.732845  1
  O  O20  1  0.962029  0.225736  0.470801  1
  O  O21  1  0.562929  0.723674  0.542907  1
  O  O22  1  0.462029  0.774264  0.029199  1
  O  O23  1  0.062929  0.276326  0.957093  1
  O  O24  1  0.764193  0.443019  0.967373  1
  O  O25  1  0.264193  0.556981  0.532627  1
  O  O26  1  0.227226  0.034090  0.454545  1
  O  O27  1  0.727226  0.965910  0.045455  1
  O  O28  1  0.459284  0.037203  0.232845  1
  O  O29  1  0.527652  0.448453  0.744036  1
  O  O30  1  0.027652  0.551547  0.755964  1
  O  O31  1  0.959284  0.962797  0.267155  1
  O  O32  1  0.037971  0.774264  0.529199  1
  O  O33  1  0.437071  0.276326  0.457093  1
  O  O34  1  0.537971  0.225736  0.970801  1
  O  O35  1  0.937071  0.723674  0.042907  1
