# generated using pymatgen
data_U5Co14HgB4
_symmetry_space_group_name_H-M   'P 1'
_cell_length_a   4.96901400
_cell_length_b   4.96901456
_cell_length_c   13.95380900
_cell_angle_alpha   90.00000000
_cell_angle_beta   90.00000000
_cell_angle_gamma   119.99999629
_symmetry_Int_Tables_number   1
_chemical_formula_structural   U5Co14HgB4
_chemical_formula_sum   'U5 Co14 Hg1 B4'
_cell_volume   298.37601644
_cell_formula_units_Z   1
loop_
 _symmetry_equiv_pos_site_id
 _symmetry_equiv_pos_as_xyz
  1  'x, y, z'
loop_
 _atom_site_type_symbol
 _atom_site_label
 _atom_site_symmetry_multiplicity
 _atom_site_fract_x
 _atom_site_fract_y
 _atom_site_fract_z
 _atom_site_occupancy
  U  U0  1  0.333333  0.666667  0.250212  1
  U  U1  1  0.666667  0.333333  0.750706  1
  U  U2  1  0.666667  0.333333  0.530613  1
  U  U3  1  0.666667  0.333333  0.962916  1
  U  U4  1  0.333333  0.666667  0.469212  1
  Co  Co5  1  0.000000  0.000000  0.999368  1
  Co  Co6  1  0.000000  0.000000  0.501135  1
  Co  Co7  1  0.834100  0.668199  0.146034  1
  Co  Co8  1  0.164755  0.835245  0.646904  1
  Co  Co9  1  0.670489  0.835245  0.646904  1
  Co  Co10  1  0.331801  0.165900  0.146034  1
  Co  Co11  1  0.834100  0.165900  0.146034  1
  Co  Co12  1  0.165747  0.331494  0.852944  1
  Co  Co13  1  0.165747  0.834253  0.852944  1
  Co  Co14  1  0.164755  0.329511  0.646904  1
  Co  Co15  1  0.668506  0.834253  0.852944  1
  Co  Co16  1  0.330155  0.165077  0.354620  1
  Co  Co17  1  0.834923  0.669845  0.354620  1
  Co  Co18  1  0.834923  0.165077  0.354620  1
  Hg  Hg19  1  0.333333  0.666667  0.033547  1
  B  B20  1  0.000000  0.000000  0.249125  1
  B  B21  1  0.000000  0.000000  0.752091  1
  B  B22  1  0.333333  0.666667  0.749336  1
  B  B23  1  0.666667  0.333333  0.250234  1
