# generated using pymatgen
data_Pr2Y4CoI10
_symmetry_space_group_name_H-M   'P 1'
_cell_length_a   7.80914542
_cell_length_b   9.82235128
_cell_length_c   9.81759068
_cell_angle_alpha   106.81671940
_cell_angle_beta   96.08201118
_cell_angle_gamma   105.21764601
_symmetry_Int_Tables_number   1
_chemical_formula_structural   Pr2Y4CoI10
_chemical_formula_sum   'Pr2 Y4 Co1 I10'
_cell_volume   681.95006041
_cell_formula_units_Z   1
loop_
 _symmetry_equiv_pos_site_id
 _symmetry_equiv_pos_as_xyz
  1  'x, y, z'
loop_
 _atom_site_type_symbol
 _atom_site_label
 _atom_site_symmetry_multiplicity
 _atom_site_fract_x
 _atom_site_fract_y
 _atom_site_fract_z
 _atom_site_occupancy
  Pr  Pr0  1  0.886502  0.957837  0.231399  1
  Pr  Pr1  1  0.113498  0.042163  0.768601  1
  Y  Y2  1  0.029198  0.718171  0.915086  1
  Y  Y3  1  0.970802  0.281829  0.084914  1
  Y  Y4  1  0.657874  0.877605  0.838784  1
  Y  Y5  1  0.342126  0.122395  0.161216  1
  Co  Co6  1  0.000000  0.000000  0.000000  1
  I  I7  1  0.652302  0.554113  0.731411  1
  I  I8  1  0.347698  0.445887  0.268589  1
  I  I9  1  0.733470  0.911022  0.543917  1
  I  I10  1  0.266530  0.088978  0.456083  1
  I  I11  1  0.082493  0.377978  0.824276  1
  I  I12  1  0.917507  0.622022  0.175724  1
  I  I13  1  0.447682  0.817360  0.089354  1
  I  I14  1  0.552318  0.182640  0.910646  1
  I  I15  1  0.227821  0.739326  0.659463  1
  I  I16  1  0.772179  0.260674  0.340537  1
