# generated using pymatgen
data_Lu2BiO2
_symmetry_space_group_name_H-M   'P 1'
_cell_length_a   7.17515270
_cell_length_b   7.17515324
_cell_length_c   7.17515366
_cell_angle_alpha   149.26001224
_cell_angle_beta   149.26001558
_cell_angle_gamma   44.02871682
_symmetry_Int_Tables_number   1
_chemical_formula_structural   Lu2BiO2
_chemical_formula_sum   'Lu2 Bi1 O2'
_cell_volume   96.23539514
_cell_formula_units_Z   1
loop_
 _symmetry_equiv_pos_site_id
 _symmetry_equiv_pos_as_xyz
  1  'x, y, z'
loop_
 _atom_site_type_symbol
 _atom_site_label
 _atom_site_symmetry_multiplicity
 _atom_site_fract_x
 _atom_site_fract_y
 _atom_site_fract_z
 _atom_site_occupancy
  Lu  Lu0  1  0.270178  0.270178  0.000000  1
  Lu  Lu1  1  0.929527  0.929527  0.000000  1
  Bi  Bi2  1  0.600412  0.600412  0.000000  1
  O  O3  1  0.349942  0.849942  0.500000  1
  O  O4  1  0.849942  0.349942  0.500000  1
