# generated using pymatgen
data_LiU6TiAs10
_symmetry_space_group_name_H-M   'P 1'
_cell_length_a   8.50368900
_cell_length_b   8.50368764
_cell_length_c   5.71694100
_cell_angle_alpha   90.00000000
_cell_angle_beta   90.00000000
_cell_angle_gamma   119.99999361
_symmetry_Int_Tables_number   1
_chemical_formula_structural   LiU6TiAs10
_chemical_formula_sum   'Li1 U6 Ti1 As10'
_cell_volume   358.02144239
_cell_formula_units_Z   1
loop_
 _symmetry_equiv_pos_site_id
 _symmetry_equiv_pos_as_xyz
  1  'x, y, z'
loop_
 _atom_site_type_symbol
 _atom_site_label
 _atom_site_symmetry_multiplicity
 _atom_site_fract_x
 _atom_site_fract_y
 _atom_site_fract_z
 _atom_site_occupancy
  Li  Li0  1  0.000000  0.000000  0.000000  1
  U  U1  1  0.384880  0.000000  0.749817  1
  U  U2  1  0.384880  0.384880  0.250183  1
  U  U3  1  0.000000  0.615120  0.250183  1
  U  U4  1  0.000000  0.384880  0.749817  1
  U  U5  1  0.615120  0.615120  0.749817  1
  U  U6  1  0.615120  0.000000  0.250183  1
  Ti  Ti7  1  0.000000  0.000000  0.500000  1
  As  As8  1  0.666667  0.333333  0.500000  1
  As  As9  1  0.333333  0.666667  0.000000  1
  As  As10  1  0.740456  0.000000  0.749722  1
  As  As11  1  0.740456  0.740456  0.250278  1
  As  As12  1  0.333333  0.666667  0.500000  1
  As  As13  1  0.666667  0.333333  0.000000  1
  As  As14  1  0.259544  0.000000  0.250278  1
  As  As15  1  0.259544  0.259544  0.749722  1
  As  As16  1  0.000000  0.740456  0.749722  1
  As  As17  1  0.000000  0.259544  0.250278  1
