# generated using pymatgen
data_Ti12V7Si16Mo
_symmetry_space_group_name_H-M   'P 1'
_cell_length_a   6.55756914
_cell_length_b   6.56288569
_cell_length_c   12.08125931
_cell_angle_alpha   89.88979734
_cell_angle_beta   89.93154555
_cell_angle_gamma   89.99628979
_symmetry_Int_Tables_number   1
_chemical_formula_structural   Ti12V7Si16Mo
_chemical_formula_sum   'Ti12 V7 Si16 Mo1'
_cell_volume   519.93470857
_cell_formula_units_Z   1
loop_
 _symmetry_equiv_pos_site_id
 _symmetry_equiv_pos_as_xyz
  1  'x, y, z'
loop_
 _atom_site_type_symbol
 _atom_site_label
 _atom_site_symmetry_multiplicity
 _atom_site_fract_x
 _atom_site_fract_y
 _atom_site_fract_z
 _atom_site_occupancy
  Ti  Ti0  1  0.844902  0.002832  0.879680  1
  Ti  Ti1  1  0.004860  0.341035  0.221800  1
  Ti  Ti2  1  0.158972  0.503547  0.469755  1
  Ti  Ti3  1  0.840506  0.497584  0.970493  1
  Ti  Ti4  1  0.502394  0.159056  0.528967  1
  Ti  Ti5  1  0.497535  0.839915  0.030263  1
  Ti  Ti6  1  0.996659  0.660836  0.719876  1
  Ti  Ti7  1  0.341477  0.006591  0.778925  1
  Ti  Ti8  1  0.660470  0.996937  0.280118  1
  Ti  Ti9  1  0.332746  0.666397  0.249612  1
  Ti  Ti10  1  0.664988  0.331978  0.749796  1
  Ti  Ti11  1  0.832798  0.833403  0.499420  1
  V  V12  1  0.993235  0.155405  0.622408  1
  V  V13  1  0.345862  0.493678  0.870946  1
  V  V14  1  0.655309  0.506240  0.371806  1
  V  V15  1  0.494803  0.347329  0.129854  1
  V  V16  1  0.504189  0.654358  0.626747  1
  V  V17  1  0.006570  0.841824  0.121005  1
  V  V18  1  0.154666  0.994627  0.377724  1
  Si  Si19  1  0.043566  0.301082  0.812146  1
  Si  Si20  1  0.203688  0.541138  0.062836  1
  Si  Si21  1  0.797076  0.457754  0.562598  1
  Si  Si22  1  0.539719  0.204848  0.938953  1
  Si  Si23  1  0.456700  0.797501  0.436837  1
  Si  Si24  1  0.957559  0.702924  0.312957  1
  Si  Si25  1  0.297952  0.042514  0.187719  1
  Si  Si26  1  0.699838  0.956573  0.685360  1
  Si  Si27  1  0.291614  0.366061  0.671446  1
  Si  Si28  1  0.139977  0.788965  0.921888  1
  Si  Si29  1  0.867074  0.208463  0.422967  1
  Si  Si30  1  0.790692  0.133961  0.081002  1
  Si  Si31  1  0.207647  0.867698  0.576812  1
  Si  Si32  1  0.709448  0.633324  0.173254  1
  Si  Si33  1  0.366916  0.291658  0.328193  1
  Si  Si34  1  0.631525  0.704602  0.825173  1
  Mo  Mo35  1  0.166072  0.167362  0.000664  1
