# generated using pymatgen
data_Tb13Er7Sn16
_symmetry_space_group_name_H-M   'P 1'
_cell_length_a   8.02764990
_cell_length_b   8.17468287
_cell_length_c   15.46218294
_cell_angle_alpha   89.90528936
_cell_angle_beta   90.05290117
_cell_angle_gamma   90.01452681
_symmetry_Int_Tables_number   1
_chemical_formula_structural   Tb13Er7Sn16
_chemical_formula_sum   'Tb13 Er7 Sn16'
_cell_volume   1014.68058952
_cell_formula_units_Z   1
loop_
 _symmetry_equiv_pos_site_id
 _symmetry_equiv_pos_as_xyz
  1  'x, y, z'
loop_
 _atom_site_type_symbol
 _atom_site_label
 _atom_site_symmetry_multiplicity
 _atom_site_fract_x
 _atom_site_fract_y
 _atom_site_fract_z
 _atom_site_occupancy
  Tb  Tb0  1  0.134026  0.337086  0.121809  1
  Tb  Tb1  1  0.633377  0.163183  0.122500  1
  Tb  Tb2  1  0.133458  0.336802  0.377970  1
  Tb  Tb3  1  0.366687  0.836995  0.622371  1
  Tb  Tb4  1  0.866966  0.662635  0.877849  1
  Tb  Tb5  1  0.519407  0.320552  0.902775  1
  Tb  Tb6  1  0.019542  0.179369  0.597196  1
  Tb  Tb7  1  0.480837  0.679660  0.403226  1
  Tb  Tb8  1  0.980011  0.820649  0.097189  1
  Tb  Tb9  1  0.480911  0.679628  0.096793  1
  Tb  Tb10  1  0.981381  0.820658  0.403512  1
  Tb  Tb11  1  0.518763  0.321098  0.596844  1
  Tb  Tb12  1  0.019111  0.178510  0.902310  1
  Er  Er13  1  0.365776  0.837753  0.876408  1
  Er  Er14  1  0.865076  0.662493  0.622846  1
  Er  Er15  1  0.634510  0.162549  0.377593  1
  Er  Er16  1  0.197685  0.503254  0.750236  1
  Er  Er17  1  0.697839  0.996827  0.749451  1
  Er  Er18  1  0.802067  0.496974  0.250829  1
  Er  Er19  1  0.302654  0.003002  0.249806  1
  Sn  Sn20  1  0.294355  0.035859  0.040903  1
  Sn  Sn21  1  0.792966  0.462007  0.459137  1
  Sn  Sn22  1  0.707302  0.961948  0.541508  1
  Sn  Sn23  1  0.207628  0.538670  0.957570  1
  Sn  Sn24  1  0.702900  0.962477  0.957511  1
  Sn  Sn25  1  0.203024  0.537987  0.542760  1
  Sn  Sn26  1  0.296697  0.037694  0.457726  1
  Sn  Sn27  1  0.794240  0.463154  0.042473  1
  Sn  Sn28  1  0.563547  0.618454  0.749838  1
  Sn  Sn29  1  0.063220  0.881256  0.749803  1
  Sn  Sn30  1  0.437068  0.381494  0.250485  1
  Sn  Sn31  1  0.936440  0.117761  0.250483  1
  Sn  Sn32  1  0.328855  0.148768  0.749941  1
  Sn  Sn33  1  0.828823  0.352018  0.749658  1
  Sn  Sn34  1  0.671335  0.852008  0.250503  1
  Sn  Sn35  1  0.171515  0.648770  0.250187  1
