# generated using pymatgen
data_Nd2InAgRh
_symmetry_space_group_name_H-M   'P 1'
_cell_length_a   8.02270500
_cell_length_b   7.90903700
_cell_length_c   3.90159000
_cell_angle_alpha   90.00000000
_cell_angle_beta   90.00000000
_cell_angle_gamma   90.00000000
_symmetry_Int_Tables_number   1
_chemical_formula_structural   Nd2InAgRh
_chemical_formula_sum   'Nd4 In2 Ag2 Rh2'
_cell_volume   247.56318415
_cell_formula_units_Z   2
loop_
 _symmetry_equiv_pos_site_id
 _symmetry_equiv_pos_as_xyz
  1  'x, y, z'
loop_
 _atom_site_type_symbol
 _atom_site_label
 _atom_site_symmetry_multiplicity
 _atom_site_fract_x
 _atom_site_fract_y
 _atom_site_fract_z
 _atom_site_occupancy
  Nd  Nd0  1  0.693753  0.172956  0.500000  1
  Nd  Nd1  1  0.355499  0.820845  0.500000  1
  Nd  Nd2  1  0.806247  0.672956  0.500000  1
  Nd  Nd3  1  0.144501  0.320845  0.500000  1
  In  In4  1  0.504510  0.498640  0.000000  1
  In  In5  1  0.995490  0.998640  0.000000  1
  Ag  Ag6  1  0.381010  0.134419  0.000000  1
  Ag  Ag7  1  0.118990  0.634419  0.000000  1
  Rh  Rh8  1  0.875814  0.373140  0.000000  1
  Rh  Rh9  1  0.624186  0.873140  0.000000  1
