# generated using pymatgen
data_Hf6Zr4Sn7Sb
_symmetry_space_group_name_H-M   'P 1'
_cell_length_a   8.80474502
_cell_length_b   8.81789485
_cell_length_c   5.92102800
_cell_angle_alpha   90.00000000
_cell_angle_beta   90.00000000
_cell_angle_gamma   120.04941869
_symmetry_Int_Tables_number   1
_chemical_formula_structural   Hf6Zr4Sn7Sb
_chemical_formula_sum   'Hf6 Zr4 Sn7 Sb1'
_cell_volume   397.91742907
_cell_formula_units_Z   1
loop_
 _symmetry_equiv_pos_site_id
 _symmetry_equiv_pos_as_xyz
  1  'x, y, z'
loop_
 _atom_site_type_symbol
 _atom_site_label
 _atom_site_symmetry_multiplicity
 _atom_site_fract_x
 _atom_site_fract_y
 _atom_site_fract_z
 _atom_site_occupancy
  Hf  Hf0  1  0.284114  0.283254  0.750000  1
  Hf  Hf1  1  0.715886  0.999140  0.750000  1
  Hf  Hf2  1  0.333100  0.666176  0.500787  1
  Hf  Hf3  1  0.666900  0.333075  0.500787  1
  Hf  Hf4  1  0.333100  0.666176  0.999213  1
  Hf  Hf5  1  0.666900  0.333075  0.999213  1
  Zr  Zr6  1  0.720484  0.720610  0.250000  1
  Zr  Zr7  1  0.000000  0.281643  0.250000  1
  Zr  Zr8  1  0.000000  0.717010  0.750000  1
  Zr  Zr9  1  0.279516  0.000126  0.250000  1
  Sn  Sn10  1  0.000000  0.001548  0.503052  1
  Sn  Sn11  1  0.612876  0.613531  0.750000  1
  Sn  Sn12  1  0.387124  0.000655  0.750000  1
  Sn  Sn13  1  0.000000  0.001548  0.996948  1
  Sn  Sn14  1  0.612729  0.000112  0.250000  1
  Sn  Sn15  1  0.387271  0.387383  0.250000  1
  Sn  Sn16  1  0.000000  0.383614  0.750000  1
  Sb  Sb17  1  0.000000  0.611324  0.250000  1
