# generated using pymatgen
data_YbEr2Tm3(CoSn6)2
_symmetry_space_group_name_H-M   'P 1'
_cell_length_a   8.39932158
_cell_length_b   8.39932197
_cell_length_c   13.07420000
_cell_angle_alpha   90.04516249
_cell_angle_beta   89.95484346
_cell_angle_gamma   148.42931304
_symmetry_Int_Tables_number   1
_chemical_formula_structural   YbEr2Tm3(CoSn6)2
_chemical_formula_sum   'Yb1 Er2 Tm3 Co2 Sn12'
_cell_volume   482.90494491
_cell_formula_units_Z   1
loop_
 _symmetry_equiv_pos_site_id
 _symmetry_equiv_pos_as_xyz
  1  'x, y, z'
loop_
 _atom_site_type_symbol
 _atom_site_label
 _atom_site_symmetry_multiplicity
 _atom_site_fract_x
 _atom_site_fract_y
 _atom_site_fract_z
 _atom_site_occupancy
  Yb  Yb0  1  0.900037  0.099963  0.403337  1
  Er  Er1  1  0.898780  0.101220  0.094613  1
  Er  Er2  1  0.101140  0.898860  0.595937  1
  Tm  Tm3  1  0.901453  0.098547  0.751977  1
  Tm  Tm4  1  0.100834  0.899166  0.905216  1
  Tm  Tm5  1  0.099095  0.900905  0.248925  1
  Co  Co6  1  0.298356  0.701644  0.249783  1
  Co  Co7  1  0.700378  0.299622  0.750230  1
  Sn  Sn8  1  0.757281  0.242719  0.572070  1
  Sn  Sn9  1  0.427842  0.572158  0.577090  1
  Sn  Sn10  1  0.573743  0.426257  0.424485  1
  Sn  Sn11  1  0.732510  0.267490  0.248865  1
  Sn  Sn12  1  0.266815  0.733185  0.750318  1
  Sn  Sn13  1  0.242851  0.757149  0.070967  1
  Sn  Sn14  1  0.243042  0.756958  0.429032  1
  Sn  Sn15  1  0.573010  0.426990  0.074076  1
  Sn  Sn16  1  0.454636  0.545364  0.247466  1
  Sn  Sn17  1  0.545454  0.454546  0.751104  1
  Sn  Sn18  1  0.756799  0.243201  0.928545  1
  Sn  Sn19  1  0.425945  0.574055  0.925966  1
