# generated using pymatgen
data_AcLa(BIr)8
_symmetry_space_group_name_H-M   'P 1'
_cell_length_a   7.79253200
_cell_length_b   7.79253200
_cell_length_c   3.99027200
_cell_angle_alpha   90.00000000
_cell_angle_beta   90.00000000
_cell_angle_gamma   90.00000000
_symmetry_Int_Tables_number   1
_chemical_formula_structural   AcLa(BIr)8
_chemical_formula_sum   'Ac1 La1 B8 Ir8'
_cell_volume   242.30350114
_cell_formula_units_Z   1
loop_
 _symmetry_equiv_pos_site_id
 _symmetry_equiv_pos_as_xyz
  1  'x, y, z'
loop_
 _atom_site_type_symbol
 _atom_site_label
 _atom_site_symmetry_multiplicity
 _atom_site_fract_x
 _atom_site_fract_y
 _atom_site_fract_z
 _atom_site_occupancy
  Ac  Ac0  1  0.500000  0.500000  0.000000  1
  La  La1  1  0.000000  0.000000  0.500000  1
  B  B2  1  0.659734  0.782387  0.604029  1
  B  B3  1  0.157455  0.277948  0.893606  1
  B  B4  1  0.277948  0.842545  0.106394  1
  B  B5  1  0.722052  0.157455  0.106394  1
  B  B6  1  0.340266  0.217613  0.604029  1
  B  B7  1  0.842545  0.722052  0.893606  1
  B  B8  1  0.217613  0.659734  0.395971  1
  B  B9  1  0.782387  0.340266  0.395971  1
  Ir  Ir10  1  0.339265  0.108679  0.105608  1
  Ir  Ir11  1  0.660735  0.891321  0.105608  1
  Ir  Ir12  1  0.609836  0.156539  0.604928  1
  Ir  Ir13  1  0.108679  0.660735  0.894392  1
  Ir  Ir14  1  0.156539  0.390164  0.395072  1
  Ir  Ir15  1  0.843461  0.609836  0.395072  1
  Ir  Ir16  1  0.891321  0.339265  0.894392  1
  Ir  Ir17  1  0.390164  0.843461  0.604928  1
