# generated using pymatgen
data_Nd7Zr(Si4Mo3)4
_symmetry_space_group_name_H-M   'P 1'
_cell_length_a   6.88054932
_cell_length_b   7.02435502
_cell_length_c   13.09743861
_cell_angle_alpha   89.75878689
_cell_angle_beta   90.09441751
_cell_angle_gamma   90.09654593
_symmetry_Int_Tables_number   1
_chemical_formula_structural   Nd7Zr(Si4Mo3)4
_chemical_formula_sum   'Nd7 Zr1 Si16 Mo12'
_cell_volume   633.01046050
_cell_formula_units_Z   1
loop_
 _symmetry_equiv_pos_site_id
 _symmetry_equiv_pos_as_xyz
  1  'x, y, z'
loop_
 _atom_site_type_symbol
 _atom_site_label
 _atom_site_symmetry_multiplicity
 _atom_site_fract_x
 _atom_site_fract_y
 _atom_site_fract_z
 _atom_site_occupancy
  Nd  Nd0  1  0.997287  0.163418  0.094385  1
  Nd  Nd1  1  0.002923  0.836101  0.903987  1
  Nd  Nd2  1  0.503016  0.663036  0.906138  1
  Nd  Nd3  1  0.004067  0.835748  0.593383  1
  Nd  Nd4  1  0.497142  0.335425  0.094425  1
  Nd  Nd5  1  0.998802  0.165329  0.407981  1
  Nd  Nd6  1  0.498795  0.334949  0.407777  1
  Zr  Zr7  1  0.504009  0.670530  0.599380  1
  Si  Si8  1  0.036213  0.143770  0.748328  1
  Si  Si9  1  0.962008  0.857994  0.251070  1
  Si  Si10  1  0.462719  0.639815  0.250269  1
  Si  Si11  1  0.535909  0.364025  0.745862  1
  Si  Si12  1  0.310316  0.874020  0.747293  1
  Si  Si13  1  0.692680  0.118811  0.251347  1
  Si  Si14  1  0.193636  0.378486  0.250916  1
  Si  Si15  1  0.800344  0.624130  0.747342  1
  Si  Si16  1  0.167389  0.459425  0.548103  1
  Si  Si17  1  0.839807  0.547115  0.456049  1
  Si  Si18  1  0.346948  0.947062  0.456049  1
  Si  Si19  1  0.845728  0.547062  0.048672  1
  Si  Si20  1  0.652664  0.039731  0.548414  1
  Si  Si21  1  0.152822  0.452492  0.949610  1
  Si  Si22  1  0.653565  0.047514  0.950055  1
  Si  Si23  1  0.345429  0.953099  0.048419  1
  Mo  Mo24  1  0.166400  0.502031  0.745987  1
  Mo  Mo25  1  0.835592  0.503020  0.252220  1
  Mo  Mo26  1  0.334811  0.994301  0.251126  1
  Mo  Mo27  1  0.663992  0.999476  0.746952  1
  Mo  Mo28  1  0.332790  0.164159  0.625732  1
  Mo  Mo29  1  0.665715  0.830855  0.376509  1
  Mo  Mo30  1  0.168225  0.664280  0.374623  1
  Mo  Mo31  1  0.666703  0.833614  0.127217  1
  Mo  Mo32  1  0.831769  0.341421  0.624876  1
  Mo  Mo33  1  0.332868  0.166772  0.871059  1
  Mo  Mo34  1  0.829867  0.336735  0.872019  1
  Mo  Mo35  1  0.167048  0.664251  0.126429  1
