# generated using pymatgen
data_Pu4Al7Os
_symmetry_space_group_name_H-M   'P 1'
_cell_length_a   5.54091200
_cell_length_b   5.54091139
_cell_length_c   8.67280200
_cell_angle_alpha   90.00000000
_cell_angle_beta   90.00000000
_cell_angle_gamma   119.99997977
_symmetry_Int_Tables_number   1
_chemical_formula_structural   Pu4Al7Os
_chemical_formula_sum   'Pu4 Al7 Os1'
_cell_volume   230.59644591
_cell_formula_units_Z   1
loop_
 _symmetry_equiv_pos_site_id
 _symmetry_equiv_pos_as_xyz
  1  'x, y, z'
loop_
 _atom_site_type_symbol
 _atom_site_label
 _atom_site_symmetry_multiplicity
 _atom_site_fract_x
 _atom_site_fract_y
 _atom_site_fract_z
 _atom_site_occupancy
  Pu  Pu0  1  0.333333  0.666667  0.438571  1
  Pu  Pu1  1  0.666667  0.333333  0.933102  1
  Pu  Pu2  1  0.666667  0.333333  0.561429  1
  Pu  Pu3  1  0.333333  0.666667  0.066898  1
  Al  Al4  1  0.167465  0.334930  0.758304  1
  Al  Al5  1  0.832535  0.167465  0.241696  1
  Al  Al6  1  0.334930  0.167465  0.241696  1
  Al  Al7  1  0.665070  0.832535  0.758304  1
  Al  Al8  1  0.000000  0.000000  0.500000  1
  Al  Al9  1  0.832535  0.665070  0.241696  1
  Al  Al10  1  0.167465  0.832535  0.758304  1
  Os  Os11  1  0.000000  0.000000  0.000000  1
