# generated using pymatgen
data_Hf6Ti16Mn2Rh5
_symmetry_space_group_name_H-M   'P 1'
_cell_length_a   8.86431252
_cell_length_b   8.86431334
_cell_length_c   8.93510300
_cell_angle_alpha   59.73547082
_cell_angle_beta   59.73546772
_cell_angle_gamma   60.22455608
_symmetry_Int_Tables_number   1
_chemical_formula_structural   Hf6Ti16Mn2Rh5
_chemical_formula_sum   'Hf6 Ti16 Mn2 Rh5'
_cell_volume   495.28167594
_cell_formula_units_Z   1
loop_
 _symmetry_equiv_pos_site_id
 _symmetry_equiv_pos_as_xyz
  1  'x, y, z'
loop_
 _atom_site_type_symbol
 _atom_site_label
 _atom_site_symmetry_multiplicity
 _atom_site_fract_x
 _atom_site_fract_y
 _atom_site_fract_z
 _atom_site_occupancy
  Hf  Hf0  1  0.684592  0.315408  0.317077  1
  Hf  Hf1  1  0.315408  0.684592  0.682923  1
  Hf  Hf2  1  0.315408  0.684592  0.317077  1
  Hf  Hf3  1  0.684592  0.315408  0.682923  1
  Hf  Hf4  1  0.315885  0.315885  0.684115  1
  Hf  Hf5  1  0.684115  0.684115  0.315885  1
  Ti  Ti6  1  0.337542  0.337542  0.321466  1
  Ti  Ti7  1  0.662458  0.662458  0.678534  1
  Ti  Ti8  1  0.337542  0.337542  0.003451  1
  Ti  Ti9  1  0.332750  0.010700  0.328275  1
  Ti  Ti10  1  0.662458  0.662458  0.996549  1
  Ti  Ti11  1  0.667250  0.989300  0.671725  1
  Ti  Ti12  1  0.010700  0.332750  0.328275  1
  Ti  Ti13  1  0.989300  0.667250  0.671725  1
  Ti  Ti14  1  0.116439  0.116439  0.112909  1
  Ti  Ti15  1  0.883561  0.883561  0.887091  1
  Ti  Ti16  1  0.116439  0.116439  0.654213  1
  Ti  Ti17  1  0.121613  0.657045  0.110671  1
  Ti  Ti18  1  0.883561  0.883561  0.345787  1
  Ti  Ti19  1  0.878387  0.342955  0.889329  1
  Ti  Ti20  1  0.657045  0.121613  0.110671  1
  Ti  Ti21  1  0.342955  0.878387  0.889329  1
  Mn  Mn22  1  0.500000  0.500000  0.000000  1
  Mn  Mn23  1  0.000000  0.000000  0.000000  1
  Rh  Rh24  1  0.500000  0.000000  0.000000  1
  Rh  Rh25  1  0.000000  0.500000  0.500000  1
  Rh  Rh26  1  0.000000  0.500000  0.000000  1
  Rh  Rh27  1  0.500000  0.000000  0.500000  1
  Rh  Rh28  1  0.000000  0.000000  0.500000  1
