# generated using pymatgen
data_Er2Tm2Hf3ScRh4
_symmetry_space_group_name_H-M   'P 1'
_cell_length_a   4.55685000
_cell_length_b   6.94704411
_cell_length_c   8.27019701
_cell_angle_alpha   90.17089942
_cell_angle_beta   90.00000000
_cell_angle_gamma   90.00000000
_symmetry_Int_Tables_number   1
_chemical_formula_structural   Er2Tm2Hf3ScRh4
_chemical_formula_sum   'Er2 Tm2 Hf3 Sc1 Rh4'
_cell_volume   261.80546804
_cell_formula_units_Z   1
loop_
 _symmetry_equiv_pos_site_id
 _symmetry_equiv_pos_as_xyz
  1  'x, y, z'
loop_
 _atom_site_type_symbol
 _atom_site_label
 _atom_site_symmetry_multiplicity
 _atom_site_fract_x
 _atom_site_fract_y
 _atom_site_fract_z
 _atom_site_occupancy
  Er  Er0  1  0.250000  0.985667  0.324135  1
  Er  Er1  1  0.250000  0.483532  0.174194  1
  Tm  Tm2  1  0.750000  0.018683  0.679610  1
  Tm  Tm3  1  0.750000  0.513124  0.821918  1
  Hf  Hf4  1  0.250000  0.363652  0.574453  1
  Hf  Hf5  1  0.250000  0.856066  0.926864  1
  Hf  Hf6  1  0.750000  0.645348  0.424309  1
  Sc  Sc7  1  0.750000  0.138300  0.076229  1
  Rh  Rh8  1  0.250000  0.233139  0.901216  1
  Rh  Rh9  1  0.250000  0.737990  0.590143  1
  Rh  Rh10  1  0.750000  0.755605  0.089216  1
  Rh  Rh11  1  0.750000  0.268897  0.417713  1
