# generated using pymatgen
data_Tb18Tm2Ir11Ru
_symmetry_space_group_name_H-M   'P 1'
_cell_length_a   10.90099104
_cell_length_b   10.90194504
_cell_length_c   6.40722000
_cell_angle_alpha   90.00000000
_cell_angle_beta   90.00000000
_cell_angle_gamma   89.99056061
_symmetry_Int_Tables_number   1
_chemical_formula_structural   Tb18Tm2Ir11Ru
_chemical_formula_sum   'Tb18 Tm2 Ir11 Ru1'
_cell_volume   761.44686180
_cell_formula_units_Z   1
loop_
 _symmetry_equiv_pos_site_id
 _symmetry_equiv_pos_as_xyz
  1  'x, y, z'
loop_
 _atom_site_type_symbol
 _atom_site_label
 _atom_site_symmetry_multiplicity
 _atom_site_fract_x
 _atom_site_fract_y
 _atom_site_fract_z
 _atom_site_occupancy
  Tb  Tb0  1  0.291562  0.087160  0.377576  1
  Tb  Tb1  1  0.291852  0.912763  0.880454  1
  Tb  Tb2  1  0.708148  0.087237  0.880454  1
  Tb  Tb3  1  0.708438  0.912840  0.377576  1
  Tb  Tb4  1  0.587477  0.792647  0.880464  1
  Tb  Tb5  1  0.587410  0.207654  0.377585  1
  Tb  Tb6  1  0.412590  0.792346  0.377585  1
  Tb  Tb7  1  0.412523  0.207353  0.880464  1
  Tb  Tb8  1  0.209107  0.411458  0.621226  1
  Tb  Tb9  1  0.209085  0.588349  0.120848  1
  Tb  Tb10  1  0.790915  0.411651  0.120848  1
  Tb  Tb11  1  0.790893  0.588542  0.621226  1
  Tb  Tb12  1  0.911904  0.709854  0.120884  1
  Tb  Tb13  1  0.911729  0.290109  0.621220  1
  Tb  Tb14  1  0.088271  0.709891  0.621220  1
  Tb  Tb15  1  0.088096  0.290146  0.120884  1
  Tb  Tb16  1  0.500000  0.500000  0.999257  1
  Tb  Tb17  1  0.500000  0.500000  0.499299  1
  Tm  Tm18  1  0.000000  0.000000  0.499268  1
  Tm  Tm19  1  0.000000  0.000000  0.999250  1
  Ir  Ir20  1  0.848553  0.152271  0.249956  1
  Ir  Ir21  1  0.848624  0.848095  0.749675  1
  Ir  Ir22  1  0.151376  0.151905  0.749675  1
  Ir  Ir23  1  0.151447  0.847729  0.249956  1
  Ir  Ir24  1  0.653473  0.347069  0.749724  1
  Ir  Ir25  1  0.653847  0.653051  0.250020  1
  Ir  Ir26  1  0.346153  0.346949  0.250020  1
  Ir  Ir27  1  0.346527  0.652931  0.749724  1
  Ir  Ir28  1  0.500000  0.000000  0.622960  1
  Ir  Ir29  1  0.000000  0.500000  0.878592  1
  Ir  Ir30  1  0.000000  0.500000  0.378807  1
  Ru  Ru31  1  0.500000  0.000000  0.123301  1
