# generated using pymatgen
data_Tb2Y2Ga4Ir3Rh
_symmetry_space_group_name_H-M   'P 1'
_cell_length_a   4.36565200
_cell_length_b   6.85302657
_cell_length_c   7.77098098
_cell_angle_alpha   90.20263757
_cell_angle_beta   90.00000000
_cell_angle_gamma   90.00000000
_symmetry_Int_Tables_number   1
_chemical_formula_structural   Tb2Y2Ga4Ir3Rh
_chemical_formula_sum   'Tb2 Y2 Ga4 Ir3 Rh1'
_cell_volume   232.49020440
_cell_formula_units_Z   1
loop_
 _symmetry_equiv_pos_site_id
 _symmetry_equiv_pos_as_xyz
  1  'x, y, z'
loop_
 _atom_site_type_symbol
 _atom_site_label
 _atom_site_symmetry_multiplicity
 _atom_site_fract_x
 _atom_site_fract_y
 _atom_site_fract_z
 _atom_site_occupancy
  Tb  Tb0  1  0.250000  0.975421  0.308976  1
  Tb  Tb1  1  0.750000  0.021155  0.691968  1
  Y  Y2  1  0.250000  0.479036  0.189704  1
  Y  Y3  1  0.750000  0.522663  0.809561  1
  Ga  Ga4  1  0.250000  0.341297  0.570552  1
  Ga  Ga5  1  0.250000  0.840471  0.927891  1
  Ga  Ga6  1  0.750000  0.658051  0.428191  1
  Ga  Ga7  1  0.750000  0.160510  0.071278  1
  Ir  Ir8  1  0.250000  0.228711  0.892076  1
  Ir  Ir9  1  0.250000  0.727805  0.605591  1
  Ir  Ir10  1  0.750000  0.773560  0.108243  1
  Rh  Rh11  1  0.750000  0.271323  0.395967  1
