# generated using pymatgen
data_Ho6Zn20Ag3P
_symmetry_space_group_name_H-M   'P 1'
_cell_length_a   9.08644703
_cell_length_b   9.08644759
_cell_length_c   9.08357800
_cell_angle_alpha   60.01044636
_cell_angle_beta   60.01044431
_cell_angle_gamma   60.01855553
_symmetry_Int_Tables_number   1
_chemical_formula_structural   Ho6Zn20Ag3P
_chemical_formula_sum   'Ho6 Zn20 Ag3 P1'
_cell_volume   530.46851326
_cell_formula_units_Z   1
loop_
 _symmetry_equiv_pos_site_id
 _symmetry_equiv_pos_as_xyz
  1  'x, y, z'
loop_
 _atom_site_type_symbol
 _atom_site_label
 _atom_site_symmetry_multiplicity
 _atom_site_fract_x
 _atom_site_fract_y
 _atom_site_fract_z
 _atom_site_occupancy
  Ho  Ho0  1  0.711864  0.288383  0.288573  1
  Ho  Ho1  1  0.711864  0.288383  0.711181  1
  Ho  Ho2  1  0.710247  0.710247  0.289753  1
  Ho  Ho3  1  0.288383  0.711864  0.711181  1
  Ho  Ho4  1  0.288383  0.711864  0.288573  1
  Ho  Ho5  1  0.287363  0.287363  0.712637  1
  Zn  Zn6  1  0.126133  0.126133  0.621622  1
  Zn  Zn7  1  0.126133  0.126133  0.126115  1
  Zn  Zn8  1  0.376854  0.872810  0.875168  1
  Zn  Zn9  1  0.872810  0.376854  0.875168  1
  Zn  Zn10  1  0.874311  0.874311  0.374615  1
  Zn  Zn11  1  0.874311  0.874311  0.876762  1
  Zn  Zn12  1  0.497609  0.998552  0.999300  1
  Zn  Zn13  1  0.497609  0.998552  0.504540  1
  Zn  Zn14  1  0.501631  0.501631  0.998369  1
  Zn  Zn15  1  0.998552  0.497609  0.504540  1
  Zn  Zn16  1  0.998552  0.497609  0.999300  1
  Zn  Zn17  1  0.999392  0.999392  0.500608  1
  Zn  Zn18  1  0.005699  0.330589  0.331855  1
  Zn  Zn19  1  0.330589  0.005699  0.331855  1
  Zn  Zn20  1  0.331356  0.331356  0.004386  1
  Zn  Zn21  1  0.331356  0.331356  0.332901  1
  Zn  Zn22  1  0.992962  0.668837  0.669102  1
  Zn  Zn23  1  0.668837  0.992962  0.669102  1
  Zn  Zn24  1  0.668737  0.668737  0.994074  1
  Zn  Zn25  1  0.668737  0.668737  0.668454  1
  Ag  Ag26  1  0.629068  0.123127  0.123903  1
  Ag  Ag27  1  0.123127  0.629068  0.123903  1
  Ag  Ag28  1  0.008285  0.008285  0.991715  1
  P  P29  1  0.499249  0.499249  0.500751  1
