# generated using pymatgen
data_Y2Si14Ir5Rh
_symmetry_space_group_name_H-M   'P 1'
_cell_length_a   8.04497028
_cell_length_b   8.04496973
_cell_length_c   8.05726734
_cell_angle_alpha   56.57353697
_cell_angle_beta   56.57353027
_cell_angle_gamma   56.52719520
_symmetry_Int_Tables_number   1
_chemical_formula_structural   Y2Si14Ir5Rh
_chemical_formula_sum   'Y2 Si14 Ir5 Rh1'
_cell_volume   339.41393368
_cell_formula_units_Z   1
loop_
 _symmetry_equiv_pos_site_id
 _symmetry_equiv_pos_as_xyz
  1  'x, y, z'
loop_
 _atom_site_type_symbol
 _atom_site_label
 _atom_site_symmetry_multiplicity
 _atom_site_fract_x
 _atom_site_fract_y
 _atom_site_fract_z
 _atom_site_occupancy
  Y  Y0  1  0.000142  0.000007  0.999942  1
  Y  Y1  1  0.499993  0.499858  0.500058  1
  Si  Si2  1  0.751325  0.748675  0.750000  1
  Si  Si3  1  0.250078  0.249922  0.250000  1
  Si  Si4  1  0.850531  0.063997  0.672383  1
  Si  Si5  1  0.672354  0.850718  0.063900  1
  Si  Si6  1  0.063291  0.672030  0.850506  1
  Si  Si7  1  0.649282  0.827646  0.436100  1
  Si  Si8  1  0.436003  0.649469  0.827617  1
  Si  Si9  1  0.827970  0.436709  0.649494  1
  Si  Si10  1  0.172704  0.563021  0.351176  1
  Si  Si11  1  0.564281  0.350528  0.172118  1
  Si  Si12  1  0.350035  0.173545  0.564434  1
  Si  Si13  1  0.936979  0.327296  0.148824  1
  Si  Si14  1  0.326455  0.149965  0.935566  1
  Si  Si15  1  0.149472  0.935719  0.327882  1
  Ir  Ir16  1  0.249908  0.929873  0.570506  1
  Ir  Ir17  1  0.570127  0.250092  0.929494  1
  Ir  Ir18  1  0.929074  0.570926  0.250000  1
  Ir  Ir19  1  0.429626  0.749740  0.070764  1
  Ir  Ir20  1  0.750260  0.070374  0.429236  1
  Rh  Rh21  1  0.070111  0.429889  0.750000  1
