# generated using pymatgen
data_Ac3SbO7
_symmetry_space_group_name_H-M   'P 1'
_cell_length_a   7.00052811
_cell_length_b   7.00052924
_cell_length_c   8.02974300
_cell_angle_alpha   90.00000000
_cell_angle_beta   90.00000000
_cell_angle_gamma   111.21285820
_symmetry_Int_Tables_number   1
_chemical_formula_structural   Ac3SbO7
_chemical_formula_sum   'Ac6 Sb2 O14'
_cell_volume   366.85317215
_cell_formula_units_Z   2
loop_
 _symmetry_equiv_pos_site_id
 _symmetry_equiv_pos_as_xyz
  1  'x, y, z'
loop_
 _atom_site_type_symbol
 _atom_site_label
 _atom_site_symmetry_multiplicity
 _atom_site_fract_x
 _atom_site_fract_y
 _atom_site_fract_z
 _atom_site_occupancy
  Ac  Ac0  1  0.000000  0.000000  0.500000  1
  Ac  Ac1  1  0.000000  0.000000  0.000000  1
  Ac  Ac2  1  0.520613  0.066755  0.250000  1
  Ac  Ac3  1  0.933245  0.479387  0.750000  1
  Ac  Ac4  1  0.479387  0.933245  0.750000  1
  Ac  Ac5  1  0.066755  0.520613  0.250000  1
  Sb  Sb6  1  0.500000  0.500000  0.500000  1
  Sb  Sb7  1  0.500000  0.500000  0.000000  1
  O  O8  1  0.442093  0.197414  0.532375  1
  O  O9  1  0.802586  0.557907  0.467625  1
  O  O10  1  0.442093  0.197414  0.967625  1
  O  O11  1  0.802586  0.557907  0.032375  1
  O  O12  1  0.557907  0.802586  0.467625  1
  O  O13  1  0.197414  0.442093  0.532375  1
  O  O14  1  0.557907  0.802586  0.032375  1
  O  O15  1  0.197414  0.442093  0.967625  1
  O  O16  1  0.151253  0.890504  0.250000  1
  O  O17  1  0.109496  0.848747  0.750000  1
  O  O18  1  0.848747  0.109496  0.750000  1
  O  O19  1  0.890504  0.151253  0.250000  1
  O  O20  1  0.426382  0.426382  0.250000  1
  O  O21  1  0.573618  0.573618  0.750000  1
