# generated using pymatgen
data_ErZr4Pb3
_symmetry_space_group_name_H-M   'P 1'
_cell_length_a   8.77128100
_cell_length_b   8.71638089
_cell_length_c   5.96287900
_cell_angle_alpha   90.00000000
_cell_angle_beta   90.00000000
_cell_angle_gamma   120.20857610
_symmetry_Int_Tables_number   1
_chemical_formula_structural   ErZr4Pb3
_chemical_formula_sum   'Er2 Zr8 Pb6'
_cell_volume   393.97551442
_cell_formula_units_Z   2
loop_
 _symmetry_equiv_pos_site_id
 _symmetry_equiv_pos_as_xyz
  1  'x, y, z'
loop_
 _atom_site_type_symbol
 _atom_site_label
 _atom_site_symmetry_multiplicity
 _atom_site_fract_x
 _atom_site_fract_y
 _atom_site_fract_z
 _atom_site_occupancy
  Er  Er0  1  0.761818  0.760489  0.250000  1
  Er  Er1  1  0.001329  0.239511  0.250000  1
  Zr  Zr2  1  0.751564  0.000000  0.750000  1
  Zr  Zr3  1  0.332106  0.666707  0.500849  1
  Zr  Zr4  1  0.249197  0.000000  0.250000  1
  Zr  Zr5  1  0.665401  0.333293  0.500849  1
  Zr  Zr6  1  0.000876  0.758544  0.750000  1
  Zr  Zr7  1  0.332106  0.666707  0.999151  1
  Zr  Zr8  1  0.242332  0.241456  0.750000  1
  Zr  Zr9  1  0.665401  0.333293  0.999151  1
  Pb  Pb10  1  0.608513  0.608945  0.750000  1
  Pb  Pb11  1  0.390026  0.000000  0.750000  1
  Pb  Pb12  1  0.602964  0.000000  0.250000  1
  Pb  Pb13  1  0.999569  0.391055  0.750000  1
  Pb  Pb14  1  0.394533  0.392267  0.250000  1
  Pb  Pb15  1  0.002265  0.607733  0.250000  1
