# generated using pymatgen
data_LiTbCe2In3Au2
_symmetry_space_group_name_H-M   'P 1'
_cell_length_a   7.95256000
_cell_length_b   7.98322430
_cell_length_c   3.98253500
_cell_angle_alpha   90.00000000
_cell_angle_beta   90.00000000
_cell_angle_gamma   119.87301057
_symmetry_Int_Tables_number   1
_chemical_formula_structural   LiTbCe2In3Au2
_chemical_formula_sum   'Li1 Tb1 Ce2 In3 Au2'
_cell_volume   219.24506862
_cell_formula_units_Z   1
loop_
 _symmetry_equiv_pos_site_id
 _symmetry_equiv_pos_as_xyz
  1  'x, y, z'
loop_
 _atom_site_type_symbol
 _atom_site_label
 _atom_site_symmetry_multiplicity
 _atom_site_fract_x
 _atom_site_fract_y
 _atom_site_fract_z
 _atom_site_occupancy
  Li  Li0  1  0.000349  0.000000  0.500000  1
  Tb  Tb1  1  0.412964  0.000000  0.500000  1
  Ce  Ce2  1  0.586344  0.586322  0.500000  1
  Ce  Ce3  1  0.000023  0.413678  0.500000  1
  In  In4  1  0.003233  0.755787  0.000000  1
  In  In5  1  0.751422  0.000000  0.000000  1
  In  In6  1  0.247445  0.244213  0.000000  1
  Au  Au7  1  0.662775  0.327330  0.000000  1
  Au  Au8  1  0.335444  0.672670  0.000000  1
