# generated using pymatgen
data_SrAl10IrRu
_symmetry_space_group_name_H-M   'P 1'
_cell_length_a   6.92382055
_cell_length_b   6.92382081
_cell_length_c   9.24014220
_cell_angle_alpha   89.91727741
_cell_angle_beta   90.08272366
_cell_angle_gamma   96.71600902
_symmetry_Int_Tables_number   1
_chemical_formula_structural   SrAl10IrRu
_chemical_formula_sum   'Sr2 Al20 Ir2 Ru2'
_cell_volume   439.92543462
_cell_formula_units_Z   2
loop_
 _symmetry_equiv_pos_site_id
 _symmetry_equiv_pos_as_xyz
  1  'x, y, z'
loop_
 _atom_site_type_symbol
 _atom_site_label
 _atom_site_symmetry_multiplicity
 _atom_site_fract_x
 _atom_site_fract_y
 _atom_site_fract_z
 _atom_site_occupancy
  Sr  Sr0  1  0.877265  0.122735  0.750399  1
  Sr  Sr1  1  0.122735  0.877265  0.249601  1
  Al  Al2  1  0.588463  0.858337  0.251939  1
  Al  Al3  1  0.777744  0.518663  0.252055  1
  Al  Al4  1  0.162095  0.837905  0.896474  1
  Al  Al5  1  0.411537  0.141663  0.748061  1
  Al  Al6  1  0.620364  0.379636  0.949534  1
  Al  Al7  1  0.837524  0.162476  0.399510  1
  Al  Al8  1  0.775924  0.775924  0.000000  1
  Al  Al9  1  0.858337  0.588463  0.748061  1
  Al  Al10  1  0.837905  0.162095  0.103526  1
  Al  Al11  1  0.222256  0.481337  0.747945  1
  Al  Al12  1  0.162476  0.837524  0.600490  1
  Al  Al13  1  0.774537  0.774537  0.500000  1
  Al  Al14  1  0.481337  0.222256  0.252055  1
  Al  Al15  1  0.622288  0.377712  0.548751  1
  Al  Al16  1  0.225463  0.225463  0.500000  1
  Al  Al17  1  0.377712  0.622288  0.451249  1
  Al  Al18  1  0.141663  0.411537  0.251939  1
  Al  Al19  1  0.518663  0.777744  0.747945  1
  Al  Al20  1  0.379636  0.620364  0.050466  1
  Al  Al21  1  0.224076  0.224076  0.000000  1
  Ir  Ir22  1  0.500000  0.000000  0.000000  1
  Ir  Ir23  1  0.000000  0.500000  0.000000  1
  Ru  Ru24  1  0.500000  0.000000  0.500000  1
  Ru  Ru25  1  0.000000  0.500000  0.500000  1
