# generated using pymatgen
data_YbTm5Al18(Si3Os4)2
_symmetry_space_group_name_H-M   'P 1'
_cell_length_a   8.68076100
_cell_length_b   8.64614498
_cell_length_c   9.52468300
_cell_angle_alpha   90.00000000
_cell_angle_beta   90.00000000
_cell_angle_gamma   120.13252399
_symmetry_Int_Tables_number   1
_chemical_formula_structural   YbTm5Al18(Si3Os4)2
_chemical_formula_sum   'Yb1 Tm5 Al18 Si6 Os8'
_cell_volume   618.27255430
_cell_formula_units_Z   1
loop_
 _symmetry_equiv_pos_site_id
 _symmetry_equiv_pos_as_xyz
  1  'x, y, z'
loop_
 _atom_site_type_symbol
 _atom_site_label
 _atom_site_symmetry_multiplicity
 _atom_site_fract_x
 _atom_site_fract_y
 _atom_site_fract_z
 _atom_site_occupancy
  Yb  Yb0  1  0.193808  0.387616  0.250000  1
  Tm  Tm1  1  0.804872  0.609743  0.750000  1
  Tm  Tm2  1  0.607888  0.806169  0.250000  1
  Tm  Tm3  1  0.392809  0.193841  0.750000  1
  Tm  Tm4  1  0.198283  0.806169  0.250000  1
  Tm  Tm5  1  0.801030  0.193841  0.750000  1
  Al  Al6  1  0.165314  0.330630  0.578545  1
  Al  Al7  1  0.834771  0.669540  0.419848  1
  Al  Al8  1  0.670048  0.835017  0.577929  1
  Al  Al9  1  0.834771  0.669540  0.080152  1
  Al  Al10  1  0.329734  0.165413  0.422101  1
  Al  Al11  1  0.165314  0.330630  0.921455  1
  Al  Al12  1  0.164969  0.835017  0.577929  1
  Al  Al13  1  0.329734  0.165413  0.077899  1
  Al  Al14  1  0.835680  0.165413  0.422101  1
  Al  Al15  1  0.670048  0.835017  0.922071  1
  Al  Al16  1  0.835680  0.165413  0.077899  1
  Al  Al17  1  0.164969  0.835017  0.922071  1
  Al  Al18  1  0.873830  0.433283  0.250000  1
  Al  Al19  1  0.127254  0.566511  0.750000  1
  Al  Al20  1  0.559453  0.433283  0.250000  1
  Al  Al21  1  0.439257  0.566511  0.750000  1
  Al  Al22  1  0.999533  0.999067  0.250000  1
  Al  Al23  1  0.000680  0.001360  0.750000  1
  Si  Si24  1  0.331815  0.663630  0.040886  1
  Si  Si25  1  0.667875  0.335750  0.959343  1
  Si  Si26  1  0.667875  0.335750  0.540657  1
  Si  Si27  1  0.331815  0.663630  0.459114  1
  Si  Si28  1  0.563350  0.126700  0.250000  1
  Si  Si29  1  0.436777  0.873555  0.750000  1
  Os  Os30  1  0.500359  0.000718  0.999241  1
  Os  Os31  1  0.998908  0.500391  0.998660  1
  Os  Os32  1  0.500359  0.000718  0.500759  1
  Os  Os33  1  0.501482  0.500391  0.998660  1
  Os  Os34  1  0.998908  0.500391  0.501340  1
  Os  Os35  1  0.501482  0.500391  0.501340  1
  Os  Os36  1  0.999633  0.999266  0.999843  1
  Os  Os37  1  0.999633  0.999266  0.500157  1
