# generated using pymatgen
data_Tb5V(P2Ir3)6
_symmetry_space_group_name_H-M   'P 1'
_cell_length_a   12.65706665
_cell_length_b   12.79611786
_cell_length_c   3.98591700
_cell_angle_alpha   90.00000000
_cell_angle_beta   90.00000000
_cell_angle_gamma   120.36408538
_symmetry_Int_Tables_number   1
_chemical_formula_structural   Tb5V(P2Ir3)6
_chemical_formula_sum   'Tb5 V1 P12 Ir18'
_cell_volume   557.01275052
_cell_formula_units_Z   1
loop_
 _symmetry_equiv_pos_site_id
 _symmetry_equiv_pos_as_xyz
  1  'x, y, z'
loop_
 _atom_site_type_symbol
 _atom_site_label
 _atom_site_symmetry_multiplicity
 _atom_site_fract_x
 _atom_site_fract_y
 _atom_site_fract_z
 _atom_site_occupancy
  Tb  Tb0  1  0.329338  0.664379  0.500000  1
  Tb  Tb1  1  0.670662  0.335039  0.500000  1
  Tb  Tb2  1  0.000000  0.811606  0.000000  1
  Tb  Tb3  1  0.183646  0.186147  0.000000  1
  Tb  Tb4  1  0.816354  0.002500  0.000000  1
  V  V5  1  0.000000  0.451627  0.500000  1
  P  P6  1  0.000000  0.632765  0.500000  1
  P  P7  1  0.355554  0.354672  0.500000  1
  P  P8  1  0.644446  0.999116  0.500000  1
  P  P9  1  0.514983  0.688929  0.000000  1
  P  P10  1  0.310816  0.828682  0.000000  1
  P  P11  1  0.164383  0.483636  0.000000  1
  P  P12  1  0.485017  0.173947  0.000000  1
  P  P13  1  0.689184  0.517864  0.000000  1
  P  P14  1  0.835617  0.319252  0.000000  1
  P  P15  1  0.000000  0.175939  0.500000  1
  P  P16  1  0.820494  0.820641  0.500000  1
  P  P17  1  0.179506  0.000147  0.500000  1
  Ir  Ir18  1  0.507839  0.869956  0.000000  1
  Ir  Ir19  1  0.129583  0.640423  0.000000  1
  Ir  Ir20  1  0.356650  0.494170  0.000000  1
  Ir  Ir21  1  0.492161  0.362114  0.000000  1
  Ir  Ir22  1  0.870417  0.510840  0.000000  1
  Ir  Ir23  1  0.643350  0.137520  0.000000  1
  Ir  Ir24  1  0.534183  0.535831  0.500000  1
  Ir  Ir25  1  0.465817  0.001649  0.500000  1
  Ir  Ir26  1  0.000000  0.287227  0.000000  1
  Ir  Ir27  1  0.713213  0.714149  0.000000  1
  Ir  Ir28  1  0.286787  0.000937  0.000000  1
  Ir  Ir29  1  0.621398  0.803406  0.500000  1
  Ir  Ir30  1  0.198313  0.822862  0.500000  1
  Ir  Ir31  1  0.179283  0.373445  0.500000  1
  Ir  Ir32  1  0.378602  0.182008  0.500000  1
  Ir  Ir33  1  0.801687  0.624548  0.500000  1
  Ir  Ir34  1  0.820717  0.194162  0.500000  1
  Ir  Ir35  1  0.000000  0.997863  0.500000  1
