# generated using pymatgen
data_Pr7SmMnPd24
_symmetry_space_group_name_H-M   'P 1'
_cell_length_a   8.54120538
_cell_length_b   8.54120476
_cell_length_c   8.54120500
_cell_angle_alpha   89.98292102
_cell_angle_beta   90.01707898
_cell_angle_gamma   90.01707736
_symmetry_Int_Tables_number   1
_chemical_formula_structural   Pr7SmMnPd24
_chemical_formula_sum   'Pr7 Sm1 Mn1 Pd24'
_cell_volume   623.09947598
_cell_formula_units_Z   1
loop_
 _symmetry_equiv_pos_site_id
 _symmetry_equiv_pos_as_xyz
  1  'x, y, z'
loop_
 _atom_site_type_symbol
 _atom_site_label
 _atom_site_symmetry_multiplicity
 _atom_site_fract_x
 _atom_site_fract_y
 _atom_site_fract_z
 _atom_site_occupancy
  Pr  Pr0  1  0.250262  0.250265  0.250265  1
  Pr  Pr1  1  0.749720  0.749737  0.749739  1
  Pr  Pr2  1  0.749734  0.749739  0.250264  1
  Pr  Pr3  1  0.749734  0.250264  0.749737  1
  Pr  Pr4  1  0.250264  0.250280  0.749739  1
  Pr  Pr5  1  0.250262  0.749739  0.250280  1
  Pr  Pr6  1  0.250275  0.749725  0.749726  1
  Sm  Sm7  1  0.749438  0.250562  0.250562  1
  Mn  Mn8  1  0.999622  0.000387  0.000386  1
  Pd  Pd9  1  0.262748  0.499916  0.999992  1
  Pd  Pd10  1  0.737283  0.499047  0.001037  1
  Pd  Pd11  1  0.998961  0.262720  0.499046  1
  Pd  Pd12  1  0.500953  0.262711  0.001036  1
  Pd  Pd13  1  0.000009  0.737248  0.499918  1
  Pd  Pd14  1  0.500081  0.737257  0.999994  1
  Pd  Pd15  1  0.500951  0.001036  0.262723  1
  Pd  Pd16  1  0.262758  0.999993  0.499916  1
  Pd  Pd17  1  0.500083  0.999995  0.737246  1
  Pd  Pd18  1  0.737273  0.001038  0.499048  1
  Pd  Pd19  1  0.998961  0.499046  0.262722  1
  Pd  Pd20  1  0.000010  0.499916  0.737247  1
  Pd  Pd21  1  0.253653  0.499935  0.499938  1
  Pd  Pd22  1  0.746403  0.499009  0.499008  1
  Pd  Pd23  1  0.500988  0.253590  0.499008  1
  Pd  Pd24  1  0.500064  0.746353  0.499938  1
  Pd  Pd25  1  0.500991  0.499006  0.253601  1
  Pd  Pd26  1  0.500063  0.499936  0.746342  1
  Pd  Pd27  1  0.299283  0.999965  0.999964  1
  Pd  Pd28  1  0.700907  0.000905  0.000904  1
  Pd  Pd29  1  0.999098  0.299086  0.000905  1
  Pd  Pd30  1  0.000035  0.700724  0.999963  1
  Pd  Pd31  1  0.999096  0.000907  0.299086  1
  Pd  Pd32  1  0.000035  0.999964  0.700724  1
