# generated using pymatgen
data_Y8Ta3Si16Mo9
_symmetry_space_group_name_H-M   'P 1'
_cell_length_a   6.79937071
_cell_length_b   6.99884649
_cell_length_c   13.03606800
_cell_angle_alpha   90.00000000
_cell_angle_beta   90.00000000
_cell_angle_gamma   89.90188087
_symmetry_Int_Tables_number   1
_chemical_formula_structural   Y8Ta3Si16Mo9
_chemical_formula_sum   'Y8 Ta3 Si16 Mo9'
_cell_volume   620.35626001
_cell_formula_units_Z   1
loop_
 _symmetry_equiv_pos_site_id
 _symmetry_equiv_pos_as_xyz
  1  'x, y, z'
loop_
 _atom_site_type_symbol
 _atom_site_label
 _atom_site_symmetry_multiplicity
 _atom_site_fract_x
 _atom_site_fract_y
 _atom_site_fract_z
 _atom_site_occupancy
  Y  Y0  1  0.497671  0.331210  0.094502  1
  Y  Y1  1  0.999813  0.168138  0.405440  1
  Y  Y2  1  0.500028  0.669330  0.594193  1
  Y  Y3  1  0.999962  0.829685  0.905644  1
  Y  Y4  1  0.500028  0.669330  0.905807  1
  Y  Y5  1  0.999962  0.829685  0.594356  1
  Y  Y6  1  0.497671  0.331210  0.405498  1
  Y  Y7  1  0.999813  0.168138  0.094560  1
  Ta  Ta8  1  0.660575  0.008249  0.750000  1
  Ta  Ta9  1  0.160633  0.491345  0.750000  1
  Ta  Ta10  1  0.338849  0.994896  0.250000  1
  Si  Si11  1  0.661164  0.043481  0.543506  1
  Si  Si12  1  0.160697  0.456352  0.956770  1
  Si  Si13  1  0.339670  0.957658  0.044769  1
  Si  Si14  1  0.839592  0.543290  0.452180  1
  Si  Si15  1  0.339670  0.957658  0.455231  1
  Si  Si16  1  0.839592  0.543290  0.047820  1
  Si  Si17  1  0.661164  0.043481  0.956494  1
  Si  Si18  1  0.160697  0.456352  0.543230  1
  Si  Si19  1  0.536475  0.373863  0.750000  1
  Si  Si20  1  0.035684  0.126668  0.750000  1
  Si  Si21  1  0.468080  0.628520  0.250000  1
  Si  Si22  1  0.962234  0.866439  0.250000  1
  Si  Si23  1  0.796862  0.627837  0.750000  1
  Si  Si24  1  0.296776  0.871901  0.750000  1
  Si  Si25  1  0.196599  0.374852  0.250000  1
  Si  Si26  1  0.702839  0.131274  0.250000  1
  Mo  Mo27  1  0.833976  0.334845  0.624474  1
  Mo  Mo28  1  0.334526  0.165226  0.874395  1
  Mo  Mo29  1  0.169609  0.664793  0.125568  1
  Mo  Mo30  1  0.667761  0.836797  0.374010  1
  Mo  Mo31  1  0.169609  0.664793  0.374432  1
  Mo  Mo32  1  0.667761  0.836797  0.125990  1
  Mo  Mo33  1  0.833976  0.334845  0.875526  1
  Mo  Mo34  1  0.334526  0.165226  0.625605  1
  Mo  Mo35  1  0.835457  0.502547  0.250000  1
