# generated using pymatgen
data_Dy10Pt3RhPb8
_symmetry_space_group_name_H-M   'P 1'
_cell_length_a   3.76555100
_cell_length_b   8.17484921
_cell_length_c   18.39768509
_cell_angle_alpha   90.03705567
_cell_angle_beta   90.00000000
_cell_angle_gamma   90.00000000
_symmetry_Int_Tables_number   1
_chemical_formula_structural   Dy10Pt3RhPb8
_chemical_formula_sum   'Dy10 Pt3 Rh1 Pb8'
_cell_volume   566.33235638
_cell_formula_units_Z   1
loop_
 _symmetry_equiv_pos_site_id
 _symmetry_equiv_pos_as_xyz
  1  'x, y, z'
loop_
 _atom_site_type_symbol
 _atom_site_label
 _atom_site_symmetry_multiplicity
 _atom_site_fract_x
 _atom_site_fract_y
 _atom_site_fract_z
 _atom_site_occupancy
  Dy  Dy0  1  0.000000  0.113495  0.410084  1
  Dy  Dy1  1  0.000000  0.885993  0.587246  1
  Dy  Dy2  1  0.000000  0.386806  0.912486  1
  Dy  Dy3  1  0.000000  0.615687  0.088723  1
  Dy  Dy4  1  0.000000  0.238011  0.220144  1
  Dy  Dy5  1  0.000000  0.757542  0.781198  1
  Dy  Dy6  1  0.000000  0.257218  0.718464  1
  Dy  Dy7  1  0.000000  0.747187  0.281674  1
  Dy  Dy8  1  0.000000  0.999617  0.001174  1
  Dy  Dy9  1  0.000000  0.501077  0.498541  1
  Pt  Pt10  1  0.500000  0.969932  0.697219  1
  Pt  Pt11  1  0.500000  0.470136  0.802650  1
  Pt  Pt12  1  0.500000  0.528575  0.196876  1
  Rh  Rh13  1  0.500000  0.025539  0.304479  1
  Pb  Pb14  1  0.500000  0.413556  0.350445  1
  Pb  Pb15  1  0.500000  0.582072  0.647632  1
  Pb  Pb16  1  0.500000  0.082369  0.852000  1
  Pb  Pb17  1  0.500000  0.920753  0.151516  1
  Pb  Pb18  1  0.500000  0.292726  0.062623  1
  Pb  Pb19  1  0.500000  0.708683  0.938152  1
  Pb  Pb20  1  0.500000  0.207811  0.561351  1
  Pb  Pb21  1  0.500000  0.795213  0.435322  1
