# generated using pymatgen
data_Pr2Co17Si8Rh
_symmetry_space_group_name_H-M   'P 1'
_cell_length_a   7.97057217
_cell_length_b   8.02462332
_cell_length_c   7.98432704
_cell_angle_alpha   121.84131918
_cell_angle_beta   121.62474896
_cell_angle_gamma   87.12386589
_symmetry_Int_Tables_number   1
_chemical_formula_structural   Pr2Co17Si8Rh
_chemical_formula_sum   'Pr2 Co17 Si8 Rh1'
_cell_volume   350.83970103
_cell_formula_units_Z   1
loop_
 _symmetry_equiv_pos_site_id
 _symmetry_equiv_pos_as_xyz
  1  'x, y, z'
loop_
 _atom_site_type_symbol
 _atom_site_label
 _atom_site_symmetry_multiplicity
 _atom_site_fract_x
 _atom_site_fract_y
 _atom_site_fract_z
 _atom_site_occupancy
  Pr  Pr0  1  0.750479  0.750282  0.002058  1
  Pr  Pr1  1  0.248421  0.248224  0.997942  1
  Co  Co2  1  0.448528  0.950142  0.759311  1
  Co  Co3  1  0.189216  0.690831  0.240689  1
  Co  Co4  1  0.548014  0.043097  0.234070  1
  Co  Co5  1  0.949094  0.190983  0.500000  1
  Co  Co6  1  0.198307  0.927795  0.127715  1
  Co  Co7  1  0.800124  0.068638  0.868189  1
  Co  Co8  1  0.431935  0.700449  0.131811  1
  Co  Co9  1  0.570591  0.300080  0.872285  1
  Co  Co10  1  0.701081  0.573310  0.263667  1
  Co  Co11  1  0.300606  0.429929  0.732329  1
  Co  Co12  1  0.937413  0.809642  0.736333  1
  Co  Co13  1  0.310463  0.548811  0.500000  1
  Co  Co14  1  0.813945  0.309028  0.765930  1
  Co  Co15  1  0.001230  0.501334  0.500000  1
  Co  Co16  1  0.500701  0.002242  0.500000  1
  Co  Co17  1  0.068278  0.197601  0.267671  1
  Co  Co18  1  0.050887  0.810658  0.500000  1
  Si  Si19  1  0.290699  0.787644  0.833887  1
  Si  Si20  1  0.053680  0.544375  0.840137  1
  Si  Si21  1  0.540937  0.718175  0.500000  1
  Si  Si22  1  0.790801  0.955790  0.500000  1
  Si  Si23  1  0.443785  0.283951  0.500000  1
  Si  Si24  1  0.956813  0.453757  0.166113  1
  Si  Si25  1  0.713543  0.204238  0.159863  1
  Si  Si26  1  0.209355  0.046561  0.500000  1
  Rh  Rh27  1  0.681076  0.452432  0.500000  1
