# generated using pymatgen
data_Yb3Er(Rh2O7)2
_symmetry_space_group_name_H-M   'P 1'
_cell_length_a   7.18185987
_cell_length_b   7.18185934
_cell_length_c   7.18185825
_cell_angle_alpha   60.11688990
_cell_angle_beta   60.11688776
_cell_angle_gamma   60.11688883
_symmetry_Int_Tables_number   1
_chemical_formula_structural   Yb3Er(Rh2O7)2
_chemical_formula_sum   'Yb3 Er1 Rh4 O14'
_cell_volume   262.62993877
_cell_formula_units_Z   1
loop_
 _symmetry_equiv_pos_site_id
 _symmetry_equiv_pos_as_xyz
  1  'x, y, z'
loop_
 _atom_site_type_symbol
 _atom_site_label
 _atom_site_symmetry_multiplicity
 _atom_site_fract_x
 _atom_site_fract_y
 _atom_site_fract_z
 _atom_site_occupancy
  Yb  Yb0  1  0.625000  0.625000  0.125000  1
  Yb  Yb1  1  0.625000  0.125000  0.625000  1
  Yb  Yb2  1  0.125000  0.625000  0.625000  1
  Er  Er3  1  0.625000  0.625000  0.625000  1
  Rh  Rh4  1  0.625000  0.125000  0.125000  1
  Rh  Rh5  1  0.125000  0.125000  0.125000  1
  Rh  Rh6  1  0.125000  0.625000  0.125000  1
  Rh  Rh7  1  0.125000  0.125000  0.625000  1
  O  O8  1  0.038430  0.455823  0.455823  1
  O  O9  1  0.794177  0.794177  0.211570  1
  O  O10  1  0.795244  0.204219  0.204219  1
  O  O11  1  0.746887  0.746887  0.746887  1
  O  O12  1  0.045781  0.454756  0.045781  1
  O  O13  1  0.455823  0.038430  0.455823  1
  O  O14  1  0.045781  0.045781  0.454756  1
  O  O15  1  0.503113  0.503113  0.503113  1
  O  O16  1  0.204219  0.204219  0.795244  1
  O  O17  1  0.204219  0.795244  0.204219  1
  O  O18  1  0.794177  0.211570  0.794177  1
  O  O19  1  0.454756  0.045781  0.045781  1
  O  O20  1  0.455823  0.455823  0.038430  1
  O  O21  1  0.211570  0.794177  0.794177  1
