# generated using pymatgen
data_Nb8ZnGeTe8
_symmetry_space_group_name_H-M   'P 1'
_cell_length_a   4.90234200
_cell_length_b   11.39614500
_cell_length_c   20.15011300
_cell_angle_alpha   90.00000000
_cell_angle_beta   90.00000000
_cell_angle_gamma   90.00000000
_symmetry_Int_Tables_number   1
_chemical_formula_structural   Nb8ZnGeTe8
_chemical_formula_sum   'Nb16 Zn2 Ge2 Te16'
_cell_volume   1125.74248853
_cell_formula_units_Z   2
loop_
 _symmetry_equiv_pos_site_id
 _symmetry_equiv_pos_as_xyz
  1  'x, y, z'
loop_
 _atom_site_type_symbol
 _atom_site_label
 _atom_site_symmetry_multiplicity
 _atom_site_fract_x
 _atom_site_fract_y
 _atom_site_fract_z
 _atom_site_occupancy
  Nb  Nb0  1  0.497833  0.563865  0.386215  1
  Nb  Nb1  1  0.497833  0.436135  0.613785  1
  Nb  Nb2  1  0.502167  0.063865  0.113785  1
  Nb  Nb3  1  0.502167  0.936135  0.886215  1
  Nb  Nb4  1  0.497803  0.701505  0.535766  1
  Nb  Nb5  1  0.497803  0.298495  0.464234  1
  Nb  Nb6  1  0.502197  0.201505  0.964234  1
  Nb  Nb7  1  0.502197  0.798495  0.035766  1
  Nb  Nb8  1  0.003109  0.687558  0.444822  1
  Nb  Nb9  1  0.003109  0.312442  0.555178  1
  Nb  Nb10  1  0.996891  0.187558  0.055178  1
  Nb  Nb11  1  0.996891  0.812442  0.944822  1
  Nb  Nb12  1  0.002262  0.402893  0.394096  1
  Nb  Nb13  1  0.002262  0.597107  0.605904  1
  Nb  Nb14  1  0.997738  0.902893  0.105904  1
  Nb  Nb15  1  0.997738  0.097107  0.894096  1
  Zn  Zn16  1  0.250023  0.500000  0.500000  1
  Zn  Zn17  1  0.749977  0.000000  0.000000  1
  Ge  Ge18  1  0.750098  0.500000  0.500000  1
  Ge  Ge19  1  0.249902  0.000000  0.000000  1
  Te  Te20  1  0.001651  0.834096  0.559765  1
  Te  Te21  1  0.001651  0.165904  0.440235  1
  Te  Te22  1  0.998349  0.334096  0.940235  1
  Te  Te23  1  0.998349  0.665904  0.059765  1
  Te  Te24  1  0.498434  0.338446  0.324435  1
  Te  Te25  1  0.498434  0.661554  0.675565  1
  Te  Te26  1  0.501566  0.838446  0.175565  1
  Te  Te27  1  0.501566  0.161554  0.824435  1
  Te  Te28  1  0.499343  0.811454  0.408459  1
  Te  Te29  1  0.499343  0.188546  0.591541  1
  Te  Te30  1  0.500657  0.311454  0.091541  1
  Te  Te31  1  0.500657  0.688546  0.908459  1
  Te  Te32  1  0.001911  0.605749  0.310978  1
  Te  Te33  1  0.001911  0.394251  0.689022  1
  Te  Te34  1  0.998089  0.105749  0.189022  1
  Te  Te35  1  0.998089  0.894251  0.810978  1
