# generated using pymatgen
data_Pr4HoIrPt2
_symmetry_space_group_name_H-M   'P 1'
_cell_length_a   11.44257000
_cell_length_b   11.44257000
_cell_length_c   6.51820000
_cell_angle_alpha   90.00000000
_cell_angle_beta   90.00000000
_cell_angle_gamma   90.00000000
_symmetry_Int_Tables_number   1
_chemical_formula_structural   Pr4HoIrPt2
_chemical_formula_sum   'Pr16 Ho4 Ir4 Pt8'
_cell_volume   853.44362316
_cell_formula_units_Z   4
loop_
 _symmetry_equiv_pos_site_id
 _symmetry_equiv_pos_as_xyz
  1  'x, y, z'
loop_
 _atom_site_type_symbol
 _atom_site_label
 _atom_site_symmetry_multiplicity
 _atom_site_fract_x
 _atom_site_fract_y
 _atom_site_fract_z
 _atom_site_occupancy
  Pr  Pr0  1  0.291927  0.087245  0.379288  1
  Pr  Pr1  1  0.291927  0.912755  0.879288  1
  Pr  Pr2  1  0.708073  0.087245  0.879288  1
  Pr  Pr3  1  0.708073  0.912755  0.379288  1
  Pr  Pr4  1  0.587245  0.791927  0.879288  1
  Pr  Pr5  1  0.587245  0.208073  0.379288  1
  Pr  Pr6  1  0.412755  0.791927  0.379288  1
  Pr  Pr7  1  0.412755  0.208073  0.879288  1
  Pr  Pr8  1  0.208073  0.412755  0.620712  1
  Pr  Pr9  1  0.208073  0.587245  0.120712  1
  Pr  Pr10  1  0.791927  0.412755  0.120712  1
  Pr  Pr11  1  0.791927  0.587245  0.620712  1
  Pr  Pr12  1  0.912755  0.708073  0.120712  1
  Pr  Pr13  1  0.912755  0.291927  0.620712  1
  Pr  Pr14  1  0.087245  0.708073  0.620712  1
  Pr  Pr15  1  0.087245  0.291927  0.120712  1
  Ho  Ho16  1  0.000000  0.000000  0.500000  1
  Ho  Ho17  1  0.000000  0.000000  0.000000  1
  Ho  Ho18  1  0.500000  0.500000  0.000000  1
  Ho  Ho19  1  0.500000  0.500000  0.500000  1
  Ir  Ir20  1  0.500000  0.000000  0.117908  1
  Ir  Ir21  1  0.500000  0.000000  0.617908  1
  Ir  Ir22  1  0.000000  0.500000  0.882092  1
  Ir  Ir23  1  0.000000  0.500000  0.382092  1
  Pt  Pt24  1  0.853311  0.146689  0.250000  1
  Pt  Pt25  1  0.853311  0.853311  0.750000  1
  Pt  Pt26  1  0.146689  0.146689  0.750000  1
  Pt  Pt27  1  0.146689  0.853311  0.250000  1
  Pt  Pt28  1  0.646689  0.353311  0.750000  1
  Pt  Pt29  1  0.646689  0.646689  0.250000  1
  Pt  Pt30  1  0.353311  0.353311  0.250000  1
  Pt  Pt31  1  0.353311  0.646689  0.750000  1
