# generated using pymatgen
data_AgPb(AuO2)4
_symmetry_space_group_name_H-M   'P 1'
_cell_length_a   6.79513443
_cell_length_b   6.79513271
_cell_length_c   6.79513380
_cell_angle_alpha   125.73214577
_cell_angle_beta   125.73213819
_cell_angle_gamma   80.32883401
_symmetry_Int_Tables_number   1
_chemical_formula_structural   AgPb(AuO2)4
_chemical_formula_sum   'Ag1 Pb1 Au4 O8'
_cell_volume   199.49222506
_cell_formula_units_Z   1
loop_
 _symmetry_equiv_pos_site_id
 _symmetry_equiv_pos_as_xyz
  1  'x, y, z'
loop_
 _atom_site_type_symbol
 _atom_site_label
 _atom_site_symmetry_multiplicity
 _atom_site_fract_x
 _atom_site_fract_y
 _atom_site_fract_z
 _atom_site_occupancy
  Ag  Ag0  1  0.750000  0.250000  0.500000  1
  Pb  Pb1  1  0.000000  0.000000  0.000000  1
  Au  Au2  1  0.376006  0.630016  0.754877  1
  Au  Au3  1  0.369984  0.124861  0.745991  1
  Au  Au4  1  0.875139  0.621130  0.245123  1
  Au  Au5  1  0.378870  0.623994  0.254009  1
  O  O6  1  0.043895  0.417365  0.048260  1
  O  O7  1  0.737926  0.292317  0.119732  1
  O  O8  1  0.172585  0.618192  0.880268  1
  O  O9  1  0.369104  0.995636  0.951740  1
  O  O10  1  0.707683  0.827415  0.445607  1
  O  O11  1  0.004364  0.956105  0.373470  1
  O  O12  1  0.381808  0.262074  0.554393  1
  O  O13  1  0.582635  0.630896  0.626530  1
