# generated using pymatgen
data_Fe3MoP8(Pb3O16)2
_symmetry_space_group_name_H-M   'P 1'
_cell_length_a   9.26531419
_cell_length_b   9.21815642
_cell_length_c   9.50959435
_cell_angle_alpha   62.93003192
_cell_angle_beta   90.09428124
_cell_angle_gamma   89.95811561
_symmetry_Int_Tables_number   1
_chemical_formula_structural   Fe3MoP8(Pb3O16)2
_chemical_formula_sum   'Fe3 Mo1 P8 Pb6 O32'
_cell_volume   723.22807733
_cell_formula_units_Z   1
loop_
 _symmetry_equiv_pos_site_id
 _symmetry_equiv_pos_as_xyz
  1  'x, y, z'
loop_
 _atom_site_type_symbol
 _atom_site_label
 _atom_site_symmetry_multiplicity
 _atom_site_fract_x
 _atom_site_fract_y
 _atom_site_fract_z
 _atom_site_occupancy
  Fe  Fe0  1  0.866816  0.246857  0.256397  1
  Fe  Fe1  1  0.633513  0.246510  0.756335  1
  Fe  Fe2  1  0.132643  0.754420  0.743649  1
  Mo  Mo3  1  0.367912  0.752619  0.242774  1
  P  P4  1  0.085108  0.572256  0.139588  1
  P  P5  1  0.642799  0.022888  0.154100  1
  P  P6  1  0.363053  0.985069  0.836887  1
  P  P7  1  0.410119  0.573842  0.645309  1
  P  P8  1  0.911237  0.424406  0.860606  1
  P  P9  1  0.591437  0.420101  0.362302  1
  P  P10  1  0.861366  0.019209  0.656379  1
  P  P11  1  0.134678  0.982588  0.344696  1
  Pb  Pb12  1  0.206649  0.297732  0.463921  1
  Pb  Pb13  1  0.711609  0.698299  0.036166  1
  Pb  Pb14  1  0.790615  0.698831  0.538408  1
  Pb  Pb15  1  0.999537  0.000252  0.999917  1
  Pb  Pb16  1  0.290779  0.298549  0.965245  1
  Pb  Pb17  1  0.500119  0.001490  0.498220  1
  O  O18  1  0.909296  0.156571  0.494909  1
  O  O19  1  0.793142  0.089836  0.763136  1
  O  O20  1  0.956555  0.607191  0.758316  1
  O  O21  1  0.708668  0.096791  0.258370  1
  O  O22  1  0.492177  0.088293  0.735110  1
  O  O23  1  0.551880  0.604677  0.260168  1
  O  O24  1  0.595165  0.157002  0.990412  1
  O  O25  1  0.000324  0.079110  0.249364  1
  O  O26  1  0.716857  0.402413  0.262299  1
  O  O27  1  0.457916  0.392344  0.747710  1
  O  O28  1  0.246058  0.098145  0.364574  1
  O  O29  1  0.418367  0.847772  0.994708  1
  O  O30  1  0.850912  0.396025  0.021173  1
  O  O31  1  0.092231  0.843572  0.507943  1
  O  O32  1  0.509833  0.928757  0.254498  1
  O  O33  1  0.344498  0.596520  0.488560  1
  O  O34  1  0.648161  0.390578  0.524673  1
  O  O35  1  0.752209  0.903379  0.633134  1
  O  O36  1  0.958581  0.686735  0.127429  1
  O  O37  1  0.287709  0.593456  0.748428  1
  O  O38  1  0.253269  0.095818  0.866713  1
  O  O39  1  0.786959  0.406462  0.758114  1
  O  O40  1  0.292998  0.913348  0.731821  1
  O  O41  1  0.749904  0.903327  0.134676  1
  O  O42  1  0.210023  0.582647  0.245054  1
  O  O43  1  0.145703  0.608768  0.977028  1
  O  O44  1  0.461102  0.311174  0.373402  1
  O  O45  1  0.039376  0.309857  0.877161  1
  O  O46  1  0.041656  0.389207  0.238441  1
  O  O47  1  0.196704  0.914251  0.233739  1
  O  O48  1  0.537797  0.690382  0.622377  1
  O  O49  1  0.993984  0.919676  0.755666  1
