# generated using pymatgen
data_Al4Zn2Pd3Pt7
_symmetry_space_group_name_H-M   'P 1'
_cell_length_a   4.06607100
_cell_length_b   5.46750554
_cell_length_c   10.68824977
_cell_angle_alpha   89.85457127
_cell_angle_beta   90.00000000
_cell_angle_gamma   90.00000000
_symmetry_Int_Tables_number   1
_chemical_formula_structural   Al4Zn2Pd3Pt7
_chemical_formula_sum   'Al4 Zn2 Pd3 Pt7'
_cell_volume   237.61255517
_cell_formula_units_Z   1
loop_
 _symmetry_equiv_pos_site_id
 _symmetry_equiv_pos_as_xyz
  1  'x, y, z'
loop_
 _atom_site_type_symbol
 _atom_site_label
 _atom_site_symmetry_multiplicity
 _atom_site_fract_x
 _atom_site_fract_y
 _atom_site_fract_z
 _atom_site_occupancy
  Al  Al0  1  0.000000  0.997854  0.999284  1
  Al  Al1  1  0.000000  0.496821  0.499098  1
  Al  Al2  1  0.500000  0.667208  0.144269  1
  Al  Al3  1  0.500000  0.331509  0.856437  1
  Zn  Zn4  1  0.500000  0.168079  0.362675  1
  Zn  Zn5  1  0.500000  0.833286  0.639119  1
  Pd  Pd6  1  0.000000  0.997090  0.501300  1
  Pd  Pd7  1  0.000000  0.497566  0.998428  1
  Pd  Pd8  1  0.000000  0.590048  0.736207  1
  Pt  Pt9  1  0.500000  0.195407  0.103187  1
  Pt  Pt10  1  0.500000  0.803841  0.896414  1
  Pt  Pt11  1  0.500000  0.686094  0.391340  1
  Pt  Pt12  1  0.500000  0.316181  0.609714  1
  Pt  Pt13  1  0.000000  0.913073  0.231193  1
  Pt  Pt14  1  0.000000  0.091782  0.768866  1
  Pt  Pt15  1  0.000000  0.414163  0.262469  1
