# generated using pymatgen
data_Y8Er2(PtRh)3
_symmetry_space_group_name_H-M   'P 1'
_cell_length_a   10.91525795
_cell_length_b   10.90756893
_cell_length_c   6.41704700
_cell_angle_alpha   89.77972661
_cell_angle_beta   89.80387579
_cell_angle_gamma   89.89712072
_symmetry_Int_Tables_number   1
_chemical_formula_structural   Y8Er2(PtRh)3
_chemical_formula_sum   'Y16 Er4 Pt6 Rh6'
_cell_volume   763.99540433
_cell_formula_units_Z   2
loop_
 _symmetry_equiv_pos_site_id
 _symmetry_equiv_pos_as_xyz
  1  'x, y, z'
loop_
 _atom_site_type_symbol
 _atom_site_label
 _atom_site_symmetry_multiplicity
 _atom_site_fract_x
 _atom_site_fract_y
 _atom_site_fract_z
 _atom_site_occupancy
  Y  Y0  1  0.292124  0.087676  0.380591  1
  Y  Y1  1  0.292054  0.912243  0.880593  1
  Y  Y2  1  0.708861  0.089036  0.882133  1
  Y  Y3  1  0.708872  0.911016  0.382152  1
  Y  Y4  1  0.588961  0.792422  0.879502  1
  Y  Y5  1  0.588853  0.207806  0.379441  1
  Y  Y6  1  0.410959  0.792628  0.379480  1
  Y  Y7  1  0.410989  0.207435  0.879446  1
  Y  Y8  1  0.207952  0.411675  0.620024  1
  Y  Y9  1  0.208151  0.588315  0.120179  1
  Y  Y10  1  0.792907  0.410169  0.121575  1
  Y  Y11  1  0.792923  0.589679  0.621653  1
  Y  Y12  1  0.911529  0.708620  0.116511  1
  Y  Y13  1  0.911493  0.291216  0.616618  1
  Y  Y14  1  0.088151  0.708189  0.620520  1
  Y  Y15  1  0.088122  0.291724  0.120308  1
  Er  Er16  1  0.997079  0.999504  0.499568  1
  Er  Er17  1  0.997115  0.000842  0.999441  1
  Er  Er18  1  0.500931  0.499382  0.000562  1
  Er  Er19  1  0.500706  0.500344  0.500267  1
  Pt  Pt20  1  0.151412  0.152834  0.748948  1
  Pt  Pt21  1  0.151322  0.847286  0.249248  1
  Pt  Pt22  1  0.653367  0.347778  0.749983  1
  Pt  Pt23  1  0.653477  0.652165  0.250030  1
  Pt  Pt24  1  0.348448  0.347380  0.250359  1
  Pt  Pt25  1  0.348647  0.652446  0.750423  1
  Rh  Rh26  1  0.847195  0.151889  0.249970  1
  Rh  Rh27  1  0.847107  0.848295  0.750284  1
  Rh  Rh28  1  0.499400  0.000410  0.130832  1
  Rh  Rh29  1  0.499356  0.999727  0.630856  1
  Rh  Rh30  1  0.000809  0.500299  0.869265  1
  Rh  Rh31  1  0.000726  0.499572  0.369237  1
