# generated using pymatgen
data_TbLuV3P7Rh9
_symmetry_space_group_name_H-M   'P 1'
_cell_length_a   3.85047400
_cell_length_b   9.53448088
_cell_length_c   9.53161005
_cell_angle_alpha   120.00820571
_cell_angle_beta   89.99961742
_cell_angle_gamma   90.00071620
_symmetry_Int_Tables_number   1
_chemical_formula_structural   TbLuV3P7Rh9
_chemical_formula_sum   'Tb1 Lu1 V3 P7 Rh9'
_cell_volume   303.02065291
_cell_formula_units_Z   1
loop_
 _symmetry_equiv_pos_site_id
 _symmetry_equiv_pos_as_xyz
  1  'x, y, z'
loop_
 _atom_site_type_symbol
 _atom_site_label
 _atom_site_symmetry_multiplicity
 _atom_site_fract_x
 _atom_site_fract_y
 _atom_site_fract_z
 _atom_site_occupancy
  Tb  Tb0  1  0.261760  0.666443  0.333318  1
  Lu  Lu1  1  0.761505  0.333205  0.666502  1
  V  V2  1  0.762105  0.092565  0.875983  1
  V  V3  1  0.762057  0.124587  0.217149  1
  V  V4  1  0.762051  0.782738  0.907254  1
  P  P5  1  0.262445  0.000166  0.000155  1
  P  P6  1  0.761917  0.884904  0.596813  1
  P  P7  1  0.761917  0.403194  0.287965  1
  P  P8  1  0.761927  0.711956  0.115400  1
  P  P9  1  0.261708  0.117569  0.413094  1
  P  P10  1  0.261654  0.586872  0.704440  1
  P  P11  1  0.261694  0.295648  0.882246  1
  Rh  Rh12  1  0.261994  0.885487  0.158582  1
  Rh  Rh13  1  0.262004  0.841376  0.726913  1
  Rh  Rh14  1  0.261998  0.273362  0.114540  1
  Rh  Rh15  1  0.761864  0.611897  0.561116  1
  Rh  Rh16  1  0.761891  0.438727  0.050422  1
  Rh  Rh17  1  0.761893  0.949285  0.388113  1
  Rh  Rh18  1  0.261844  0.367394  0.438317  1
  Rh  Rh19  1  0.261879  0.561781  0.929089  1
  Rh  Rh20  1  0.261891  0.070842  0.632587  1
