# generated using pymatgen
data_Er8In3Tc
_symmetry_space_group_name_H-M   'P 1'
_cell_length_a   10.32995200
_cell_length_b   10.33005420
_cell_length_c   6.99278200
_cell_angle_alpha   90.00000000
_cell_angle_beta   90.00000000
_cell_angle_gamma   120.00032019
_symmetry_Int_Tables_number   1
_chemical_formula_structural   Er8In3Tc
_chemical_formula_sum   'Er16 In6 Tc2'
_cell_volume   646.21959633
_cell_formula_units_Z   2
loop_
 _symmetry_equiv_pos_site_id
 _symmetry_equiv_pos_as_xyz
  1  'x, y, z'
loop_
 _atom_site_type_symbol
 _atom_site_label
 _atom_site_symmetry_multiplicity
 _atom_site_fract_x
 _atom_site_fract_y
 _atom_site_fract_z
 _atom_site_occupancy
  Er  Er0  1  0.531849  0.063719  0.796489  1
  Er  Er1  1  0.936289  0.468145  0.796501  1
  Er  Er2  1  0.531849  0.468130  0.796489  1
  Er  Er3  1  0.468151  0.936281  0.296489  1
  Er  Er4  1  0.063711  0.531855  0.296501  1
  Er  Er5  1  0.468151  0.531870  0.296489  1
  Er  Er6  1  0.822847  0.645691  0.498872  1
  Er  Er7  1  0.354312  0.177156  0.498879  1
  Er  Er8  1  0.822847  0.177157  0.498872  1
  Er  Er9  1  0.177153  0.354309  0.998872  1
  Er  Er10  1  0.645688  0.822844  0.998879  1
  Er  Er11  1  0.177153  0.822843  0.998872  1
  Er  Er12  1  0.666669  0.333334  0.171219  1
  Er  Er13  1  0.333331  0.666666  0.671219  1
  Er  Er14  1  0.999978  0.999989  0.776399  1
  Er  Er15  1  0.000022  0.000011  0.276399  1
  In  In16  1  0.836854  0.673715  0.037965  1
  In  In17  1  0.326279  0.163140  0.037960  1
  In  In18  1  0.836854  0.163140  0.037965  1
  In  In19  1  0.163146  0.326285  0.537965  1
  In  In20  1  0.673721  0.836860  0.537960  1
  In  In21  1  0.163146  0.836860  0.537965  1
  Tc  Tc22  1  0.666665  0.333332  0.570343  1
  Tc  Tc23  1  0.333335  0.666668  0.070343  1
