# generated using pymatgen
data_Zr4TcSb4Pd3
_symmetry_space_group_name_H-M   'P 1'
_cell_length_a   4.30646600
_cell_length_b   7.00020092
_cell_length_c   7.98307954
_cell_angle_alpha   90.86952499
_cell_angle_beta   90.00000000
_cell_angle_gamma   90.00000000
_symmetry_Int_Tables_number   1
_chemical_formula_structural   Zr4TcSb4Pd3
_chemical_formula_sum   'Zr4 Tc1 Sb4 Pd3'
_cell_volume   240.63121901
_cell_formula_units_Z   1
loop_
 _symmetry_equiv_pos_site_id
 _symmetry_equiv_pos_as_xyz
  1  'x, y, z'
loop_
 _atom_site_type_symbol
 _atom_site_label
 _atom_site_symmetry_multiplicity
 _atom_site_fract_x
 _atom_site_fract_y
 _atom_site_fract_z
 _atom_site_occupancy
  Zr  Zr0  1  0.750000  0.473132  0.698600  1
  Zr  Zr1  1  0.250000  0.511144  0.292203  1
  Zr  Zr2  1  0.750000  0.974771  0.817330  1
  Zr  Zr3  1  0.250000  0.026717  0.188536  1
  Tc  Tc4  1  0.750000  0.367079  0.059265  1
  Sb  Sb5  1  0.750000  0.743728  0.120036  1
  Sb  Sb6  1  0.250000  0.253708  0.889733  1
  Sb  Sb7  1  0.750000  0.243136  0.380278  1
  Sb  Sb8  1  0.250000  0.753440  0.613247  1
  Pd  Pd9  1  0.250000  0.644725  0.933738  1
  Pd  Pd10  1  0.750000  0.858234  0.440855  1
  Pd  Pd11  1  0.250000  0.150187  0.566178  1
