# generated using pymatgen
data_Th10AlBi2Pb5
_symmetry_space_group_name_H-M   'P 1'
_cell_length_a   9.78024389
_cell_length_b   9.77877683
_cell_length_c   6.62079560
_cell_angle_alpha   90.04879000
_cell_angle_beta   89.97561044
_cell_angle_gamma   119.99503633
_symmetry_Int_Tables_number   1
_chemical_formula_structural   Th10AlBi2Pb5
_chemical_formula_sum   'Th10 Al1 Bi2 Pb5'
_cell_volume   548.39892493
_cell_formula_units_Z   1
loop_
 _symmetry_equiv_pos_site_id
 _symmetry_equiv_pos_as_xyz
  1  'x, y, z'
loop_
 _atom_site_type_symbol
 _atom_site_label
 _atom_site_symmetry_multiplicity
 _atom_site_fract_x
 _atom_site_fract_y
 _atom_site_fract_z
 _atom_site_occupancy
  Th  Th0  1  0.667388  0.333902  0.500912  1
  Th  Th1  1  0.332612  0.666515  0.500912  1
  Th  Th2  1  0.332248  0.666573  0.998855  1
  Th  Th3  1  0.667752  0.334324  0.998855  1
  Th  Th4  1  0.723702  0.722432  0.260150  1
  Th  Th5  1  0.276298  0.998730  0.260150  1
  Th  Th6  1  0.000000  0.276301  0.260477  1
  Th  Th7  1  0.277297  0.277749  0.739388  1
  Th  Th8  1  0.722703  0.000452  0.739388  1
  Th  Th9  1  0.000000  0.722125  0.740289  1
  Al  Al10  1  0.000000  0.999457  0.501790  1
  Bi  Bi11  1  0.381602  0.381192  0.247078  1
  Bi  Bi12  1  0.618398  0.999589  0.247078  1
  Pb  Pb13  1  0.000000  0.999777  0.999256  1
  Pb  Pb14  1  0.000000  0.620153  0.247197  1
  Pb  Pb15  1  0.620938  0.620875  0.752694  1
  Pb  Pb16  1  0.379062  0.999937  0.752694  1
  Pb  Pb17  1  0.000000  0.379918  0.752836  1
