# generated using pymatgen
data_Li4La5(NdSi4)3
_symmetry_space_group_name_H-M   'P 1'
_cell_length_a   11.17460320
_cell_length_b   9.46318375
_cell_length_c   8.37846672
_cell_angle_alpha   77.29371650
_cell_angle_beta   55.70103243
_cell_angle_gamma   47.06446844
_symmetry_Int_Tables_number   1
_chemical_formula_structural   Li4La5(NdSi4)3
_chemical_formula_sum   'Li4 La5 Nd3 Si12'
_cell_volume   515.81229912
_cell_formula_units_Z   1
loop_
 _symmetry_equiv_pos_site_id
 _symmetry_equiv_pos_as_xyz
  1  'x, y, z'
loop_
 _atom_site_type_symbol
 _atom_site_label
 _atom_site_symmetry_multiplicity
 _atom_site_fract_x
 _atom_site_fract_y
 _atom_site_fract_z
 _atom_site_occupancy
  Li  Li0  1  0.832339  0.166640  0.833378  1
  Li  Li1  1  0.166640  0.832339  0.167643  1
  Li  Li2  1  0.417654  0.083377  0.415780  1
  Li  Li3  1  0.083377  0.417654  0.083190  1
  La  La4  1  0.622860  0.622860  0.377140  1
  La  La5  1  0.376682  0.376682  0.623318  1
  La  La6  1  0.627104  0.627104  0.872896  1
  La  La7  1  0.873334  0.873334  0.626666  1
  La  La8  1  0.123838  0.123838  0.876162  1
  Nd  Nd9  1  0.876149  0.876149  0.123851  1
  Nd  Nd10  1  0.126089  0.126089  0.373911  1
  Nd  Nd11  1  0.373836  0.373836  0.126164  1
  Si  Si12  1  0.172261  0.834713  0.661862  1
  Si  Si13  1  0.330529  0.661041  0.835049  1
  Si  Si14  1  0.661041  0.330529  0.173380  1
  Si  Si15  1  0.834713  0.172261  0.331163  1
  Si  Si16  1  0.077746  0.415358  0.586816  1
  Si  Si17  1  0.920482  0.587862  0.413713  1
  Si  Si18  1  0.587862  0.920482  0.077944  1
  Si  Si19  1  0.415358  0.077746  0.920081  1
  Si  Si20  1  0.666030  0.333563  0.666706  1
  Si  Si21  1  0.333563  0.666030  0.333701  1
  Si  Si22  1  0.585153  0.915360  0.583338  1
  Si  Si23  1  0.915360  0.585153  0.916150  1
