# generated using pymatgen
data_YMgB6Ir
_symmetry_space_group_name_H-M   'P 1'
_cell_length_a   3.56083800
_cell_length_b   8.91926500
_cell_length_c   11.33786200
_cell_angle_alpha   90.00000000
_cell_angle_beta   90.00000000
_cell_angle_gamma   90.00000000
_symmetry_Int_Tables_number   1
_chemical_formula_structural   YMgB6Ir
_chemical_formula_sum   'Y4 Mg4 B24 Ir4'
_cell_volume   360.09115181
_cell_formula_units_Z   4
loop_
 _symmetry_equiv_pos_site_id
 _symmetry_equiv_pos_as_xyz
  1  'x, y, z'
loop_
 _atom_site_type_symbol
 _atom_site_label
 _atom_site_symmetry_multiplicity
 _atom_site_fract_x
 _atom_site_fract_y
 _atom_site_fract_z
 _atom_site_occupancy
  Y  Y0  1  0.500000  0.318195  0.414477  1
  Y  Y1  1  0.500000  0.681805  0.585523  1
  Y  Y2  1  0.500000  0.181805  0.914477  1
  Y  Y3  1  0.500000  0.818195  0.085523  1
  Mg  Mg4  1  0.500000  0.447951  0.118917  1
  Mg  Mg5  1  0.500000  0.552049  0.881083  1
  Mg  Mg6  1  0.500000  0.052049  0.618917  1
  Mg  Mg7  1  0.500000  0.947951  0.381083  1
  B  B8  1  0.000000  0.100179  0.473036  1
  B  B9  1  0.000000  0.899821  0.526964  1
  B  B10  1  0.000000  0.399821  0.973036  1
  B  B11  1  0.000000  0.600179  0.026964  1
  B  B12  1  0.000000  0.127524  0.319011  1
  B  B13  1  0.000000  0.872476  0.680989  1
  B  B14  1  0.000000  0.372476  0.819011  1
  B  B15  1  0.000000  0.627524  0.180989  1
  B  B16  1  0.000000  0.056051  0.067353  1
  B  B17  1  0.000000  0.943949  0.932647  1
  B  B18  1  0.000000  0.443949  0.567353  1
  B  B19  1  0.000000  0.556051  0.432647  1
  B  B20  1  0.000000  0.481695  0.284747  1
  B  B21  1  0.000000  0.518305  0.715253  1
  B  B22  1  0.000000  0.018305  0.784747  1
  B  B23  1  0.000000  0.981695  0.215253  1
  B  B24  1  0.000000  0.255746  0.079946  1
  B  B25  1  0.000000  0.744254  0.920054  1
  B  B26  1  0.000000  0.244254  0.579946  1
  B  B27  1  0.000000  0.755746  0.420054  1
  B  B28  1  0.000000  0.293809  0.234690  1
  B  B29  1  0.000000  0.706191  0.765310  1
  B  B30  1  0.000000  0.206191  0.734690  1
  B  B31  1  0.000000  0.793809  0.265310  1
  Ir  Ir32  1  0.500000  0.140724  0.182111  1
  Ir  Ir33  1  0.500000  0.859276  0.817889  1
  Ir  Ir34  1  0.500000  0.359276  0.682111  1
  Ir  Ir35  1  0.500000  0.640724  0.317889  1
