# generated using pymatgen
data_Y7Tm(AlRh)2
_symmetry_space_group_name_H-M   'P 1'
_cell_length_a   9.55978368
_cell_length_b   9.55984982
_cell_length_c   9.57647700
_cell_angle_alpha   59.94178145
_cell_angle_beta   59.94222226
_cell_angle_gamma   59.87414317
_symmetry_Int_Tables_number   1
_chemical_formula_structural   Y7Tm(AlRh)2
_chemical_formula_sum   'Y14 Tm2 Al4 Rh4'
_cell_volume   617.72412907
_cell_formula_units_Z   2
loop_
 _symmetry_equiv_pos_site_id
 _symmetry_equiv_pos_as_xyz
  1  'x, y, z'
loop_
 _atom_site_type_symbol
 _atom_site_label
 _atom_site_symmetry_multiplicity
 _atom_site_fract_x
 _atom_site_fract_y
 _atom_site_fract_z
 _atom_site_occupancy
  Y  Y0  1  0.062827  0.062842  0.437165  1
  Y  Y1  1  0.437584  0.061838  0.437962  1
  Y  Y2  1  0.061825  0.437599  0.062609  1
  Y  Y3  1  0.061124  0.645480  0.646690  1
  Y  Y4  1  0.438488  0.438481  0.061519  1
  Y  Y5  1  0.645527  0.061129  0.646671  1
  Y  Y6  1  0.193747  0.807270  0.192205  1
  Y  Y7  1  0.191859  0.191855  0.808146  1
  Y  Y8  1  0.806035  0.806039  0.193965  1
  Y  Y9  1  0.437584  0.061840  0.062614  1
  Y  Y10  1  0.807257  0.193735  0.192234  1
  Y  Y11  1  0.061822  0.437598  0.437970  1
  Y  Y12  1  0.807256  0.193723  0.806776  1
  Y  Y13  1  0.193739  0.807268  0.806780  1
  Tm  Tm14  1  0.647648  0.647602  0.056095  1
  Tm  Tm15  1  0.647667  0.647620  0.648631  1
  Al  Al16  1  0.422919  0.422927  0.420975  1
  Al  Al17  1  0.732250  0.423674  0.422038  1
  Al  Al18  1  0.423668  0.732262  0.422037  1
  Al  Al19  1  0.422919  0.422930  0.733180  1
  Rh  Rh20  1  0.855181  0.855186  0.430348  1
  Rh  Rh21  1  0.855193  0.855187  0.859287  1
  Rh  Rh22  1  0.432635  0.853277  0.857046  1
  Rh  Rh23  1  0.853249  0.432634  0.857060  1
