# generated using pymatgen
data_NaSr2Fe3(CoAs2)3
_symmetry_space_group_name_H-M   'P 1'
_cell_length_a   8.62116042
_cell_length_b   8.62116021
_cell_length_c   6.66182150
_cell_angle_alpha   67.65448108
_cell_angle_beta   67.65448026
_cell_angle_gamma   36.99199566
_symmetry_Int_Tables_number   1
_chemical_formula_structural   NaSr2Fe3(CoAs2)3
_chemical_formula_sum   'Na1 Sr2 Fe3 Co3 As6'
_cell_volume   272.93568744
_cell_formula_units_Z   1
loop_
 _symmetry_equiv_pos_site_id
 _symmetry_equiv_pos_as_xyz
  1  'x, y, z'
loop_
 _atom_site_type_symbol
 _atom_site_label
 _atom_site_symmetry_multiplicity
 _atom_site_fract_x
 _atom_site_fract_y
 _atom_site_fract_z
 _atom_site_occupancy
  Na  Na0  1  0.999957  0.000043  0.000000  1
  Sr  Sr1  1  0.662916  0.662964  0.673981  1
  Sr  Sr2  1  0.337036  0.337084  0.326019  1
  Fe  Fe3  1  0.248362  0.751638  0.500000  1
  Fe  Fe4  1  0.584085  0.082272  0.832567  1
  Fe  Fe5  1  0.917728  0.415915  0.167433  1
  Co  Co6  1  0.082181  0.583590  0.831812  1
  Co  Co7  1  0.416410  0.917819  0.168188  1
  Co  Co8  1  0.751185  0.248815  0.500000  1
  As  As9  1  0.881462  0.881814  0.524709  1
  As  As10  1  0.215148  0.214008  0.860415  1
  As  As11  1  0.548439  0.549089  0.194549  1
  As  As12  1  0.450911  0.451561  0.805451  1
  As  As13  1  0.785992  0.784852  0.139585  1
  As  As14  1  0.118186  0.118538  0.475291  1
