# generated using pymatgen
data_SmDyAl20RuRh3
_symmetry_space_group_name_H-M   'P 1'
_cell_length_a   6.85767087
_cell_length_b   6.85533700
_cell_length_c   9.16417102
_cell_angle_alpha   90.11262460
_cell_angle_beta   90.07377311
_cell_angle_gamma   97.33602141
_symmetry_Int_Tables_number   1
_chemical_formula_structural   SmDyAl20RuRh3
_chemical_formula_sum   'Sm1 Dy1 Al20 Ru1 Rh3'
_cell_volume   427.29485425
_cell_formula_units_Z   1
loop_
 _symmetry_equiv_pos_site_id
 _symmetry_equiv_pos_as_xyz
  1  'x, y, z'
loop_
 _atom_site_type_symbol
 _atom_site_label
 _atom_site_symmetry_multiplicity
 _atom_site_fract_x
 _atom_site_fract_y
 _atom_site_fract_z
 _atom_site_occupancy
  Sm  Sm0  1  0.128960  0.873082  0.249701  1
  Dy  Dy1  1  0.869675  0.127813  0.750071  1
  Al  Al2  1  0.621468  0.375885  0.548654  1
  Al  Al3  1  0.379192  0.623563  0.451980  1
  Al  Al4  1  0.378582  0.622003  0.049392  1
  Al  Al5  1  0.622043  0.377391  0.949980  1
  Al  Al6  1  0.222418  0.221267  0.499961  1
  Al  Al7  1  0.777263  0.779028  0.501303  1
  Al  Al8  1  0.776499  0.777213  0.999299  1
  Al  Al9  1  0.223152  0.223110  0.999399  1
  Al  Al10  1  0.843704  0.156699  0.103133  1
  Al  Al11  1  0.155460  0.844097  0.895793  1
  Al  Al12  1  0.156093  0.845494  0.602951  1
  Al  Al13  1  0.843192  0.155371  0.398107  1
  Al  Al14  1  0.857105  0.589825  0.749528  1
  Al  Al15  1  0.142626  0.408655  0.250494  1
  Al  Al16  1  0.410414  0.142243  0.749071  1
  Al  Al17  1  0.591051  0.857949  0.250962  1
  Al  Al18  1  0.224737  0.480125  0.749923  1
  Al  Al19  1  0.774364  0.518949  0.250066  1
  Al  Al20  1  0.519331  0.776655  0.747081  1
  Al  Al21  1  0.481596  0.224211  0.252946  1
  Ru  Ru22  1  0.500660  0.000082  0.500895  1
  Rh  Rh23  1  0.999998  0.499655  0.500643  1
  Rh  Rh24  1  0.000043  0.499631  0.999359  1
  Rh  Rh25  1  0.500370  0.000004  0.999308  1
