# generated using pymatgen
data_Ta12Ga3Si5(IrC)4
_symmetry_space_group_name_H-M   'P 1'
_cell_length_a   8.25154456
_cell_length_b   8.25154508
_cell_length_c   8.26111880
_cell_angle_alpha   59.93239484
_cell_angle_beta   59.93239215
_cell_angle_gamma   59.98956387
_symmetry_Int_Tables_number   1
_chemical_formula_structural   Ta12Ga3Si5(IrC)4
_chemical_formula_sum   'Ta12 Ga3 Si5 Ir4 C4'
_cell_volume   397.29733424
_cell_formula_units_Z   1
loop_
 _symmetry_equiv_pos_site_id
 _symmetry_equiv_pos_as_xyz
  1  'x, y, z'
loop_
 _atom_site_type_symbol
 _atom_site_label
 _atom_site_symmetry_multiplicity
 _atom_site_fract_x
 _atom_site_fract_y
 _atom_site_fract_z
 _atom_site_occupancy
  Ta  Ta0  1  0.566055  0.936030  0.564130  1
  Ta  Ta1  1  0.315460  0.680901  0.690966  1
  Ta  Ta2  1  0.681327  0.315328  0.313816  1
  Ta  Ta3  1  0.315328  0.681327  0.313816  1
  Ta  Ta4  1  0.687831  0.687831  0.312860  1
  Ta  Ta5  1  0.316917  0.316917  0.684075  1
  Ta  Ta6  1  0.565862  0.565862  0.934748  1
  Ta  Ta7  1  0.936030  0.566055  0.564130  1
  Ta  Ta8  1  0.558754  0.937267  0.936292  1
  Ta  Ta9  1  0.935768  0.935768  0.558868  1
  Ta  Ta10  1  0.680901  0.315460  0.690966  1
  Ta  Ta11  1  0.937267  0.558754  0.936292  1
  Ga  Ga12  1  0.911986  0.911986  0.912319  1
  Ga  Ga13  1  0.989639  0.333376  0.338175  1
  Ga  Ga14  1  0.333376  0.989639  0.338175  1
  Si  Si15  1  0.334322  0.334322  0.993393  1
  Si  Si16  1  0.911593  0.260110  0.911852  1
  Si  Si17  1  0.912249  0.912249  0.258813  1
  Si  Si18  1  0.260110  0.911593  0.911852  1
  Si  Si19  1  0.334567  0.334567  0.338515  1
  Ir  Ir20  1  0.121954  0.121954  0.113697  1
  Ir  Ir21  1  0.623017  0.135354  0.125764  1
  Ir  Ir22  1  0.135354  0.623017  0.125764  1
  Ir  Ir23  1  0.129901  0.129901  0.632222  1
  C  C24  1  0.625863  0.625863  0.623805  1
  C  C25  1  0.125860  0.626465  0.624848  1
  C  C26  1  0.626465  0.125860  0.624848  1
  C  C27  1  0.626242  0.626242  0.124995  1
