# generated using pymatgen
data_LaPr7(YSi4)2
_symmetry_space_group_name_H-M   'P 1'
_cell_length_a   7.85081140
_cell_length_b   7.85096321
_cell_length_c   15.35540720
_cell_angle_alpha   89.97315725
_cell_angle_beta   89.96358219
_cell_angle_gamma   89.99994466
_symmetry_Int_Tables_number   1
_chemical_formula_structural   LaPr7(YSi4)2
_chemical_formula_sum   'La2 Pr14 Y4 Si16'
_cell_volume   946.45220855
_cell_formula_units_Z   2
loop_
 _symmetry_equiv_pos_site_id
 _symmetry_equiv_pos_as_xyz
  1  'x, y, z'
loop_
 _atom_site_type_symbol
 _atom_site_label
 _atom_site_symmetry_multiplicity
 _atom_site_fract_x
 _atom_site_fract_y
 _atom_site_fract_z
 _atom_site_occupancy
  La  La0  1  0.377235  0.014419  0.445502  1
  La  La1  1  0.485897  0.877113  0.696053  1
  Pr  Pr2  1  0.513176  0.121355  0.194937  1
  Pr  Pr3  1  0.878864  0.486429  0.304632  1
  Pr  Pr4  1  0.120819  0.512806  0.805171  1
  Pr  Pr5  1  0.621517  0.987120  0.945505  1
  Pr  Pr6  1  0.013167  0.379322  0.555042  1
  Pr  Pr7  1  0.986791  0.621262  0.054762  1
  Pr  Pr8  1  0.124792  0.976135  0.878793  1
  Pr  Pr9  1  0.524422  0.625069  0.128430  1
  Pr  Pr10  1  0.476218  0.374964  0.628650  1
  Pr  Pr11  1  0.625508  0.524481  0.871645  1
  Pr  Pr12  1  0.375340  0.475652  0.371079  1
  Pr  Pr13  1  0.874646  0.024319  0.378288  1
  Pr  Pr14  1  0.975270  0.125036  0.121289  1
  Pr  Pr15  1  0.024032  0.874818  0.621408  1
  Y  Y16  1  0.309469  0.309439  0.000153  1
  Y  Y17  1  0.190256  0.809392  0.249928  1
  Y  Y18  1  0.809889  0.191031  0.750169  1
  Y  Y19  1  0.691137  0.689798  0.499955  1
  Si  Si20  1  0.187783  0.172567  0.708695  1
  Si  Si21  1  0.328087  0.688235  0.958502  1
  Si  Si22  1  0.673162  0.312893  0.458853  1
  Si  Si23  1  0.687775  0.327978  0.041291  1
  Si  Si24  1  0.311271  0.670794  0.540870  1
  Si  Si25  1  0.812434  0.827510  0.208637  1
  Si  Si26  1  0.171747  0.188281  0.290668  1
  Si  Si27  1  0.828892  0.811767  0.791489  1
  Si  Si28  1  0.286586  0.920729  0.063462  1
  Si  Si29  1  0.579614  0.786288  0.313283  1
  Si  Si30  1  0.420417  0.213932  0.813678  1
  Si  Si31  1  0.787064  0.578790  0.686543  1
  Si  Si32  1  0.213082  0.421135  0.186302  1
  Si  Si33  1  0.714225  0.079943  0.563506  1
  Si  Si34  1  0.920871  0.286590  0.936562  1
  Si  Si35  1  0.078549  0.712608  0.436271  1
