# generated using pymatgen
data_Sm3Y7(Bi3C)2
_symmetry_space_group_name_H-M   'P 1'
_cell_length_a   9.24661601
_cell_length_b   9.24655977
_cell_length_c   6.53764500
_cell_angle_alpha   89.99946056
_cell_angle_beta   89.99958985
_cell_angle_gamma   119.99162382
_symmetry_Int_Tables_number   1
_chemical_formula_structural   Sm3Y7(Bi3C)2
_chemical_formula_sum   'Sm3 Y7 Bi6 C2'
_cell_volume   484.11843401
_cell_formula_units_Z   1
loop_
 _symmetry_equiv_pos_site_id
 _symmetry_equiv_pos_as_xyz
  1  'x, y, z'
loop_
 _atom_site_type_symbol
 _atom_site_label
 _atom_site_symmetry_multiplicity
 _atom_site_fract_x
 _atom_site_fract_y
 _atom_site_fract_z
 _atom_site_occupancy
  Sm  Sm0  1  0.666647  0.333358  0.499998  1
  Sm  Sm1  1  0.333365  0.666638  0.499998  1
  Sm  Sm2  1  0.333365  0.666640  0.999998  1
  Y  Y3  1  0.666645  0.333360  0.999998  1
  Y  Y4  1  0.793037  0.793291  0.249903  1
  Y  Y5  1  0.206614  0.999666  0.249853  1
  Y  Y6  1  0.000179  0.206911  0.249838  1
  Y  Y7  1  0.206697  0.206952  0.750098  1
  Y  Y8  1  0.793088  0.999823  0.750151  1
  Y  Y9  1  0.000334  0.793378  0.750159  1
  Bi  Bi10  1  0.400043  0.398430  0.248558  1
  Bi  Bi11  1  0.601424  0.001594  0.248560  1
  Bi  Bi12  1  0.998393  0.599798  0.248561  1
  Bi  Bi13  1  0.601579  0.599967  0.751435  1
  Bi  Bi14  1  0.400202  0.001611  0.751437  1
  Bi  Bi15  1  0.998408  0.398584  0.751437  1
  C  C16  1  0.999991  0.000004  0.500010  1
  C  C17  1  0.999993  0.999998  0.000006  1
