# generated using pymatgen
data_Er2Lu(MgHg)3
_symmetry_space_group_name_H-M   'P 1'
_cell_length_a   7.69784500
_cell_length_b   7.66817764
_cell_length_c   4.24094400
_cell_angle_alpha   90.00000000
_cell_angle_beta   90.00000000
_cell_angle_gamma   120.12806901
_symmetry_Int_Tables_number   1
_chemical_formula_structural   Er2Lu(MgHg)3
_chemical_formula_sum   'Er2 Lu1 Mg3 Hg3'
_cell_volume   216.51729281
_cell_formula_units_Z   1
loop_
 _symmetry_equiv_pos_site_id
 _symmetry_equiv_pos_as_xyz
  1  'x, y, z'
loop_
 _atom_site_type_symbol
 _atom_site_label
 _atom_site_symmetry_multiplicity
 _atom_site_fract_x
 _atom_site_fract_y
 _atom_site_fract_z
 _atom_site_occupancy
  Er  Er0  1  0.999878  0.413498  0.000000  1
  Er  Er1  1  0.586380  0.586502  0.000000  1
  Lu  Lu2  1  0.412784  0.000000  0.000000  1
  Mg  Mg3  1  0.749184  0.000000  0.500000  1
  Mg  Mg4  1  0.250756  0.250362  0.500000  1
  Mg  Mg5  1  0.000394  0.749639  0.500000  1
  Hg  Hg6  1  0.000911  0.000000  0.000000  1
  Hg  Hg7  1  0.665777  0.331840  0.500000  1
  Hg  Hg8  1  0.333938  0.668160  0.500000  1
