# generated using pymatgen
data_CePr4Nd15Rh16
_symmetry_space_group_name_H-M   'P 1'
_cell_length_a   7.53073569
_cell_length_b   7.69960866
_cell_length_c   15.17935411
_cell_angle_alpha   89.99017539
_cell_angle_beta   90.04268559
_cell_angle_gamma   89.96471901
_symmetry_Int_Tables_number   1
_chemical_formula_structural   CePr4Nd15Rh16
_chemical_formula_sum   'Ce1 Pr4 Nd15 Rh16'
_cell_volume   880.15496006
_cell_formula_units_Z   1
loop_
 _symmetry_equiv_pos_site_id
 _symmetry_equiv_pos_as_xyz
  1  'x, y, z'
loop_
 _atom_site_type_symbol
 _atom_site_label
 _atom_site_symmetry_multiplicity
 _atom_site_fract_x
 _atom_site_fract_y
 _atom_site_fract_z
 _atom_site_occupancy
  Ce  Ce0  1  0.317258  0.519726  0.249732  1
  Pr  Pr1  1  0.013896  0.680629  0.088177  1
  Pr  Pr2  1  0.836653  0.832145  0.622493  1
  Pr  Pr3  1  0.985635  0.318522  0.592682  1
  Pr  Pr4  1  0.512074  0.819590  0.411595  1
  Nd  Nd5  1  0.175188  0.013705  0.750468  1
  Nd  Nd6  1  0.484938  0.182248  0.593598  1
  Nd  Nd7  1  0.164376  0.170411  0.376953  1
  Nd  Nd8  1  0.335692  0.668385  0.877316  1
  Nd  Nd9  1  0.675019  0.487729  0.750429  1
  Nd  Nd10  1  0.335815  0.668146  0.623530  1
  Nd  Nd11  1  0.014664  0.681201  0.410811  1
  Nd  Nd12  1  0.485854  0.181579  0.907159  1
  Nd  Nd13  1  0.823066  0.977381  0.249836  1
  Nd  Nd14  1  0.512806  0.819082  0.088660  1
  Nd  Nd15  1  0.985031  0.317540  0.906935  1
  Nd  Nd16  1  0.836061  0.832481  0.877416  1
  Nd  Nd17  1  0.664006  0.331735  0.123043  1
  Nd  Nd18  1  0.164628  0.170158  0.122306  1
  Nd  Nd19  1  0.664221  0.332027  0.376767  1
  Rh  Rh20  1  0.041386  0.603361  0.750679  1
  Rh  Rh21  1  0.827559  0.029716  0.455871  1
  Rh  Rh22  1  0.460232  0.101938  0.249554  1
  Rh  Rh23  1  0.176753  0.970877  0.959576  1
  Rh  Rh24  1  0.672390  0.637206  0.249601  1
  Rh  Rh25  1  0.299831  0.356665  0.750534  1
  Rh  Rh26  1  0.973785  0.422516  0.250225  1
  Rh  Rh27  1  0.674481  0.528805  0.541038  1
  Rh  Rh28  1  0.325351  0.468452  0.041103  1
  Rh  Rh29  1  0.323204  0.468676  0.458971  1
  Rh  Rh30  1  0.539841  0.897507  0.750591  1
  Rh  Rh31  1  0.676229  0.529483  0.958876  1
  Rh  Rh32  1  0.825634  0.030085  0.042999  1
  Rh  Rh33  1  0.798118  0.143454  0.751096  1
  Rh  Rh34  1  0.178488  0.969337  0.539552  1
  Rh  Rh35  1  0.219834  0.837506  0.249831  1
