# generated using pymatgen
data_Rb2BiAsCO7
_symmetry_space_group_name_H-M   'P 1'
_cell_length_a   7.46347300
_cell_length_b   6.03963600
_cell_length_c   10.15399523
_cell_angle_alpha   85.60493860
_cell_angle_beta   90.00000000
_cell_angle_gamma   90.00000000
_symmetry_Int_Tables_number   1
_chemical_formula_structural   Rb2BiAsCO7
_chemical_formula_sum   'Rb4 Bi2 As2 C2 O14'
_cell_volume   456.36223845
_cell_formula_units_Z   2
loop_
 _symmetry_equiv_pos_site_id
 _symmetry_equiv_pos_as_xyz
  1  'x, y, z'
loop_
 _atom_site_type_symbol
 _atom_site_label
 _atom_site_symmetry_multiplicity
 _atom_site_fract_x
 _atom_site_fract_y
 _atom_site_fract_z
 _atom_site_occupancy
  Rb  Rb0  1  0.483886  0.234148  0.790232  1
  Rb  Rb1  1  0.016114  0.234148  0.790232  1
  Rb  Rb2  1  0.516114  0.765852  0.209768  1
  Rb  Rb3  1  0.983886  0.765852  0.209768  1
  Bi  Bi4  1  0.750000  0.791541  0.618388  1
  Bi  Bi5  1  0.250000  0.208459  0.381612  1
  As  As6  1  0.250000  0.715200  0.583454  1
  As  As7  1  0.750000  0.284800  0.416546  1
  C  C8  1  0.750000  0.710564  0.890636  1
  C  C9  1  0.250000  0.289436  0.109364  1
  O  O10  1  0.250000  0.320217  0.986106  1
  O  O11  1  0.750000  0.912262  0.828621  1
  O  O12  1  0.750000  0.546733  0.811696  1
  O  O13  1  0.063148  0.810361  0.662228  1
  O  O14  1  0.436852  0.810361  0.662228  1
  O  O15  1  0.750000  0.176113  0.580404  1
  O  O16  1  0.250000  0.430879  0.584060  1
  O  O17  1  0.750000  0.569121  0.415940  1
  O  O18  1  0.250000  0.823887  0.419596  1
  O  O19  1  0.563148  0.189639  0.337772  1
  O  O20  1  0.936852  0.189639  0.337772  1
  O  O21  1  0.250000  0.453267  0.188304  1
  O  O22  1  0.250000  0.087738  0.171379  1
  O  O23  1  0.750000  0.679783  0.013894  1
