# generated using pymatgen
data_Y4Lu4Fe(B8W)3
_symmetry_space_group_name_H-M   'P 1'
_cell_length_a   3.55084100
_cell_length_b   9.19820361
_cell_length_c   11.60415985
_cell_angle_alpha   90.15676316
_cell_angle_beta   90.00000000
_cell_angle_gamma   90.00000000
_symmetry_Int_Tables_number   1
_chemical_formula_structural   Y4Lu4Fe(B8W)3
_chemical_formula_sum   'Y4 Lu4 Fe1 B24 W3'
_cell_volume   379.00620656
_cell_formula_units_Z   1
loop_
 _symmetry_equiv_pos_site_id
 _symmetry_equiv_pos_as_xyz
  1  'x, y, z'
loop_
 _atom_site_type_symbol
 _atom_site_label
 _atom_site_symmetry_multiplicity
 _atom_site_fract_x
 _atom_site_fract_y
 _atom_site_fract_z
 _atom_site_occupancy
  Y  Y0  1  0.000000  0.820881  0.086176  1
  Y  Y1  1  0.000000  0.179087  0.913840  1
  Y  Y2  1  0.000000  0.321380  0.416280  1
  Y  Y3  1  0.000000  0.676519  0.586656  1
  Lu  Lu4  1  0.000000  0.444337  0.126657  1
  Lu  Lu5  1  0.000000  0.552378  0.867983  1
  Lu  Lu6  1  0.000000  0.945649  0.373611  1
  Lu  Lu7  1  0.000000  0.061597  0.629583  1
  Fe  Fe8  1  0.000000  0.360098  0.680674  1
  B  B9  1  0.500000  0.051681  0.065235  1
  B  B10  1  0.500000  0.948199  0.933762  1
  B  B11  1  0.500000  0.550171  0.436632  1
  B  B12  1  0.500000  0.443072  0.570373  1
  B  B13  1  0.500000  0.253019  0.078117  1
  B  B14  1  0.500000  0.745544  0.919874  1
  B  B15  1  0.500000  0.754150  0.422087  1
  B  B16  1  0.500000  0.252859  0.584386  1
  B  B17  1  0.500000  0.296342  0.235329  1
  B  B18  1  0.500000  0.702450  0.762496  1
  B  B19  1  0.500000  0.795765  0.264679  1
  B  B20  1  0.500000  0.211261  0.733552  1
  B  B21  1  0.500000  0.131542  0.318180  1
  B  B22  1  0.500000  0.870119  0.681325  1
  B  B23  1  0.500000  0.629795  0.182717  1
  B  B24  1  0.500000  0.368914  0.812647  1
  B  B25  1  0.500000  0.477988  0.286469  1
  B  B26  1  0.500000  0.512207  0.711905  1
  B  B27  1  0.500000  0.978499  0.214547  1
  B  B28  1  0.500000  0.023146  0.786028  1
  B  B29  1  0.500000  0.102086  0.474377  1
  B  B30  1  0.500000  0.902951  0.528269  1
  B  B31  1  0.500000  0.598377  0.025750  1
  B  B32  1  0.500000  0.399504  0.970013  1
  W  W33  1  0.000000  0.139664  0.180254  1
  W  W34  1  0.000000  0.859700  0.818207  1
  W  W35  1  0.000000  0.639069  0.321330  1
