# generated using pymatgen
data_Tb3DyOsBr4
_symmetry_space_group_name_H-M   'P 1'
_cell_length_a   9.02091676
_cell_length_b   9.03694304
_cell_length_c   6.56933108
_cell_angle_alpha   89.53582231
_cell_angle_beta   89.75478540
_cell_angle_gamma   89.36835834
_symmetry_Int_Tables_number   1
_chemical_formula_structural   Tb3DyOsBr4
_chemical_formula_sum   'Tb6 Dy2 Os2 Br8'
_cell_volume   535.48697677
_cell_formula_units_Z   2
loop_
 _symmetry_equiv_pos_site_id
 _symmetry_equiv_pos_as_xyz
  1  'x, y, z'
loop_
 _atom_site_type_symbol
 _atom_site_label
 _atom_site_symmetry_multiplicity
 _atom_site_fract_x
 _atom_site_fract_y
 _atom_site_fract_z
 _atom_site_occupancy
  Tb  Tb0  1  0.098843  0.750911  0.490593  1
  Tb  Tb1  1  0.901157  0.249089  0.509407  1
  Tb  Tb2  1  0.751660  0.902966  0.506327  1
  Tb  Tb3  1  0.248340  0.097034  0.493673  1
  Tb  Tb4  1  0.097073  0.248479  0.993439  1
  Tb  Tb5  1  0.902927  0.751521  0.006561  1
  Dy  Dy6  1  0.247622  0.902525  0.011153  1
  Dy  Dy7  1  0.752378  0.097475  0.988847  1
  Os  Os8  1  0.995827  0.004100  0.249931  1
  Os  Os9  1  0.004173  0.995900  0.750069  1
  Br  Br10  1  0.417113  0.816942  0.412200  1
  Br  Br11  1  0.582887  0.183058  0.587800  1
  Br  Br12  1  0.184387  0.583988  0.085928  1
  Br  Br13  1  0.815613  0.416012  0.914072  1
  Br  Br14  1  0.413318  0.186914  0.088332  1
  Br  Br15  1  0.586682  0.813086  0.911668  1
  Br  Br16  1  0.812006  0.587372  0.411059  1
  Br  Br17  1  0.187994  0.412628  0.588941  1
