# generated using pymatgen
data_Th8Nb11Si16Tc
_symmetry_space_group_name_H-M   'P 1'
_cell_length_a   7.18551602
_cell_length_b   7.18551602
_cell_length_c   13.35594206
_cell_angle_alpha   89.95503589
_cell_angle_beta   90.04496411
_cell_angle_gamma   89.75467116
_symmetry_Int_Tables_number   1
_chemical_formula_structural   Th8Nb11Si16Tc
_chemical_formula_sum   'Th8 Nb11 Si16 Tc1'
_cell_volume   689.58245130
_cell_formula_units_Z   1
loop_
 _symmetry_equiv_pos_site_id
 _symmetry_equiv_pos_as_xyz
  1  'x, y, z'
loop_
 _atom_site_type_symbol
 _atom_site_label
 _atom_site_symmetry_multiplicity
 _atom_site_fract_x
 _atom_site_fract_y
 _atom_site_fract_z
 _atom_site_occupancy
  Th  Th0  1  0.999177  0.336443  0.217030  1
  Th  Th1  1  0.002191  0.662266  0.719031  1
  Th  Th2  1  0.161641  0.499210  0.467808  1
  Th  Th3  1  0.499718  0.840696  0.032032  1
  Th  Th4  1  0.840696  0.499718  0.967968  1
  Th  Th5  1  0.499210  0.161641  0.532192  1
  Th  Th6  1  0.336443  0.999177  0.782970  1
  Th  Th7  1  0.662266  0.002191  0.280969  1
  Nb  Nb8  1  0.832496  0.832496  0.500000  1
  Nb  Nb9  1  0.329864  0.668922  0.248460  1
  Nb  Nb10  1  0.668922  0.329864  0.751540  1
  Nb  Nb11  1  0.159585  0.996989  0.373203  1
  Nb  Nb12  1  0.834847  0.003451  0.873096  1
  Nb  Nb13  1  0.503853  0.659774  0.624813  1
  Nb  Nb14  1  0.341021  0.498578  0.875091  1
  Nb  Nb15  1  0.498578  0.341021  0.124909  1
  Nb  Nb16  1  0.659774  0.503853  0.375187  1
  Nb  Nb17  1  0.996989  0.159585  0.626797  1
  Nb  Nb18  1  0.003451  0.834847  0.126904  1
  Si  Si19  1  0.286160  0.044218  0.182967  1
  Si  Si20  1  0.711698  0.959295  0.686418  1
  Si  Si21  1  0.459843  0.788222  0.436264  1
  Si  Si22  1  0.215449  0.536546  0.061463  1
  Si  Si23  1  0.536546  0.215449  0.938537  1
  Si  Si24  1  0.788222  0.459843  0.563736  1
  Si  Si25  1  0.044218  0.286160  0.817033  1
  Si  Si26  1  0.959295  0.711698  0.313582  1
  Si  Si27  1  0.374981  0.298163  0.313249  1
  Si  Si28  1  0.624590  0.701653  0.814022  1
  Si  Si29  1  0.201995  0.875190  0.564252  1
  Si  Si30  1  0.122031  0.804660  0.938597  1
  Si  Si31  1  0.804660  0.122031  0.061403  1
  Si  Si32  1  0.875190  0.201995  0.435748  1
  Si  Si33  1  0.298163  0.374981  0.686751  1
  Si  Si34  1  0.701653  0.624590  0.185978  1
  Tc  Tc35  1  0.164586  0.164586  0.000000  1
