# generated using pymatgen
data_Eu3Ho2Mn2O12
_symmetry_space_group_name_H-M   'P 1'
_cell_length_a   6.84785077
_cell_length_b   6.84785061
_cell_length_c   7.34420612
_cell_angle_alpha   75.05262951
_cell_angle_beta   75.05263212
_cell_angle_gamma   50.10116309
_symmetry_Int_Tables_number   1
_chemical_formula_structural   Eu3Ho2Mn2O12
_chemical_formula_sum   'Eu3 Ho2 Mn2 O12'
_cell_volume   253.27529493
_cell_formula_units_Z   1
loop_
 _symmetry_equiv_pos_site_id
 _symmetry_equiv_pos_as_xyz
  1  'x, y, z'
loop_
 _atom_site_type_symbol
 _atom_site_label
 _atom_site_symmetry_multiplicity
 _atom_site_fract_x
 _atom_site_fract_y
 _atom_site_fract_z
 _atom_site_occupancy
  Eu  Eu0  1  0.310974  0.310974  0.353348  1
  Eu  Eu1  1  0.689026  0.689026  0.646652  1
  Eu  Eu2  1  0.000000  0.000000  0.500000  1
  Ho  Ho3  1  0.304554  0.304554  0.845211  1
  Ho  Ho4  1  0.695446  0.695446  0.154789  1
  Mn  Mn5  1  0.755897  0.244103  0.000000  1
  Mn  Mn6  1  0.244103  0.755897  0.000000  1
  O  O7  1  0.902323  0.421053  0.921016  1
  O  O8  1  0.421053  0.902323  0.921016  1
  O  O9  1  0.097677  0.578947  0.078984  1
  O  O10  1  0.578947  0.097677  0.078984  1
  O  O11  1  0.099560  0.592932  0.581748  1
  O  O12  1  0.592932  0.099560  0.581748  1
  O  O13  1  0.900440  0.407068  0.418252  1
  O  O14  1  0.407068  0.900440  0.418252  1
  O  O15  1  0.999630  0.999630  0.824556  1
  O  O16  1  0.000370  0.000370  0.175444  1
  O  O17  1  0.496061  0.496061  0.824617  1
  O  O18  1  0.503939  0.503939  0.175383  1
