# generated using pymatgen
data_Ti13Al9(CoIr)4
_symmetry_space_group_name_H-M   'P 1'
_cell_length_a   8.63564414
_cell_length_b   8.63564339
_cell_length_c   8.58998000
_cell_angle_alpha   59.97756310
_cell_angle_beta   59.97756599
_cell_angle_gamma   59.53594780
_symmetry_Int_Tables_number   1
_chemical_formula_structural   Ti13Al9(CoIr)4
_chemical_formula_sum   'Ti13 Al9 Co4 Ir4'
_cell_volume   451.20507453
_cell_formula_units_Z   1
loop_
 _symmetry_equiv_pos_site_id
 _symmetry_equiv_pos_as_xyz
  1  'x, y, z'
loop_
 _atom_site_type_symbol
 _atom_site_label
 _atom_site_symmetry_multiplicity
 _atom_site_fract_x
 _atom_site_fract_y
 _atom_site_fract_z
 _atom_site_occupancy
  Ti  Ti0  1  0.203844  0.203844  0.800552  1
  Ti  Ti1  1  0.797564  0.207094  0.202694  1
  Ti  Ti2  1  0.207094  0.797564  0.202694  1
  Ti  Ti3  1  0.804193  0.804193  0.176268  1
  Ti  Ti4  1  0.179049  0.801442  0.806395  1
  Ti  Ti5  1  0.801442  0.179049  0.806395  1
  Ti  Ti6  1  0.377998  0.377998  0.387108  1
  Ti  Ti7  1  0.384761  0.857837  0.386317  1
  Ti  Ti8  1  0.857837  0.384761  0.386317  1
  Ti  Ti9  1  0.382497  0.382497  0.857771  1
  Ti  Ti10  1  0.846628  0.477367  0.829897  1
  Ti  Ti11  1  0.477367  0.846628  0.829897  1
  Ti  Ti12  1  0.838435  0.838435  0.471859  1
  Al  Al13  1  0.159012  0.159012  0.161074  1
  Al  Al14  1  0.156812  0.520547  0.170823  1
  Al  Al15  1  0.520547  0.156812  0.170823  1
  Al  Al16  1  0.163672  0.163672  0.523942  1
  Al  Al17  1  0.618294  0.618294  0.616452  1
  Al  Al18  1  0.618471  0.148731  0.613288  1
  Al  Al19  1  0.148731  0.618471  0.613288  1
  Al  Al20  1  0.616622  0.616622  0.147579  1
  Al  Al21  1  0.826511  0.826511  0.824159  1
  Co  Co22  1  0.002430  0.499332  0.500529  1
  Co  Co23  1  0.499332  0.002430  0.500529  1
  Co  Co24  1  0.501263  0.501263  0.501067  1
  Co  Co25  1  0.004492  0.004492  0.005230  1
  Ir  Ir26  1  0.003396  0.003396  0.499926  1
  Ir  Ir27  1  0.499667  0.003515  0.002403  1
  Ir  Ir28  1  0.003515  0.499667  0.002403  1
  Ir  Ir29  1  0.498525  0.498525  0.002322  1
