# generated using pymatgen
data_NbGaI10
_symmetry_space_group_name_H-M   'P 1'
_cell_length_a   9.32238661
_cell_length_b   8.86286250
_cell_length_c   10.30958763
_cell_angle_alpha   101.38582708
_cell_angle_beta   92.38539111
_cell_angle_gamma   121.88942494
_symmetry_Int_Tables_number   1
_chemical_formula_structural   NbGaI10
_chemical_formula_sum   'Nb1 Ga1 I10'
_cell_volume   698.03283856
_cell_formula_units_Z   1
loop_
 _symmetry_equiv_pos_site_id
 _symmetry_equiv_pos_as_xyz
  1  'x, y, z'
loop_
 _atom_site_type_symbol
 _atom_site_label
 _atom_site_symmetry_multiplicity
 _atom_site_fract_x
 _atom_site_fract_y
 _atom_site_fract_z
 _atom_site_occupancy
  Nb  Nb0  1  0.841820  0.770284  0.801582  1
  Ga  Ga1  1  0.208363  0.237640  0.237792  1
  I  I2  1  0.946407  0.433525  0.101396  1
  I  I3  1  0.727368  0.739207  0.032174  1
  I  I4  1  0.268321  0.020739  0.321008  1
  I  I5  1  0.751661  0.978065  0.718899  1
  I  I6  1  0.174436  0.148169  0.971390  1
  I  I7  1  0.033339  0.613622  0.891457  1
  I  I8  1  0.448456  0.578917  0.322249  1
  I  I9  1  0.930134  0.212405  0.313849  1
  I  I10  1  0.589229  0.449924  0.648987  1
  I  I11  1  0.080465  0.817504  0.639216  1
