# generated using pymatgen
data_Lu8CdAgRh2
_symmetry_space_group_name_H-M   'P 1'
_cell_length_a   9.39341794
_cell_length_b   9.39341863
_cell_length_c   9.39045500
_cell_angle_alpha   60.01043965
_cell_angle_beta   60.01043722
_cell_angle_gamma   60.13898299
_symmetry_Int_Tables_number   1
_chemical_formula_structural   Lu8CdAgRh2
_chemical_formula_sum   'Lu16 Cd2 Ag2 Rh4'
_cell_volume   586.59951702
_cell_formula_units_Z   2
loop_
 _symmetry_equiv_pos_site_id
 _symmetry_equiv_pos_as_xyz
  1  'x, y, z'
loop_
 _atom_site_type_symbol
 _atom_site_label
 _atom_site_symmetry_multiplicity
 _atom_site_fract_x
 _atom_site_fract_y
 _atom_site_fract_z
 _atom_site_occupancy
  Lu  Lu0  1  0.600680  0.600680  0.600858  1
  Lu  Lu1  1  0.600680  0.600680  0.197782  1
  Lu  Lu2  1  0.600933  0.196540  0.601264  1
  Lu  Lu3  1  0.196540  0.600933  0.601264  1
  Lu  Lu4  1  0.061212  0.438324  0.439286  1
  Lu  Lu5  1  0.438324  0.061212  0.061178  1
  Lu  Lu6  1  0.438324  0.061212  0.439286  1
  Lu  Lu7  1  0.061212  0.438324  0.061178  1
  Lu  Lu8  1  0.439172  0.439172  0.060828  1
  Lu  Lu9  1  0.060377  0.060377  0.439623  1
  Lu  Lu10  1  0.183161  0.813700  0.815007  1
  Lu  Lu11  1  0.813700  0.183161  0.188132  1
  Lu  Lu12  1  0.813700  0.183161  0.815007  1
  Lu  Lu13  1  0.183161  0.813700  0.188132  1
  Lu  Lu14  1  0.813382  0.813382  0.186618  1
  Lu  Lu15  1  0.185161  0.185161  0.814839  1
  Cd  Cd16  1  0.832460  0.510074  0.828733  1
  Cd  Cd17  1  0.510074  0.832460  0.828733  1
  Ag  Ag18  1  0.834375  0.834375  0.833447  1
  Ag  Ag19  1  0.834375  0.834375  0.497803  1
  Rh  Rh20  1  0.392695  0.392695  0.393173  1
  Rh  Rh21  1  0.392695  0.392695  0.821437  1
  Rh  Rh22  1  0.392327  0.821280  0.393196  1
  Rh  Rh23  1  0.821280  0.392327  0.393196  1
