# generated using pymatgen
data_CeThCoCuSi4
_symmetry_space_group_name_H-M   'P 1'
_cell_length_a   8.52858305
_cell_length_b   8.52858089
_cell_length_c   4.08606100
_cell_angle_alpha   90.00000000
_cell_angle_beta   90.00000000
_cell_angle_gamma   151.87419180
_symmetry_Int_Tables_number   1
_chemical_formula_structural   CeThCoCuSi4
_chemical_formula_sum   'Ce1 Th1 Co1 Cu1 Si4'
_cell_volume   140.10593566
_cell_formula_units_Z   1
loop_
 _symmetry_equiv_pos_site_id
 _symmetry_equiv_pos_as_xyz
  1  'x, y, z'
loop_
 _atom_site_type_symbol
 _atom_site_label
 _atom_site_symmetry_multiplicity
 _atom_site_fract_x
 _atom_site_fract_y
 _atom_site_fract_z
 _atom_site_occupancy
  Ce  Ce0  1  0.390536  0.609464  0.250000  1
  Th  Th1  1  0.604417  0.395583  0.750000  1
  Co  Co2  1  0.181029  0.818971  0.250000  1
  Cu  Cu3  1  0.824020  0.175980  0.750000  1
  Si  Si4  1  0.963904  0.036096  0.750000  1
  Si  Si5  1  0.041957  0.958043  0.250000  1
  Si  Si6  1  0.247731  0.752269  0.750000  1
  Si  Si7  1  0.746404  0.253596  0.250000  1
