# generated using pymatgen
data_Pr5Nd3(CoAg)2
_symmetry_space_group_name_H-M   'P 1'
_cell_length_a   9.82521678
_cell_length_b   9.82544297
_cell_length_c   9.82547785
_cell_angle_alpha   59.88678616
_cell_angle_beta   59.93530168
_cell_angle_gamma   59.86993526
_symmetry_Int_Tables_number   1
_chemical_formula_structural   Pr5Nd3(CoAg)2
_chemical_formula_sum   'Pr10 Nd6 Co4 Ag4'
_cell_volume   669.14462163
_cell_formula_units_Z   2
loop_
 _symmetry_equiv_pos_site_id
 _symmetry_equiv_pos_as_xyz
  1  'x, y, z'
loop_
 _atom_site_type_symbol
 _atom_site_label
 _atom_site_symmetry_multiplicity
 _atom_site_fract_x
 _atom_site_fract_y
 _atom_site_fract_z
 _atom_site_occupancy
  Pr  Pr0  1  0.597454  0.597370  0.597507  1
  Pr  Pr1  1  0.598400  0.598395  0.205979  1
  Pr  Pr2  1  0.598543  0.205518  0.598561  1
  Pr  Pr3  1  0.205929  0.598400  0.598450  1
  Pr  Pr4  1  0.187254  0.812196  0.811939  1
  Pr  Pr5  1  0.810574  0.189298  0.189360  1
  Pr  Pr6  1  0.812001  0.187198  0.811950  1
  Pr  Pr7  1  0.189451  0.810574  0.189443  1
  Pr  Pr8  1  0.811925  0.812178  0.187257  1
  Pr  Pr9  1  0.189342  0.189264  0.810578  1
  Nd  Nd10  1  0.060036  0.438854  0.438406  1
  Nd  Nd11  1  0.437152  0.061638  0.061188  1
  Nd  Nd12  1  0.438644  0.060263  0.438621  1
  Nd  Nd13  1  0.061245  0.437560  0.061227  1
  Nd  Nd14  1  0.438402  0.438827  0.060053  1
  Nd  Nd15  1  0.061212  0.061609  0.437155  1
  Co  Co16  1  0.390222  0.390073  0.390256  1
  Co  Co17  1  0.391550  0.391265  0.827894  1
  Co  Co18  1  0.391320  0.828178  0.391335  1
  Co  Co19  1  0.827939  0.391250  0.391548  1
  Ag  Ag20  1  0.830574  0.830422  0.830542  1
  Ag  Ag21  1  0.829645  0.829510  0.511319  1
  Ag  Ag22  1  0.829832  0.510664  0.829810  1
  Ag  Ag23  1  0.511354  0.829493  0.829623  1
