# generated using pymatgen
data_Dy2Lu2In3Co2
_symmetry_space_group_name_H-M   'P 1'
_cell_length_a   3.62743800
_cell_length_b   7.29195247
_cell_length_c   8.08737185
_cell_angle_alpha   71.93109507
_cell_angle_beta   90.00000000
_cell_angle_gamma   90.00000000
_symmetry_Int_Tables_number   1
_chemical_formula_structural   Dy2Lu2In3Co2
_chemical_formula_sum   'Dy2 Lu2 In3 Co2'
_cell_volume   203.37029331
_cell_formula_units_Z   1
loop_
 _symmetry_equiv_pos_site_id
 _symmetry_equiv_pos_as_xyz
  1  'x, y, z'
loop_
 _atom_site_type_symbol
 _atom_site_label
 _atom_site_symmetry_multiplicity
 _atom_site_fract_x
 _atom_site_fract_y
 _atom_site_fract_z
 _atom_site_occupancy
  Dy  Dy0  1  0.500000  0.392403  0.318168  1
  Dy  Dy1  1  0.500000  0.607597  0.681832  1
  Lu  Lu2  1  0.500000  0.907679  0.224634  1
  Lu  Lu3  1  0.500000  0.092321  0.775366  1
  In  In4  1  0.000000  0.709932  0.006087  1
  In  In5  1  0.000000  0.290068  0.993913  1
  In  In6  1  0.000000  0.000000  0.500000  1
  Co  Co7  1  0.000000  0.652970  0.395387  1
  Co  Co8  1  0.000000  0.347030  0.604613  1
