# generated using pymatgen
data_Nd6Zn4Pd6Pt7
_symmetry_space_group_name_H-M   'P 1'
_cell_length_a   8.38489630
_cell_length_b   8.40479895
_cell_length_c   8.40479928
_cell_angle_alpha   109.62209014
_cell_angle_beta   109.44372729
_cell_angle_gamma   109.44372659
_symmetry_Int_Tables_number   1
_chemical_formula_structural   Nd6Zn4Pd6Pt7
_chemical_formula_sum   'Nd6 Zn4 Pd6 Pt7'
_cell_volume   455.42247123
_cell_formula_units_Z   1
loop_
 _symmetry_equiv_pos_site_id
 _symmetry_equiv_pos_as_xyz
  1  'x, y, z'
loop_
 _atom_site_type_symbol
 _atom_site_label
 _atom_site_symmetry_multiplicity
 _atom_site_fract_x
 _atom_site_fract_y
 _atom_site_fract_z
 _atom_site_occupancy
  Nd  Nd0  1  0.698583  0.698845  0.998852  1
  Nd  Nd1  1  0.301417  0.000262  0.300269  1
  Nd  Nd2  1  0.000000  0.301014  0.301014  1
  Nd  Nd3  1  0.301417  0.300269  0.000262  1
  Nd  Nd4  1  0.698583  0.998852  0.698845  1
  Nd  Nd5  1  0.000000  0.699792  0.699792  1
  Zn  Zn6  1  0.000000  0.999887  0.500156  1
  Zn  Zn7  1  0.000000  0.500156  0.999887  1
  Zn  Zn8  1  0.500205  0.000595  0.000595  1
  Zn  Zn9  1  0.499795  0.500390  0.500390  1
  Pd  Pd10  1  0.330103  0.330021  0.661138  1
  Pd  Pd11  1  0.669897  0.999918  0.331036  1
  Pd  Pd12  1  0.000000  0.669001  0.330153  1
  Pd  Pd13  1  0.669897  0.331036  0.999918  1
  Pd  Pd14  1  0.330103  0.661138  0.330021  1
  Pd  Pd15  1  0.000000  0.330153  0.669001  1
  Pt  Pt16  1  0.329723  0.669112  0.999846  1
  Pt  Pt17  1  0.329723  0.999846  0.669112  1
  Pt  Pt18  1  0.660848  0.330153  0.330153  1
  Pt  Pt19  1  0.670277  0.670123  0.339390  1
  Pt  Pt20  1  0.670277  0.339390  0.670123  1
  Pt  Pt21  1  0.339152  0.669303  0.669303  1
  Pt  Pt22  1  0.000000  0.000743  0.000743  1
