# generated using pymatgen
data_Pr6NbCo16P12W
_symmetry_space_group_name_H-M   'P 1'
_cell_length_a   3.80106200
_cell_length_b   10.79542000
_cell_length_c   12.54229700
_cell_angle_alpha   90.00000000
_cell_angle_beta   90.00000000
_cell_angle_gamma   90.00000000
_symmetry_Int_Tables_number   1
_chemical_formula_structural   Pr6NbCo16P12W
_chemical_formula_sum   'Pr6 Nb1 Co16 P12 W1'
_cell_volume   514.66137687
_cell_formula_units_Z   1
loop_
 _symmetry_equiv_pos_site_id
 _symmetry_equiv_pos_as_xyz
  1  'x, y, z'
loop_
 _atom_site_type_symbol
 _atom_site_label
 _atom_site_symmetry_multiplicity
 _atom_site_fract_x
 _atom_site_fract_y
 _atom_site_fract_z
 _atom_site_occupancy
  Pr  Pr0  1  0.000000  0.500000  0.523426  1
  Pr  Pr1  1  0.500000  0.000000  0.474169  1
  Pr  Pr2  1  0.500000  0.818955  0.205320  1
  Pr  Pr3  1  0.500000  0.181045  0.205320  1
  Pr  Pr4  1  0.000000  0.680487  0.794474  1
  Pr  Pr5  1  0.000000  0.319513  0.794474  1
  Nb  Nb6  1  0.000000  0.000000  0.847473  1
  Co  Co7  1  0.500000  0.500000  0.703376  1
  Co  Co8  1  0.000000  0.000000  0.296389  1
  Co  Co9  1  0.000000  0.500000  0.989522  1
  Co  Co10  1  0.500000  0.000000  0.013480  1
  Co  Co11  1  0.500000  0.334590  0.993948  1
  Co  Co12  1  0.500000  0.665410  0.993948  1
  Co  Co13  1  0.000000  0.169239  0.009072  1
  Co  Co14  1  0.000000  0.830761  0.009072  1
  Co  Co15  1  0.500000  0.296234  0.430636  1
  Co  Co16  1  0.500000  0.703766  0.430636  1
  Co  Co17  1  0.000000  0.204971  0.567637  1
  Co  Co18  1  0.000000  0.795029  0.567637  1
  Co  Co19  1  0.500000  0.880150  0.705648  1
  Co  Co20  1  0.500000  0.119850  0.705648  1
  Co  Co21  1  0.000000  0.618492  0.290781  1
  Co  Co22  1  0.000000  0.381508  0.290781  1
  P  P23  1  0.500000  0.500000  0.886542  1
  P  P24  1  0.000000  0.000000  0.113513  1
  P  P25  1  0.500000  0.500000  0.344392  1
  P  P26  1  0.000000  0.000000  0.650625  1
  P  P27  1  0.500000  0.306081  0.612958  1
  P  P28  1  0.500000  0.693919  0.612958  1
  P  P29  1  0.000000  0.195287  0.385662  1
  P  P30  1  0.000000  0.804713  0.385662  1
  P  P31  1  0.500000  0.842902  0.899173  1
  P  P32  1  0.500000  0.157098  0.899173  1
  P  P33  1  0.000000  0.652501  0.105864  1
  P  P34  1  0.000000  0.347499  0.105864  1
  W  W35  1  0.500000  0.500000  0.154745  1
