# generated using pymatgen
data_TmLu2In3HgRh2
_symmetry_space_group_name_H-M   'P 1'
_cell_length_a   7.77843201
_cell_length_b   7.78243333
_cell_length_c   3.74573900
_cell_angle_alpha   90.00000000
_cell_angle_beta   90.00000000
_cell_angle_gamma   119.97838462
_symmetry_Int_Tables_number   1
_chemical_formula_structural   TmLu2In3HgRh2
_chemical_formula_sum   'Tm1 Lu2 In3 Hg1 Rh2'
_cell_volume   196.41297141
_cell_formula_units_Z   1
loop_
 _symmetry_equiv_pos_site_id
 _symmetry_equiv_pos_as_xyz
  1  'x, y, z'
loop_
 _atom_site_type_symbol
 _atom_site_label
 _atom_site_symmetry_multiplicity
 _atom_site_fract_x
 _atom_site_fract_y
 _atom_site_fract_z
 _atom_site_occupancy
  Tm  Tm0  1  0.414421  0.028805  0.500000  1
  Lu  Lu1  1  0.970783  0.385225  0.500000  1
  Lu  Lu2  1  0.614821  0.585579  0.500000  1
  In  In3  1  0.258963  0.257281  0.000000  1
  In  In4  1  0.997760  0.740765  0.000000  1
  In  In5  1  0.743208  0.002144  0.000000  1
  Hg  Hg6  1  0.333184  0.666252  0.000000  1
  Rh  Rh7  1  0.999706  0.999944  0.500000  1
  Rh  Rh8  1  0.667154  0.334006  0.000000  1
