# generated using pymatgen
data_Tb5Ho3Sc12GaSi15
_symmetry_space_group_name_H-M   'P 1'
_cell_length_a   7.10655814
_cell_length_b   7.39860480
_cell_length_c   14.03347690
_cell_angle_alpha   89.93609690
_cell_angle_beta   89.98887424
_cell_angle_gamma   90.01626037
_symmetry_Int_Tables_number   1
_chemical_formula_structural   Tb5Ho3Sc12GaSi15
_chemical_formula_sum   'Tb5 Ho3 Sc12 Ga1 Si15'
_cell_volume   737.86027828
_cell_formula_units_Z   1
loop_
 _symmetry_equiv_pos_site_id
 _symmetry_equiv_pos_as_xyz
  1  'x, y, z'
loop_
 _atom_site_type_symbol
 _atom_site_label
 _atom_site_symmetry_multiplicity
 _atom_site_fract_x
 _atom_site_fract_y
 _atom_site_fract_z
 _atom_site_occupancy
  Tb  Tb0  1  0.011853  0.175341  0.097006  1
  Tb  Tb1  1  0.988083  0.824901  0.903412  1
  Tb  Tb2  1  0.487826  0.676077  0.903425  1
  Tb  Tb3  1  0.987438  0.826621  0.597362  1
  Tb  Tb4  1  0.512048  0.324076  0.096856  1
  Ho  Ho5  1  0.011098  0.174256  0.401568  1
  Ho  Ho6  1  0.512877  0.323295  0.401571  1
  Ho  Ho7  1  0.489892  0.678260  0.597566  1
  Sc  Sc8  1  0.161147  0.502549  0.751370  1
  Sc  Sc9  1  0.839046  0.497512  0.250001  1
  Sc  Sc10  1  0.338919  0.002585  0.249872  1
  Sc  Sc11  1  0.661269  0.996869  0.750063  1
  Sc  Sc12  1  0.332461  0.174336  0.625915  1
  Sc  Sc13  1  0.668472  0.823947  0.374448  1
  Sc  Sc14  1  0.169978  0.677349  0.373571  1
  Sc  Sc15  1  0.669612  0.823685  0.125346  1
  Sc  Sc16  1  0.828546  0.323190  0.625461  1
  Sc  Sc17  1  0.330222  0.175876  0.874947  1
  Sc  Sc18  1  0.830436  0.323145  0.874941  1
  Sc  Sc19  1  0.169233  0.676693  0.125407  1
  Ga  Ga20  1  0.160441  0.462407  0.539160  1
  Si  Si21  1  0.033795  0.117868  0.750647  1
  Si  Si22  1  0.966377  0.883385  0.249821  1
  Si  Si23  1  0.467507  0.615973  0.250099  1
  Si  Si24  1  0.532304  0.384753  0.749652  1
  Si  Si25  1  0.284883  0.872953  0.750186  1
  Si  Si26  1  0.714552  0.127225  0.249907  1
  Si  Si27  1  0.214353  0.372453  0.249822  1
  Si  Si28  1  0.785485  0.626834  0.750573  1
  Si  Si29  1  0.841026  0.535509  0.460286  1
  Si  Si30  1  0.341676  0.964527  0.460184  1
  Si  Si31  1  0.842402  0.535451  0.038714  1
  Si  Si32  1  0.657283  0.035783  0.538960  1
  Si  Si33  1  0.157532  0.464265  0.961635  1
  Si  Si34  1  0.657230  0.035373  0.960715  1
  Si  Si35  1  0.342697  0.964676  0.039528  1
