# generated using pymatgen
data_Ho3Sc2In4PtRh
_symmetry_space_group_name_H-M   'P 1'
_cell_length_a   3.58339200
_cell_length_b   7.91673845
_cell_length_c   17.82246903
_cell_angle_alpha   89.85247568
_cell_angle_beta   90.00000000
_cell_angle_gamma   90.00000000
_symmetry_Int_Tables_number   1
_chemical_formula_structural   Ho3Sc2In4PtRh
_chemical_formula_sum   'Ho6 Sc4 In8 Pt2 Rh2'
_cell_volume   505.59997734
_cell_formula_units_Z   2
loop_
 _symmetry_equiv_pos_site_id
 _symmetry_equiv_pos_as_xyz
  1  'x, y, z'
loop_
 _atom_site_type_symbol
 _atom_site_label
 _atom_site_symmetry_multiplicity
 _atom_site_fract_x
 _atom_site_fract_y
 _atom_site_fract_z
 _atom_site_occupancy
  Ho  Ho0  1  0.000000  0.000000  0.000000  1
  Ho  Ho1  1  0.000000  0.500000  0.500000  1
  Ho  Ho2  1  0.000000  0.745653  0.782083  1
  Ho  Ho3  1  0.000000  0.254347  0.217917  1
  Ho  Ho4  1  0.000000  0.252380  0.719130  1
  Ho  Ho5  1  0.000000  0.747620  0.280870  1
  Sc  Sc6  1  0.000000  0.877268  0.587392  1
  Sc  Sc7  1  0.000000  0.122732  0.412608  1
  Sc  Sc8  1  0.000000  0.378725  0.911020  1
  Sc  Sc9  1  0.000000  0.621275  0.088980  1
  In  In10  1  0.500000  0.808369  0.439154  1
  In  In11  1  0.500000  0.191631  0.560846  1
  In  In12  1  0.500000  0.310041  0.061677  1
  In  In13  1  0.500000  0.689959  0.938323  1
  In  In14  1  0.500000  0.922443  0.148573  1
  In  In15  1  0.500000  0.077557  0.851427  1
  In  In16  1  0.500000  0.426968  0.350385  1
  In  In17  1  0.500000  0.573032  0.649615  1
  Pt  Pt18  1  0.500000  0.963596  0.692631  1
  Pt  Pt19  1  0.500000  0.036404  0.307369  1
  Rh  Rh20  1  0.500000  0.463866  0.808225  1
  Rh  Rh21  1  0.500000  0.536134  0.191775  1
