# generated using pymatgen
data_Dy16MgIn3Pt4
_symmetry_space_group_name_H-M   'P 1'
_cell_length_a   9.72420306
_cell_length_b   9.72111960
_cell_length_c   9.75163048
_cell_angle_alpha   60.11854788
_cell_angle_beta   60.09232098
_cell_angle_gamma   59.98148851
_symmetry_Int_Tables_number   1
_chemical_formula_structural   Dy16MgIn3Pt4
_chemical_formula_sum   'Dy16 Mg1 In3 Pt4'
_cell_volume   652.77240205
_cell_formula_units_Z   1
loop_
 _symmetry_equiv_pos_site_id
 _symmetry_equiv_pos_as_xyz
  1  'x, y, z'
loop_
 _atom_site_type_symbol
 _atom_site_label
 _atom_site_symmetry_multiplicity
 _atom_site_fract_x
 _atom_site_fract_y
 _atom_site_fract_z
 _atom_site_occupancy
  Dy  Dy0  1  0.689016  0.310650  0.311298  1
  Dy  Dy1  1  0.689967  0.688569  0.311193  1
  Dy  Dy2  1  0.310261  0.688578  0.311190  1
  Dy  Dy3  1  0.935594  0.935825  0.563805  1
  Dy  Dy4  1  0.148410  0.148256  0.554853  1
  Dy  Dy5  1  0.564829  0.935895  0.563712  1
  Dy  Dy6  1  0.150469  0.150603  0.150355  1
  Dy  Dy7  1  0.308246  0.307940  0.691487  1
  Dy  Dy8  1  0.936877  0.563045  0.563248  1
  Dy  Dy9  1  0.563754  0.563996  0.936089  1
  Dy  Dy10  1  0.564889  0.935852  0.934376  1
  Dy  Dy11  1  0.936205  0.564022  0.936011  1
  Dy  Dy12  1  0.149895  0.550865  0.149301  1
  Dy  Dy13  1  0.307978  0.692218  0.691948  1
  Dy  Dy14  1  0.692297  0.307947  0.691470  1
  Dy  Dy15  1  0.548599  0.150552  0.150309  1
  Mg  Mg16  1  0.922678  0.923512  0.231198  1
  In  In17  1  0.249288  0.916792  0.917297  1
  In  In18  1  0.916743  0.248003  0.918202  1
  In  In19  1  0.916551  0.916803  0.917565  1
  Pt  Pt20  1  0.355561  0.357042  0.358947  1
  Pt  Pt21  1  0.928458  0.357042  0.358919  1
  Pt  Pt22  1  0.357187  0.358640  0.927035  1
  Pt  Pt23  1  0.356252  0.927356  0.360192  1
