# generated using pymatgen
data_TiNb4SiP2
_symmetry_space_group_name_H-M   'P 1'
_cell_length_a   7.44297105
_cell_length_b   7.44297031
_cell_length_c   7.44297173
_cell_angle_alpha   127.86730528
_cell_angle_beta   127.86730631
_cell_angle_gamma   76.84009209
_symmetry_Int_Tables_number   1
_chemical_formula_structural   TiNb4SiP2
_chemical_formula_sum   'Ti2 Nb8 Si2 P4'
_cell_volume   249.49843544
_cell_formula_units_Z   2
loop_
 _symmetry_equiv_pos_site_id
 _symmetry_equiv_pos_as_xyz
  1  'x, y, z'
loop_
 _atom_site_type_symbol
 _atom_site_label
 _atom_site_symmetry_multiplicity
 _atom_site_fract_x
 _atom_site_fract_y
 _atom_site_fract_z
 _atom_site_occupancy
  Ti  Ti0  1  0.500000  0.500000  0.000000  1
  Ti  Ti1  1  0.000000  0.000000  0.000000  1
  Nb  Nb2  1  0.016721  0.193137  0.500000  1
  Nb  Nb3  1  0.516721  0.016721  0.823585  1
  Nb  Nb4  1  0.193137  0.693137  0.176415  1
  Nb  Nb5  1  0.483279  0.983279  0.176415  1
  Nb  Nb6  1  0.693137  0.516721  0.500000  1
  Nb  Nb7  1  0.983279  0.806863  0.500000  1
  Nb  Nb8  1  0.306863  0.483279  0.500000  1
  Nb  Nb9  1  0.806863  0.306863  0.823585  1
  Si  Si10  1  0.750000  0.750000  0.000000  1
  Si  Si11  1  0.250000  0.250000  0.000000  1
  P  P12  1  0.137835  0.637835  0.775671  1
  P  P13  1  0.637835  0.862165  0.500000  1
  P  P14  1  0.362165  0.137835  0.500000  1
  P  P15  1  0.862165  0.362165  0.224329  1
