# generated using pymatgen
data_Ho4Tm3Co6Sn22Hg
_symmetry_space_group_name_H-M   'P 1'
_cell_length_a   9.65106200
_cell_length_b   9.65105988
_cell_length_c   9.99036000
_cell_angle_alpha   90.00000000
_cell_angle_beta   90.00000000
_cell_angle_gamma   120.00000040
_symmetry_Int_Tables_number   1
_chemical_formula_structural   Ho4Tm3Co6Sn22Hg
_chemical_formula_sum   'Ho4 Tm3 Co6 Sn22 Hg1'
_cell_volume   805.86423939
_cell_formula_units_Z   1
loop_
 _symmetry_equiv_pos_site_id
 _symmetry_equiv_pos_as_xyz
  1  'x, y, z'
loop_
 _atom_site_type_symbol
 _atom_site_label
 _atom_site_symmetry_multiplicity
 _atom_site_fract_x
 _atom_site_fract_y
 _atom_site_fract_z
 _atom_site_occupancy
  Ho  Ho0  1  0.000000  0.000000  0.999708  1
  Ho  Ho1  1  0.041303  0.520653  0.306722  1
  Ho  Ho2  1  0.479347  0.958697  0.306722  1
  Ho  Ho3  1  0.479347  0.520653  0.306722  1
  Tm  Tm4  1  0.520104  0.479896  0.693722  1
  Tm  Tm5  1  0.520104  0.040206  0.693722  1
  Tm  Tm6  1  0.959794  0.479896  0.693722  1
  Co  Co7  1  0.168441  0.831559  0.802478  1
  Co  Co8  1  0.168441  0.336884  0.802478  1
  Co  Co9  1  0.663116  0.831559  0.802478  1
  Co  Co10  1  0.336580  0.168290  0.197023  1
  Co  Co11  1  0.831710  0.663420  0.197023  1
  Co  Co12  1  0.831710  0.168290  0.197023  1
  Sn  Sn13  1  0.666667  0.333333  0.181613  1
  Sn  Sn14  1  0.666667  0.333333  0.877011  1
  Sn  Sn15  1  0.333333  0.666667  0.120764  1
  Sn  Sn16  1  0.346390  0.346552  0.999741  1
  Sn  Sn17  1  0.000162  0.653610  0.999741  1
  Sn  Sn18  1  0.653448  0.999838  0.999741  1
  Sn  Sn19  1  0.653448  0.653610  0.999741  1
  Sn  Sn20  1  0.333333  0.666667  0.818303  1
  Sn  Sn21  1  0.435185  0.217593  0.454656  1
  Sn  Sn22  1  0.217607  0.782393  0.547102  1
  Sn  Sn23  1  0.217607  0.435214  0.547102  1
  Sn  Sn24  1  0.564786  0.782393  0.547102  1
  Sn  Sn25  1  0.116945  0.883055  0.269644  1
  Sn  Sn26  1  0.782407  0.564815  0.454656  1
  Sn  Sn27  1  0.782407  0.217593  0.454656  1
  Sn  Sn28  1  0.346390  0.999838  0.999741  1
  Sn  Sn29  1  0.116945  0.233889  0.269644  1
  Sn  Sn30  1  0.766111  0.883055  0.269644  1
  Sn  Sn31  1  0.234842  0.117422  0.729979  1
  Sn  Sn32  1  0.882578  0.765158  0.729979  1
  Sn  Sn33  1  0.882578  0.117422  0.729979  1
  Sn  Sn34  1  0.000162  0.346552  0.999741  1
  Hg  Hg35  1  0.000000  0.000000  0.500176  1
