# generated using pymatgen
data_Ta5Nb7Ga8(CuC)4
_symmetry_space_group_name_H-M   'P 1'
_cell_length_a   8.29796715
_cell_length_b   8.29618560
_cell_length_c   8.30234043
_cell_angle_alpha   60.00858259
_cell_angle_beta   60.00862785
_cell_angle_gamma   59.98626987
_symmetry_Int_Tables_number   1
_chemical_formula_structural   Ta5Nb7Ga8(CuC)4
_chemical_formula_sum   'Ta5 Nb7 Ga8 Cu4 C4'
_cell_volume   404.15419293
_cell_formula_units_Z   1
loop_
 _symmetry_equiv_pos_site_id
 _symmetry_equiv_pos_as_xyz
  1  'x, y, z'
loop_
 _atom_site_type_symbol
 _atom_site_label
 _atom_site_symmetry_multiplicity
 _atom_site_fract_x
 _atom_site_fract_y
 _atom_site_fract_z
 _atom_site_occupancy
  Ta  Ta0  1  0.932987  0.566964  0.566964  1
  Ta  Ta1  1  0.567171  0.933381  0.933762  1
  Ta  Ta2  1  0.933138  0.933167  0.567111  1
  Ta  Ta3  1  0.683139  0.316920  0.683426  1
  Ta  Ta4  1  0.932399  0.567688  0.932704  1
  Nb  Nb5  1  0.567084  0.933405  0.565953  1
  Nb  Nb6  1  0.316626  0.683236  0.684099  1
  Nb  Nb7  1  0.684331  0.316241  0.315760  1
  Nb  Nb8  1  0.316067  0.684427  0.315215  1
  Nb  Nb9  1  0.685438  0.685057  0.314671  1
  Nb  Nb10  1  0.315925  0.315689  0.684722  1
  Nb  Nb11  1  0.565173  0.564223  0.935467  1
  Ga  Ga12  1  0.916255  0.914257  0.915187  1
  Ga  Ga13  1  0.995262  0.334970  0.334274  1
  Ga  Ga14  1  0.335304  0.995033  0.335642  1
  Ga  Ga15  1  0.334249  0.335354  0.995517  1
  Ga  Ga16  1  0.915188  0.254648  0.915969  1
  Ga  Ga17  1  0.914747  0.915822  0.254615  1
  Ga  Ga18  1  0.255146  0.914726  0.914561  1
  Ga  Ga19  1  0.335707  0.333978  0.335223  1
  Cu  Cu20  1  0.125712  0.124596  0.125038  1
  Cu  Cu21  1  0.625925  0.124876  0.121271  1
  Cu  Cu22  1  0.123282  0.624834  0.126783  1
  Cu  Cu23  1  0.120424  0.127545  0.625248  1
  C  C24  1  0.627122  0.623180  0.625239  1
  C  C25  1  0.122854  0.625808  0.625737  1
  C  C26  1  0.626849  0.123875  0.626652  1
  C  C27  1  0.626497  0.626097  0.123188  1
