# generated using pymatgen
data_EuGd(Al5Pt3)2
_symmetry_space_group_name_H-M   'P 1'
_cell_length_a   4.16645000
_cell_length_b   7.54399447
_cell_length_c   20.73539600
_cell_angle_alpha   89.96419011
_cell_angle_beta   90.00000000
_cell_angle_gamma   90.00000000
_symmetry_Int_Tables_number   1
_chemical_formula_structural   EuGd(Al5Pt3)2
_chemical_formula_sum   'Eu2 Gd2 Al20 Pt12'
_cell_volume   651.74811682
_cell_formula_units_Z   2
loop_
 _symmetry_equiv_pos_site_id
 _symmetry_equiv_pos_as_xyz
  1  'x, y, z'
loop_
 _atom_site_type_symbol
 _atom_site_label
 _atom_site_symmetry_multiplicity
 _atom_site_fract_x
 _atom_site_fract_y
 _atom_site_fract_z
 _atom_site_occupancy
  Eu  Eu0  1  0.250000  0.116183  0.639978  1
  Eu  Eu1  1  0.750000  0.883817  0.360022  1
  Gd  Gd2  1  0.250000  0.385246  0.139654  1
  Gd  Gd3  1  0.750000  0.614754  0.860346  1
  Al  Al4  1  0.750000  0.352262  0.382026  1
  Al  Al5  1  0.750000  0.885290  0.983589  1
  Al  Al6  1  0.750000  0.686027  0.200169  1
  Al  Al7  1  0.250000  0.869842  0.492263  1
  Al  Al8  1  0.250000  0.630472  0.991573  1
  Al  Al9  1  0.250000  0.313973  0.799831  1
  Al  Al10  1  0.750000  0.074794  0.208550  1
  Al  Al11  1  0.250000  0.647738  0.617974  1
  Al  Al12  1  0.250000  0.572895  0.290804  1
  Al  Al13  1  0.250000  0.188751  0.299147  1
  Al  Al14  1  0.750000  0.146904  0.883171  1
  Al  Al15  1  0.250000  0.925206  0.791450  1
  Al  Al16  1  0.750000  0.369528  0.008427  1
  Al  Al17  1  0.750000  0.614403  0.482837  1
  Al  Al18  1  0.750000  0.130158  0.507737  1
  Al  Al19  1  0.250000  0.114710  0.016411  1
  Al  Al20  1  0.250000  0.853096  0.116829  1
  Al  Al21  1  0.250000  0.385597  0.517163  1
  Al  Al22  1  0.750000  0.427105  0.709196  1
  Al  Al23  1  0.750000  0.811249  0.700853  1
  Pt  Pt24  1  0.750000  0.382731  0.259581  1
  Pt  Pt25  1  0.250000  0.881997  0.238671  1
  Pt  Pt26  1  0.250000  0.617269  0.740419  1
  Pt  Pt27  1  0.750000  0.118003  0.761329  1
  Pt  Pt28  1  0.250000  0.164142  0.428107  1
  Pt  Pt29  1  0.750000  0.421801  0.584097  1
  Pt  Pt30  1  0.750000  0.081376  0.084680  1
  Pt  Pt31  1  0.250000  0.918624  0.915320  1
  Pt  Pt32  1  0.750000  0.835858  0.571893  1
  Pt  Pt33  1  0.250000  0.338872  0.927198  1
  Pt  Pt34  1  0.750000  0.661128  0.072802  1
  Pt  Pt35  1  0.250000  0.578199  0.415903  1
