# generated using pymatgen
data_Dy2Er2TmIr2
_symmetry_space_group_name_H-M   'P 1'
_cell_length_a   6.46583959
_cell_length_b   7.19058206
_cell_length_c   8.45462599
_cell_angle_alpha   96.50144829
_cell_angle_beta   112.48147484
_cell_angle_gamma   89.99999622
_symmetry_Int_Tables_number   1
_chemical_formula_structural   Dy2Er2TmIr2
_chemical_formula_sum   'Dy4 Er4 Tm2 Ir4'
_cell_volume   360.47186771
_cell_formula_units_Z   2
loop_
 _symmetry_equiv_pos_site_id
 _symmetry_equiv_pos_as_xyz
  1  'x, y, z'
loop_
 _atom_site_type_symbol
 _atom_site_label
 _atom_site_symmetry_multiplicity
 _atom_site_fract_x
 _atom_site_fract_y
 _atom_site_fract_z
 _atom_site_occupancy
  Dy  Dy0  1  0.970299  0.919091  0.182826  1
  Dy  Dy1  1  0.787472  0.580909  0.817174  1
  Dy  Dy2  1  0.029701  0.080909  0.817174  1
  Dy  Dy3  1  0.212528  0.419091  0.182826  1
  Er  Er4  1  0.653462  0.817687  0.441340  1
  Er  Er5  1  0.212123  0.682313  0.558660  1
  Er  Er6  1  0.346538  0.182313  0.558660  1
  Er  Er7  1  0.787877  0.317687  0.441340  1
  Tm  Tm8  1  0.427931  0.750000  0.000000  1
  Tm  Tm9  1  0.572069  0.250000  0.000000  1
  Ir  Ir10  1  0.823429  0.572796  0.218798  1
  Ir  Ir11  1  0.604631  0.927204  0.781202  1
  Ir  Ir12  1  0.176572  0.427204  0.781202  1
  Ir  Ir13  1  0.395369  0.072796  0.218798  1
