# generated using pymatgen
data_Gd2TcO5
_symmetry_space_group_name_H-M   'P 1'
_cell_length_a   8.62890900
_cell_length_b   8.62890900
_cell_length_c   5.73280600
_cell_angle_alpha   90.00000000
_cell_angle_beta   90.00000000
_cell_angle_gamma   90.00000000
_symmetry_Int_Tables_number   1
_chemical_formula_structural   Gd2TcO5
_chemical_formula_sum   'Gd8 Tc4 O20'
_cell_volume   426.85367348
_cell_formula_units_Z   4
loop_
 _symmetry_equiv_pos_site_id
 _symmetry_equiv_pos_as_xyz
  1  'x, y, z'
loop_
 _atom_site_type_symbol
 _atom_site_label
 _atom_site_symmetry_multiplicity
 _atom_site_fract_x
 _atom_site_fract_y
 _atom_site_fract_z
 _atom_site_occupancy
  Gd  Gd0  1  0.358994  0.348385  0.250180  1
  Gd  Gd1  1  0.848385  0.141006  0.250180  1
  Gd  Gd2  1  0.151615  0.858994  0.250180  1
  Gd  Gd3  1  0.641006  0.651615  0.250180  1
  Gd  Gd4  1  0.858994  0.848385  0.749820  1
  Gd  Gd5  1  0.348385  0.641006  0.749820  1
  Gd  Gd6  1  0.651615  0.358994  0.749820  1
  Gd  Gd7  1  0.141006  0.151615  0.749820  1
  Tc  Tc8  1  0.000000  0.500000  0.151343  1
  Tc  Tc9  1  0.500000  0.000000  0.848657  1
  Tc  Tc10  1  0.000000  0.500000  0.539514  1
  Tc  Tc11  1  0.500000  0.000000  0.460486  1
  O  O12  1  0.000000  0.000000  0.000000  1
  O  O13  1  0.500000  0.500000  0.000000  1
  O  O14  1  0.000000  0.000000  0.500000  1
  O  O15  1  0.500000  0.500000  0.500000  1
  O  O16  1  0.299634  0.906093  0.900380  1
  O  O17  1  0.406093  0.200366  0.900380  1
  O  O18  1  0.593907  0.799634  0.900380  1
  O  O19  1  0.700366  0.093907  0.900380  1
  O  O20  1  0.200366  0.593907  0.099620  1
  O  O21  1  0.093907  0.299634  0.099620  1
  O  O22  1  0.906093  0.700366  0.099620  1
  O  O23  1  0.799634  0.406093  0.099620  1
  O  O24  1  0.908505  0.298763  0.597875  1
  O  O25  1  0.798763  0.591495  0.597875  1
  O  O26  1  0.201237  0.408505  0.597875  1
  O  O27  1  0.091495  0.701237  0.597875  1
  O  O28  1  0.591495  0.201237  0.402125  1
  O  O29  1  0.701237  0.908505  0.402125  1
  O  O30  1  0.298763  0.091495  0.402125  1
  O  O31  1  0.408505  0.798763  0.402125  1
