# generated using pymatgen
data_La2Nd6CdNi2Hg
_symmetry_space_group_name_H-M   'P 1'
_cell_length_a   9.89346293
_cell_length_b   9.89621907
_cell_length_c   9.91058106
_cell_angle_alpha   59.88130354
_cell_angle_beta   59.87569144
_cell_angle_gamma   59.84420727
_symmetry_Int_Tables_number   1
_chemical_formula_structural   La2Nd6CdNi2Hg
_chemical_formula_sum   'La4 Nd12 Cd2 Ni4 Hg2'
_cell_volume   684.05283745
_cell_formula_units_Z   2
loop_
 _symmetry_equiv_pos_site_id
 _symmetry_equiv_pos_as_xyz
  1  'x, y, z'
loop_
 _atom_site_type_symbol
 _atom_site_label
 _atom_site_symmetry_multiplicity
 _atom_site_fract_x
 _atom_site_fract_y
 _atom_site_fract_z
 _atom_site_occupancy
  La  La0  1  0.596806  0.596690  0.596911  1
  La  La1  1  0.599225  0.599161  0.202570  1
  La  La2  1  0.600496  0.200157  0.599815  1
  La  La3  1  0.200165  0.600386  0.599858  1
  Nd  Nd4  1  0.062687  0.438441  0.439464  1
  Nd  Nd5  1  0.439051  0.060283  0.060207  1
  Nd  Nd6  1  0.438461  0.062634  0.439470  1
  Nd  Nd7  1  0.060226  0.438988  0.060297  1
  Nd  Nd8  1  0.438421  0.438437  0.062907  1
  Nd  Nd9  1  0.059456  0.059631  0.440380  1
  Nd  Nd10  1  0.189931  0.813508  0.814076  1
  Nd  Nd11  1  0.812115  0.185731  0.185823  1
  Nd  Nd12  1  0.813496  0.189985  0.814017  1
  Nd  Nd13  1  0.185707  0.812139  0.185775  1
  Nd  Nd14  1  0.813130  0.813065  0.191295  1
  Nd  Nd15  1  0.185223  0.185228  0.812739  1
  Cd  Cd16  1  0.829240  0.509799  0.830343  1
  Cd  Cd17  1  0.509703  0.829262  0.830347  1
  Ni  Ni18  1  0.392841  0.392788  0.393063  1
  Ni  Ni19  1  0.391660  0.391613  0.823663  1
  Ni  Ni20  1  0.391548  0.823750  0.391495  1
  Ni  Ni21  1  0.823685  0.391652  0.391476  1
  Hg  Hg22  1  0.833579  0.833542  0.835726  1
  Hg  Hg23  1  0.833145  0.833131  0.498289  1
