# generated using pymatgen
data_Th3CdPd11Pt
_symmetry_space_group_name_H-M   'P 1'
_cell_length_a   5.89696400
_cell_length_b   5.89215976
_cell_length_c   9.69817300
_cell_angle_alpha   90.00000000
_cell_angle_beta   90.00000000
_cell_angle_gamma   120.02696435
_symmetry_Int_Tables_number   1
_chemical_formula_structural   Th3CdPd11Pt
_chemical_formula_sum   'Th3 Cd1 Pd11 Pt1'
_cell_volume   291.74638450
_cell_formula_units_Z   1
loop_
 _symmetry_equiv_pos_site_id
 _symmetry_equiv_pos_as_xyz
  1  'x, y, z'
loop_
 _atom_site_type_symbol
 _atom_site_label
 _atom_site_symmetry_multiplicity
 _atom_site_fract_x
 _atom_site_fract_y
 _atom_site_fract_z
 _atom_site_occupancy
  Th  Th0  1  0.000369  0.000737  0.492913  1
  Th  Th1  1  0.000369  0.000737  0.007087  1
  Th  Th2  1  0.666242  0.332483  0.750000  1
  Cd  Cd3  1  0.333281  0.666563  0.250000  1
  Pd  Pd4  1  0.499427  0.501188  0.497884  1
  Pd  Pd5  1  0.499133  0.998265  0.497580  1
  Pd  Pd6  1  0.001762  0.501188  0.497884  1
  Pd  Pd7  1  0.499427  0.501188  0.002116  1
  Pd  Pd8  1  0.499133  0.998265  0.002420  1
  Pd  Pd9  1  0.001762  0.501188  0.002116  1
  Pd  Pd10  1  0.824808  0.649616  0.250000  1
  Pd  Pd11  1  0.349631  0.174858  0.250000  1
  Pd  Pd12  1  0.825226  0.174858  0.250000  1
  Pd  Pd13  1  0.654923  0.827530  0.750000  1
  Pd  Pd14  1  0.172607  0.827530  0.750000  1
  Pt  Pt15  1  0.171903  0.343805  0.750000  1
