# generated using pymatgen
data_CaTb2Ho4Co6Sn23
_symmetry_space_group_name_H-M   'P 1'
_cell_length_a   9.72023702
_cell_length_b   9.71943508
_cell_length_c   9.95541701
_cell_angle_alpha   90.00000200
_cell_angle_beta   89.99644145
_cell_angle_gamma   119.99726717
_symmetry_Int_Tables_number   1
_chemical_formula_structural   CaTb2Ho4Co6Sn23
_chemical_formula_sum   'Ca1 Tb2 Ho4 Co6 Sn23'
_cell_volume   814.55408059
_cell_formula_units_Z   1
loop_
 _symmetry_equiv_pos_site_id
 _symmetry_equiv_pos_as_xyz
  1  'x, y, z'
loop_
 _atom_site_type_symbol
 _atom_site_label
 _atom_site_symmetry_multiplicity
 _atom_site_fract_x
 _atom_site_fract_y
 _atom_site_fract_z
 _atom_site_occupancy
  Ca  Ca0  1  0.999978  0.999989  0.000020  1
  Tb  Tb1  1  0.521068  0.478990  0.693638  1
  Tb  Tb2  1  0.521068  0.042079  0.693638  1
  Ho  Ho3  1  0.958342  0.479171  0.693681  1
  Ho  Ho4  1  0.041676  0.520838  0.306313  1
  Ho  Ho5  1  0.479098  0.958297  0.306272  1
  Ho  Ho6  1  0.479098  0.520800  0.306272  1
  Co  Co7  1  0.168442  0.831167  0.801469  1
  Co  Co8  1  0.168442  0.337274  0.801469  1
  Co  Co9  1  0.662883  0.831441  0.801541  1
  Co  Co10  1  0.337289  0.168645  0.198593  1
  Co  Co11  1  0.831316  0.662670  0.198627  1
  Co  Co12  1  0.831316  0.168647  0.198627  1
  Sn  Sn13  1  0.666673  0.333336  0.183350  1
  Sn  Sn14  1  0.667102  0.333551  0.881404  1
  Sn  Sn15  1  0.333317  0.666659  0.119169  1
  Sn  Sn16  1  0.346111  0.346152  0.000113  1
  Sn  Sn17  1  0.999977  0.653867  0.000025  1
  Sn  Sn18  1  0.653887  0.000044  0.000093  1
  Sn  Sn19  1  0.653887  0.653843  0.000093  1
  Sn  Sn20  1  0.333228  0.666614  0.816711  1
  Sn  Sn21  1  0.437226  0.218614  0.451639  1
  Sn  Sn22  1  0.218299  0.781117  0.547869  1
  Sn  Sn23  1  0.218299  0.437179  0.547869  1
  Sn  Sn24  1  0.562795  0.781396  0.547695  1
  Sn  Sn25  1  0.117523  0.882413  0.274070  1
  Sn  Sn26  1  0.781517  0.562801  0.451790  1
  Sn  Sn27  1  0.781517  0.218718  0.451790  1
  Sn  Sn28  1  0.346111  0.999959  0.000113  1
  Sn  Sn29  1  0.117523  0.235111  0.274070  1
  Sn  Sn30  1  0.765055  0.882528  0.274041  1
  Sn  Sn31  1  0.234468  0.117234  0.726008  1
  Sn  Sn32  1  0.882758  0.765117  0.725949  1
  Sn  Sn33  1  0.882758  0.117640  0.725949  1
  Sn  Sn34  1  0.999973  0.999986  0.500003  1
  Sn  Sn35  1  0.999977  0.346110  0.000025  1
