# generated using pymatgen
data_YbY3Pt2(RhO7)2
_symmetry_space_group_name_H-M   'P 1'
_cell_length_a   7.29401587
_cell_length_b   7.25232123
_cell_length_c   7.25896377
_cell_angle_alpha   59.60598132
_cell_angle_beta   59.84013095
_cell_angle_gamma   59.80964004
_symmetry_Int_Tables_number   1
_chemical_formula_structural   YbY3Pt2(RhO7)2
_chemical_formula_sum   'Yb1 Y3 Pt2 Rh2 O14'
_cell_volume   269.98870563
_cell_formula_units_Z   1
loop_
 _symmetry_equiv_pos_site_id
 _symmetry_equiv_pos_as_xyz
  1  'x, y, z'
loop_
 _atom_site_type_symbol
 _atom_site_label
 _atom_site_symmetry_multiplicity
 _atom_site_fract_x
 _atom_site_fract_y
 _atom_site_fract_z
 _atom_site_occupancy
  Yb  Yb0  1  0.125000  0.625000  0.125000  1
  Y  Y1  1  0.125000  0.125000  0.625000  1
  Y  Y2  1  0.625000  0.125000  0.125000  1
  Y  Y3  1  0.125000  0.125000  0.125000  1
  Pt  Pt4  1  0.625000  0.625000  0.125000  1
  Pt  Pt5  1  0.625000  0.125000  0.625000  1
  Rh  Rh6  1  0.625000  0.625000  0.625000  1
  Rh  Rh7  1  0.125000  0.625000  0.625000  1
  O  O8  1  0.293758  0.709698  0.702787  1
  O  O9  1  0.534404  0.965877  0.965316  1
  O  O10  1  0.708367  0.710902  0.290917  1
  O  O11  1  0.288787  0.287493  0.710325  1
  O  O12  1  0.997546  0.006407  0.998500  1
  O  O13  1  0.289815  0.710902  0.290917  1
  O  O14  1  0.713396  0.287493  0.710325  1
  O  O15  1  0.960185  0.539098  0.959083  1
  O  O16  1  0.541633  0.539098  0.959083  1
  O  O17  1  0.961213  0.962507  0.539675  1
  O  O18  1  0.252454  0.243593  0.251500  1
  O  O19  1  0.536604  0.962507  0.539675  1
  O  O20  1  0.715596  0.284123  0.284684  1
  O  O21  1  0.956242  0.540302  0.547213  1
