# generated using pymatgen
data_Sm5(TcB3)2
_symmetry_space_group_name_H-M   'P 1'
_cell_length_a   8.65634071
_cell_length_b   8.65634053
_cell_length_c   8.65634097
_cell_angle_alpha   37.62584676
_cell_angle_beta   37.62584803
_cell_angle_gamma   37.62584779
_symmetry_Int_Tables_number   1
_chemical_formula_structural   Sm5(TcB3)2
_chemical_formula_sum   'Sm5 Tc2 B6'
_cell_volume   216.86284048
_cell_formula_units_Z   1
loop_
 _symmetry_equiv_pos_site_id
 _symmetry_equiv_pos_as_xyz
  1  'x, y, z'
loop_
 _atom_site_type_symbol
 _atom_site_label
 _atom_site_symmetry_multiplicity
 _atom_site_fract_x
 _atom_site_fract_y
 _atom_site_fract_z
 _atom_site_occupancy
  Sm  Sm0  1  0.581907  0.581907  0.581907  1
  Sm  Sm1  1  0.418093  0.418093  0.418093  1
  Sm  Sm2  1  0.751068  0.751068  0.751068  1
  Sm  Sm3  1  0.248932  0.248932  0.248932  1
  Sm  Sm4  1  0.000000  0.000000  0.000000  1
  Tc  Tc5  1  0.887057  0.887057  0.887057  1
  Tc  Tc6  1  0.112943  0.112943  0.112943  1
  B  B7  1  0.500000  0.830466  0.169534  1
  B  B8  1  0.169534  0.500000  0.830466  1
  B  B9  1  0.830466  0.169534  0.500000  1
  B  B10  1  0.500000  0.169534  0.830466  1
  B  B11  1  0.830466  0.500000  0.169534  1
  B  B12  1  0.169534  0.830466  0.500000  1
