# generated using pymatgen
data_LuB3W
_symmetry_space_group_name_H-M   'P 1'
_cell_length_a   5.39212065
_cell_length_b   3.14035700
_cell_length_c   6.75363020
_cell_angle_alpha   90.00000000
_cell_angle_beta   101.40302308
_cell_angle_gamma   90.00000000
_symmetry_Int_Tables_number   1
_chemical_formula_structural   LuB3W
_chemical_formula_sum   'Lu2 B6 W2'
_cell_volume   112.10307118
_cell_formula_units_Z   2
loop_
 _symmetry_equiv_pos_site_id
 _symmetry_equiv_pos_as_xyz
  1  'x, y, z'
loop_
 _atom_site_type_symbol
 _atom_site_label
 _atom_site_symmetry_multiplicity
 _atom_site_fract_x
 _atom_site_fract_y
 _atom_site_fract_z
 _atom_site_occupancy
  Lu  Lu0  1  0.321452  0.750001  0.291116  1
  Lu  Lu1  1  0.678548  0.250000  0.708884  1
  B  B2  1  0.087647  0.250000  0.006116  1
  B  B3  1  0.416779  0.250000  0.008463  1
  B  B4  1  0.913730  0.750001  0.477309  1
  B  B5  1  0.086269  0.250000  0.522691  1
  B  B6  1  0.583220  0.750001  0.991537  1
  B  B7  1  0.912354  0.750001  0.993884  1
  W  W8  1  0.809626  0.250000  0.222093  1
  W  W9  1  0.190373  0.750001  0.777907  1
