# generated using pymatgen
data_Y7ErTi12Si15P
_symmetry_space_group_name_H-M   'P 1'
_cell_length_a   7.04180495
_cell_length_b   7.04627921
_cell_length_c   12.95371166
_cell_angle_alpha   89.99547984
_cell_angle_beta   89.94622145
_cell_angle_gamma   89.96215005
_symmetry_Int_Tables_number   1
_chemical_formula_structural   Y7ErTi12Si15P
_chemical_formula_sum   'Y7 Er1 Ti12 Si15 P1'
_cell_volume   642.74362507
_cell_formula_units_Z   1
loop_
 _symmetry_equiv_pos_site_id
 _symmetry_equiv_pos_as_xyz
  1  'x, y, z'
loop_
 _atom_site_type_symbol
 _atom_site_label
 _atom_site_symmetry_multiplicity
 _atom_site_fract_x
 _atom_site_fract_y
 _atom_site_fract_z
 _atom_site_occupancy
  Y  Y0  1  0.340643  0.003310  0.467738  1
  Y  Y1  1  0.494180  0.844219  0.716886  1
  Y  Y2  1  0.502906  0.159056  0.216244  1
  Y  Y3  1  0.840422  0.496980  0.283379  1
  Y  Y4  1  0.158908  0.499064  0.782412  1
  Y  Y5  1  0.659742  0.995859  0.966778  1
  Y  Y6  1  0.003963  0.339678  0.534545  1
  Er  Er7  1  0.998222  0.659069  0.033182  1
  Ti  Ti8  1  0.325695  0.326766  0.999256  1
  Ti  Ti9  1  0.173007  0.826558  0.249876  1
  Ti  Ti10  1  0.827580  0.173203  0.749605  1
  Ti  Ti11  1  0.673406  0.673313  0.500219  1
  Ti  Ti12  1  0.153099  0.009882  0.873042  1
  Ti  Ti13  1  0.491823  0.652134  0.125578  1
  Ti  Ti14  1  0.506212  0.345127  0.627263  1
  Ti  Ti15  1  0.653304  0.494145  0.874125  1
  Ti  Ti16  1  0.347667  0.507527  0.373913  1
  Ti  Ti17  1  0.847900  0.991717  0.376116  1
  Ti  Ti18  1  0.007722  0.151288  0.123705  1
  Ti  Ti19  1  0.994535  0.849999  0.625127  1
  Si  Si20  1  0.367454  0.702534  0.933825  1
  Si  Si21  1  0.630240  0.298190  0.435516  1
  Si  Si22  1  0.703405  0.370821  0.065514  1
  Si  Si23  1  0.298111  0.630268  0.565565  1
  Si  Si24  1  0.797768  0.868584  0.184089  1
  Si  Si25  1  0.130612  0.202374  0.315734  1
  Si  Si26  1  0.870166  0.796809  0.815505  1
  Si  Si27  1  0.289687  0.951915  0.063696  1
  Si  Si28  1  0.546998  0.790593  0.314672  1
  Si  Si29  1  0.458173  0.211242  0.817175  1
  Si  Si30  1  0.789369  0.547820  0.684899  1
  Si  Si31  1  0.208741  0.453019  0.184951  1
  Si  Si32  1  0.709706  0.046408  0.564479  1
  Si  Si33  1  0.953201  0.291464  0.935643  1
  Si  Si34  1  0.047106  0.709136  0.435872  1
  P  P35  1  0.198327  0.129935  0.683876  1
