# generated using pymatgen
data_Hf18Ta3Ga2Re5
_symmetry_space_group_name_H-M   'P 1'
_cell_length_a   8.69796300
_cell_length_b   8.69389743
_cell_length_c   8.72190007
_cell_angle_alpha   119.89322196
_cell_angle_beta   90.00000000
_cell_angle_gamma   90.00000000
_symmetry_Int_Tables_number   1
_chemical_formula_structural   Hf18Ta3Ga2Re5
_chemical_formula_sum   'Hf18 Ta3 Ga2 Re5'
_cell_volume   571.79464964
_cell_formula_units_Z   1
loop_
 _symmetry_equiv_pos_site_id
 _symmetry_equiv_pos_as_xyz
  1  'x, y, z'
loop_
 _atom_site_type_symbol
 _atom_site_label
 _atom_site_symmetry_multiplicity
 _atom_site_fract_x
 _atom_site_fract_y
 _atom_site_fract_z
 _atom_site_occupancy
  Hf  Hf0  1  0.547918  0.803863  0.607721  1
  Hf  Hf1  1  0.543878  0.802917  0.197320  1
  Hf  Hf2  1  0.543877  0.394381  0.197311  1
  Hf  Hf3  1  0.449064  0.196582  0.393145  1
  Hf  Hf4  1  0.451700  0.195437  0.804469  1
  Hf  Hf5  1  0.451690  0.609052  0.804496  1
  Hf  Hf6  1  0.050936  0.196582  0.393145  1
  Hf  Hf7  1  0.048300  0.195437  0.804469  1
  Hf  Hf8  1  0.048310  0.609052  0.804496  1
  Hf  Hf9  1  0.952082  0.803863  0.607721  1
  Hf  Hf10  1  0.956122  0.802917  0.197320  1
  Hf  Hf11  1  0.956123  0.394381  0.197311  1
  Hf  Hf12  1  0.750000  0.459527  0.919050  1
  Hf  Hf13  1  0.750000  0.462088  0.542265  1
  Hf  Hf14  1  0.750000  0.080168  0.542278  1
  Hf  Hf15  1  0.250000  0.540763  0.081523  1
  Hf  Hf16  1  0.250000  0.542647  0.459593  1
  Hf  Hf17  1  0.250000  0.916944  0.459591  1
  Ta  Ta18  1  0.750000  0.110999  0.222030  1
  Ta  Ta19  1  0.497605  0.999015  0.998018  1
  Ta  Ta20  1  0.002395  0.999015  0.998018  1
  Ga  Ga21  1  0.750000  0.666766  0.333572  1
  Ga  Ga22  1  0.250000  0.334628  0.669230  1
  Re  Re23  1  0.750000  0.111308  0.885084  1
  Re  Re24  1  0.750000  0.773771  0.885116  1
  Re  Re25  1  0.250000  0.886723  0.773410  1
  Re  Re26  1  0.250000  0.886114  0.111140  1
  Re  Re27  1  0.250000  0.225062  0.111155  1
