# generated using pymatgen
data_Nd20Sn7GeSb8
_symmetry_space_group_name_H-M   'P 1'
_cell_length_a   8.33521031
_cell_length_b   8.40208915
_cell_length_c   15.92645800
_cell_angle_alpha   90.00000000
_cell_angle_beta   90.00000000
_cell_angle_gamma   90.08361562
_symmetry_Int_Tables_number   1
_chemical_formula_structural   Nd20Sn7GeSb8
_chemical_formula_sum   'Nd20 Sn7 Ge1 Sb8'
_cell_volume   1115.37931343
_cell_formula_units_Z   1
loop_
 _symmetry_equiv_pos_site_id
 _symmetry_equiv_pos_as_xyz
  1  'x, y, z'
loop_
 _atom_site_type_symbol
 _atom_site_label
 _atom_site_symmetry_multiplicity
 _atom_site_fract_x
 _atom_site_fract_y
 _atom_site_fract_z
 _atom_site_occupancy
  Nd  Nd0  1  0.049774  0.173369  0.393930  1
  Nd  Nd1  1  0.392246  0.835203  0.117793  1
  Nd  Nd2  1  0.107351  0.336907  0.618505  1
  Nd  Nd3  1  0.456382  0.681736  0.890384  1
  Nd  Nd4  1  0.892988  0.662671  0.116666  1
  Nd  Nd5  1  0.107351  0.336907  0.881495  1
  Nd  Nd6  1  0.220866  0.495622  0.250000  1
  Nd  Nd7  1  0.720218  0.001952  0.250000  1
  Nd  Nd8  1  0.456382  0.681736  0.609616  1
  Nd  Nd9  1  0.284293  0.996667  0.750000  1
  Nd  Nd10  1  0.608668  0.159881  0.620471  1
  Nd  Nd11  1  0.777371  0.511112  0.750000  1
  Nd  Nd12  1  0.892988  0.662671  0.383334  1
  Nd  Nd13  1  0.049774  0.173369  0.106070  1
  Nd  Nd14  1  0.945410  0.827707  0.890746  1
  Nd  Nd15  1  0.608668  0.159881  0.879529  1
  Nd  Nd16  1  0.549603  0.324413  0.105622  1
  Nd  Nd17  1  0.392246  0.835203  0.382207  1
  Nd  Nd18  1  0.945410  0.827707  0.609254  1
  Nd  Nd19  1  0.549603  0.324413  0.394378  1
  Sn  Sn20  1  0.851366  0.361768  0.250000  1
  Sn  Sn21  1  0.591971  0.621536  0.250000  1
  Sn  Sn22  1  0.409144  0.378961  0.750000  1
  Sn  Sn23  1  0.149637  0.638608  0.750000  1
  Sn  Sn24  1  0.907559  0.120960  0.750000  1
  Sn  Sn25  1  0.351328  0.136387  0.250000  1
  Sn  Sn26  1  0.090697  0.875448  0.250000  1
  Ge  Ge27  1  0.645312  0.864733  0.750000  1
  Sb  Sb28  1  0.766187  0.479296  0.547579  1
  Sb  Sb29  1  0.731830  0.979170  0.454181  1
  Sb  Sb30  1  0.234304  0.518659  0.454470  1
  Sb  Sb31  1  0.265374  0.019112  0.953073  1
  Sb  Sb32  1  0.766187  0.479296  0.952421  1
  Sb  Sb33  1  0.234304  0.518659  0.045530  1
  Sb  Sb34  1  0.265374  0.019112  0.546927  1
  Sb  Sb35  1  0.731830  0.979170  0.045819  1
