# generated using pymatgen
data_Er5TmMoO12
_symmetry_space_group_name_H-M   'P 1'
_cell_length_a   6.41686511
_cell_length_b   6.41938027
_cell_length_c   6.42081845
_cell_angle_alpha   98.67822971
_cell_angle_beta   98.65713188
_cell_angle_gamma   98.71578587
_symmetry_Int_Tables_number   1
_chemical_formula_structural   Er5TmMoO12
_chemical_formula_sum   'Er5 Tm1 Mo1 O12'
_cell_volume   254.33976441
_cell_formula_units_Z   1
loop_
 _symmetry_equiv_pos_site_id
 _symmetry_equiv_pos_as_xyz
  1  'x, y, z'
loop_
 _atom_site_type_symbol
 _atom_site_label
 _atom_site_symmetry_multiplicity
 _atom_site_fract_x
 _atom_site_fract_y
 _atom_site_fract_z
 _atom_site_occupancy
  Er  Er0  1  0.682679  0.855807  0.388704  1
  Er  Er1  1  0.388550  0.682772  0.856100  1
  Er  Er2  1  0.856221  0.389001  0.682590  1
  Er  Er3  1  0.316888  0.143817  0.610824  1
  Er  Er4  1  0.611287  0.317650  0.144100  1
  Tm  Tm5  1  0.144428  0.610861  0.318378  1
  Mo  Mo6  1  0.000272  0.000206  0.000454  1
  O  O7  1  0.429149  0.589603  0.178059  1
  O  O8  1  0.177592  0.430824  0.588526  1
  O  O9  1  0.589867  0.177593  0.430563  1
  O  O10  1  0.569380  0.410359  0.822543  1
  O  O11  1  0.823729  0.569838  0.409640  1
  O  O12  1  0.409206  0.821935  0.568739  1
  O  O13  1  0.921191  0.036153  0.701729  1
  O  O14  1  0.964759  0.298970  0.079620  1
  O  O15  1  0.298521  0.078825  0.963863  1
  O  O16  1  0.078903  0.962923  0.298275  1
  O  O17  1  0.035973  0.701628  0.921250  1
  O  O18  1  0.701407  0.921234  0.036043  1
