# generated using pymatgen
data_La3Ag(SnAu)5
_symmetry_space_group_name_H-M   'P 1'
_cell_length_a   4.71093800
_cell_length_b   10.18995700
_cell_length_c   13.90713800
_cell_angle_alpha   90.00000000
_cell_angle_beta   90.00000000
_cell_angle_gamma   90.00000000
_symmetry_Int_Tables_number   1
_chemical_formula_structural   La3Ag(SnAu)5
_chemical_formula_sum   'La6 Ag2 Sn10 Au10'
_cell_volume   667.60180791
_cell_formula_units_Z   2
loop_
 _symmetry_equiv_pos_site_id
 _symmetry_equiv_pos_as_xyz
  1  'x, y, z'
loop_
 _atom_site_type_symbol
 _atom_site_label
 _atom_site_symmetry_multiplicity
 _atom_site_fract_x
 _atom_site_fract_y
 _atom_site_fract_z
 _atom_site_occupancy
  La  La0  1  0.000000  0.746337  0.806969  1
  La  La1  1  0.000000  0.746337  0.193031  1
  La  La2  1  0.500000  0.253663  0.693031  1
  La  La3  1  0.500000  0.253663  0.306969  1
  La  La4  1  0.000000  0.742785  0.500000  1
  La  La5  1  0.500000  0.257215  0.000000  1
  Ag  Ag6  1  0.000000  0.548214  0.000000  1
  Ag  Ag7  1  0.500000  0.451786  0.500000  1
  Sn  Sn8  1  0.000000  0.383128  0.840126  1
  Sn  Sn9  1  0.000000  0.383128  0.159874  1
  Sn  Sn10  1  0.500000  0.616872  0.659874  1
  Sn  Sn11  1  0.500000  0.616872  0.340126  1
  Sn  Sn12  1  0.000000  0.023438  0.359446  1
  Sn  Sn13  1  0.000000  0.023438  0.640554  1
  Sn  Sn14  1  0.500000  0.976562  0.140554  1
  Sn  Sn15  1  0.500000  0.976562  0.859446  1
  Sn  Sn16  1  0.000000  0.272003  0.500000  1
  Sn  Sn17  1  0.500000  0.727997  0.000000  1
  Au  Au18  1  0.000000  0.117400  0.839469  1
  Au  Au19  1  0.000000  0.117400  0.160531  1
  Au  Au20  1  0.500000  0.882600  0.660531  1
  Au  Au21  1  0.500000  0.882600  0.339469  1
  Au  Au22  1  0.000000  0.474135  0.354947  1
  Au  Au23  1  0.000000  0.474135  0.645053  1
  Au  Au24  1  0.500000  0.525865  0.145053  1
  Au  Au25  1  0.500000  0.525865  0.854947  1
  Au  Au26  1  0.000000  0.925747  0.000000  1
  Au  Au27  1  0.500000  0.074253  0.500000  1
