# generated using pymatgen
data_HoTm2Co8MoP6
_symmetry_space_group_name_H-M   'P 1'
_cell_length_a   3.69646300
_cell_length_b   10.50242600
_cell_length_c   12.17618200
_cell_angle_alpha   90.00000000
_cell_angle_beta   90.00000000
_cell_angle_gamma   90.00000000
_symmetry_Int_Tables_number   1
_chemical_formula_structural   HoTm2Co8MoP6
_chemical_formula_sum   'Ho2 Tm4 Co16 Mo2 P12'
_cell_volume   472.70165693
_cell_formula_units_Z   2
loop_
 _symmetry_equiv_pos_site_id
 _symmetry_equiv_pos_as_xyz
  1  'x, y, z'
loop_
 _atom_site_type_symbol
 _atom_site_label
 _atom_site_symmetry_multiplicity
 _atom_site_fract_x
 _atom_site_fract_y
 _atom_site_fract_z
 _atom_site_occupancy
  Ho  Ho0  1  0.000000  0.500000  0.524703  1
  Ho  Ho1  1  0.500000  0.000000  0.475297  1
  Tm  Tm2  1  0.500000  0.819206  0.205050  1
  Tm  Tm3  1  0.500000  0.180794  0.205050  1
  Tm  Tm4  1  0.000000  0.680794  0.794950  1
  Tm  Tm5  1  0.000000  0.319206  0.794950  1
  Co  Co6  1  0.000000  0.500000  0.986043  1
  Co  Co7  1  0.500000  0.000000  0.013957  1
  Co  Co8  1  0.500000  0.295883  0.431324  1
  Co  Co9  1  0.500000  0.704117  0.431324  1
  Co  Co10  1  0.000000  0.204117  0.568676  1
  Co  Co11  1  0.000000  0.795883  0.568676  1
  Co  Co12  1  0.500000  0.877535  0.706775  1
  Co  Co13  1  0.500000  0.122465  0.706775  1
  Co  Co14  1  0.000000  0.622465  0.293225  1
  Co  Co15  1  0.000000  0.377535  0.293225  1
  Co  Co16  1  0.500000  0.332331  0.989936  1
  Co  Co17  1  0.500000  0.667669  0.989936  1
  Co  Co18  1  0.000000  0.167669  0.010064  1
  Co  Co19  1  0.000000  0.832331  0.010064  1
  Co  Co20  1  0.500000  0.500000  0.701656  1
  Co  Co21  1  0.000000  0.000000  0.298344  1
  Mo  Mo22  1  0.500000  0.500000  0.156478  1
  Mo  Mo23  1  0.000000  0.000000  0.843522  1
  P  P24  1  0.500000  0.311835  0.616542  1
  P  P25  1  0.500000  0.688165  0.616542  1
  P  P26  1  0.000000  0.188165  0.383458  1
  P  P27  1  0.000000  0.811835  0.383458  1
  P  P28  1  0.500000  0.500000  0.879985  1
  P  P29  1  0.000000  0.000000  0.120015  1
  P  P30  1  0.500000  0.843984  0.892329  1
  P  P31  1  0.500000  0.156016  0.892329  1
  P  P32  1  0.000000  0.656016  0.107671  1
  P  P33  1  0.000000  0.343984  0.107671  1
  P  P34  1  0.500000  0.500000  0.349959  1
  P  P35  1  0.000000  0.000000  0.650041  1
