# generated using pymatgen
data_CeCrCo2P3Rh2
_symmetry_space_group_name_H-M   'P 1'
_cell_length_a   3.78282200
_cell_length_b   10.72255500
_cell_length_c   12.31380400
_cell_angle_alpha   90.00000000
_cell_angle_beta   90.00000000
_cell_angle_gamma   90.00000000
_symmetry_Int_Tables_number   1
_chemical_formula_structural   CeCrCo2P3Rh2
_chemical_formula_sum   'Ce4 Cr4 Co8 P12 Rh8'
_cell_volume   499.46656967
_cell_formula_units_Z   4
loop_
 _symmetry_equiv_pos_site_id
 _symmetry_equiv_pos_as_xyz
  1  'x, y, z'
loop_
 _atom_site_type_symbol
 _atom_site_label
 _atom_site_symmetry_multiplicity
 _atom_site_fract_x
 _atom_site_fract_y
 _atom_site_fract_z
 _atom_site_occupancy
  Ce  Ce0  1  0.250000  0.581470  0.708378  1
  Ce  Ce1  1  0.250000  0.918530  0.208378  1
  Ce  Ce2  1  0.750000  0.418530  0.291622  1
  Ce  Ce3  1  0.750000  0.081470  0.791622  1
  Cr  Cr4  1  0.250000  0.705671  0.990352  1
  Cr  Cr5  1  0.250000  0.794329  0.490352  1
  Cr  Cr6  1  0.750000  0.294329  0.009648  1
  Cr  Cr7  1  0.750000  0.205671  0.509648  1
  Co  Co8  1  0.250000  0.884183  0.694776  1
  Co  Co9  1  0.250000  0.615817  0.194776  1
  Co  Co10  1  0.750000  0.115817  0.305224  1
  Co  Co11  1  0.750000  0.384183  0.805224  1
  Co  Co12  1  0.250000  0.465185  0.933657  1
  Co  Co13  1  0.250000  0.034815  0.433657  1
  Co  Co14  1  0.750000  0.534815  0.066343  1
  Co  Co15  1  0.750000  0.965185  0.566343  1
  P  P16  1  0.250000  0.428480  0.108528  1
  P  P17  1  0.250000  0.071520  0.608528  1
  P  P18  1  0.750000  0.571520  0.891472  1
  P  P19  1  0.750000  0.928480  0.391472  1
  P  P20  1  0.250000  0.277500  0.870640  1
  P  P21  1  0.250000  0.222500  0.370640  1
  P  P22  1  0.750000  0.722500  0.129360  1
  P  P23  1  0.750000  0.777500  0.629360  1
  P  P24  1  0.250000  0.603918  0.384800  1
  P  P25  1  0.250000  0.896082  0.884800  1
  P  P26  1  0.750000  0.396082  0.615200  1
  P  P27  1  0.750000  0.103918  0.115200  1
  Rh  Rh28  1  0.250000  0.404183  0.482782  1
  Rh  Rh29  1  0.250000  0.095817  0.982782  1
  Rh  Rh30  1  0.750000  0.595817  0.517218  1
  Rh  Rh31  1  0.750000  0.904183  0.017218  1
  Rh  Rh32  1  0.250000  0.225374  0.178932  1
  Rh  Rh33  1  0.250000  0.274626  0.678932  1
  Rh  Rh34  1  0.750000  0.774626  0.821068  1
  Rh  Rh35  1  0.750000  0.725374  0.321068  1
