# generated using pymatgen
data_Pr9NdIr6
_symmetry_space_group_name_H-M   'P 1'
_cell_length_a   11.34009600
_cell_length_b   11.34009600
_cell_length_c   6.64980900
_cell_angle_alpha   90.00000000
_cell_angle_beta   90.00000000
_cell_angle_gamma   90.00000000
_symmetry_Int_Tables_number   1
_chemical_formula_structural   Pr9NdIr6
_chemical_formula_sum   'Pr18 Nd2 Ir12'
_cell_volume   855.15065680
_cell_formula_units_Z   2
loop_
 _symmetry_equiv_pos_site_id
 _symmetry_equiv_pos_as_xyz
  1  'x, y, z'
loop_
 _atom_site_type_symbol
 _atom_site_label
 _atom_site_symmetry_multiplicity
 _atom_site_fract_x
 _atom_site_fract_y
 _atom_site_fract_z
 _atom_site_occupancy
  Pr  Pr0  1  0.090111  0.291865  0.117439  1
  Pr  Pr1  1  0.791865  0.409889  0.117439  1
  Pr  Pr2  1  0.208135  0.590111  0.117439  1
  Pr  Pr3  1  0.909889  0.708135  0.117439  1
  Pr  Pr4  1  0.409853  0.791774  0.382669  1
  Pr  Pr5  1  0.590147  0.208226  0.382669  1
  Pr  Pr6  1  0.291774  0.090147  0.382669  1
  Pr  Pr7  1  0.708226  0.909853  0.382669  1
  Pr  Pr8  1  0.409889  0.208135  0.882561  1
  Pr  Pr9  1  0.708135  0.090111  0.882561  1
  Pr  Pr10  1  0.291865  0.909889  0.882561  1
  Pr  Pr11  1  0.590111  0.791865  0.882561  1
  Pr  Pr12  1  0.090147  0.708226  0.617331  1
  Pr  Pr13  1  0.909853  0.291774  0.617331  1
  Pr  Pr14  1  0.208226  0.409853  0.617331  1
  Pr  Pr15  1  0.791774  0.590147  0.617331  1
  Pr  Pr16  1  0.000000  0.000000  0.000000  1
  Pr  Pr17  1  0.500000  0.500000  0.000000  1
  Nd  Nd18  1  0.500000  0.500000  0.500000  1
  Nd  Nd19  1  0.000000  0.000000  0.500000  1
  Ir  Ir20  1  0.153352  0.846625  0.250372  1
  Ir  Ir21  1  0.346625  0.346648  0.250372  1
  Ir  Ir22  1  0.653375  0.653352  0.250372  1
  Ir  Ir23  1  0.846648  0.153375  0.250372  1
  Ir  Ir24  1  0.346648  0.653375  0.749628  1
  Ir  Ir25  1  0.153375  0.153352  0.749628  1
  Ir  Ir26  1  0.846625  0.846648  0.749628  1
  Ir  Ir27  1  0.653352  0.346625  0.749628  1
  Ir  Ir28  1  0.000000  0.500000  0.379898  1
  Ir  Ir29  1  0.500000  0.000000  0.120032  1
  Ir  Ir30  1  0.500000  0.000000  0.620102  1
  Ir  Ir31  1  0.000000  0.500000  0.879968  1
