# generated using pymatgen
data_Er12Th4Cd4IrRu3
_symmetry_space_group_name_H-M   'P 1'
_cell_length_a   9.65332031
_cell_length_b   9.65149908
_cell_length_c   9.65149900
_cell_angle_alpha   59.99999685
_cell_angle_beta   60.00623760
_cell_angle_gamma   60.00624576
_symmetry_Int_Tables_number   1
_chemical_formula_structural   Er12Th4Cd4IrRu3
_chemical_formula_sum   'Er12 Th4 Cd4 Ir1 Ru3'
_cell_volume   635.90496902
_cell_formula_units_Z   1
loop_
 _symmetry_equiv_pos_site_id
 _symmetry_equiv_pos_as_xyz
  1  'x, y, z'
loop_
 _atom_site_type_symbol
 _atom_site_label
 _atom_site_symmetry_multiplicity
 _atom_site_fract_x
 _atom_site_fract_y
 _atom_site_fract_z
 _atom_site_occupancy
  Er  Er0  1  0.064505  0.437055  0.437055  1
  Er  Er1  1  0.436633  0.063535  0.063535  1
  Er  Er2  1  0.436633  0.063535  0.436297  1
  Er  Er3  1  0.064505  0.437055  0.061385  1
  Er  Er4  1  0.436633  0.436297  0.063535  1
  Er  Er5  1  0.064505  0.061385  0.437055  1
  Er  Er6  1  0.184287  0.815196  0.815196  1
  Er  Er7  1  0.813890  0.185251  0.185251  1
  Er  Er8  1  0.813890  0.185251  0.815607  1
  Er  Er9  1  0.184287  0.815196  0.185322  1
  Er  Er10  1  0.813890  0.815607  0.185251  1
  Er  Er11  1  0.184287  0.185322  0.815196  1
  Th  Th12  1  0.596710  0.600918  0.600918  1
  Th  Th13  1  0.596710  0.600918  0.201453  1
  Th  Th14  1  0.596710  0.201453  0.600918  1
  Th  Th15  1  0.204090  0.598637  0.598637  1
  Cd  Cd16  1  0.832288  0.832367  0.832367  1
  Cd  Cd17  1  0.832288  0.832367  0.502977  1
  Cd  Cd18  1  0.832288  0.502977  0.832367  1
  Cd  Cd19  1  0.502702  0.832433  0.832433  1
  Ir  Ir20  1  0.824133  0.391955  0.391955  1
  Ru  Ru21  1  0.394711  0.393057  0.393057  1
  Ru  Ru22  1  0.394711  0.393057  0.819172  1
  Ru  Ru23  1  0.394711  0.819172  0.393057  1
