# generated using pymatgen
data_Dy3Er13(In3Ni)2
_symmetry_space_group_name_H-M   'P 1'
_cell_length_a   10.36453500
_cell_length_b   10.36453422
_cell_length_c   6.91555700
_cell_angle_alpha   90.00000000
_cell_angle_beta   90.00000000
_cell_angle_gamma   119.99999929
_symmetry_Int_Tables_number   1
_chemical_formula_structural   Dy3Er13(In3Ni)2
_chemical_formula_sum   'Dy3 Er13 In6 Ni2'
_cell_volume   643.36497253
_cell_formula_units_Z   1
loop_
 _symmetry_equiv_pos_site_id
 _symmetry_equiv_pos_as_xyz
  1  'x, y, z'
loop_
 _atom_site_type_symbol
 _atom_site_label
 _atom_site_symmetry_multiplicity
 _atom_site_fract_x
 _atom_site_fract_y
 _atom_site_fract_z
 _atom_site_occupancy
  Dy  Dy0  1  0.532440  0.064881  0.524266  1
  Dy  Dy1  1  0.935119  0.467560  0.524266  1
  Dy  Dy2  1  0.532440  0.467560  0.524266  1
  Er  Er3  1  0.467369  0.934738  0.024213  1
  Er  Er4  1  0.065262  0.532631  0.024213  1
  Er  Er5  1  0.467369  0.532631  0.024213  1
  Er  Er6  1  0.177546  0.355093  0.730946  1
  Er  Er7  1  0.644907  0.822454  0.730946  1
  Er  Er8  1  0.177546  0.822454  0.730946  1
  Er  Er9  1  0.822528  0.645055  0.230112  1
  Er  Er10  1  0.354945  0.177472  0.230112  1
  Er  Er11  1  0.822528  0.177472  0.230112  1
  Er  Er12  1  0.666667  0.333333  0.909120  1
  Er  Er13  1  0.333333  0.666667  0.408447  1
  Er  Er14  1  0.000000  0.000000  0.506402  1
  Er  Er15  1  0.000000  0.000000  0.006717  1
  In  In16  1  0.837293  0.674585  0.767642  1
  In  In17  1  0.325415  0.162707  0.767642  1
  In  In18  1  0.837293  0.162707  0.767642  1
  In  In19  1  0.162907  0.325814  0.267183  1
  In  In20  1  0.674186  0.837093  0.267183  1
  In  In21  1  0.162907  0.837093  0.267183  1
  Ni  Ni22  1  0.666667  0.333333  0.295982  1
  Ni  Ni23  1  0.333333  0.666667  0.795926  1
