# generated using pymatgen
data_Pr4Nd6Si5Os
_symmetry_space_group_name_H-M   'P 1'
_cell_length_a   7.67234430
_cell_length_b   7.67234523
_cell_length_c   9.11431224
_cell_angle_alpha   114.89113569
_cell_angle_beta   114.89113735
_cell_angle_gamma   90.00000042
_symmetry_Int_Tables_number   1
_chemical_formula_structural   Pr4Nd6Si5Os
_chemical_formula_sum   'Pr4 Nd6 Si5 Os1'
_cell_volume   431.11535154
_cell_formula_units_Z   1
loop_
 _symmetry_equiv_pos_site_id
 _symmetry_equiv_pos_as_xyz
  1  'x, y, z'
loop_
 _atom_site_type_symbol
 _atom_site_label
 _atom_site_symmetry_multiplicity
 _atom_site_fract_x
 _atom_site_fract_y
 _atom_site_fract_z
 _atom_site_occupancy
  Pr  Pr0  1  0.018850  0.162166  0.711998  1
  Pr  Pr1  1  0.693148  0.549832  0.711998  1
  Pr  Pr2  1  0.162166  0.693148  0.711998  1
  Pr  Pr3  1  0.549832  0.018850  0.711998  1
  Nd  Nd4  1  0.469123  0.469123  0.938247  1
  Nd  Nd5  1  0.031858  0.031858  0.063714  1
  Nd  Nd6  1  0.947946  0.805209  0.286308  1
  Nd  Nd7  1  0.338362  0.481099  0.286308  1
  Nd  Nd8  1  0.805209  0.338362  0.286308  1
  Nd  Nd9  1  0.481099  0.947946  0.286308  1
  Si  Si10  1  0.249117  0.249117  0.498235  1
  Si  Si11  1  0.616595  0.885636  0.002166  1
  Si  Si12  1  0.385571  0.116530  0.002166  1
  Si  Si13  1  0.885636  0.385571  0.002166  1
  Si  Si14  1  0.116530  0.616595  0.002166  1
  Os  Os15  1  0.748958  0.748958  0.497917  1
