# generated using pymatgen
data_Lu9Hg4
_symmetry_space_group_name_H-M   'P 1'
_cell_length_a   8.59595728
_cell_length_b   8.59595857
_cell_length_c   8.59307994
_cell_angle_alpha   94.96932347
_cell_angle_beta   94.96682895
_cell_angle_gamma   145.77717709
_symmetry_Int_Tables_number   1
_chemical_formula_structural   Lu9Hg4
_chemical_formula_sum   'Lu9 Hg4'
_cell_volume   341.28409783
_cell_formula_units_Z   1
loop_
 _symmetry_equiv_pos_site_id
 _symmetry_equiv_pos_as_xyz
  1  'x, y, z'
loop_
 _atom_site_type_symbol
 _atom_site_label
 _atom_site_symmetry_multiplicity
 _atom_site_fract_x
 _atom_site_fract_y
 _atom_site_fract_z
 _atom_site_occupancy
  Lu  Lu0  1  0.499999  0.499999  0.000000  1
  Lu  Lu1  1  0.181980  0.888050  0.070032  1
  Lu  Lu2  1  0.111975  0.181967  0.293942  1
  Lu  Lu3  1  0.892249  0.399339  0.291591  1
  Lu  Lu4  1  0.600630  0.892220  0.492852  1
  Lu  Lu5  1  0.399369  0.107779  0.507147  1
  Lu  Lu6  1  0.107750  0.600660  0.708409  1
  Lu  Lu7  1  0.888024  0.818032  0.706058  1
  Lu  Lu8  1  0.818019  0.111949  0.929968  1
  Hg  Hg9  1  0.399666  0.738030  0.137698  1
  Hg  Hg10  1  0.738146  0.600451  0.338600  1
  Hg  Hg11  1  0.261853  0.399548  0.661400  1
  Hg  Hg12  1  0.600333  0.261969  0.862302  1
