# generated using pymatgen
data_Ti8Tc4Ir3Ru
_symmetry_space_group_name_H-M   'P 1'
_cell_length_a   6.19004900
_cell_length_b   4.38252900
_cell_length_c   8.77159500
_cell_angle_alpha   90.00000000
_cell_angle_beta   90.00040613
_cell_angle_gamma   90.00000000
_symmetry_Int_Tables_number   1
_chemical_formula_structural   Ti8Tc4Ir3Ru
_chemical_formula_sum   'Ti8 Tc4 Ir3 Ru1'
_cell_volume   237.95643662
_cell_formula_units_Z   1
loop_
 _symmetry_equiv_pos_site_id
 _symmetry_equiv_pos_as_xyz
  1  'x, y, z'
loop_
 _atom_site_type_symbol
 _atom_site_label
 _atom_site_symmetry_multiplicity
 _atom_site_fract_x
 _atom_site_fract_y
 _atom_site_fract_z
 _atom_site_occupancy
  Ti  Ti0  1  0.998441  0.750000  0.122959  1
  Ti  Ti1  1  0.501542  0.750000  0.122960  1
  Ti  Ti2  1  0.999681  0.250000  0.374998  1
  Ti  Ti3  1  0.500293  0.250000  0.375000  1
  Ti  Ti4  1  0.501565  0.750000  0.627046  1
  Ti  Ti5  1  0.998459  0.750000  0.627049  1
  Ti  Ti6  1  0.503081  0.250000  0.874997  1
  Ti  Ti7  1  0.996934  0.250000  0.875000  1
  Tc  Tc8  1  0.749988  0.250000  0.126368  1
  Tc  Tc9  1  0.249990  0.750000  0.374994  1
  Tc  Tc10  1  0.750013  0.250000  0.623636  1
  Tc  Tc11  1  0.250012  0.750000  0.874995  1
  Ir  Ir12  1  0.249989  0.250000  0.125283  1
  Ir  Ir13  1  0.749990  0.750000  0.375001  1
  Ir  Ir14  1  0.250009  0.250000  0.624716  1
  Ru  Ru15  1  0.750017  0.750000  0.874999  1
