# generated using pymatgen
data_Nd5In4PtAu
_symmetry_space_group_name_H-M   'P 1'
_cell_length_a   3.79990300
_cell_length_b   8.37102612
_cell_length_c   18.83331150
_cell_angle_alpha   90.16911546
_cell_angle_beta   90.00000000
_cell_angle_gamma   90.00000000
_symmetry_Int_Tables_number   1
_chemical_formula_structural   Nd5In4PtAu
_chemical_formula_sum   'Nd10 In8 Pt2 Au2'
_cell_volume   599.06783948
_cell_formula_units_Z   2
loop_
 _symmetry_equiv_pos_site_id
 _symmetry_equiv_pos_as_xyz
  1  'x, y, z'
loop_
 _atom_site_type_symbol
 _atom_site_label
 _atom_site_symmetry_multiplicity
 _atom_site_fract_x
 _atom_site_fract_y
 _atom_site_fract_z
 _atom_site_occupancy
  Nd  Nd0  1  0.000000  0.121431  0.419245  1
  Nd  Nd1  1  0.000000  0.878569  0.580755  1
  Nd  Nd2  1  0.000000  0.382270  0.916040  1
  Nd  Nd3  1  0.000000  0.617730  0.083960  1
  Nd  Nd4  1  0.000000  0.250990  0.216678  1
  Nd  Nd5  1  0.000000  0.749010  0.783322  1
  Nd  Nd6  1  0.000000  0.270071  0.719861  1
  Nd  Nd7  1  0.000000  0.729929  0.280139  1
  Nd  Nd8  1  0.000000  0.000000  0.000000  1
  Nd  Nd9  1  0.000000  0.500000  0.500000  1
  In  In10  1  0.500000  0.425169  0.351243  1
  In  In11  1  0.500000  0.574831  0.648757  1
  In  In12  1  0.500000  0.074813  0.851755  1
  In  In13  1  0.500000  0.925187  0.148245  1
  In  In14  1  0.500000  0.292078  0.067487  1
  In  In15  1  0.500000  0.707922  0.932513  1
  In  In16  1  0.500000  0.208764  0.568101  1
  In  In17  1  0.500000  0.791236  0.431899  1
  Pt  Pt18  1  0.500000  0.474701  0.803279  1
  Pt  Pt19  1  0.500000  0.525299  0.196721  1
  Au  Au20  1  0.500000  0.026784  0.302007  1
  Au  Au21  1  0.500000  0.973216  0.697993  1
