# generated using pymatgen
data_Sm2Cr3Co9As7
_symmetry_space_group_name_H-M   'P 1'
_cell_length_a   9.46296500
_cell_length_b   9.46296568
_cell_length_c   3.78029100
_cell_angle_alpha   90.00000000
_cell_angle_beta   90.00000000
_cell_angle_gamma   120.00000812
_symmetry_Int_Tables_number   1
_chemical_formula_structural   Sm2Cr3Co9As7
_chemical_formula_sum   'Sm2 Cr3 Co9 As7'
_cell_volume   293.16378968
_cell_formula_units_Z   1
loop_
 _symmetry_equiv_pos_site_id
 _symmetry_equiv_pos_as_xyz
  1  'x, y, z'
loop_
 _atom_site_type_symbol
 _atom_site_label
 _atom_site_symmetry_multiplicity
 _atom_site_fract_x
 _atom_site_fract_y
 _atom_site_fract_z
 _atom_site_occupancy
  Sm  Sm0  1  0.666667  0.333333  0.000000  1
  Sm  Sm1  1  0.333333  0.666667  0.500000  1
  Cr  Cr2  1  0.224414  0.108119  0.000000  1
  Cr  Cr3  1  0.891881  0.116296  0.000000  1
  Cr  Cr4  1  0.883704  0.775586  0.000000  1
  Co  Co5  1  0.428663  0.059398  0.500000  1
  Co  Co6  1  0.940602  0.369266  0.500000  1
  Co  Co7  1  0.630734  0.571337  0.500000  1
  Co  Co8  1  0.157497  0.279187  0.500000  1
  Co  Co9  1  0.720813  0.878309  0.500000  1
  Co  Co10  1  0.121691  0.842503  0.500000  1
  Co  Co11  1  0.383069  0.433907  0.000000  1
  Co  Co12  1  0.566093  0.949161  0.000000  1
  Co  Co13  1  0.050839  0.616931  0.000000  1
  As  As14  1  0.115352  0.406628  0.000000  1
  As  As15  1  0.593372  0.708723  0.000000  1
  As  As16  1  0.291277  0.884648  0.000000  1
  As  As17  1  0.000000  0.000000  0.500000  1
  As  As18  1  0.411997  0.300547  0.500000  1
  As  As19  1  0.699453  0.111449  0.500000  1
  As  As20  1  0.888551  0.588003  0.500000  1
