# generated using pymatgen
data_Ac8Y11ErPb16
_symmetry_space_group_name_H-M   'P 1'
_cell_length_a   8.51519413
_cell_length_b   8.55960658
_cell_length_c   16.26245800
_cell_angle_alpha   90.00000000
_cell_angle_beta   90.00000000
_cell_angle_gamma   90.06579716
_symmetry_Int_Tables_number   1
_chemical_formula_structural   Ac8Y11ErPb16
_chemical_formula_sum   'Ac8 Y11 Er1 Pb16'
_cell_volume   1185.31630667
_cell_formula_units_Z   1
loop_
 _symmetry_equiv_pos_site_id
 _symmetry_equiv_pos_as_xyz
  1  'x, y, z'
loop_
 _atom_site_type_symbol
 _atom_site_label
 _atom_site_symmetry_multiplicity
 _atom_site_fract_x
 _atom_site_fract_y
 _atom_site_fract_z
 _atom_site_occupancy
  Ac  Ac0  1  0.522160  0.323092  0.903876  1
  Ac  Ac1  1  0.022305  0.176806  0.595982  1
  Ac  Ac2  1  0.477763  0.676962  0.403709  1
  Ac  Ac3  1  0.977795  0.823386  0.096271  1
  Ac  Ac4  1  0.477763  0.676962  0.096291  1
  Ac  Ac5  1  0.977795  0.823386  0.403729  1
  Ac  Ac6  1  0.522160  0.323092  0.596124  1
  Ac  Ac7  1  0.022305  0.176806  0.904018  1
  Y  Y8  1  0.362675  0.843161  0.876857  1
  Y  Y9  1  0.862699  0.657012  0.623392  1
  Y  Y10  1  0.637014  0.156576  0.376495  1
  Y  Y11  1  0.137572  0.342993  0.123619  1
  Y  Y12  1  0.637014  0.156576  0.123505  1
  Y  Y13  1  0.137572  0.342993  0.376381  1
  Y  Y14  1  0.362675  0.843161  0.623143  1
  Y  Y15  1  0.862699  0.657012  0.876608  1
  Y  Y16  1  0.198190  0.504957  0.750000  1
  Y  Y17  1  0.698224  0.995085  0.750000  1
  Y  Y18  1  0.801855  0.495067  0.250000  1
  Er  Er19  1  0.301586  0.005497  0.250000  1
  Pb  Pb20  1  0.302355  0.044906  0.046309  1
  Pb  Pb21  1  0.802606  0.454524  0.454262  1
  Pb  Pb22  1  0.697567  0.954845  0.545617  1
  Pb  Pb23  1  0.197533  0.545283  0.954464  1
  Pb  Pb24  1  0.697567  0.954845  0.954383  1
  Pb  Pb25  1  0.197533  0.545283  0.545536  1
  Pb  Pb26  1  0.302355  0.044906  0.453691  1
  Pb  Pb27  1  0.802606  0.454524  0.045738  1
  Pb  Pb28  1  0.558303  0.635256  0.750000  1
  Pb  Pb29  1  0.058644  0.865080  0.750000  1
  Pb  Pb30  1  0.441352  0.364267  0.250000  1
  Pb  Pb31  1  0.942253  0.134610  0.250000  1
  Pb  Pb32  1  0.334138  0.144675  0.750000  1
  Pb  Pb33  1  0.834502  0.355034  0.750000  1
  Pb  Pb34  1  0.665024  0.855238  0.250000  1
  Pb  Pb35  1  0.165838  0.646144  0.250000  1
