# generated using pymatgen
data_HfNb2Ir8Rh
_symmetry_space_group_name_H-M   'P 1'
_cell_length_a   5.59224681
_cell_length_b   5.59209960
_cell_length_c   13.60240905
_cell_angle_alpha   89.97121960
_cell_angle_beta   90.02434826
_cell_angle_gamma   119.96758508
_symmetry_Int_Tables_number   1
_chemical_formula_structural   HfNb2Ir8Rh
_chemical_formula_sum   'Hf2 Nb4 Ir16 Rh2'
_cell_volume   368.51009601
_cell_formula_units_Z   2
loop_
 _symmetry_equiv_pos_site_id
 _symmetry_equiv_pos_as_xyz
  1  'x, y, z'
loop_
 _atom_site_type_symbol
 _atom_site_label
 _atom_site_symmetry_multiplicity
 _atom_site_fract_x
 _atom_site_fract_y
 _atom_site_fract_z
 _atom_site_occupancy
  Hf  Hf0  1  0.999886  0.999804  0.250117  1
  Hf  Hf1  1  0.001111  0.000647  0.749718  1
  Nb  Nb2  1  0.333590  0.666298  0.410659  1
  Nb  Nb3  1  0.665803  0.332594  0.589443  1
  Nb  Nb4  1  0.665844  0.332939  0.910287  1
  Nb  Nb5  1  0.333288  0.666563  0.089365  1
  Ir  Ir6  1  0.503490  0.496202  0.250278  1
  Ir  Ir7  1  0.503368  0.006833  0.249965  1
  Ir  Ir8  1  0.992707  0.496241  0.249976  1
  Ir  Ir9  1  0.495622  0.503573  0.749570  1
  Ir  Ir10  1  0.495885  0.992585  0.750065  1
  Ir  Ir11  1  0.167611  0.334685  0.918961  1
  Ir  Ir12  1  0.665763  0.833036  0.918464  1
  Ir  Ir13  1  0.168000  0.832963  0.919030  1
  Ir  Ir14  1  0.832819  0.665361  0.081339  1
  Ir  Ir15  1  0.335019  0.167506  0.081049  1
  Ir  Ir16  1  0.832831  0.167458  0.081380  1
  Ir  Ir17  1  0.833032  0.665847  0.418633  1
  Ir  Ir18  1  0.334569  0.167243  0.418925  1
  Ir  Ir19  1  0.832980  0.167421  0.419095  1
  Ir  Ir20  1  0.168308  0.335228  0.580965  1
  Ir  Ir21  1  0.664845  0.832424  0.581508  1
  Rh  Rh22  1  0.006175  0.503349  0.750029  1
  Rh  Rh23  1  0.167455  0.833201  0.581179  1
