# generated using pymatgen
data_Hf2BI2
_symmetry_space_group_name_H-M   'P 1'
_cell_length_a   3.67685800
_cell_length_b   3.67685849
_cell_length_c   10.96082500
_cell_angle_alpha   90.00000000
_cell_angle_beta   90.00000000
_cell_angle_gamma   119.99999559
_symmetry_Int_Tables_number   1
_chemical_formula_structural   Hf2BI2
_chemical_formula_sum   'Hf2 B1 I2'
_cell_volume   128.32984458
_cell_formula_units_Z   1
loop_
 _symmetry_equiv_pos_site_id
 _symmetry_equiv_pos_as_xyz
  1  'x, y, z'
loop_
 _atom_site_type_symbol
 _atom_site_label
 _atom_site_symmetry_multiplicity
 _atom_site_fract_x
 _atom_site_fract_y
 _atom_site_fract_z
 _atom_site_occupancy
  Hf  Hf0  1  0.333334  0.666668  0.390847  1
  Hf  Hf1  1  0.666668  0.333334  0.609152  1
  B  B2  1  0.000000  0.000000  0.500000  1
  I  I3  1  0.666668  0.333334  0.200616  1
  I  I4  1  0.333334  0.666668  0.799383  1
