# generated using pymatgen
data_PrU3(Si5Pt3)2
_symmetry_space_group_name_H-M   'P 1'
_cell_length_a   8.19289409
_cell_length_b   8.18844151
_cell_length_c   8.18844147
_cell_angle_alpha   135.82717731
_cell_angle_beta   104.88284055
_cell_angle_gamma   91.47620760
_symmetry_Int_Tables_number   1
_chemical_formula_structural   PrU3(Si5Pt3)2
_chemical_formula_sum   'Pr1 U3 Si10 Pt6'
_cell_volume   351.50833630
_cell_formula_units_Z   1
loop_
 _symmetry_equiv_pos_site_id
 _symmetry_equiv_pos_as_xyz
  1  'x, y, z'
loop_
 _atom_site_type_symbol
 _atom_site_label
 _atom_site_symmetry_multiplicity
 _atom_site_fract_x
 _atom_site_fract_y
 _atom_site_fract_z
 _atom_site_occupancy
  Pr  Pr0  1  0.602326  0.871725  0.730601  1
  U  U1  1  0.862157  0.631519  0.230637  1
  U  U2  1  0.138956  0.369651  0.769305  1
  U  U3  1  0.398544  0.128999  0.269545  1
  Si  Si4  1  0.499881  0.749956  0.246962  1
  Si  Si5  1  0.499881  0.252919  0.749925  1
  Si  Si6  1  0.226402  0.977781  0.750870  1
  Si  Si7  1  0.771894  0.521417  0.751236  1
  Si  Si8  1  0.771894  0.020658  0.250476  1
  Si  Si9  1  0.226402  0.475531  0.248620  1
  Si  Si10  1  0.038318  0.887902  0.150416  1
  Si  Si11  1  0.967263  0.116515  0.850748  1
  Si  Si12  1  0.737784  0.387074  0.350710  1
  Si  Si13  1  0.259431  0.609399  0.650033  1
  Pt  Pt14  1  0.998652  0.749732  0.749482  1
  Pt  Pt15  1  0.998652  0.249171  0.248920  1
  Pt  Pt16  1  0.252631  0.862551  0.390081  1
  Pt  Pt17  1  0.748677  0.137489  0.611187  1
  Pt  Pt18  1  0.474114  0.363049  0.111065  1
  Pt  Pt19  1  0.526142  0.636963  0.889180  1
