# generated using pymatgen
data_TaTiSnPb4WO13
_symmetry_space_group_name_H-M   'P 1'
_cell_length_a   7.48582006
_cell_length_b   7.56294479
_cell_length_c   7.48582100
_cell_angle_alpha   119.75195443
_cell_angle_beta   119.48944631
_cell_angle_gamma   90.36170965
_symmetry_Int_Tables_number   1
_chemical_formula_structural   TaTiSnPb4WO13
_chemical_formula_sum   'Ta1 Ti1 Sn1 Pb4 W1 O13'
_cell_volume   302.15279330
_cell_formula_units_Z   1
loop_
 _symmetry_equiv_pos_site_id
 _symmetry_equiv_pos_as_xyz
  1  'x, y, z'
loop_
 _atom_site_type_symbol
 _atom_site_label
 _atom_site_symmetry_multiplicity
 _atom_site_fract_x
 _atom_site_fract_y
 _atom_site_fract_z
 _atom_site_occupancy
  Ta  Ta0  1  0.249252  0.499493  0.749333  1
  Ti  Ti1  1  0.254622  0.513943  0.260112  1
  Sn  Sn2  1  0.248513  0.000221  0.751101  1
  Pb  Pb3  1  0.749524  0.000919  0.250979  1
  Pb  Pb4  1  0.751348  0.503608  0.752237  1
  Pb  Pb5  1  0.767206  0.018791  0.762803  1
  Pb  Pb6  1  0.256064  0.019681  0.252101  1
  W  W7  1  0.749707  0.499116  0.249348  1
  O  O8  1  0.168117  0.174767  0.006465  1
  O  O9  1  0.569181  0.565622  0.993479  1
  O  O10  1  0.181947  0.552294  0.994548  1
  O  O11  1  0.582174  0.174956  0.003950  1
  O  O12  1  0.176699  0.180010  0.599845  1
  O  O13  1  0.564796  0.555076  0.374886  1
  O  O14  1  0.313418  0.802395  0.488809  1
  O  O15  1  0.933501  0.435600  0.505502  1
  O  O16  1  0.314068  0.436841  0.499886  1
  O  O17  1  0.917385  0.818542  0.493011  1
  O  O18  1  0.319200  0.812648  0.892969  1
  O  O19  1  0.931483  0.436563  0.121034  1
  O  O20  1  0.876799  0.873921  0.997602  1
