# generated using pymatgen
data_Tb2Al20FeIrRu2
_symmetry_space_group_name_H-M   'P 1'
_cell_length_a   6.82490259
_cell_length_b   6.82801268
_cell_length_c   9.10372427
_cell_angle_alpha   90.14072493
_cell_angle_beta   89.91779752
_cell_angle_gamma   96.73897888
_symmetry_Int_Tables_number   1
_chemical_formula_structural   Tb2Al20FeIrRu2
_chemical_formula_sum   'Tb2 Al20 Fe1 Ir1 Ru2'
_cell_volume   421.30570381
_cell_formula_units_Z   1
loop_
 _symmetry_equiv_pos_site_id
 _symmetry_equiv_pos_as_xyz
  1  'x, y, z'
loop_
 _atom_site_type_symbol
 _atom_site_label
 _atom_site_symmetry_multiplicity
 _atom_site_fract_x
 _atom_site_fract_y
 _atom_site_fract_z
 _atom_site_occupancy
  Tb  Tb0  1  0.870896  0.126565  0.748886  1
  Tb  Tb1  1  0.129104  0.873435  0.251114  1
  Al  Al2  1  0.619089  0.372524  0.550208  1
  Al  Al3  1  0.380911  0.627476  0.449792  1
  Al  Al4  1  0.377621  0.623586  0.050433  1
  Al  Al5  1  0.622379  0.376414  0.949567  1
  Al  Al6  1  0.230847  0.220949  0.497852  1
  Al  Al7  1  0.769153  0.779051  0.502148  1
  Al  Al8  1  0.774009  0.775238  0.001114  1
  Al  Al9  1  0.225991  0.224762  0.998886  1
  Al  Al10  1  0.843531  0.156802  0.100452  1
  Al  Al11  1  0.156469  0.843198  0.899548  1
  Al  Al12  1  0.162559  0.846639  0.600490  1
  Al  Al13  1  0.837441  0.153361  0.399510  1
  Al  Al14  1  0.857371  0.588448  0.750896  1
  Al  Al15  1  0.142629  0.411552  0.249104  1
  Al  Al16  1  0.414468  0.139452  0.746876  1
  Al  Al17  1  0.585532  0.860548  0.253124  1
  Al  Al18  1  0.221856  0.480928  0.751824  1
  Al  Al19  1  0.778144  0.519072  0.248176  1
  Al  Al20  1  0.518458  0.780821  0.747239  1
  Al  Al21  1  0.481542  0.219179  0.252761  1
  Fe  Fe22  1  0.500000  0.000000  0.500000  1
  Ir  Ir23  1  0.000000  0.500000  0.500000  1
  Ru  Ru24  1  0.000000  0.500000  0.000000  1
  Ru  Ru25  1  0.500000  0.000000  0.000000  1
