# generated using pymatgen
data_Tm6Mn11P12Ir7
_symmetry_space_group_name_H-M   'P 1'
_cell_length_a   3.74464400
_cell_length_b   10.97414562
_cell_length_c   12.83261890
_cell_angle_alpha   89.50333109
_cell_angle_beta   90.00000000
_cell_angle_gamma   90.00000000
_symmetry_Int_Tables_number   1
_chemical_formula_structural   Tm6Mn11P12Ir7
_chemical_formula_sum   'Tm6 Mn11 P12 Ir7'
_cell_volume   527.32727434
_cell_formula_units_Z   1
loop_
 _symmetry_equiv_pos_site_id
 _symmetry_equiv_pos_as_xyz
  1  'x, y, z'
loop_
 _atom_site_type_symbol
 _atom_site_label
 _atom_site_symmetry_multiplicity
 _atom_site_fract_x
 _atom_site_fract_y
 _atom_site_fract_z
 _atom_site_occupancy
  Tm  Tm0  1  0.000000  0.500937  0.521792  1
  Tm  Tm1  1  0.500000  0.000003  0.476757  1
  Tm  Tm2  1  0.500000  0.819358  0.204703  1
  Tm  Tm3  1  0.500000  0.178136  0.206902  1
  Tm  Tm4  1  0.000000  0.681461  0.794787  1
  Tm  Tm5  1  0.000000  0.322165  0.794554  1
  Mn  Mn6  1  0.500000  0.498354  0.159684  1
  Mn  Mn7  1  0.000000  0.999146  0.838133  1
  Mn  Mn8  1  0.000000  0.499889  0.991236  1
  Mn  Mn9  1  0.500000  0.000195  0.010146  1
  Mn  Mn10  1  0.500000  0.333023  0.998034  1
  Mn  Mn11  1  0.500000  0.665573  0.997328  1
  Mn  Mn12  1  0.000000  0.166065  0.002825  1
  Mn  Mn13  1  0.000000  0.834017  0.003127  1
  Mn  Mn14  1  0.500000  0.295345  0.434497  1
  Mn  Mn15  1  0.500000  0.702585  0.431282  1
  Mn  Mn16  1  0.000000  0.206780  0.564676  1
  P  P17  1  0.500000  0.500478  0.885589  1
  P  P18  1  0.000000  0.998918  0.115019  1
  P  P19  1  0.500000  0.504865  0.358272  1
  P  P20  1  0.000000  0.006193  0.644692  1
  P  P21  1  0.500000  0.316844  0.614170  1
  P  P22  1  0.500000  0.684970  0.610810  1
  P  P23  1  0.000000  0.183058  0.385593  1
  P  P24  1  0.000000  0.806473  0.382101  1
  P  P25  1  0.500000  0.842883  0.894846  1
  P  P26  1  0.500000  0.158179  0.892420  1
  P  P27  1  0.000000  0.657133  0.106300  1
  P  P28  1  0.000000  0.341039  0.108315  1
  Ir  Ir29  1  0.500000  0.502232  0.702758  1
  Ir  Ir30  1  0.000000  0.996838  0.297745  1
  Ir  Ir31  1  0.000000  0.798583  0.567378  1
  Ir  Ir32  1  0.500000  0.876519  0.715273  1
  Ir  Ir33  1  0.500000  0.128485  0.709121  1
  Ir  Ir34  1  0.000000  0.621700  0.287183  1
  Ir  Ir35  1  0.000000  0.371578  0.291953  1
