# generated using pymatgen
data_NdDy4Hf3(Co4P3)4
_symmetry_space_group_name_H-M   'P 1'
_cell_length_a   12.30789800
_cell_length_b   12.30789758
_cell_length_c   3.71679900
_cell_angle_alpha   90.00000000
_cell_angle_beta   90.00000000
_cell_angle_gamma   119.99999039
_symmetry_Int_Tables_number   1
_chemical_formula_structural   NdDy4Hf3(Co4P3)4
_chemical_formula_sum   'Nd1 Dy4 Hf3 Co16 P12'
_cell_volume   487.60428251
_cell_formula_units_Z   1
loop_
 _symmetry_equiv_pos_site_id
 _symmetry_equiv_pos_as_xyz
  1  'x, y, z'
loop_
 _atom_site_type_symbol
 _atom_site_label
 _atom_site_symmetry_multiplicity
 _atom_site_fract_x
 _atom_site_fract_y
 _atom_site_fract_z
 _atom_site_occupancy
  Nd  Nd0  1  0.666667  0.333333  0.000000  1
  Dy  Dy1  1  0.333333  0.666667  0.000000  1
  Dy  Dy2  1  0.182677  0.182548  0.500000  1
  Dy  Dy3  1  0.817452  0.000129  0.500000  1
  Dy  Dy4  1  0.999871  0.817323  0.500000  1
  Hf  Hf5  1  0.558460  0.559707  0.000000  1
  Hf  Hf6  1  0.440293  0.998753  0.000000  1
  Hf  Hf7  1  0.001247  0.441540  0.000000  1
  Co  Co8  1  0.823497  0.194948  0.000000  1
  Co  Co9  1  0.805052  0.628549  0.000000  1
  Co  Co10  1  0.371451  0.176503  0.000000  1
  Co  Co11  1  0.195243  0.821585  0.000000  1
  Co  Co12  1  0.626343  0.804757  0.000000  1
  Co  Co13  1  0.178415  0.373657  0.000000  1
  Co  Co14  1  0.644840  0.121316  0.500000  1
  Co  Co15  1  0.878684  0.523524  0.500000  1
  Co  Co16  1  0.476476  0.355160  0.500000  1
  Co  Co17  1  0.125241  0.644091  0.500000  1
  Co  Co18  1  0.518850  0.874759  0.500000  1
  Co  Co19  1  0.355909  0.481150  0.500000  1
  Co  Co20  1  0.721399  0.722697  0.500000  1
  Co  Co21  1  0.277303  0.998702  0.500000  1
  Co  Co22  1  0.001298  0.278601  0.500000  1
  Co  Co23  1  0.000000  0.000000  0.000000  1
  P  P24  1  0.352164  0.352065  0.000000  1
  P  P25  1  0.647935  0.000099  0.000000  1
  P  P26  1  0.999901  0.647836  0.000000  1
  P  P27  1  0.831574  0.305897  0.500000  1
  P  P28  1  0.694103  0.525678  0.500000  1
  P  P29  1  0.474322  0.168426  0.500000  1
  P  P30  1  0.307056  0.828249  0.500000  1
  P  P31  1  0.521193  0.692944  0.500000  1
  P  P32  1  0.171751  0.478807  0.500000  1
  P  P33  1  0.821907  0.822693  0.000000  1
  P  P34  1  0.177307  0.999215  0.000000  1
  P  P35  1  0.000785  0.178093  0.000000  1
