# generated using pymatgen
data_Pr2Al14Rh3
_symmetry_space_group_name_H-M   'P 1'
_cell_length_a   6.93063215
_cell_length_b   6.93063256
_cell_length_c   6.93063200
_cell_angle_alpha   83.87542486
_cell_angle_beta   83.87542450
_cell_angle_gamma   83.87541924
_symmetry_Int_Tables_number   1
_chemical_formula_structural   Pr2Al14Rh3
_chemical_formula_sum   'Pr2 Al14 Rh3'
_cell_volume   327.58129817
_cell_formula_units_Z   1
loop_
 _symmetry_equiv_pos_site_id
 _symmetry_equiv_pos_as_xyz
  1  'x, y, z'
loop_
 _atom_site_type_symbol
 _atom_site_label
 _atom_site_symmetry_multiplicity
 _atom_site_fract_x
 _atom_site_fract_y
 _atom_site_fract_z
 _atom_site_occupancy
  Pr  Pr0  1  0.345780  0.345780  0.345780  1
  Pr  Pr1  1  0.654221  0.654221  0.654221  1
  Al  Al2  1  0.702927  0.297074  0.000000  1
  Al  Al3  1  0.297074  0.702927  0.000000  1
  Al  Al4  1  0.103428  0.103428  0.103428  1
  Al  Al5  1  0.655352  0.655352  0.147653  1
  Al  Al6  1  0.702927  0.000000  0.297074  1
  Al  Al7  1  0.000000  0.702927  0.297074  1
  Al  Al8  1  0.852348  0.344648  0.344647  1
  Al  Al9  1  0.344648  0.852348  0.344647  1
  Al  Al10  1  0.655352  0.147653  0.655353  1
  Al  Al11  1  0.147653  0.655352  0.655353  1
  Al  Al12  1  0.297074  0.000000  0.702927  1
  Al  Al13  1  0.000000  0.297074  0.702927  1
  Al  Al14  1  0.344648  0.344648  0.852347  1
  Al  Al15  1  0.896572  0.896572  0.896572  1
  Rh  Rh16  1  0.500001  0.000000  0.000000  1
  Rh  Rh17  1  0.000000  0.500001  0.000000  1
  Rh  Rh18  1  0.000000  0.000000  0.500000  1
