# generated using pymatgen
data_Tb2Co4P6IrRh5
_symmetry_space_group_name_H-M   'P 1'
_cell_length_a   3.81048700
_cell_length_b   10.62824400
_cell_length_c   12.22807700
_cell_angle_alpha   90.00000000
_cell_angle_beta   90.00000000
_cell_angle_gamma   90.00000000
_symmetry_Int_Tables_number   1
_chemical_formula_structural   Tb2Co4P6IrRh5
_chemical_formula_sum   'Tb4 Co8 P12 Ir2 Rh10'
_cell_volume   495.22226866
_cell_formula_units_Z   2
loop_
 _symmetry_equiv_pos_site_id
 _symmetry_equiv_pos_as_xyz
  1  'x, y, z'
loop_
 _atom_site_type_symbol
 _atom_site_label
 _atom_site_symmetry_multiplicity
 _atom_site_fract_x
 _atom_site_fract_y
 _atom_site_fract_z
 _atom_site_occupancy
  Tb  Tb0  1  0.250000  0.582077  0.708757  1
  Tb  Tb1  1  0.250000  0.917923  0.208757  1
  Tb  Tb2  1  0.750000  0.416040  0.290458  1
  Tb  Tb3  1  0.750000  0.083960  0.790458  1
  Co  Co4  1  0.250000  0.883242  0.696774  1
  Co  Co5  1  0.250000  0.616758  0.196774  1
  Co  Co6  1  0.750000  0.116526  0.303640  1
  Co  Co7  1  0.750000  0.383474  0.803640  1
  Co  Co8  1  0.250000  0.464118  0.933099  1
  Co  Co9  1  0.250000  0.035882  0.433099  1
  Co  Co10  1  0.750000  0.536888  0.066943  1
  Co  Co11  1  0.750000  0.963112  0.566943  1
  P  P12  1  0.250000  0.431146  0.110307  1
  P  P13  1  0.250000  0.068854  0.610307  1
  P  P14  1  0.750000  0.568930  0.889415  1
  P  P15  1  0.750000  0.931070  0.389415  1
  P  P16  1  0.250000  0.274644  0.871085  1
  P  P17  1  0.250000  0.225356  0.371085  1
  P  P18  1  0.750000  0.725814  0.129107  1
  P  P19  1  0.750000  0.774186  0.629107  1
  P  P20  1  0.250000  0.600013  0.380901  1
  P  P21  1  0.250000  0.899987  0.880901  1
  P  P22  1  0.750000  0.399052  0.619018  1
  P  P23  1  0.750000  0.100948  0.119018  1
  Ir  Ir24  1  0.750000  0.774491  0.820317  1
  Ir  Ir25  1  0.750000  0.725509  0.320317  1
  Rh  Rh26  1  0.250000  0.717497  0.990538  1
  Rh  Rh27  1  0.250000  0.782503  0.490538  1
  Rh  Rh28  1  0.750000  0.283966  0.009696  1
  Rh  Rh29  1  0.750000  0.216034  0.509696  1
  Rh  Rh30  1  0.250000  0.409071  0.479007  1
  Rh  Rh31  1  0.250000  0.090929  0.979007  1
  Rh  Rh32  1  0.750000  0.591217  0.521365  1
  Rh  Rh33  1  0.750000  0.908783  0.021365  1
  Rh  Rh34  1  0.250000  0.225564  0.179573  1
  Rh  Rh35  1  0.250000  0.274436  0.679573  1
