# generated using pymatgen
data_Ho2TmSi3Ru2
_symmetry_space_group_name_H-M   'P 1'
_cell_length_a   5.70898887
_cell_length_b   5.70898945
_cell_length_c   13.70420789
_cell_angle_alpha   90.18629754
_cell_angle_beta   89.81370130
_cell_angle_gamma   137.25582078
_symmetry_Int_Tables_number   1
_chemical_formula_structural   Ho2TmSi3Ru2
_chemical_formula_sum   'Ho4 Tm2 Si6 Ru4'
_cell_volume   303.15469875
_cell_formula_units_Z   2
loop_
 _symmetry_equiv_pos_site_id
 _symmetry_equiv_pos_as_xyz
  1  'x, y, z'
loop_
 _atom_site_type_symbol
 _atom_site_label
 _atom_site_symmetry_multiplicity
 _atom_site_fract_x
 _atom_site_fract_y
 _atom_site_fract_z
 _atom_site_occupancy
  Ho  Ho0  1  0.924240  0.075760  0.384984  1
  Ho  Ho1  1  0.075760  0.924240  0.615016  1
  Ho  Ho2  1  0.642396  0.357604  0.249212  1
  Ho  Ho3  1  0.357604  0.642396  0.750788  1
  Tm  Tm4  1  0.923640  0.076360  0.113579  1
  Tm  Tm5  1  0.076360  0.923640  0.886421  1
  Si  Si6  1  0.617200  0.382800  0.461479  1
  Si  Si7  1  0.382800  0.617200  0.538521  1
  Si  Si8  1  0.615944  0.384056  0.037755  1
  Si  Si9  1  0.384056  0.615944  0.962245  1
  Si  Si10  1  0.330874  0.669126  0.248952  1
  Si  Si11  1  0.669126  0.330874  0.751048  1
  Ru  Ru12  1  0.787767  0.212233  0.918913  1
  Ru  Ru13  1  0.212233  0.787767  0.081087  1
  Ru  Ru14  1  0.786326  0.213674  0.581617  1
  Ru  Ru15  1  0.213674  0.786326  0.418383  1
