# generated using pymatgen
data_Lu8V3Si16W9
_symmetry_space_group_name_H-M   'P 1'
_cell_length_a   6.66218474
_cell_length_b   6.84492667
_cell_length_c   12.82572844
_cell_angle_alpha   89.97322609
_cell_angle_beta   89.99712968
_cell_angle_gamma   89.96016776
_symmetry_Int_Tables_number   1
_chemical_formula_structural   Lu8V3Si16W9
_chemical_formula_sum   'Lu8 V3 Si16 W9'
_cell_volume   584.88079162
_cell_formula_units_Z   1
loop_
 _symmetry_equiv_pos_site_id
 _symmetry_equiv_pos_as_xyz
  1  'x, y, z'
loop_
 _atom_site_type_symbol
 _atom_site_label
 _atom_site_symmetry_multiplicity
 _atom_site_fract_x
 _atom_site_fract_y
 _atom_site_fract_z
 _atom_site_occupancy
  Lu  Lu0  1  0.495483  0.331402  0.092540  1
  Lu  Lu1  1  0.994691  0.168591  0.406683  1
  Lu  Lu2  1  0.504106  0.669184  0.593742  1
  Lu  Lu3  1  0.004752  0.831209  0.906456  1
  Lu  Lu4  1  0.502899  0.670514  0.906853  1
  Lu  Lu5  1  0.002680  0.829339  0.593843  1
  Lu  Lu6  1  0.496681  0.330860  0.406669  1
  Lu  Lu7  1  0.996119  0.169948  0.092188  1
  V  V8  1  0.668428  0.837244  0.125366  1
  V  V9  1  0.831999  0.336406  0.874366  1
  V  V10  1  0.332384  0.162978  0.625733  1
  Si  Si11  1  0.660721  0.043094  0.544823  1
  Si  Si12  1  0.159636  0.456979  0.955307  1
  Si  Si13  1  0.339859  0.957279  0.044923  1
  Si  Si14  1  0.837003  0.541548  0.455975  1
  Si  Si15  1  0.334181  0.960925  0.458202  1
  Si  Si16  1  0.832889  0.544071  0.043303  1
  Si  Si17  1  0.667761  0.044358  0.956969  1
  Si  Si18  1  0.167680  0.453042  0.544943  1
  Si  Si19  1  0.534442  0.373816  0.750307  1
  Si  Si20  1  0.034317  0.126874  0.750092  1
  Si  Si21  1  0.469196  0.626915  0.248115  1
  Si  Si22  1  0.963694  0.874041  0.248012  1
  Si  Si23  1  0.799461  0.632832  0.752294  1
  Si  Si24  1  0.299380  0.866774  0.748366  1
  Si  Si25  1  0.199817  0.362557  0.249827  1
  Si  Si26  1  0.699705  0.134090  0.248052  1
  W  W27  1  0.830883  0.336422  0.624277  1
  W  W28  1  0.331355  0.163750  0.875503  1
  W  W29  1  0.170295  0.662744  0.124370  1
  W  W30  1  0.668534  0.836954  0.376170  1
  W  W31  1  0.170312  0.663076  0.375201  1
  W  W32  1  0.661515  0.006017  0.750325  1
  W  W33  1  0.162124  0.494570  0.750198  1
  W  W34  1  0.338041  0.996421  0.250159  1
  W  W35  1  0.836981  0.503175  0.249849  1
