# generated using pymatgen
data_HoErNiPt
_symmetry_space_group_name_H-M   'P 1'
_cell_length_a   4.32831800
_cell_length_b   5.47810700
_cell_length_c   7.02221400
_cell_angle_alpha   90.00000000
_cell_angle_beta   90.00000000
_cell_angle_gamma   90.00000000
_symmetry_Int_Tables_number   1
_chemical_formula_structural   HoErNiPt
_chemical_formula_sum   'Ho2 Er2 Ni2 Pt2'
_cell_volume   166.50363985
_cell_formula_units_Z   2
loop_
 _symmetry_equiv_pos_site_id
 _symmetry_equiv_pos_as_xyz
  1  'x, y, z'
loop_
 _atom_site_type_symbol
 _atom_site_label
 _atom_site_symmetry_multiplicity
 _atom_site_fract_x
 _atom_site_fract_y
 _atom_site_fract_z
 _atom_site_occupancy
  Ho  Ho0  1  0.500000  0.385570  0.318668  1
  Ho  Ho1  1  0.500000  0.614430  0.818668  1
  Er  Er2  1  0.000000  0.116741  0.679603  1
  Er  Er3  1  0.000000  0.883259  0.179603  1
  Ni  Ni4  1  0.000000  0.606199  0.541853  1
  Ni  Ni5  1  0.000000  0.393801  0.041853  1
  Pt  Pt6  1  0.500000  0.885238  0.459878  1
  Pt  Pt7  1  0.500000  0.114762  0.959878  1
