# generated using pymatgen
data_YFeCoO5
_symmetry_space_group_name_H-M   'P 1'
_cell_length_a   5.77184000
_cell_length_b   7.27603300
_cell_length_c   8.51888900
_cell_angle_alpha   90.00000000
_cell_angle_beta   90.00000000
_cell_angle_gamma   90.00000000
_symmetry_Int_Tables_number   1
_chemical_formula_structural   YFeCoO5
_chemical_formula_sum   'Y4 Fe4 Co4 O20'
_cell_volume   357.76009994
_cell_formula_units_Z   4
loop_
 _symmetry_equiv_pos_site_id
 _symmetry_equiv_pos_as_xyz
  1  'x, y, z'
loop_
 _atom_site_type_symbol
 _atom_site_label
 _atom_site_symmetry_multiplicity
 _atom_site_fract_x
 _atom_site_fract_y
 _atom_site_fract_z
 _atom_site_occupancy
  Y  Y0  1  0.500000  0.366034  0.329937  1
  Y  Y1  1  0.500000  0.633966  0.670063  1
  Y  Y2  1  0.500000  0.133966  0.829937  1
  Y  Y3  1  0.500000  0.866034  0.170063  1
  Fe  Fe4  1  0.000000  0.109284  0.147329  1
  Fe  Fe5  1  0.000000  0.890716  0.852671  1
  Fe  Fe6  1  0.000000  0.390716  0.647329  1
  Fe  Fe7  1  0.000000  0.609284  0.352671  1
  Co  Co8  1  0.250195  0.000000  0.500000  1
  Co  Co9  1  0.749805  0.000000  0.500000  1
  Co  Co10  1  0.749805  0.500000  0.000000  1
  Co  Co11  1  0.250195  0.500000  0.000000  1
  O  O12  1  0.233545  0.000000  0.000000  1
  O  O13  1  0.766455  0.000000  0.000000  1
  O  O14  1  0.766455  0.500000  0.500000  1
  O  O15  1  0.233545  0.500000  0.500000  1
  O  O16  1  0.000000  0.353219  0.068913  1
  O  O17  1  0.000000  0.646781  0.931087  1
  O  O18  1  0.000000  0.146781  0.568913  1
  O  O19  1  0.000000  0.853219  0.431087  1
  O  O20  1  0.258887  0.105543  0.298055  1
  O  O21  1  0.741113  0.894457  0.701945  1
  O  O22  1  0.258887  0.894457  0.701945  1
  O  O23  1  0.741113  0.394457  0.798055  1
  O  O24  1  0.741113  0.105543  0.298055  1
  O  O25  1  0.258887  0.605543  0.201945  1
  O  O26  1  0.741113  0.605543  0.201945  1
  O  O27  1  0.258887  0.394457  0.798055  1
  O  O28  1  0.500000  0.341917  0.056108  1
  O  O29  1  0.500000  0.658083  0.943892  1
  O  O30  1  0.500000  0.158083  0.556108  1
  O  O31  1  0.500000  0.841917  0.443892  1
