# generated using pymatgen
data_ErNbFeB6
_symmetry_space_group_name_H-M   'P 1'
_cell_length_a   3.35597100
_cell_length_b   8.91435400
_cell_length_c   11.21803900
_cell_angle_alpha   90.00000000
_cell_angle_beta   90.00000000
_cell_angle_gamma   90.00000000
_symmetry_Int_Tables_number   1
_chemical_formula_structural   ErNbFeB6
_chemical_formula_sum   'Er4 Nb4 Fe4 B24'
_cell_volume   335.60237167
_cell_formula_units_Z   4
loop_
 _symmetry_equiv_pos_site_id
 _symmetry_equiv_pos_as_xyz
  1  'x, y, z'
loop_
 _atom_site_type_symbol
 _atom_site_label
 _atom_site_symmetry_multiplicity
 _atom_site_fract_x
 _atom_site_fract_y
 _atom_site_fract_z
 _atom_site_occupancy
  Er  Er0  1  0.000000  0.823583  0.086425  1
  Er  Er1  1  0.000000  0.176417  0.913575  1
  Er  Er2  1  0.000000  0.323583  0.413575  1
  Er  Er3  1  0.000000  0.676417  0.586425  1
  Nb  Nb4  1  0.000000  0.444971  0.127998  1
  Nb  Nb5  1  0.000000  0.555029  0.872002  1
  Nb  Nb6  1  0.000000  0.944971  0.372002  1
  Nb  Nb7  1  0.000000  0.055029  0.627998  1
  Fe  Fe8  1  0.000000  0.143863  0.183051  1
  Fe  Fe9  1  0.000000  0.856137  0.816949  1
  Fe  Fe10  1  0.000000  0.643863  0.316949  1
  Fe  Fe11  1  0.000000  0.356137  0.683051  1
  B  B12  1  0.500000  0.054686  0.067375  1
  B  B13  1  0.500000  0.945314  0.932625  1
  B  B14  1  0.500000  0.554686  0.432625  1
  B  B15  1  0.500000  0.445314  0.567375  1
  B  B16  1  0.500000  0.251316  0.082939  1
  B  B17  1  0.500000  0.748684  0.917061  1
  B  B18  1  0.500000  0.751316  0.417061  1
  B  B19  1  0.500000  0.248684  0.582939  1
  B  B20  1  0.500000  0.296696  0.236647  1
  B  B21  1  0.500000  0.703304  0.763353  1
  B  B22  1  0.500000  0.796696  0.263353  1
  B  B23  1  0.500000  0.203304  0.736647  1
  B  B24  1  0.500000  0.130685  0.316585  1
  B  B25  1  0.500000  0.869315  0.683415  1
  B  B26  1  0.500000  0.630685  0.183415  1
  B  B27  1  0.500000  0.369315  0.816585  1
  B  B28  1  0.500000  0.482713  0.287421  1
  B  B29  1  0.500000  0.517287  0.712579  1
  B  B30  1  0.500000  0.982713  0.212579  1
  B  B31  1  0.500000  0.017287  0.787421  1
  B  B32  1  0.500000  0.100894  0.473420  1
  B  B33  1  0.500000  0.899106  0.526580  1
  B  B34  1  0.500000  0.600894  0.026580  1
  B  B35  1  0.500000  0.399106  0.973420  1
