# generated using pymatgen
data_Lu8NbSi16W11
_symmetry_space_group_name_H-M   'P 1'
_cell_length_a   6.69648780
_cell_length_b   6.89651689
_cell_length_c   12.86221014
_cell_angle_alpha   89.98911576
_cell_angle_beta   89.98685501
_cell_angle_gamma   90.12131048
_symmetry_Int_Tables_number   1
_chemical_formula_structural   Lu8NbSi16W11
_chemical_formula_sum   'Lu8 Nb1 Si16 W11'
_cell_volume   594.00690619
_cell_formula_units_Z   1
loop_
 _symmetry_equiv_pos_site_id
 _symmetry_equiv_pos_as_xyz
  1  'x, y, z'
loop_
 _atom_site_type_symbol
 _atom_site_label
 _atom_site_symmetry_multiplicity
 _atom_site_fract_x
 _atom_site_fract_y
 _atom_site_fract_z
 _atom_site_occupancy
  Lu  Lu0  1  0.495994  0.670004  0.592907  1
  Lu  Lu1  1  0.995967  0.829992  0.907587  1
  Lu  Lu2  1  0.505164  0.330136  0.092818  1
  Lu  Lu3  1  0.003401  0.167989  0.406700  1
  Lu  Lu4  1  0.504825  0.331216  0.406542  1
  Lu  Lu5  1  0.003761  0.168273  0.092873  1
  Lu  Lu6  1  0.495294  0.670867  0.907524  1
  Lu  Lu7  1  0.996216  0.830562  0.593216  1
  Nb  Nb8  1  0.669726  0.166019  0.624986  1
  Si  Si9  1  0.663127  0.957242  0.452643  1
  Si  Si10  1  0.163528  0.539252  0.046893  1
  Si  Si11  1  0.335576  0.042415  0.955523  1
  Si  Si12  1  0.839049  0.464226  0.544841  1
  Si  Si13  1  0.332671  0.040999  0.543788  1
  Si  Si14  1  0.834951  0.459867  0.954130  1
  Si  Si15  1  0.664328  0.957132  0.045336  1
  Si  Si16  1  0.163381  0.539265  0.453471  1
  Si  Si17  1  0.464904  0.376705  0.752320  1
  Si  Si18  1  0.968663  0.125875  0.751202  1
  Si  Si19  1  0.534096  0.625514  0.249493  1
  Si  Si20  1  0.032280  0.873816  0.249396  1
  Si  Si21  1  0.700034  0.861766  0.750374  1
  Si  Si22  1  0.199409  0.637230  0.749964  1
  Si  Si23  1  0.301471  0.137190  0.249920  1
  Si  Si24  1  0.801991  0.362622  0.249782  1
  W  W25  1  0.167947  0.336813  0.875549  1
  W  W26  1  0.328747  0.838339  0.124617  1
  W  W27  1  0.832556  0.663692  0.373287  1
  W  W28  1  0.327511  0.836556  0.374017  1
  W  W29  1  0.830573  0.663060  0.124921  1
  W  W30  1  0.670816  0.159694  0.877147  1
  W  W31  1  0.169990  0.335136  0.624603  1
  W  W32  1  0.834264  0.503200  0.751695  1
  W  W33  1  0.337389  0.002440  0.751035  1
  W  W34  1  0.167684  0.496182  0.249488  1
  W  W35  1  0.662716  0.998716  0.249411  1
