# generated using pymatgen
data_Sr2Ge(Se2O7)4
_symmetry_space_group_name_H-M   'P 1'
_cell_length_a   14.16201800
_cell_length_b   7.68258072
_cell_length_c   14.64010300
_cell_angle_alpha   65.69296482
_cell_angle_beta   90.00000000
_cell_angle_gamma   90.00000000
_symmetry_Int_Tables_number   1
_chemical_formula_structural   Sr2Ge(Se2O7)4
_chemical_formula_sum   'Sr4 Ge2 Se16 O56'
_cell_volume   1451.65331623
_cell_formula_units_Z   2
loop_
 _symmetry_equiv_pos_site_id
 _symmetry_equiv_pos_as_xyz
  1  'x, y, z'
loop_
 _atom_site_type_symbol
 _atom_site_label
 _atom_site_symmetry_multiplicity
 _atom_site_fract_x
 _atom_site_fract_y
 _atom_site_fract_z
 _atom_site_occupancy
  Sr  Sr0  1  0.633909  0.639477  0.153639  1
  Sr  Sr1  1  0.866091  0.639477  0.653639  1
  Sr  Sr2  1  0.366091  0.360523  0.846361  1
  Sr  Sr3  1  0.133909  0.360523  0.346361  1
  Ge  Ge4  1  0.500000  0.000000  0.500000  1
  Ge  Ge5  1  0.000000  0.000000  0.000000  1
  Se  Se6  1  0.531109  0.181121  0.103727  1
  Se  Se7  1  0.968891  0.181121  0.603727  1
  Se  Se8  1  0.468891  0.818879  0.896273  1
  Se  Se9  1  0.031109  0.818879  0.396273  1
  Se  Se10  1  0.419928  0.264340  0.275914  1
  Se  Se11  1  0.080072  0.264340  0.775914  1
  Se  Se12  1  0.580072  0.735660  0.724086  1
  Se  Se13  1  0.919928  0.735660  0.224086  1
  Se  Se14  1  0.713963  0.142874  0.407828  1
  Se  Se15  1  0.786037  0.142874  0.907828  1
  Se  Se16  1  0.286037  0.857126  0.592172  1
  Se  Se17  1  0.213963  0.857126  0.092172  1
  Se  Se18  1  0.649833  0.727170  0.441549  1
  Se  Se19  1  0.850167  0.727170  0.941549  1
  Se  Se20  1  0.350167  0.272830  0.558451  1
  Se  Se21  1  0.149833  0.272830  0.058451  1
  O  O22  1  0.483455  0.071960  0.359939  1
  O  O23  1  0.016545  0.071960  0.859939  1
  O  O24  1  0.516545  0.928040  0.640061  1
  O  O25  1  0.983455  0.928040  0.140061  1
  O  O26  1  0.607808  0.318331  0.126294  1
  O  O27  1  0.892192  0.318331  0.626294  1
  O  O28  1  0.392192  0.681669  0.873706  1
  O  O29  1  0.107808  0.681669  0.373706  1
  O  O30  1  0.617184  0.140857  0.478677  1
  O  O31  1  0.882816  0.140857  0.978677  1
  O  O32  1  0.382816  0.859143  0.521323  1
  O  O33  1  0.117184  0.859143  0.021323  1
  O  O34  1  0.418893  0.197245  0.173736  1
  O  O35  1  0.081107  0.197245  0.673736  1
  O  O36  1  0.581107  0.802755  0.826264  1
  O  O37  1  0.918893  0.802755  0.326264  1
  O  O38  1  0.556465  0.952896  0.154317  1
  O  O39  1  0.943535  0.952896  0.654317  1
  O  O40  1  0.443535  0.047104  0.845683  1
  O  O41  1  0.056465  0.047104  0.345683  1
  O  O42  1  0.308797  0.256299  0.306446  1
  O  O43  1  0.191203  0.256299  0.806446  1
  O  O44  1  0.691203  0.743701  0.693554  1
  O  O45  1  0.808797  0.743701  0.193554  1
  O  O46  1  0.477451  0.464206  0.248089  1
  O  O47  1  0.022549  0.464206  0.748089  1
  O  O48  1  0.522549  0.535794  0.751911  1
  O  O49  1  0.977451  0.535794  0.251911  1
  O  O50  1  0.805390  0.063928  0.480123  1
  O  O51  1  0.694610  0.063928  0.980123  1
  O  O52  1  0.194610  0.936072  0.519877  1
  O  O53  1  0.305390  0.936072  0.019877  1
  O  O54  1  0.722524  0.340546  0.307323  1
  O  O55  1  0.777476  0.340546  0.807323  1
  O  O56  1  0.277476  0.659454  0.692677  1
  O  O57  1  0.222524  0.659454  0.192677  1
  O  O58  1  0.485620  0.263459  0.991005  1
  O  O59  1  0.014380  0.263459  0.491005  1
  O  O60  1  0.514380  0.736541  0.008995  1
  O  O61  1  0.985620  0.736541  0.508995  1
  O  O62  1  0.684959  0.967891  0.355990  1
  O  O63  1  0.815041  0.967891  0.855990  1
  O  O64  1  0.315041  0.032109  0.644010  1
  O  O65  1  0.184959  0.032109  0.144010  1
  O  O66  1  0.558983  0.766013  0.509542  1
  O  O67  1  0.941017  0.766013  0.009542  1
  O  O68  1  0.441017  0.233987  0.490458  1
  O  O69  1  0.058983  0.233987  0.990458  1
  O  O70  1  0.613419  0.632950  0.367227  1
  O  O71  1  0.886581  0.632950  0.867227  1
  O  O72  1  0.386581  0.367050  0.632773  1
  O  O73  1  0.113419  0.367050  0.132773  1
  O  O74  1  0.736858  0.624043  0.517709  1
  O  O75  1  0.763142  0.624043  0.017709  1
  O  O76  1  0.263142  0.375957  0.482291  1
  O  O77  1  0.236858  0.375957  0.982291  1
