# generated using pymatgen
data_ZrPaCdNi2
_symmetry_space_group_name_H-M   'P 1'
_cell_length_a   7.46080200
_cell_length_b   7.27064400
_cell_length_c   3.41146000
_cell_angle_alpha   90.00000000
_cell_angle_beta   90.00000000
_cell_angle_gamma   90.00000000
_symmetry_Int_Tables_number   1
_chemical_formula_structural   ZrPaCdNi2
_chemical_formula_sum   'Zr2 Pa2 Cd2 Ni4'
_cell_volume   185.05408582
_cell_formula_units_Z   2
loop_
 _symmetry_equiv_pos_site_id
 _symmetry_equiv_pos_as_xyz
  1  'x, y, z'
loop_
 _atom_site_type_symbol
 _atom_site_label
 _atom_site_symmetry_multiplicity
 _atom_site_fract_x
 _atom_site_fract_y
 _atom_site_fract_z
 _atom_site_occupancy
  Zr  Zr0  1  0.326567  0.171497  0.500000  1
  Zr  Zr1  1  0.826567  0.328503  0.500000  1
  Pa  Pa2  1  0.171040  0.663662  0.500000  1
  Pa  Pa3  1  0.671040  0.836338  0.500000  1
  Cd  Cd4  1  0.004782  0.016530  0.000000  1
  Cd  Cd5  1  0.504782  0.483470  0.000000  1
  Ni  Ni6  1  0.123811  0.383240  0.000000  1
  Ni  Ni7  1  0.373799  0.863813  0.000000  1
  Ni  Ni8  1  0.623811  0.116760  0.000000  1
  Ni  Ni9  1  0.873799  0.636187  0.000000  1
