# generated using pymatgen
data_Ca2YbAsBr3
_symmetry_space_group_name_H-M   'P 1'
_cell_length_a   10.27911808
_cell_length_b   10.27200428
_cell_length_c   10.27503200
_cell_angle_alpha   109.60399098
_cell_angle_beta   109.45531962
_cell_angle_gamma   109.35076464
_symmetry_Int_Tables_number   1
_chemical_formula_structural   Ca2YbAsBr3
_chemical_formula_sum   'Ca8 Yb4 As4 Br12'
_cell_volume   835.19897858
_cell_formula_units_Z   4
loop_
 _symmetry_equiv_pos_site_id
 _symmetry_equiv_pos_as_xyz
  1  'x, y, z'
loop_
 _atom_site_type_symbol
 _atom_site_label
 _atom_site_symmetry_multiplicity
 _atom_site_fract_x
 _atom_site_fract_y
 _atom_site_fract_z
 _atom_site_occupancy
  Ca  Ca0  1  0.257750  0.750288  0.242667  1
  Ca  Ca1  1  0.015487  0.257615  0.007848  1
  Ca  Ca2  1  0.007750  0.015695  0.257832  1
  Ca  Ca3  1  0.492283  0.749854  0.007569  1
  Ca  Ca4  1  0.492147  0.242310  0.484495  1
  Ca  Ca5  1  0.007341  0.492019  0.749541  1
  Ca  Ca6  1  0.257624  0.007486  0.015128  1
  Ca  Ca7  1  0.241919  0.257234  0.749297  1
  Yb  Yb8  1  0.487744  0.493675  0.244049  1
  Yb  Yb9  1  0.749979  0.243548  0.256395  1
  Yb  Yb10  1  0.750117  0.006343  0.493675  1
  Yb  Yb11  1  0.243437  0.487496  0.493927  1
  As  As12  1  0.250682  0.251324  0.250483  1
  As  As13  1  0.501049  0.000348  0.250445  1
  As  As14  1  0.999201  0.249887  0.499306  1
  As  As15  1  0.250634  0.499907  0.000715  1
  Br  Br16  1  0.249901  0.749093  0.747797  1
  Br  Br17  1  0.499132  0.500744  0.748450  1
  Br  Br18  1  0.998579  0.749245  0.999194  1
  Br  Br19  1  0.749251  0.247811  0.748618  1
  Br  Br20  1  0.997846  0.998574  0.747655  1
  Br  Br21  1  0.250024  0.999252  0.500652  1
  Br  Br22  1  0.749055  0.499334  0.497044  1
  Br  Br23  1  0.502169  0.251996  0.002820  1
  Br  Br24  1  0.749036  0.749628  0.252068  1
  Br  Br25  1  0.749125  0.001366  0.000597  1
  Br  Br26  1  0.999949  0.499336  0.252281  1
  Br  Br27  1  0.500785  0.748591  0.499454  1
