# generated using pymatgen
data_Ti4Sn2PdRh9
_symmetry_space_group_name_H-M   'P 1'
_cell_length_a   4.05687600
_cell_length_b   5.52587394
_cell_length_c   10.89697684
_cell_angle_alpha   90.53887353
_cell_angle_beta   90.00000000
_cell_angle_gamma   90.00000000
_symmetry_Int_Tables_number   1
_chemical_formula_structural   Ti4Sn2PdRh9
_chemical_formula_sum   'Ti4 Sn2 Pd1 Rh9'
_cell_volume   244.27528359
_cell_formula_units_Z   1
loop_
 _symmetry_equiv_pos_site_id
 _symmetry_equiv_pos_as_xyz
  1  'x, y, z'
loop_
 _atom_site_type_symbol
 _atom_site_label
 _atom_site_symmetry_multiplicity
 _atom_site_fract_x
 _atom_site_fract_y
 _atom_site_fract_z
 _atom_site_occupancy
  Ti  Ti0  1  0.500000  0.335911  0.141239  1
  Ti  Ti1  1  0.500000  0.680311  0.855855  1
  Ti  Ti2  1  0.500000  0.813572  0.361225  1
  Ti  Ti3  1  0.500000  0.176247  0.644049  1
  Sn  Sn4  1  0.000000  0.001990  0.998169  1
  Sn  Sn5  1  0.000000  0.491648  0.500944  1
  Pd  Pd6  1  0.000000  0.058216  0.246882  1
  Rh  Rh7  1  0.000000  0.991519  0.498618  1
  Rh  Rh8  1  0.000000  0.501641  0.001126  1
  Rh  Rh9  1  0.000000  0.944664  0.750352  1
  Rh  Rh10  1  0.000000  0.558750  0.253184  1
  Rh  Rh11  1  0.000000  0.444974  0.748930  1
  Rh  Rh12  1  0.500000  0.282039  0.380458  1
  Rh  Rh13  1  0.500000  0.712031  0.618840  1
  Rh  Rh14  1  0.500000  0.789157  0.119086  1
  Rh  Rh15  1  0.500000  0.217331  0.881042  1
