# generated using pymatgen
data_Ce4Ga16Ir2Pd
_symmetry_space_group_name_H-M   'P 1'
_cell_length_a   6.18342800
_cell_length_b   6.18342800
_cell_length_c   11.23714600
_cell_angle_alpha   90.00000000
_cell_angle_beta   90.00000000
_cell_angle_gamma   90.00000000
_symmetry_Int_Tables_number   1
_chemical_formula_structural   Ce4Ga16Ir2Pd
_chemical_formula_sum   'Ce4 Ga16 Ir2 Pd1'
_cell_volume   429.64982572
_cell_formula_units_Z   1
loop_
 _symmetry_equiv_pos_site_id
 _symmetry_equiv_pos_as_xyz
  1  'x, y, z'
loop_
 _atom_site_type_symbol
 _atom_site_label
 _atom_site_symmetry_multiplicity
 _atom_site_fract_x
 _atom_site_fract_y
 _atom_site_fract_z
 _atom_site_occupancy
  Ce  Ce0  1  0.500000  0.000000  0.806271  1
  Ce  Ce1  1  0.000000  0.500000  0.806271  1
  Ce  Ce2  1  0.500000  0.000000  0.193729  1
  Ce  Ce3  1  0.000000  0.500000  0.193729  1
  Ga  Ga4  1  0.251459  0.251459  0.619947  1
  Ga  Ga5  1  0.748541  0.748541  0.619947  1
  Ga  Ga6  1  0.748541  0.251459  0.619947  1
  Ga  Ga7  1  0.251459  0.748541  0.619947  1
  Ga  Ga8  1  0.748541  0.748541  0.380053  1
  Ga  Ga9  1  0.251459  0.251459  0.380053  1
  Ga  Ga10  1  0.251459  0.748541  0.380053  1
  Ga  Ga11  1  0.748541  0.251459  0.380053  1
  Ga  Ga12  1  0.289325  0.289325  0.000000  1
  Ga  Ga13  1  0.710675  0.710675  0.000000  1
  Ga  Ga14  1  0.710675  0.289325  0.000000  1
  Ga  Ga15  1  0.289325  0.710675  0.000000  1
  Ga  Ga16  1  0.500000  0.500000  0.800766  1
  Ga  Ga17  1  0.500000  0.500000  0.199234  1
  Ga  Ga18  1  0.000000  0.000000  0.771378  1
  Ga  Ga19  1  0.000000  0.000000  0.228622  1
  Ir  Ir20  1  0.500000  0.000000  0.500000  1
  Ir  Ir21  1  0.000000  0.500000  0.500000  1
  Pd  Pd22  1  0.000000  0.000000  0.000000  1
