# generated using pymatgen
data_Yb8Zn3Si12Ni
_symmetry_space_group_name_H-M   'P 1'
_cell_length_a   8.25354400
_cell_length_b   8.25354419
_cell_length_c   8.21283500
_cell_angle_alpha   90.00000000
_cell_angle_beta   90.00000000
_cell_angle_gamma   119.99999922
_symmetry_Int_Tables_number   1
_chemical_formula_structural   Yb8Zn3Si12Ni
_chemical_formula_sum   'Yb8 Zn3 Si12 Ni1'
_cell_volume   484.51216404
_cell_formula_units_Z   1
loop_
 _symmetry_equiv_pos_site_id
 _symmetry_equiv_pos_as_xyz
  1  'x, y, z'
loop_
 _atom_site_type_symbol
 _atom_site_label
 _atom_site_symmetry_multiplicity
 _atom_site_fract_x
 _atom_site_fract_y
 _atom_site_fract_z
 _atom_site_occupancy
  Yb  Yb0  1  0.497776  0.995550  0.255582  1
  Yb  Yb1  1  0.496132  0.992264  0.744407  1
  Yb  Yb2  1  0.004450  0.502224  0.255582  1
  Yb  Yb3  1  0.007736  0.503868  0.744407  1
  Yb  Yb4  1  0.497776  0.502224  0.255582  1
  Yb  Yb5  1  0.496132  0.503868  0.744407  1
  Yb  Yb6  1  0.000000  0.000000  0.251343  1
  Yb  Yb7  1  0.000000  0.000000  0.748725  1
  Zn  Zn8  1  0.333333  0.666667  0.005080  1
  Zn  Zn9  1  0.666667  0.333333  0.994698  1
  Zn  Zn10  1  0.666667  0.333333  0.502619  1
  Si  Si11  1  0.164629  0.329257  0.999014  1
  Si  Si12  1  0.834998  0.669997  0.000965  1
  Si  Si13  1  0.670743  0.835371  0.999014  1
  Si  Si14  1  0.838271  0.676542  0.500321  1
  Si  Si15  1  0.330003  0.165002  0.000965  1
  Si  Si16  1  0.171859  0.343717  0.499394  1
  Si  Si17  1  0.164629  0.835371  0.999014  1
  Si  Si18  1  0.323458  0.161729  0.500321  1
  Si  Si19  1  0.834998  0.165002  0.000965  1
  Si  Si20  1  0.656283  0.828141  0.499394  1
  Si  Si21  1  0.838271  0.161729  0.500321  1
  Si  Si22  1  0.171859  0.828141  0.499394  1
  Ni  Ni23  1  0.333333  0.666667  0.498493  1
