# generated using pymatgen
data_Tm16Cd3InNi4
_symmetry_space_group_name_H-M   'P 1'
_cell_length_a   9.43362654
_cell_length_b   9.43362805
_cell_length_c   9.43362685
_cell_angle_alpha   60.01141070
_cell_angle_beta   60.01140534
_cell_angle_gamma   60.01141352
_symmetry_Int_Tables_number   1
_chemical_formula_structural   Tm16Cd3InNi4
_chemical_formula_sum   'Tm16 Cd3 In1 Ni4'
_cell_volume   593.79077841
_cell_formula_units_Z   1
loop_
 _symmetry_equiv_pos_site_id
 _symmetry_equiv_pos_as_xyz
  1  'x, y, z'
loop_
 _atom_site_type_symbol
 _atom_site_label
 _atom_site_symmetry_multiplicity
 _atom_site_fract_x
 _atom_site_fract_y
 _atom_site_fract_z
 _atom_site_occupancy
  Tm  Tm0  1  0.346283  0.346283  0.346283  1
  Tm  Tm1  1  0.351129  0.351129  0.951634  1
  Tm  Tm2  1  0.351129  0.951634  0.351129  1
  Tm  Tm3  1  0.951634  0.351129  0.351129  1
  Tm  Tm4  1  0.811394  0.188693  0.188693  1
  Tm  Tm5  1  0.189075  0.811222  0.811222  1
  Tm  Tm6  1  0.188693  0.811394  0.188693  1
  Tm  Tm7  1  0.811222  0.189075  0.811222  1
  Tm  Tm8  1  0.188693  0.188693  0.811394  1
  Tm  Tm9  1  0.811222  0.811222  0.189075  1
  Tm  Tm10  1  0.936334  0.565344  0.565344  1
  Tm  Tm11  1  0.562708  0.937274  0.937274  1
  Tm  Tm12  1  0.565344  0.936334  0.565344  1
  Tm  Tm13  1  0.937274  0.562708  0.937274  1
  Tm  Tm14  1  0.565344  0.565344  0.936334  1
  Tm  Tm15  1  0.937274  0.937274  0.562708  1
  Cd  Cd16  1  0.580343  0.580343  0.254025  1
  Cd  Cd17  1  0.580343  0.254025  0.580343  1
  Cd  Cd18  1  0.254025  0.580343  0.580343  1
  In  In19  1  0.582213  0.582213  0.582213  1
  Ni  Ni20  1  0.143337  0.143337  0.143337  1
  Ni  Ni21  1  0.140853  0.140853  0.573280  1
  Ni  Ni22  1  0.140853  0.573280  0.140853  1
  Ni  Ni23  1  0.573280  0.140853  0.140853  1
