# generated using pymatgen
data_ScTiPRh5
_symmetry_space_group_name_H-M   'P 1'
_cell_length_a   3.95393700
_cell_length_b   5.50069649
_cell_length_c   10.65065921
_cell_angle_alpha   90.18813002
_cell_angle_beta   90.00000000
_cell_angle_gamma   90.00000000
_symmetry_Int_Tables_number   1
_chemical_formula_structural   ScTiPRh5
_chemical_formula_sum   'Sc2 Ti2 P2 Rh10'
_cell_volume   231.64427718
_cell_formula_units_Z   2
loop_
 _symmetry_equiv_pos_site_id
 _symmetry_equiv_pos_as_xyz
  1  'x, y, z'
loop_
 _atom_site_type_symbol
 _atom_site_label
 _atom_site_symmetry_multiplicity
 _atom_site_fract_x
 _atom_site_fract_y
 _atom_site_fract_z
 _atom_site_occupancy
  Sc  Sc0  1  0.500000  0.331522  0.140919  1
  Sc  Sc1  1  0.500000  0.668478  0.859081  1
  Ti  Ti2  1  0.500000  0.836754  0.356029  1
  Ti  Ti3  1  0.500000  0.163246  0.643971  1
  P  P4  1  0.000000  0.000000  0.000000  1
  P  P5  1  0.000000  0.500000  0.500000  1
  Rh  Rh6  1  0.000000  0.000000  0.500000  1
  Rh  Rh7  1  0.000000  0.500000  0.000000  1
  Rh  Rh8  1  0.000000  0.072566  0.245895  1
  Rh  Rh9  1  0.000000  0.927434  0.754105  1
  Rh  Rh10  1  0.000000  0.582395  0.268790  1
  Rh  Rh11  1  0.000000  0.417605  0.731210  1
  Rh  Rh12  1  0.500000  0.318820  0.404192  1
  Rh  Rh13  1  0.500000  0.681180  0.595808  1
  Rh  Rh14  1  0.500000  0.827886  0.106583  1
  Rh  Rh15  1  0.500000  0.172114  0.893417  1
