# generated using pymatgen
data_Dy5HoAl24(Os3Pt)2
_symmetry_space_group_name_H-M   'P 1'
_cell_length_a   8.83295346
_cell_length_b   8.81380205
_cell_length_c   9.56146524
_cell_angle_alpha   90.04166054
_cell_angle_beta   90.15082510
_cell_angle_gamma   119.64387775
_symmetry_Int_Tables_number   1
_chemical_formula_structural   Dy5HoAl24(Os3Pt)2
_chemical_formula_sum   'Dy5 Ho1 Al24 Os6 Pt2'
_cell_volume   646.94736222
_cell_formula_units_Z   1
loop_
 _symmetry_equiv_pos_site_id
 _symmetry_equiv_pos_as_xyz
  1  'x, y, z'
loop_
 _atom_site_type_symbol
 _atom_site_label
 _atom_site_symmetry_multiplicity
 _atom_site_fract_x
 _atom_site_fract_y
 _atom_site_fract_z
 _atom_site_occupancy
  Dy  Dy0  1  0.810296  0.613029  0.746656  1
  Dy  Dy1  1  0.615660  0.808824  0.252832  1
  Dy  Dy2  1  0.384344  0.191187  0.747163  1
  Dy  Dy3  1  0.190528  0.804198  0.252565  1
  Dy  Dy4  1  0.809401  0.195667  0.747419  1
  Ho  Ho5  1  0.189937  0.387710  0.253575  1
  Al  Al6  1  0.328570  0.664772  0.026538  1
  Al  Al7  1  0.671406  0.335045  0.973666  1
  Al  Al8  1  0.666697  0.332707  0.522819  1
  Al  Al9  1  0.333202  0.667148  0.477001  1
  Al  Al10  1  0.164564  0.328260  0.575530  1
  Al  Al11  1  0.835380  0.671669  0.424221  1
  Al  Al12  1  0.672721  0.836516  0.574918  1
  Al  Al13  1  0.841686  0.674552  0.077939  1
  Al  Al14  1  0.327168  0.163516  0.424918  1
  Al  Al15  1  0.158324  0.325412  0.922302  1
  Al  Al16  1  0.164662  0.836778  0.575959  1
  Al  Al17  1  0.323598  0.162148  0.079014  1
  Al  Al18  1  0.835500  0.163283  0.423880  1
  Al  Al19  1  0.676328  0.837933  0.921130  1
  Al  Al20  1  0.841270  0.167757  0.077880  1
  Al  Al21  1  0.158938  0.832300  0.922288  1
  Al  Al22  1  0.561661  0.124678  0.251669  1
  Al  Al23  1  0.438338  0.875344  0.748290  1
  Al  Al24  1  0.876415  0.438947  0.248958  1
  Al  Al25  1  0.123753  0.560936  0.751068  1
  Al  Al26  1  0.562247  0.437230  0.252013  1
  Al  Al27  1  0.437501  0.562668  0.747922  1
  Al  Al28  1  0.997735  0.999963  0.250295  1
  Al  Al29  1  0.002474  0.000471  0.749684  1
  Os  Os30  1  0.000066  0.499940  0.000133  1
  Os  Os31  1  0.499992  0.999942  0.499881  1
  Os  Os32  1  0.000013  0.499908  0.499901  1
  Os  Os33  1  0.499864  0.499915  0.499874  1
  Os  Os34  1  0.999995  0.999935  0.999957  1
  Os  Os35  1  0.999969  0.999943  0.500006  1
  Pt  Pt36  1  0.499949  0.999887  0.000030  1
  Pt  Pt37  1  0.499846  0.499882  0.000102  1
