# generated using pymatgen
data_Y2Mn3CoNi8As7
_symmetry_space_group_name_H-M   'P 1'
_cell_length_a   3.83241400
_cell_length_b   9.45138041
_cell_length_c   9.47712428
_cell_angle_alpha   119.99513761
_cell_angle_beta   90.00000000
_cell_angle_gamma   90.00000000
_symmetry_Int_Tables_number   1
_chemical_formula_structural   Y2Mn3CoNi8As7
_chemical_formula_sum   'Y2 Mn3 Co1 Ni8 As7'
_cell_volume   297.30084645
_cell_formula_units_Z   1
loop_
 _symmetry_equiv_pos_site_id
 _symmetry_equiv_pos_as_xyz
  1  'x, y, z'
loop_
 _atom_site_type_symbol
 _atom_site_label
 _atom_site_symmetry_multiplicity
 _atom_site_fract_x
 _atom_site_fract_y
 _atom_site_fract_z
 _atom_site_occupancy
  Y  Y0  1  0.000000  0.667815  0.334035  1
  Y  Y1  1  0.500000  0.332580  0.666848  1
  Mn  Mn2  1  0.500000  0.780707  0.897357  1
  Mn  Mn3  1  0.500000  0.116780  0.217816  1
  Mn  Mn4  1  0.500000  0.100825  0.881087  1
  Co  Co5  1  0.000000  0.844666  0.720909  1
  Ni  Ni6  1  0.000000  0.570796  0.938975  1
  Ni  Ni7  1  0.000000  0.370704  0.430919  1
  Ni  Ni8  1  0.000000  0.061234  0.630640  1
  Ni  Ni9  1  0.000000  0.874950  0.154368  1
  Ni  Ni10  1  0.000000  0.280060  0.125885  1
  Ni  Ni11  1  0.500000  0.948709  0.383630  1
  Ni  Ni12  1  0.500000  0.432085  0.050090  1
  Ni  Ni13  1  0.500000  0.618059  0.567400  1
  As  As14  1  0.000000  0.999055  0.997149  1
  As  As15  1  0.500000  0.706881  0.115298  1
  As  As16  1  0.500000  0.408147  0.293066  1
  As  As17  1  0.500000  0.884849  0.594286  1
  As  As18  1  0.000000  0.589322  0.701105  1
  As  As19  1  0.000000  0.112921  0.411951  1
  As  As20  1  0.000000  0.298856  0.887185  1
