# generated using pymatgen
data_Nd8Y11ScSn16
_symmetry_space_group_name_H-M   'P 1'
_cell_length_a   8.05035100
_cell_length_b   8.24108019
_cell_length_c   15.56709200
_cell_angle_alpha   90.00000000
_cell_angle_beta   90.00000000
_cell_angle_gamma   89.98757595
_symmetry_Int_Tables_number   1
_chemical_formula_structural   Nd8Y11ScSn16
_chemical_formula_sum   'Nd8 Y11 Sc1 Sn16'
_cell_volume   1032.77671651
_cell_formula_units_Z   1
loop_
 _symmetry_equiv_pos_site_id
 _symmetry_equiv_pos_as_xyz
  1  'x, y, z'
loop_
 _atom_site_type_symbol
 _atom_site_label
 _atom_site_symmetry_multiplicity
 _atom_site_fract_x
 _atom_site_fract_y
 _atom_site_fract_z
 _atom_site_occupancy
  Nd  Nd0  1  0.514080  0.321911  0.903927  1
  Nd  Nd1  1  0.013935  0.177983  0.595817  1
  Nd  Nd2  1  0.484994  0.679105  0.403122  1
  Nd  Nd3  1  0.986423  0.822930  0.096965  1
  Nd  Nd4  1  0.484994  0.679105  0.096878  1
  Nd  Nd5  1  0.986423  0.822930  0.403035  1
  Nd  Nd6  1  0.514080  0.321911  0.596073  1
  Nd  Nd7  1  0.013935  0.177983  0.904183  1
  Y  Y8  1  0.358430  0.836274  0.877472  1
  Y  Y9  1  0.858260  0.663880  0.623100  1
  Y  Y10  1  0.640755  0.162627  0.375879  1
  Y  Y11  1  0.142378  0.335610  0.124011  1
  Y  Y12  1  0.640755  0.162627  0.124121  1
  Y  Y13  1  0.142378  0.335610  0.375989  1
  Y  Y14  1  0.358430  0.836274  0.622528  1
  Y  Y15  1  0.858260  0.663880  0.876900  1
  Y  Y16  1  0.191722  0.501696  0.750000  1
  Y  Y17  1  0.691727  0.998338  0.750000  1
  Y  Y18  1  0.808879  0.498846  0.250000  1
  Sc  Sc19  1  0.308120  0.002700  0.250000  1
  Sn  Sn20  1  0.304097  0.038629  0.044426  1
  Sn  Sn21  1  0.804349  0.459804  0.458037  1
  Sn  Sn22  1  0.695482  0.960135  0.541213  1
  Sn  Sn23  1  0.195228  0.539695  0.958816  1
  Sn  Sn24  1  0.695482  0.960135  0.958787  1
  Sn  Sn25  1  0.195228  0.539695  0.541184  1
  Sn  Sn26  1  0.304097  0.038629  0.455574  1
  Sn  Sn27  1  0.804349  0.459804  0.041963  1
  Sn  Sn28  1  0.557041  0.621247  0.750000  1
  Sn  Sn29  1  0.057520  0.878991  0.750000  1
  Sn  Sn30  1  0.442060  0.376363  0.250000  1
  Sn  Sn31  1  0.948533  0.117429  0.250000  1
  Sn  Sn32  1  0.322119  0.143991  0.750000  1
  Sn  Sn33  1  0.822505  0.355283  0.750000  1
  Sn  Sn34  1  0.672938  0.856990  0.250000  1
  Sn  Sn35  1  0.180015  0.650961  0.250000  1
