# generated using pymatgen
data_Ce8Ti5Si16W7
_symmetry_space_group_name_H-M   'P 1'
_cell_length_a   6.91560815
_cell_length_b   6.97970690
_cell_length_c   13.01009300
_cell_angle_alpha   89.99249706
_cell_angle_beta   90.01187240
_cell_angle_gamma   89.91975944
_symmetry_Int_Tables_number   1
_chemical_formula_structural   Ce8Ti5Si16W7
_chemical_formula_sum   'Ce8 Ti5 Si16 W7'
_cell_volume   627.98247675
_cell_formula_units_Z   1
loop_
 _symmetry_equiv_pos_site_id
 _symmetry_equiv_pos_as_xyz
  1  'x, y, z'
loop_
 _atom_site_type_symbol
 _atom_site_label
 _atom_site_symmetry_multiplicity
 _atom_site_fract_x
 _atom_site_fract_y
 _atom_site_fract_z
 _atom_site_occupancy
  Ce  Ce0  1  0.499133  0.661495  0.592268  1
  Ce  Ce1  1  0.998944  0.837537  0.907404  1
  Ce  Ce2  1  0.500507  0.336864  0.091422  1
  Ce  Ce3  1  0.000398  0.162699  0.408015  1
  Ce  Ce4  1  0.500581  0.338299  0.408810  1
  Ce  Ce5  1  0.001222  0.164525  0.091971  1
  Ce  Ce6  1  0.498484  0.663515  0.908107  1
  Ce  Ce7  1  0.998933  0.836891  0.592061  1
  Ti  Ti8  1  0.663126  0.169803  0.627083  1
  Ti  Ti9  1  0.162304  0.331535  0.873944  1
  Ti  Ti10  1  0.339677  0.831877  0.125670  1
  Ti  Ti11  1  0.836127  0.668290  0.373370  1
  Ti  Ti12  1  0.334377  0.829985  0.373431  1
  Si  Si13  1  0.657674  0.957006  0.454127  1
  Si  Si14  1  0.155671  0.544327  0.046158  1
  Si  Si15  1  0.344679  0.043499  0.953351  1
  Si  Si16  1  0.845285  0.456223  0.546730  1
  Si  Si17  1  0.341311  0.043422  0.545460  1
  Si  Si18  1  0.841085  0.456369  0.955341  1
  Si  Si19  1  0.660308  0.956131  0.043635  1
  Si  Si20  1  0.157519  0.543601  0.456345  1
  Si  Si21  1  0.460332  0.368485  0.751538  1
  Si  Si22  1  0.960618  0.132092  0.749191  1
  Si  Si23  1  0.540091  0.630548  0.250061  1
  Si  Si24  1  0.038693  0.866777  0.249030  1
  Si  Si25  1  0.695234  0.873536  0.748881  1
  Si  Si26  1  0.195039  0.626036  0.750650  1
  Si  Si27  1  0.304257  0.127808  0.249889  1
  Si  Si28  1  0.802894  0.373313  0.250511  1
  W  W29  1  0.832866  0.668961  0.125174  1
  W  W30  1  0.667753  0.168633  0.874267  1
  W  W31  1  0.167033  0.330368  0.626869  1
  W  W32  1  0.834914  0.496734  0.750938  1
  W  W33  1  0.335693  0.004366  0.749725  1
  W  W34  1  0.163387  0.503156  0.249760  1
  W  W35  1  0.663849  0.995290  0.248820  1
