# generated using pymatgen
data_Y7Tm(Lu3Pt4)4
_symmetry_space_group_name_H-M   'P 1'
_cell_length_a   7.41976920
_cell_length_b   7.48173509
_cell_length_c   14.52313519
_cell_angle_alpha   89.99848295
_cell_angle_beta   89.93718641
_cell_angle_gamma   89.98202794
_symmetry_Int_Tables_number   1
_chemical_formula_structural   Y7Tm(Lu3Pt4)4
_chemical_formula_sum   'Y7 Tm1 Lu12 Pt16'
_cell_volume   806.21861405
_cell_formula_units_Z   1
loop_
 _symmetry_equiv_pos_site_id
 _symmetry_equiv_pos_as_xyz
  1  'x, y, z'
loop_
 _atom_site_type_symbol
 _atom_site_label
 _atom_site_symmetry_multiplicity
 _atom_site_fract_x
 _atom_site_fract_y
 _atom_site_fract_z
 _atom_site_occupancy
  Y  Y0  1  0.501034  0.678432  0.093816  1
  Y  Y1  1  0.499703  0.321618  0.592993  1
  Y  Y2  1  0.999255  0.178308  0.906853  1
  Y  Y3  1  0.998938  0.176623  0.592508  1
  Y  Y4  1  0.499422  0.321990  0.906935  1
  Y  Y5  1  0.500928  0.678419  0.406762  1
  Y  Y6  1  0.000679  0.821551  0.092945  1
  Tm  Tm7  1  0.000116  0.820520  0.406548  1
  Lu  Lu8  1  0.681885  0.991874  0.250565  1
  Lu  Lu9  1  0.182265  0.508432  0.250649  1
  Lu  Lu10  1  0.818032  0.491398  0.749625  1
  Lu  Lu11  1  0.317899  0.008339  0.749839  1
  Lu  Lu12  1  0.655211  0.833970  0.622296  1
  Lu  Lu13  1  0.155455  0.666044  0.877476  1
  Lu  Lu14  1  0.844262  0.333635  0.377695  1
  Lu  Lu15  1  0.344477  0.166331  0.122769  1
  Lu  Lu16  1  0.343798  0.166328  0.378190  1
  Lu  Lu17  1  0.844947  0.333727  0.122848  1
  Lu  Lu18  1  0.154585  0.666548  0.621906  1
  Lu  Lu19  1  0.655023  0.833403  0.877774  1
  Pt  Pt20  1  0.818681  0.642462  0.251437  1
  Pt  Pt21  1  0.314997  0.859347  0.250975  1
  Pt  Pt22  1  0.683525  0.140778  0.749741  1
  Pt  Pt23  1  0.183336  0.358812  0.749432  1
  Pt  Pt24  1  0.547679  0.380761  0.250195  1
  Pt  Pt25  1  0.046620  0.118661  0.250865  1
  Pt  Pt26  1  0.952939  0.879930  0.749971  1
  Pt  Pt27  1  0.452919  0.619930  0.749782  1
  Pt  Pt28  1  0.818148  0.537615  0.540836  1
  Pt  Pt29  1  0.317730  0.963850  0.958500  1
  Pt  Pt30  1  0.685262  0.033548  0.457612  1
  Pt  Pt31  1  0.182135  0.464407  0.042114  1
  Pt  Pt32  1  0.180476  0.467395  0.456795  1
  Pt  Pt33  1  0.682048  0.036393  0.041957  1
  Pt  Pt34  1  0.317564  0.962665  0.540536  1
  Pt  Pt35  1  0.818027  0.535958  0.958263  1
