# generated using pymatgen
data_CaLa(NiRh)2
_symmetry_space_group_name_H-M   'P 1'
_cell_length_a   5.45573069
_cell_length_b   5.27317936
_cell_length_c   5.27317864
_cell_angle_alpha   58.20912081
_cell_angle_beta   58.84803573
_cell_angle_gamma   58.84805346
_symmetry_Int_Tables_number   1
_chemical_formula_structural   CaLa(NiRh)2
_chemical_formula_sum   'Ca1 La1 Ni2 Rh2'
_cell_volume   103.91533328
_cell_formula_units_Z   1
loop_
 _symmetry_equiv_pos_site_id
 _symmetry_equiv_pos_as_xyz
  1  'x, y, z'
loop_
 _atom_site_type_symbol
 _atom_site_label
 _atom_site_symmetry_multiplicity
 _atom_site_fract_x
 _atom_site_fract_y
 _atom_site_fract_z
 _atom_site_occupancy
  Ca  Ca0  1  0.753379  0.746621  0.746621  1
  La  La1  1  0.497129  0.502871  0.502871  1
  Ni  Ni2  1  0.124525  0.124774  0.626177  1
  Ni  Ni3  1  0.124525  0.626177  0.124774  1
  Rh  Rh4  1  0.124753  0.124779  0.124779  1
  Rh  Rh5  1  0.625690  0.124779  0.124779  1
