# generated using pymatgen
data_Tb2Er3LuCo2
_symmetry_space_group_name_H-M   'P 1'
_cell_length_a   6.18107018
_cell_length_b   6.89239200
_cell_length_c   9.32092913
_cell_angle_alpha   90.00000000
_cell_angle_beta   89.80965860
_cell_angle_gamma   90.00000000
_symmetry_Int_Tables_number   1
_chemical_formula_structural   Tb2Er3LuCo2
_chemical_formula_sum   'Tb4 Er6 Lu2 Co4'
_cell_volume   397.09137454
_cell_formula_units_Z   2
loop_
 _symmetry_equiv_pos_site_id
 _symmetry_equiv_pos_as_xyz
  1  'x, y, z'
loop_
 _atom_site_type_symbol
 _atom_site_label
 _atom_site_symmetry_multiplicity
 _atom_site_fract_x
 _atom_site_fract_y
 _atom_site_fract_z
 _atom_site_occupancy
  Tb  Tb0  1  0.862561  0.542420  0.249938  1
  Tb  Tb1  1  0.637439  0.042420  0.250062  1
  Tb  Tb2  1  0.138441  0.457736  0.750180  1
  Tb  Tb3  1  0.361559  0.957736  0.749820  1
  Er  Er4  1  0.325128  0.675355  0.067926  1
  Er  Er5  1  0.174872  0.175355  0.432074  1
  Er  Er6  1  0.674516  0.325378  0.567879  1
  Er  Er7  1  0.825484  0.825378  0.932121  1
  Er  Er8  1  0.676126  0.323700  0.932915  1
  Er  Er9  1  0.823874  0.823700  0.567085  1
  Lu  Lu10  1  0.323889  0.675572  0.431275  1
  Lu  Lu11  1  0.176111  0.175572  0.068725  1
  Co  Co12  1  0.051405  0.887999  0.250471  1
  Co  Co13  1  0.448595  0.387999  0.249529  1
  Co  Co14  1  0.948712  0.111840  0.747166  1
  Co  Co15  1  0.551288  0.611840  0.752834  1
