# generated using pymatgen
data_Nd7Ag(TeO6)4
_symmetry_space_group_name_H-M   'P 1'
_cell_length_a   5.47045245
_cell_length_b   9.34585898
_cell_length_c   10.30600586
_cell_angle_alpha   90.21085798
_cell_angle_beta   90.80026633
_cell_angle_gamma   89.78384265
_symmetry_Int_Tables_number   1
_chemical_formula_structural   Nd7Ag(TeO6)4
_chemical_formula_sum   'Nd7 Ag1 Te4 O24'
_cell_volume   526.84703935
_cell_formula_units_Z   1
loop_
 _symmetry_equiv_pos_site_id
 _symmetry_equiv_pos_as_xyz
  1  'x, y, z'
loop_
 _atom_site_type_symbol
 _atom_site_label
 _atom_site_symmetry_multiplicity
 _atom_site_fract_x
 _atom_site_fract_y
 _atom_site_fract_z
 _atom_site_occupancy
  Nd  Nd0  1  0.536808  0.380030  0.544596  1
  Nd  Nd1  1  0.976477  0.601101  0.040703  1
  Nd  Nd2  1  0.473326  0.895604  0.957718  1
  Nd  Nd3  1  0.023462  0.213428  0.851147  1
  Nd  Nd4  1  0.532489  0.287680  0.132053  1
  Nd  Nd5  1  0.966862  0.723025  0.637485  1
  Nd  Nd6  1  0.477620  0.779926  0.372563  1
  Ag  Ag7  1  0.068710  0.134953  0.407834  1
  Te  Te8  1  0.532498  0.001777  0.642059  1
  Te  Te9  1  0.054200  0.494755  0.355712  1
  Te  Te10  1  0.455982  0.504815  0.853816  1
  Te  Te11  1  0.958113  0.994011  0.145690  1
  O  O12  1  0.253028  0.412809  0.989373  1
  O  O13  1  0.749921  0.087788  0.014095  1
  O  O14  1  0.747018  0.918456  0.511858  1
  O  O15  1  0.253522  0.578538  0.495182  1
  O  O16  1  0.219382  0.111382  0.070331  1
  O  O17  1  0.721492  0.387745  0.933643  1
  O  O18  1  0.781552  0.599035  0.438816  1
  O  O19  1  0.302806  0.860423  0.574327  1
  O  O20  1  0.331588  0.370150  0.318554  1
  O  O21  1  0.741750  0.165324  0.679088  1
  O  O22  1  0.690863  0.863163  0.179945  1
  O  O23  1  0.189939  0.642634  0.826686  1
  O  O24  1  0.165333  0.955331  0.300410  1
  O  O25  1  0.664214  0.550502  0.711147  1
  O  O26  1  0.848070  0.442513  0.209684  1
  O  O27  1  0.311088  0.040900  0.786143  1
  O  O28  1  0.173075  0.645729  0.246566  1
  O  O29  1  0.703865  0.877445  0.764864  1
  O  O30  1  0.815408  0.137670  0.262889  1
  O  O31  1  0.306172  0.364063  0.741319  1
  O  O32  1  0.077751  0.847207  0.031851  1
  O  O33  1  0.574884  0.650154  0.976372  1
  O  O34  1  0.948137  0.335208  0.470605  1
  O  O35  1  0.372594  0.144725  0.524877  1
