# generated using pymatgen
data_Tb5Dy3(GeI6)2
_symmetry_space_group_name_H-M   'P 1'
_cell_length_a   4.23787400
_cell_length_b   14.06365606
_cell_length_c   14.85253709
_cell_angle_alpha   90.01165930
_cell_angle_beta   90.00000000
_cell_angle_gamma   90.00000000
_symmetry_Int_Tables_number   1
_chemical_formula_structural   Tb5Dy3(GeI6)2
_chemical_formula_sum   'Tb5 Dy3 Ge2 I12'
_cell_volume   885.21122737
_cell_formula_units_Z   1
loop_
 _symmetry_equiv_pos_site_id
 _symmetry_equiv_pos_as_xyz
  1  'x, y, z'
loop_
 _atom_site_type_symbol
 _atom_site_label
 _atom_site_symmetry_multiplicity
 _atom_site_fract_x
 _atom_site_fract_y
 _atom_site_fract_z
 _atom_site_occupancy
  Tb  Tb0  1  0.500000  0.884822  0.653272  1
  Tb  Tb1  1  0.500000  0.615096  0.153486  1
  Tb  Tb2  1  0.500000  0.384779  0.846495  1
  Tb  Tb3  1  0.000000  0.612253  0.924917  1
  Tb  Tb4  1  0.000000  0.387890  0.075025  1
  Dy  Dy5  1  0.500000  0.114865  0.346893  1
  Dy  Dy6  1  0.000000  0.111387  0.574882  1
  Dy  Dy7  1  0.000000  0.888597  0.425321  1
  Ge  Ge8  1  0.500000  0.000211  0.499813  1
  Ge  Ge9  1  0.500000  0.500010  0.999898  1
  I  I10  1  0.500000  0.245089  0.162330  1
  I  I11  1  0.500000  0.755142  0.838397  1
  I  I12  1  0.500000  0.746102  0.338824  1
  I  I13  1  0.500000  0.253895  0.660934  1
  I  I14  1  0.000000  0.257160  0.414191  1
  I  I15  1  0.000000  0.742033  0.584968  1
  I  I16  1  0.000000  0.758257  0.085858  1
  I  I17  1  0.000000  0.241615  0.914296  1
  I  I18  1  0.000000  0.000040  0.241856  1
  I  I19  1  0.000000  0.000753  0.758405  1
  I  I20  1  0.000000  0.499660  0.258887  1
  I  I21  1  0.000000  0.500346  0.741055  1
