# generated using pymatgen
data_La4ErRuRh
_symmetry_space_group_name_H-M   'P 1'
_cell_length_a   6.59240888
_cell_length_b   7.27774377
_cell_length_c   9.17586915
_cell_angle_alpha   95.20740591
_cell_angle_beta   111.05262020
_cell_angle_gamma   90.00000010
_symmetry_Int_Tables_number   1
_chemical_formula_structural   La4ErRuRh
_chemical_formula_sum   'La8 Er2 Ru2 Rh2'
_cell_volume   408.90550061
_cell_formula_units_Z   2
loop_
 _symmetry_equiv_pos_site_id
 _symmetry_equiv_pos_as_xyz
  1  'x, y, z'
loop_
 _atom_site_type_symbol
 _atom_site_label
 _atom_site_symmetry_multiplicity
 _atom_site_fract_x
 _atom_site_fract_y
 _atom_site_fract_z
 _atom_site_occupancy
  La  La0  1  0.810733  0.583162  0.817340  1
  La  La1  1  0.993393  0.916838  0.182660  1
  La  La2  1  0.203327  0.409004  0.182810  1
  La  La3  1  0.020518  0.090996  0.817190  1
  La  La4  1  0.214845  0.682251  0.582255  1
  La  La5  1  0.632591  0.817749  0.417745  1
  La  La6  1  0.784994  0.312766  0.427205  1
  La  La7  1  0.357788  0.187234  0.572795  1
  Er  Er8  1  0.433331  0.750000  0.000000  1
  Er  Er9  1  0.568696  0.250000  0.000000  1
  Ru  Ru10  1  0.398091  0.075489  0.217444  1
  Ru  Ru11  1  0.180648  0.424511  0.782556  1
  Rh  Rh12  1  0.595814  0.924182  0.790581  1
  Rh  Rh13  1  0.805232  0.575818  0.209419  1
