# generated using pymatgen
data_MnZn5(AsO4)4
_symmetry_space_group_name_H-M   'P 1'
_cell_length_a   8.76091012
_cell_length_b   5.35269239
_cell_length_c   9.07078724
_cell_angle_alpha   60.55481232
_cell_angle_beta   89.69990801
_cell_angle_gamma   89.88375941
_symmetry_Int_Tables_number   1
_chemical_formula_structural   MnZn5(AsO4)4
_chemical_formula_sum   'Mn1 Zn5 As4 O16'
_cell_volume   370.41795034
_cell_formula_units_Z   1
loop_
 _symmetry_equiv_pos_site_id
 _symmetry_equiv_pos_as_xyz
  1  'x, y, z'
loop_
 _atom_site_type_symbol
 _atom_site_label
 _atom_site_symmetry_multiplicity
 _atom_site_fract_x
 _atom_site_fract_y
 _atom_site_fract_z
 _atom_site_occupancy
  Mn  Mn0  1  0.000000  0.500000  0.500000  1
  Zn  Zn1  1  0.138963  0.475030  0.110123  1
  Zn  Zn2  1  0.637211  0.519741  0.388965  1
  Zn  Zn3  1  0.861037  0.524970  0.889877  1
  Zn  Zn4  1  0.362789  0.480259  0.611035  1
  Zn  Zn5  1  0.500000  0.500000  0.000000  1
  As  As6  1  0.309898  0.846652  0.192273  1
  As  As7  1  0.803055  0.153482  0.301947  1
  As  As8  1  0.690102  0.153348  0.807727  1
  As  As9  1  0.196945  0.846518  0.698053  1
  O  O10  1  0.068939  0.703124  0.865577  1
  O  O11  1  0.568163  0.297648  0.636177  1
  O  O12  1  0.931061  0.296876  0.134423  1
  O  O13  1  0.431837  0.702352  0.363823  1
  O  O14  1  0.201102  0.209386  0.626352  1
  O  O15  1  0.696900  0.789395  0.880952  1
  O  O16  1  0.798898  0.790614  0.373648  1
  O  O17  1  0.303100  0.210605  0.119048  1
  O  O18  1  0.142660  0.782202  0.538806  1
  O  O19  1  0.634057  0.221178  0.966184  1
  O  O20  1  0.134385  0.670812  0.251809  1
  O  O21  1  0.629219  0.333521  0.242175  1
  O  O22  1  0.865615  0.329188  0.748191  1
  O  O23  1  0.370781  0.666479  0.757825  1
  O  O24  1  0.365943  0.778822  0.033816  1
  O  O25  1  0.857340  0.217798  0.461194  1
