# generated using pymatgen
data_LiPr5(P2Ru3)6
_symmetry_space_group_name_H-M   'P 1'
_cell_length_a   12.57854000
_cell_length_b   12.74699091
_cell_length_c   4.02204900
_cell_angle_alpha   90.00000000
_cell_angle_beta   90.00000000
_cell_angle_gamma   119.56380721
_symmetry_Int_Tables_number   1
_chemical_formula_structural   LiPr5(P2Ru3)6
_chemical_formula_sum   'Li1 Pr5 P12 Ru18'
_cell_volume   560.92920522
_cell_formula_units_Z   1
loop_
 _symmetry_equiv_pos_site_id
 _symmetry_equiv_pos_as_xyz
  1  'x, y, z'
loop_
 _atom_site_type_symbol
 _atom_site_label
 _atom_site_symmetry_multiplicity
 _atom_site_fract_x
 _atom_site_fract_y
 _atom_site_fract_z
 _atom_site_occupancy
  Li  Li0  1  0.437451  0.000000  0.000000  1
  Pr  Pr1  1  0.817881  0.000000  0.500000  1
  Pr  Pr2  1  0.002412  0.817400  0.500000  1
  Pr  Pr3  1  0.185012  0.182600  0.500000  1
  Pr  Pr4  1  0.330121  0.659403  0.000000  1
  Pr  Pr5  1  0.670719  0.340597  0.000000  1
  P  P6  1  0.196131  0.000000  0.000000  1
  P  P7  1  0.998308  0.184916  0.000000  1
  P  P8  1  0.813391  0.815084  0.000000  1
  P  P9  1  0.520939  0.692460  0.500000  1
  P  P10  1  0.298689  0.819374  0.500000  1
  P  P11  1  0.166508  0.471546  0.500000  1
  P  P12  1  0.479316  0.180626  0.500000  1
  P  P13  1  0.694962  0.528454  0.500000  1
  P  P14  1  0.828479  0.307540  0.500000  1
  P  P15  1  0.629318  0.000000  0.000000  1
  P  P16  1  0.999768  0.622978  0.000000  1
  P  P17  1  0.376790  0.377022  0.000000  1
  Ru  Ru18  1  0.998595  0.443267  0.000000  1
  Ru  Ru19  1  0.555328  0.556733  0.000000  1
  Ru  Ru20  1  0.291925  0.000000  0.500000  1
  Ru  Ru21  1  0.997166  0.282469  0.500000  1
  Ru  Ru22  1  0.714697  0.717531  0.500000  1
  Ru  Ru23  1  0.618098  0.804759  0.000000  1
  Ru  Ru24  1  0.195629  0.812872  0.000000  1
  Ru  Ru25  1  0.182591  0.373896  0.000000  1
  Ru  Ru26  1  0.382756  0.187128  0.000000  1
  Ru  Ru27  1  0.808695  0.626104  0.000000  1
  Ru  Ru28  1  0.813339  0.195241  0.000000  1
  Ru  Ru29  1  0.509220  0.877968  0.500000  1
  Ru  Ru30  1  0.120427  0.629480  0.500000  1
  Ru  Ru31  1  0.364474  0.490355  0.500000  1
  Ru  Ru32  1  0.490947  0.370520  0.500000  1
  Ru  Ru33  1  0.874119  0.509645  0.500000  1
  Ru  Ru34  1  0.631252  0.122032  0.500000  1
  Ru  Ru35  1  0.004547  0.000000  0.000000  1
