# generated using pymatgen
data_Cr12Ga3Co5N4
_symmetry_space_group_name_H-M   'P 1'
_cell_length_a   6.31144302
_cell_length_b   6.31144352
_cell_length_c   6.31144253
_cell_angle_alpha   90.31181582
_cell_angle_beta   90.31181740
_cell_angle_gamma   90.31181747
_symmetry_Int_Tables_number   1
_chemical_formula_structural   Cr12Ga3Co5N4
_chemical_formula_sum   'Cr12 Ga3 Co5 N4'
_cell_volume   251.40078690
_cell_formula_units_Z   1
loop_
 _symmetry_equiv_pos_site_id
 _symmetry_equiv_pos_as_xyz
  1  'x, y, z'
loop_
 _atom_site_type_symbol
 _atom_site_label
 _atom_site_symmetry_multiplicity
 _atom_site_fract_x
 _atom_site_fract_y
 _atom_site_fract_z
 _atom_site_occupancy
  Cr  Cr0  1  0.787200  0.947127  0.383510  1
  Cr  Cr1  1  0.704576  0.033828  0.874079  1
  Cr  Cr2  1  0.207228  0.457064  0.124120  1
  Cr  Cr3  1  0.306306  0.546983  0.628256  1
  Cr  Cr4  1  0.947127  0.383510  0.787200  1
  Cr  Cr5  1  0.033828  0.874079  0.704576  1
  Cr  Cr6  1  0.457064  0.124120  0.207228  1
  Cr  Cr7  1  0.546983  0.628256  0.306306  1
  Cr  Cr8  1  0.383510  0.787200  0.947127  1
  Cr  Cr9  1  0.874079  0.704576  0.033828  1
  Cr  Cr10  1  0.124120  0.207228  0.457064  1
  Cr  Cr11  1  0.628256  0.306306  0.546983  1
  Ga  Ga12  1  0.178132  0.819298  0.318749  1
  Ga  Ga13  1  0.318749  0.178132  0.819298  1
  Ga  Ga14  1  0.819298  0.318749  0.178132  1
  Co  Co15  1  0.683370  0.683370  0.683370  1
  Co  Co16  1  0.566158  0.436715  0.930521  1
  Co  Co17  1  0.436715  0.930521  0.566158  1
  Co  Co18  1  0.930521  0.566158  0.436715  1
  Co  Co19  1  0.069556  0.069556  0.069556  1
  N  N20  1  0.870941  0.126159  0.625695  1
  N  N21  1  0.625695  0.870941  0.126159  1
  N  N22  1  0.126159  0.625695  0.870941  1
  N  N23  1  0.374431  0.374431  0.374431  1
