# generated using pymatgen
data_CsInGa4(HgSe3)4
_symmetry_space_group_name_H-M   'P 1'
_cell_length_a   9.17841612
_cell_length_b   9.19835716
_cell_length_c   9.34517537
_cell_angle_alpha   107.40160171
_cell_angle_beta   107.58875148
_cell_angle_gamma   107.62352632
_symmetry_Int_Tables_number   1
_chemical_formula_structural   CsInGa4(HgSe3)4
_chemical_formula_sum   'Cs1 In1 Ga4 Hg4 Se12'
_cell_volume   647.18261010
_cell_formula_units_Z   1
loop_
 _symmetry_equiv_pos_site_id
 _symmetry_equiv_pos_as_xyz
  1  'x, y, z'
loop_
 _atom_site_type_symbol
 _atom_site_label
 _atom_site_symmetry_multiplicity
 _atom_site_fract_x
 _atom_site_fract_y
 _atom_site_fract_z
 _atom_site_occupancy
  Cs  Cs0  1  0.996033  0.995731  0.995218  1
  In  In1  1  0.483949  0.333172  0.940687  1
  Ga  Ga2  1  0.942003  0.489837  0.344220  1
  Ga  Ga3  1  0.328181  0.930262  0.476492  1
  Ga  Ga4  1  0.014544  0.185112  0.551893  1
  Ga  Ga5  1  0.560842  0.024631  0.189514  1
  Hg  Hg6  1  0.632912  0.709810  0.398860  1
  Hg  Hg7  1  0.400364  0.637927  0.714182  1
  Hg  Hg8  1  0.710430  0.392179  0.628913  1
  Hg  Hg9  1  0.189986  0.564354  0.019436  1
  Se  Se10  1  0.783501  0.938785  0.294132  1
  Se  Se11  1  0.310019  0.812392  0.937388  1
  Se  Se12  1  0.926440  0.273545  0.766989  1
  Se  Se13  1  0.066431  0.695572  0.244244  1
  Se  Se14  1  0.218388  0.069536  0.670273  1
  Se  Se15  1  0.708133  0.231095  0.092740  1
  Se  Se16  1  0.369950  0.422391  0.159385  1
  Se  Se17  1  0.140608  0.370801  0.438330  1
  Se  Se18  1  0.428596  0.132817  0.363473  1
  Se  Se19  1  0.880624  0.637000  0.561415  1
  Se  Se20  1  0.554019  0.880281  0.632684  1
  Se  Se21  1  0.648685  0.567414  0.874170  1
