# generated using pymatgen
data_Ca6Al24Os7Pd
_symmetry_space_group_name_H-M   'P 1'
_cell_length_a   8.86420614
_cell_length_b   8.86420650
_cell_length_c   9.66848782
_cell_angle_alpha   89.89501391
_cell_angle_beta   90.10498430
_cell_angle_gamma   119.84672200
_symmetry_Int_Tables_number   1
_chemical_formula_structural   Ca6Al24Os7Pd
_chemical_formula_sum   'Ca6 Al24 Os7 Pd1'
_cell_volume   658.92598700
_cell_formula_units_Z   1
loop_
 _symmetry_equiv_pos_site_id
 _symmetry_equiv_pos_as_xyz
  1  'x, y, z'
loop_
 _atom_site_type_symbol
 _atom_site_label
 _atom_site_symmetry_multiplicity
 _atom_site_fract_x
 _atom_site_fract_y
 _atom_site_fract_z
 _atom_site_occupancy
  Ca  Ca0  1  0.191062  0.385955  0.251302  1
  Ca  Ca1  1  0.808938  0.614045  0.748698  1
  Ca  Ca2  1  0.614045  0.808938  0.251302  1
  Ca  Ca3  1  0.385955  0.191062  0.748698  1
  Ca  Ca4  1  0.195292  0.804708  0.250796  1
  Ca  Ca5  1  0.804708  0.195292  0.749204  1
  Al  Al6  1  0.330686  0.669314  0.999635  1
  Al  Al7  1  0.669314  0.330686  0.000365  1
  Al  Al8  1  0.666590  0.333410  0.505344  1
  Al  Al9  1  0.333410  0.666590  0.494656  1
  Al  Al10  1  0.163082  0.324699  0.573541  1
  Al  Al11  1  0.836918  0.675301  0.426459  1
  Al  Al12  1  0.675301  0.836918  0.573541  1
  Al  Al13  1  0.844321  0.678190  0.077302  1
  Al  Al14  1  0.324699  0.163082  0.426459  1
  Al  Al15  1  0.155679  0.321810  0.922698  1
  Al  Al16  1  0.162929  0.837071  0.571555  1
  Al  Al17  1  0.321810  0.155679  0.077302  1
  Al  Al18  1  0.837071  0.162929  0.428445  1
  Al  Al19  1  0.678190  0.844321  0.922698  1
  Al  Al20  1  0.837921  0.162079  0.072620  1
  Al  Al21  1  0.162079  0.837921  0.927380  1
  Al  Al22  1  0.559680  0.121984  0.250241  1
  Al  Al23  1  0.440320  0.878016  0.749759  1
  Al  Al24  1  0.878016  0.440320  0.250241  1
  Al  Al25  1  0.121984  0.559680  0.749759  1
  Al  Al26  1  0.562588  0.437412  0.252655  1
  Al  Al27  1  0.437412  0.562588  0.747345  1
  Al  Al28  1  0.000660  0.999340  0.250378  1
  Al  Al29  1  0.999340  0.000660  0.749622  1
  Os  Os30  1  0.500000  0.000000  0.000000  1
  Os  Os31  1  0.000000  0.500000  0.000000  1
  Os  Os32  1  0.500000  0.000000  0.500000  1
  Os  Os33  1  0.000000  0.500000  0.500000  1
  Os  Os34  1  0.500000  0.500000  0.500000  1
  Os  Os35  1  0.000000  0.000000  0.000000  1
  Os  Os36  1  0.000000  0.000000  0.500000  1
  Pd  Pd37  1  0.500000  0.500000  0.000000  1
