# generated using pymatgen
data_TaTi5(ReSi)6
_symmetry_space_group_name_H-M   'P 1'
_cell_length_a   7.55932424
_cell_length_b   7.55982082
_cell_length_c   7.55932325
_cell_angle_alpha   126.16237489
_cell_angle_beta   128.96943135
_cell_angle_gamma   77.34936341
_symmetry_Int_Tables_number   1
_chemical_formula_structural   TaTi5(ReSi)6
_chemical_formula_sum   'Ta1 Ti5 Re6 Si6'
_cell_volume   263.08087491
_cell_formula_units_Z   1
loop_
 _symmetry_equiv_pos_site_id
 _symmetry_equiv_pos_as_xyz
  1  'x, y, z'
loop_
 _atom_site_type_symbol
 _atom_site_label
 _atom_site_symmetry_multiplicity
 _atom_site_fract_x
 _atom_site_fract_y
 _atom_site_fract_z
 _atom_site_occupancy
  Ta  Ta0  1  0.248454  0.899383  0.150928  1
  Ti  Ti1  1  0.952992  0.498920  0.045927  1
  Ti  Ti2  1  0.047984  0.087503  0.539519  1
  Ti  Ti3  1  0.449175  0.491735  0.542560  1
  Ti  Ti4  1  0.751516  0.901796  0.650280  1
  Ti  Ti5  1  0.549913  0.098769  0.048855  1
  Re  Re6  1  0.501595  0.235658  0.737310  1
  Re  Re7  1  0.998348  0.235658  0.234063  1
  Re  Re8  1  0.868561  0.497861  0.626790  1
  Re  Re9  1  0.627910  0.758258  0.125766  1
  Re  Re10  1  0.371069  0.497861  0.129300  1
  Re  Re11  1  0.132492  0.758258  0.630349  1
  Si  Si12  1  0.751390  0.499734  0.248345  1
  Si  Si13  1  0.165565  0.165462  0.994373  1
  Si  Si14  1  0.671089  0.165462  0.499897  1
  Si  Si15  1  0.339004  0.828893  0.504584  1
  Si  Si16  1  0.248632  0.492105  0.743474  1
  Si  Si17  1  0.824310  0.828893  0.989890  1
