# generated using pymatgen
data_Yb4GaIr7
_symmetry_space_group_name_H-M   'P 1'
_cell_length_a   5.40534576
_cell_length_b   5.40534590
_cell_length_c   8.40414110
_cell_angle_alpha   90.00280429
_cell_angle_beta   89.99720756
_cell_angle_gamma   120.00581868
_symmetry_Int_Tables_number   1
_chemical_formula_structural   Yb4GaIr7
_chemical_formula_sum   'Yb4 Ga1 Ir7'
_cell_volume   212.64024779
_cell_formula_units_Z   1
loop_
 _symmetry_equiv_pos_site_id
 _symmetry_equiv_pos_as_xyz
  1  'x, y, z'
loop_
 _atom_site_type_symbol
 _atom_site_label
 _atom_site_symmetry_multiplicity
 _atom_site_fract_x
 _atom_site_fract_y
 _atom_site_fract_z
 _atom_site_occupancy
  Yb  Yb0  1  0.666668  0.333332  0.573149  1
  Yb  Yb1  1  0.333332  0.666668  0.426851  1
  Yb  Yb2  1  0.333319  0.666681  0.067040  1
  Yb  Yb3  1  0.666681  0.333319  0.932960  1
  Ga  Ga4  1  0.000000  0.000000  0.500000  1
  Ir  Ir5  1  0.000000  0.000000  0.000000  1
  Ir  Ir6  1  0.171822  0.343607  0.748171  1
  Ir  Ir7  1  0.171808  0.828192  0.748150  1
  Ir  Ir8  1  0.656393  0.828178  0.748171  1
  Ir  Ir9  1  0.828178  0.656393  0.251829  1
  Ir  Ir10  1  0.828192  0.171808  0.251850  1
  Ir  Ir11  1  0.343607  0.171822  0.251829  1
