# generated using pymatgen
data_K3Ba5Ca4Re2(TcN8)2
_symmetry_space_group_name_H-M   'P 1'
_cell_length_a   10.63471519
_cell_length_b   10.27776220
_cell_length_c   7.87150100
_cell_angle_alpha   70.31774461
_cell_angle_beta   65.50136487
_cell_angle_gamma   44.18088325
_symmetry_Int_Tables_number   1
_chemical_formula_structural   K3Ba5Ca4Re2(TcN8)2
_chemical_formula_sum   'K3 Ba5 Ca4 Re2 Tc2 N16'
_cell_volume   544.57207384
_cell_formula_units_Z   1
loop_
 _symmetry_equiv_pos_site_id
 _symmetry_equiv_pos_as_xyz
  1  'x, y, z'
loop_
 _atom_site_type_symbol
 _atom_site_label
 _atom_site_symmetry_multiplicity
 _atom_site_fract_x
 _atom_site_fract_y
 _atom_site_fract_z
 _atom_site_occupancy
  K  K0  1  0.578312  0.921688  0.921688  1
  K  K1  1  0.921822  0.578178  0.578178  1
  K  K2  1  0.326190  0.673810  0.673810  1
  Ba  Ba3  1  0.114594  0.106771  0.886746  1
  Ba  Ba4  1  0.140554  0.135140  0.364800  1
  Ba  Ba5  1  0.359506  0.364800  0.135140  1
  Ba  Ba6  1  0.670878  0.329122  0.329122  1
  Ba  Ba7  1  0.891888  0.886746  0.106771  1
  Ca  Ca8  1  0.334294  0.345171  0.664279  1
  Ca  Ca9  1  0.913638  0.902363  0.594099  1
  Ca  Ca10  1  0.656256  0.664279  0.345171  1
  Ca  Ca11  1  0.589901  0.594099  0.902363  1
  Re  Re12  1  0.494386  0.010105  0.491595  1
  Re  Re13  1  0.003914  0.491595  0.010105  1
  Tc  Tc14  1  0.757059  0.242343  0.756939  1
  Tc  Tc15  1  0.243659  0.756939  0.242343  1
  N  N16  1  0.015785  0.651164  0.825889  1
  N  N17  1  0.697672  0.286708  0.999365  1
  N  N18  1  0.654757  0.023652  0.499224  1
  N  N19  1  0.507159  0.825889  0.651164  1
  N  N20  1  0.242432  0.587937  0.419329  1
  N  N21  1  0.750305  0.419329  0.587937  1
  N  N22  1  0.997489  0.016840  0.702782  1
  N  N23  1  0.549462  0.969314  0.251651  1
  N  N24  1  0.425288  0.745253  0.234277  1
  N  N25  1  0.964325  0.551310  0.232157  1
  N  N26  1  0.282891  0.702782  0.016840  1
  N  N27  1  0.822365  0.499224  0.023652  1
  N  N28  1  0.229572  0.251651  0.969314  1
  N  N29  1  0.595183  0.234277  0.745253  1
  N  N30  1  0.252208  0.232157  0.551310  1
  N  N31  1  0.016257  0.999365  0.286708  1
