# generated using pymatgen
data_Lu8Mn(CoB8)3
_symmetry_space_group_name_H-M   'P 1'
_cell_length_a   3.51310900
_cell_length_b   8.98820827
_cell_length_c   11.34693500
_cell_angle_alpha   90.01400489
_cell_angle_beta   90.00000000
_cell_angle_gamma   90.00000000
_symmetry_Int_Tables_number   1
_chemical_formula_structural   Lu8Mn(CoB8)3
_chemical_formula_sum   'Lu8 Mn1 Co3 B24'
_cell_volume   358.29711051
_cell_formula_units_Z   1
loop_
 _symmetry_equiv_pos_site_id
 _symmetry_equiv_pos_as_xyz
  1  'x, y, z'
loop_
 _atom_site_type_symbol
 _atom_site_label
 _atom_site_symmetry_multiplicity
 _atom_site_fract_x
 _atom_site_fract_y
 _atom_site_fract_z
 _atom_site_occupancy
  Lu  Lu0  1  0.000000  0.325669  0.414090  1
  Lu  Lu1  1  0.000000  0.676900  0.582414  1
  Lu  Lu2  1  0.000000  0.820635  0.087637  1
  Lu  Lu3  1  0.000000  0.176369  0.915410  1
  Lu  Lu4  1  0.000000  0.942549  0.371091  1
  Lu  Lu5  1  0.000000  0.057530  0.629838  1
  Lu  Lu6  1  0.000000  0.444226  0.129659  1
  Lu  Lu7  1  0.000000  0.557008  0.869926  1
  Mn  Mn8  1  0.000000  0.639277  0.320008  1
  Co  Co9  1  0.000000  0.361265  0.679233  1
  Co  Co10  1  0.000000  0.138613  0.179624  1
  Co  Co11  1  0.000000  0.861164  0.820573  1
  B  B12  1  0.500000  0.553872  0.432563  1
  B  B13  1  0.500000  0.446961  0.566490  1
  B  B14  1  0.500000  0.052813  0.066379  1
  B  B15  1  0.500000  0.946432  0.933843  1
  B  B16  1  0.500000  0.747586  0.418152  1
  B  B17  1  0.500000  0.252896  0.581435  1
  B  B18  1  0.500000  0.246785  0.081553  1
  B  B19  1  0.500000  0.752262  0.918332  1
  B  B20  1  0.500000  0.791567  0.265294  1
  B  B21  1  0.500000  0.207949  0.736484  1
  B  B22  1  0.500000  0.291569  0.235934  1
  B  B23  1  0.500000  0.708093  0.763103  1
  B  B24  1  0.500000  0.631673  0.185534  1
  B  B25  1  0.500000  0.366832  0.816288  1
  B  B26  1  0.500000  0.133097  0.316086  1
  B  B27  1  0.500000  0.867363  0.683643  1
  B  B28  1  0.500000  0.984566  0.211303  1
  B  B29  1  0.500000  0.015338  0.788974  1
  B  B30  1  0.500000  0.484021  0.288061  1
  B  B31  1  0.500000  0.515393  0.711013  1
  B  B32  1  0.500000  0.606033  0.028080  1
  B  B33  1  0.500000  0.393834  0.970833  1
  B  B34  1  0.500000  0.106636  0.471660  1
  B  B35  1  0.500000  0.895230  0.529457  1
