# generated using pymatgen
data_Sc6BAs5Ru6
_symmetry_space_group_name_H-M   'P 1'
_cell_length_a   7.64675579
_cell_length_b   7.64701121
_cell_length_c   7.64675668
_cell_angle_alpha   127.66392470
_cell_angle_beta   123.57493288
_cell_angle_gamma   80.55674337
_symmetry_Int_Tables_number   1
_chemical_formula_structural   Sc6BAs5Ru6
_chemical_formula_sum   'Sc6 B1 As5 Ru6'
_cell_volume   284.47903312
_cell_formula_units_Z   1
loop_
 _symmetry_equiv_pos_site_id
 _symmetry_equiv_pos_as_xyz
  1  'x, y, z'
loop_
 _atom_site_type_symbol
 _atom_site_label
 _atom_site_symmetry_multiplicity
 _atom_site_fract_x
 _atom_site_fract_y
 _atom_site_fract_z
 _atom_site_occupancy
  Sc  Sc0  1  0.449089  0.650969  0.701881  1
  Sc  Sc1  1  0.549983  0.254882  0.204899  1
  Sc  Sc2  1  0.750008  0.847947  0.597939  1
  Sc  Sc3  1  0.249994  0.858591  0.108595  1
  Sc  Sc4  1  0.050934  0.252785  0.701851  1
  Sc  Sc5  1  0.950012  0.654905  0.204893  1
  B  B6  1  0.250007  0.254215  0.504209  1
  As  As7  1  0.750000  0.251091  0.001091  1
  As  As8  1  0.333839  0.587179  0.253947  1
  As  As9  1  0.666747  0.920106  0.253944  1
  As  As10  1  0.166160  0.920106  0.753358  1
  As  As11  1  0.833234  0.587179  0.753341  1
  Ru  Ru12  1  0.469430  0.491666  0.961092  1
  Ru  Ru13  1  0.030574  0.491666  0.522236  1
  Ru  Ru14  1  0.150093  0.253235  0.165037  1
  Ru  Ru15  1  0.911791  0.014923  0.165014  1
  Ru  Ru16  1  0.349909  0.014923  0.603132  1
  Ru  Ru17  1  0.588198  0.253235  0.603142  1
