# generated using pymatgen
data_Y3TlIn2AgHgRh
_symmetry_space_group_name_H-M   'P 1'
_cell_length_a   8.05993100
_cell_length_b   8.09607788
_cell_length_c   3.71035000
_cell_angle_alpha   90.00000000
_cell_angle_beta   90.00000000
_cell_angle_gamma   120.23556298
_symmetry_Int_Tables_number   1
_chemical_formula_structural   Y3TlIn2AgHgRh
_chemical_formula_sum   'Y3 Tl1 In2 Ag1 Hg1 Rh1'
_cell_volume   209.17786686
_cell_formula_units_Z   1
loop_
 _symmetry_equiv_pos_site_id
 _symmetry_equiv_pos_as_xyz
  1  'x, y, z'
loop_
 _atom_site_type_symbol
 _atom_site_label
 _atom_site_symmetry_multiplicity
 _atom_site_fract_x
 _atom_site_fract_y
 _atom_site_fract_z
 _atom_site_occupancy
  Y  Y0  1  0.969757  0.584016  0.500000  1
  Y  Y1  1  0.412377  0.383976  0.500000  1
  Y  Y2  1  0.616840  0.033077  0.500000  1
  Tl  Tl3  1  0.003257  0.273951  0.000000  1
  In  In4  1  0.270425  0.998410  0.000000  1
  In  In5  1  0.728020  0.726558  0.000000  1
  Ag  Ag6  1  0.998721  0.991981  0.500000  1
  Hg  Hg7  1  0.339203  0.673946  0.000000  1
  Rh  Rh8  1  0.661399  0.334086  0.000000  1
