# generated using pymatgen
data_Sr4MnNb2MoO12
_symmetry_space_group_name_H-M   'P 1'
_cell_length_a   5.80374592
_cell_length_b   5.76703112
_cell_length_c   9.95430680
_cell_angle_alpha   54.68696441
_cell_angle_beta   89.58395831
_cell_angle_gamma   89.34365000
_symmetry_Int_Tables_number   1
_chemical_formula_structural   Sr4MnNb2MoO12
_chemical_formula_sum   'Sr4 Mn1 Nb2 Mo1 O12'
_cell_volume   271.85447284
_cell_formula_units_Z   1
loop_
 _symmetry_equiv_pos_site_id
 _symmetry_equiv_pos_as_xyz
  1  'x, y, z'
loop_
 _atom_site_type_symbol
 _atom_site_label
 _atom_site_symmetry_multiplicity
 _atom_site_fract_x
 _atom_site_fract_y
 _atom_site_fract_z
 _atom_site_occupancy
  Sr  Sr0  1  0.468187  0.769782  0.239773  1
  Sr  Sr1  1  0.531813  0.230218  0.760227  1
  Sr  Sr2  1  0.975568  0.255081  0.241376  1
  Sr  Sr3  1  0.024432  0.744919  0.758624  1
  Mn  Mn4  1  0.000000  0.000000  0.000000  1
  Nb  Nb5  1  0.000000  0.500000  0.500000  1
  Nb  Nb6  1  0.500000  0.500000  0.000000  1
  Mo  Mo7  1  0.500000  0.000000  0.500000  1
  O  O8  1  0.707885  0.194862  0.034280  1
  O  O9  1  0.292115  0.805138  0.965720  1
  O  O10  1  0.216671  0.806953  0.464468  1
  O  O11  1  0.783329  0.193047  0.535532  1
  O  O12  1  0.017245  0.668662  0.262931  1
  O  O13  1  0.982755  0.331338  0.737069  1
  O  O14  1  0.514138  0.315319  0.252891  1
  O  O15  1  0.485862  0.684681  0.747109  1
  O  O16  1  0.230016  0.259491  0.034738  1
  O  O17  1  0.769984  0.740509  0.965262  1
  O  O18  1  0.720628  0.761516  0.462237  1
  O  O19  1  0.279372  0.238484  0.537763  1
