# generated using pymatgen
data_Yb4MnRu7
_symmetry_space_group_name_H-M   'P 1'
_cell_length_a   5.25138200
_cell_length_b   5.25138131
_cell_length_c   8.71541200
_cell_angle_alpha   90.00000000
_cell_angle_beta   90.00000000
_cell_angle_gamma   119.99999173
_symmetry_Int_Tables_number   1
_chemical_formula_structural   Yb4MnRu7
_chemical_formula_sum   'Yb4 Mn1 Ru7'
_cell_volume   208.14489106
_cell_formula_units_Z   1
loop_
 _symmetry_equiv_pos_site_id
 _symmetry_equiv_pos_as_xyz
  1  'x, y, z'
loop_
 _atom_site_type_symbol
 _atom_site_label
 _atom_site_symmetry_multiplicity
 _atom_site_fract_x
 _atom_site_fract_y
 _atom_site_fract_z
 _atom_site_occupancy
  Yb  Yb0  1  0.333333  0.666667  0.434573  1
  Yb  Yb1  1  0.666667  0.333333  0.565427  1
  Yb  Yb2  1  0.666667  0.333333  0.931990  1
  Yb  Yb3  1  0.333333  0.666667  0.068010  1
  Mn  Mn4  1  0.000000  0.000000  0.000000  1
  Ru  Ru5  1  0.000000  0.000000  0.500000  1
  Ru  Ru6  1  0.829847  0.170153  0.245526  1
  Ru  Ru7  1  0.829847  0.659692  0.245526  1
  Ru  Ru8  1  0.340308  0.170153  0.245526  1
  Ru  Ru9  1  0.170153  0.829847  0.754474  1
  Ru  Ru10  1  0.170153  0.340308  0.754474  1
  Ru  Ru11  1  0.659692  0.829847  0.754474  1
