# generated using pymatgen
data_Yb2DyNiSn3Pt2
_symmetry_space_group_name_H-M   'P 1'
_cell_length_a   7.54560241
_cell_length_b   7.57813302
_cell_length_c   3.85047200
_cell_angle_alpha   90.00000000
_cell_angle_beta   90.00000000
_cell_angle_gamma   120.14271117
_symmetry_Int_Tables_number   1
_chemical_formula_structural   Yb2DyNiSn3Pt2
_chemical_formula_sum   'Yb2 Dy1 Ni1 Sn3 Pt2'
_cell_volume   190.40327182
_cell_formula_units_Z   1
loop_
 _symmetry_equiv_pos_site_id
 _symmetry_equiv_pos_as_xyz
  1  'x, y, z'
loop_
 _atom_site_type_symbol
 _atom_site_label
 _atom_site_symmetry_multiplicity
 _atom_site_fract_x
 _atom_site_fract_y
 _atom_site_fract_z
 _atom_site_occupancy
  Yb  Yb0  1  0.407665  0.407981  0.500000  1
  Yb  Yb1  1  0.592335  0.000316  0.500000  1
  Dy  Dy2  1  0.000000  0.591679  0.500000  1
  Ni  Ni3  1  0.000000  0.995638  0.500000  1
  Sn  Sn4  1  0.744966  0.749127  0.000000  1
  Sn  Sn5  1  0.255034  0.004161  0.000000  1
  Sn  Sn6  1  0.000000  0.246543  0.000000  1
  Pt  Pt7  1  0.672909  0.338731  0.000000  1
  Pt  Pt8  1  0.327091  0.665823  0.000000  1
