# generated using pymatgen
data_Zr8Tl3InCu7Pd
_symmetry_space_group_name_H-M   'P 1'
_cell_length_a   7.35438591
_cell_length_b   7.35000219
_cell_length_c   6.87252807
_cell_angle_alpha   89.95439316
_cell_angle_beta   89.96693302
_cell_angle_gamma   89.95917412
_symmetry_Int_Tables_number   1
_chemical_formula_structural   Zr8Tl3InCu7Pd
_chemical_formula_sum   'Zr8 Tl3 In1 Cu7 Pd1'
_cell_volume   371.49253071
_cell_formula_units_Z   1
loop_
 _symmetry_equiv_pos_site_id
 _symmetry_equiv_pos_as_xyz
  1  'x, y, z'
loop_
 _atom_site_type_symbol
 _atom_site_label
 _atom_site_symmetry_multiplicity
 _atom_site_fract_x
 _atom_site_fract_y
 _atom_site_fract_z
 _atom_site_occupancy
  Zr  Zr0  1  0.650990  0.649003  0.498374  1
  Zr  Zr1  1  0.803576  0.195439  0.501006  1
  Zr  Zr2  1  0.695834  0.695236  0.000400  1
  Zr  Zr3  1  0.848568  0.150804  0.999687  1
  Zr  Zr4  1  0.195029  0.803455  0.500907  1
  Zr  Zr5  1  0.305192  0.305338  0.000184  1
  Zr  Zr6  1  0.148973  0.846701  0.999740  1
  Zr  Zr7  1  0.351033  0.353312  0.499696  1
  Tl  Tl8  1  0.999654  0.500147  0.249523  1
  Tl  Tl9  1  0.502727  0.997927  0.750078  1
  Tl  Tl10  1  0.499898  0.999544  0.249691  1
  In  In11  1  0.998150  0.502410  0.749976  1
  Cu  Cu12  1  0.620908  0.379213  0.198507  1
  Cu  Cu13  1  0.377193  0.620111  0.800789  1
  Cu  Cu14  1  0.876019  0.871611  0.698884  1
  Cu  Cu15  1  0.623388  0.380732  0.800717  1
  Cu  Cu16  1  0.379649  0.621458  0.198364  1
  Cu  Cu17  1  0.121529  0.121571  0.296761  1
  Cu  Cu18  1  0.879764  0.879949  0.301294  1
  Pd  Pd19  1  0.121922  0.126037  0.705421  1
