# generated using pymatgen
data_Pr10Sn20Ir3Pd5
_symmetry_space_group_name_H-M   'P 1'
_cell_length_a   14.30663553
_cell_length_b   14.30762252
_cell_length_c   4.68964600
_cell_angle_alpha   90.00000000
_cell_angle_beta   90.00000000
_cell_angle_gamma   89.96903564
_symmetry_Int_Tables_number   1
_chemical_formula_structural   Pr10Sn20Ir3Pd5
_chemical_formula_sum   'Pr10 Sn20 Ir3 Pd5'
_cell_volume   959.94197966
_cell_formula_units_Z   1
loop_
 _symmetry_equiv_pos_site_id
 _symmetry_equiv_pos_as_xyz
  1  'x, y, z'
loop_
 _atom_site_type_symbol
 _atom_site_label
 _atom_site_symmetry_multiplicity
 _atom_site_fract_x
 _atom_site_fract_y
 _atom_site_fract_z
 _atom_site_occupancy
  Pr  Pr0  1  0.500650  0.496707  0.000000  1
  Pr  Pr1  1  0.000838  0.999561  0.000000  1
  Pr  Pr2  1  0.676246  0.180982  0.500000  1
  Pr  Pr3  1  0.320501  0.821225  0.500000  1
  Pr  Pr4  1  0.175782  0.319025  0.500000  1
  Pr  Pr5  1  0.823663  0.680336  0.500000  1
  Pr  Pr6  1  0.892107  0.388917  0.500000  1
  Pr  Pr7  1  0.107515  0.610918  0.500000  1
  Pr  Pr8  1  0.392901  0.111268  0.500000  1
  Pr  Pr9  1  0.609355  0.890982  0.500000  1
  Sn  Sn10  1  0.568346  0.071201  0.000000  1
  Sn  Sn11  1  0.431436  0.932583  0.000000  1
  Sn  Sn12  1  0.068514  0.429940  0.000000  1
  Sn  Sn13  1  0.932197  0.570247  0.000000  1
  Sn  Sn14  1  0.653333  0.699868  0.000000  1
  Sn  Sn15  1  0.346962  0.297455  0.000000  1
  Sn  Sn16  1  0.151520  0.797481  0.000000  1
  Sn  Sn17  1  0.847739  0.201732  0.000000  1
  Sn  Sn18  1  0.299518  0.653119  0.000000  1
  Sn  Sn19  1  0.699248  0.346409  0.000000  1
  Sn  Sn20  1  0.198065  0.153274  0.000000  1
  Sn  Sn21  1  0.801508  0.847459  0.000000  1
  Sn  Sn22  1  0.663079  0.501621  0.500000  1
  Sn  Sn23  1  0.337381  0.495380  0.500000  1
  Sn  Sn24  1  0.162667  0.997371  0.500000  1
  Sn  Sn25  1  0.837773  0.004134  0.500000  1
  Sn  Sn26  1  0.497977  0.662003  0.500000  1
  Sn  Sn27  1  0.503706  0.337043  0.500000  1
  Sn  Sn28  1  0.004858  0.162042  0.500000  1
  Sn  Sn29  1  0.995040  0.837604  0.500000  1
  Ir  Ir30  1  0.531182  0.256518  0.000000  1
  Ir  Ir31  1  0.030744  0.244926  0.000000  1
  Ir  Ir32  1  0.968048  0.755538  0.000000  1
  Pd  Pd33  1  0.745772  0.529622  0.000000  1
  Pd  Pd34  1  0.254931  0.469691  0.000000  1
  Pd  Pd35  1  0.244596  0.969438  0.000000  1
  Pd  Pd36  1  0.754812  0.030250  0.000000  1
  Pd  Pd37  1  0.469489  0.746131  0.000000  1
