# generated using pymatgen
data_Hf13Sc5(Re4P)2
_symmetry_space_group_name_H-M   'P 1'
_cell_length_a   8.61042190
_cell_length_b   8.58780003
_cell_length_c   8.55773600
_cell_angle_alpha   90.00000000
_cell_angle_beta   90.00000000
_cell_angle_gamma   119.91312879
_symmetry_Int_Tables_number   1
_chemical_formula_structural   Hf13Sc5(Re4P)2
_chemical_formula_sum   'Hf13 Sc5 Re8 P2'
_cell_volume   548.49841305
_cell_formula_units_Z   1
loop_
 _symmetry_equiv_pos_site_id
 _symmetry_equiv_pos_as_xyz
  1  'x, y, z'
loop_
 _atom_site_type_symbol
 _atom_site_label
 _atom_site_symmetry_multiplicity
 _atom_site_fract_x
 _atom_site_fract_y
 _atom_site_fract_z
 _atom_site_occupancy
  Hf  Hf0  1  0.195744  0.804481  0.452341  1
  Hf  Hf1  1  0.195744  0.391262  0.452341  1
  Hf  Hf2  1  0.609345  0.804672  0.451560  1
  Hf  Hf3  1  0.804217  0.195235  0.547928  1
  Hf  Hf4  1  0.804217  0.608983  0.547928  1
  Hf  Hf5  1  0.391526  0.195763  0.547755  1
  Hf  Hf6  1  0.804217  0.195235  0.952072  1
  Hf  Hf7  1  0.804217  0.608983  0.952072  1
  Hf  Hf8  1  0.391526  0.195763  0.952245  1
  Hf  Hf9  1  0.195744  0.804481  0.047659  1
  Hf  Hf10  1  0.195744  0.391262  0.047659  1
  Hf  Hf11  1  0.609345  0.804672  0.048440  1
  Hf  Hf12  1  0.078023  0.539012  0.750000  1
  Sc  Sc13  1  0.540362  0.459571  0.250000  1
  Sc  Sc14  1  0.540362  0.080791  0.250000  1
  Sc  Sc15  1  0.919274  0.459637  0.250000  1
  Sc  Sc16  1  0.459027  0.541203  0.750000  1
  Sc  Sc17  1  0.459027  0.917824  0.750000  1
  Re  Re18  1  0.890832  0.109413  0.250000  1
  Re  Re19  1  0.890832  0.781417  0.250000  1
  Re  Re20  1  0.219093  0.109546  0.250000  1
  Re  Re21  1  0.108820  0.890485  0.750000  1
  Re  Re22  1  0.108820  0.218336  0.750000  1
  Re  Re23  1  0.780961  0.890481  0.750000  1
  Re  Re24  1  0.000323  0.000162  0.499663  1
  Re  Re25  1  0.000323  0.000162  0.000337  1
  P  P26  1  0.333683  0.666842  0.250000  1
  P  P27  1  0.668655  0.334327  0.750000  1
