# generated using pymatgen
data_Zr10Ti3Al9Rh7Se
_symmetry_space_group_name_H-M   'P 1'
_cell_length_a   9.07078694
_cell_length_b   9.07078567
_cell_length_c   9.07078734
_cell_angle_alpha   59.95205380
_cell_angle_beta   59.95205797
_cell_angle_gamma   59.95206169
_symmetry_Int_Tables_number   1
_chemical_formula_structural   Zr10Ti3Al9Rh7Se
_chemical_formula_sum   'Zr10 Ti3 Al9 Rh7 Se1'
_cell_volume   527.16600350
_cell_formula_units_Z   1
loop_
 _symmetry_equiv_pos_site_id
 _symmetry_equiv_pos_as_xyz
  1  'x, y, z'
loop_
 _atom_site_type_symbol
 _atom_site_label
 _atom_site_symmetry_multiplicity
 _atom_site_fract_x
 _atom_site_fract_y
 _atom_site_fract_z
 _atom_site_occupancy
  Zr  Zr0  1  0.203116  0.203116  0.795061  1
  Zr  Zr1  1  0.795061  0.203116  0.203116  1
  Zr  Zr2  1  0.203116  0.795061  0.203116  1
  Zr  Zr3  1  0.797866  0.797866  0.193496  1
  Zr  Zr4  1  0.193496  0.797866  0.797866  1
  Zr  Zr5  1  0.797866  0.193496  0.797866  1
  Zr  Zr6  1  0.379989  0.379989  0.379989  1
  Zr  Zr7  1  0.379704  0.862084  0.379704  1
  Zr  Zr8  1  0.862084  0.379704  0.379704  1
  Zr  Zr9  1  0.379704  0.379704  0.862084  1
  Ti  Ti10  1  0.829437  0.512689  0.829437  1
  Ti  Ti11  1  0.512689  0.829437  0.829437  1
  Ti  Ti12  1  0.829437  0.829437  0.512689  1
  Al  Al13  1  0.161665  0.161665  0.161665  1
  Al  Al14  1  0.163365  0.511404  0.163365  1
  Al  Al15  1  0.511404  0.163365  0.163365  1
  Al  Al16  1  0.163365  0.163365  0.511404  1
  Al  Al17  1  0.621556  0.621556  0.621556  1
  Al  Al18  1  0.620904  0.139758  0.620904  1
  Al  Al19  1  0.139758  0.620904  0.620904  1
  Al  Al20  1  0.620904  0.620904  0.139758  1
  Al  Al21  1  0.828564  0.828564  0.828564  1
  Rh  Rh22  1  0.001252  0.001252  0.498053  1
  Rh  Rh23  1  0.498053  0.001252  0.001252  1
  Rh  Rh24  1  0.001252  0.498053  0.001252  1
  Rh  Rh25  1  0.500132  0.500132  0.001923  1
  Rh  Rh26  1  0.001923  0.500132  0.500132  1
  Rh  Rh27  1  0.500132  0.001923  0.500132  1
  Rh  Rh28  1  0.501472  0.501472  0.501472  1
  Se  Se29  1  0.000731  0.000731  0.000731  1
