# generated using pymatgen
data_Dy2Lu6Ti12Si15Ge
_symmetry_space_group_name_H-M   'P 1'
_cell_length_a   7.01176189
_cell_length_b   7.00574746
_cell_length_c   12.86586555
_cell_angle_alpha   90.00157720
_cell_angle_beta   89.90417189
_cell_angle_gamma   90.03141430
_symmetry_Int_Tables_number   1
_chemical_formula_structural   Dy2Lu6Ti12Si15Ge
_chemical_formula_sum   'Dy2 Lu6 Ti12 Si15 Ge1'
_cell_volume   632.00421311
_cell_formula_units_Z   1
loop_
 _symmetry_equiv_pos_site_id
 _symmetry_equiv_pos_as_xyz
  1  'x, y, z'
loop_
 _atom_site_type_symbol
 _atom_site_label
 _atom_site_symmetry_multiplicity
 _atom_site_fract_x
 _atom_site_fract_y
 _atom_site_fract_z
 _atom_site_occupancy
  Dy  Dy0  1  0.497009  0.840243  0.717187  1
  Dy  Dy1  1  0.341245  0.004152  0.466484  1
  Lu  Lu2  1  0.998269  0.658983  0.033282  1
  Lu  Lu3  1  0.001139  0.339543  0.533571  1
  Lu  Lu4  1  0.659528  0.998397  0.967241  1
  Lu  Lu5  1  0.158615  0.501394  0.783877  1
  Lu  Lu6  1  0.839439  0.497199  0.281462  1
  Lu  Lu7  1  0.501836  0.159064  0.216494  1
  Ti  Ti8  1  0.351798  0.506392  0.373074  1
  Ti  Ti9  1  0.846891  0.995809  0.374258  1
  Ti  Ti10  1  0.006979  0.150535  0.123787  1
  Ti  Ti11  1  0.992565  0.849352  0.625545  1
  Ti  Ti12  1  0.509242  0.348212  0.626464  1
  Ti  Ti13  1  0.150331  0.008861  0.877008  1
  Ti  Ti14  1  0.670872  0.672185  0.500150  1
  Ti  Ti15  1  0.827195  0.173935  0.750484  1
  Ti  Ti16  1  0.173988  0.827483  0.248275  1
  Ti  Ti17  1  0.326414  0.326957  0.000401  1
  Ti  Ti18  1  0.492530  0.649995  0.125610  1
  Ti  Ti19  1  0.651499  0.492866  0.874895  1
  Si  Si20  1  0.952654  0.292895  0.935505  1
  Si  Si21  1  0.710458  0.048145  0.564485  1
  Si  Si22  1  0.207367  0.453405  0.184839  1
  Si  Si23  1  0.794037  0.545965  0.685466  1
  Si  Si24  1  0.452538  0.209572  0.815663  1
  Si  Si25  1  0.548171  0.791568  0.313920  1
  Si  Si26  1  0.292471  0.953053  0.064914  1
  Si  Si27  1  0.796673  0.867410  0.182464  1
  Si  Si28  1  0.298381  0.627745  0.567812  1
  Si  Si29  1  0.703669  0.367404  0.067286  1
  Si  Si30  1  0.634396  0.298223  0.432701  1
  Si  Si31  1  0.367556  0.702699  0.933789  1
  Si  Si32  1  0.130750  0.204489  0.315693  1
  Si  Si33  1  0.201315  0.133790  0.684081  1
  Si  Si34  1  0.869213  0.796060  0.818037  1
  Ge  Ge35  1  0.042968  0.706017  0.433793  1
