# generated using pymatgen
data_YbY2Ga9Pd2
_symmetry_space_group_name_H-M   'P 1'
_cell_length_a   8.15284709
_cell_length_b   8.15284689
_cell_length_c   8.15284697
_cell_angle_alpha   149.10039768
_cell_angle_beta   109.27978495
_cell_angle_gamma   79.14933563
_symmetry_Int_Tables_number   1
_chemical_formula_structural   YbY2Ga9Pd2
_chemical_formula_sum   'Yb1 Y2 Ga9 Pd2'
_cell_volume   257.58158066
_cell_formula_units_Z   1
loop_
 _symmetry_equiv_pos_site_id
 _symmetry_equiv_pos_as_xyz
  1  'x, y, z'
loop_
 _atom_site_type_symbol
 _atom_site_label
 _atom_site_symmetry_multiplicity
 _atom_site_fract_x
 _atom_site_fract_y
 _atom_site_fract_z
 _atom_site_occupancy
  Yb  Yb0  1  0.799827  0.799827  0.000000  1
  Y  Y1  1  0.500330  0.500330  0.000000  1
  Y  Y2  1  0.201387  0.201387  0.000000  1
  Ga  Ga3  1  0.076565  0.360063  0.716502  1
  Ga  Ga4  1  0.919320  0.637503  0.281817  1
  Ga  Ga5  1  0.643561  0.360063  0.283498  1
  Ga  Ga6  1  0.355685  0.637503  0.718183  1
  Ga  Ga7  1  0.793426  0.158056  0.635370  1
  Ga  Ga8  1  0.211102  0.844853  0.366249  1
  Ga  Ga9  1  0.522685  0.158056  0.364630  1
  Ga  Ga10  1  0.478605  0.844853  0.633751  1
  Ga  Ga11  1  0.999697  0.499697  0.500000  1
  Pd  Pd12  1  0.816747  0.998905  0.817842  1
  Pd  Pd13  1  0.181064  0.998905  0.182158  1
