# generated using pymatgen
data_Yb4Sc4Re3B24Ru
_symmetry_space_group_name_H-M   'P 1'
_cell_length_a   3.54526500
_cell_length_b   9.03835048
_cell_length_c   11.37583894
_cell_angle_alpha   90.01679897
_cell_angle_beta   90.00000000
_cell_angle_gamma   90.00000000
_symmetry_Int_Tables_number   1
_chemical_formula_structural   Yb4Sc4Re3B24Ru
_chemical_formula_sum   'Yb4 Sc4 Re3 B24 Ru1'
_cell_volume   364.51994600
_cell_formula_units_Z   1
loop_
 _symmetry_equiv_pos_site_id
 _symmetry_equiv_pos_as_xyz
  1  'x, y, z'
loop_
 _atom_site_type_symbol
 _atom_site_label
 _atom_site_symmetry_multiplicity
 _atom_site_fract_x
 _atom_site_fract_y
 _atom_site_fract_z
 _atom_site_occupancy
  Yb  Yb0  1  0.000000  0.324407  0.414206  1
  Yb  Yb1  1  0.000000  0.677063  0.583972  1
  Yb  Yb2  1  0.000000  0.822143  0.086627  1
  Yb  Yb3  1  0.000000  0.176956  0.914978  1
  Sc  Sc4  1  0.000000  0.941388  0.366826  1
  Sc  Sc5  1  0.000000  0.056527  0.632167  1
  Sc  Sc6  1  0.000000  0.443828  0.133849  1
  Sc  Sc7  1  0.000000  0.556942  0.867904  1
  Re  Re8  1  0.000000  0.357994  0.681532  1
  Re  Re9  1  0.000000  0.142364  0.182866  1
  Re  Re10  1  0.000000  0.857474  0.818477  1
  B  B11  1  0.500000  0.555042  0.431779  1
  B  B12  1  0.500000  0.446531  0.566365  1
  B  B13  1  0.500000  0.054662  0.067167  1
  B  B14  1  0.500000  0.946502  0.932796  1
  B  B15  1  0.500000  0.752486  0.417123  1
  B  B16  1  0.500000  0.244775  0.580728  1
  B  B17  1  0.500000  0.254850  0.081510  1
  B  B18  1  0.500000  0.745376  0.918749  1
  B  B19  1  0.500000  0.794266  0.264077  1
  B  B20  1  0.500000  0.203921  0.736358  1
  B  B21  1  0.500000  0.296311  0.237169  1
  B  B22  1  0.500000  0.703990  0.762995  1
  B  B23  1  0.500000  0.629917  0.183604  1
  B  B24  1  0.500000  0.371120  0.817951  1
  B  B25  1  0.500000  0.129253  0.318490  1
  B  B26  1  0.500000  0.870512  0.681741  1
  B  B27  1  0.500000  0.980674  0.212813  1
  B  B28  1  0.500000  0.019005  0.786603  1
  B  B29  1  0.500000  0.483272  0.287674  1
  B  B30  1  0.500000  0.519398  0.712953  1
  B  B31  1  0.500000  0.592520  0.025708  1
  B  B32  1  0.500000  0.407989  0.975560  1
  B  B33  1  0.500000  0.091510  0.474614  1
  B  B34  1  0.500000  0.906513  0.524814  1
  Ru  Ru35  1  0.000000  0.642518  0.317254  1
