# generated using pymatgen
data_Pr3YBe8(B5O11)4
_symmetry_space_group_name_H-M   'P 1'
_cell_length_a   4.39588581
_cell_length_b   6.81856387
_cell_length_c   26.20965563
_cell_angle_alpha   90.04230455
_cell_angle_beta   90.21316622
_cell_angle_gamma   89.78047592
_symmetry_Int_Tables_number   1
_chemical_formula_structural   Pr3YBe8(B5O11)4
_chemical_formula_sum   'Pr3 Y1 Be8 B20 O44'
_cell_volume   785.58706274
_cell_formula_units_Z   1
loop_
 _symmetry_equiv_pos_site_id
 _symmetry_equiv_pos_as_xyz
  1  'x, y, z'
loop_
 _atom_site_type_symbol
 _atom_site_label
 _atom_site_symmetry_multiplicity
 _atom_site_fract_x
 _atom_site_fract_y
 _atom_site_fract_z
 _atom_site_occupancy
  Pr  Pr0  1  0.853714  0.371389  0.919334  1
  Pr  Pr1  1  0.146420  0.870039  0.081235  1
  Pr  Pr2  1  0.358883  0.868347  0.579782  1
  Y  Y3  1  0.632047  0.364532  0.419396  1
  Be  Be4  1  0.164142  0.454173  0.788662  1
  Be  Be5  1  0.834834  0.954843  0.211992  1
  Be  Be6  1  0.662245  0.954368  0.710021  1
  Be  Be7  1  0.338123  0.454755  0.291455  1
  Be  Be8  1  0.659284  0.230938  0.790572  1
  Be  Be9  1  0.339965  0.731617  0.210478  1
  Be  Be10  1  0.157067  0.730404  0.707871  1
  Be  Be11  1  0.840301  0.232443  0.292876  1
  B  B12  1  0.376187  0.038887  0.866451  1
  B  B13  1  0.624201  0.539058  0.134379  1
  B  B14  1  0.873559  0.537178  0.631122  1
  B  B15  1  0.124216  0.039565  0.368187  1
  B  B16  1  0.155386  0.711756  0.867533  1
  B  B17  1  0.845567  0.211245  0.133038  1
  B  B18  1  0.652744  0.211312  0.630609  1
  B  B19  1  0.350357  0.710166  0.370511  1
  B  B20  1  0.043244  0.936657  0.940337  1
  B  B21  1  0.956369  0.436051  0.060306  1
  B  B22  1  0.539882  0.431614  0.556244  1
  B  B23  1  0.466976  0.940512  0.440965  1
  B  B24  1  0.552546  0.952922  0.994062  1
  B  B25  1  0.447199  0.452596  0.006507  1
  B  B26  1  0.046039  0.449388  0.501861  1
  B  B27  1  0.955367  0.958232  0.494025  1
  B  B28  1  0.172609  0.090008  0.751023  1
  B  B29  1  0.827211  0.592109  0.250395  1
  B  B30  1  0.672546  0.590130  0.747448  1
  B  B31  1  0.325788  0.091931  0.252834  1
  O  O32  1  0.355271  0.848142  0.846786  1
  O  O33  1  0.646420  0.348473  0.153991  1
  O  O34  1  0.851189  0.348318  0.651625  1
  O  O35  1  0.147204  0.846606  0.349500  1
  O  O36  1  0.645676  0.921590  0.042724  1
  O  O37  1  0.354288  0.422000  0.957774  1
  O  O38  1  0.131160  0.421150  0.452663  1
  O  O39  1  0.861055  0.921439  0.542196  1
  O  O40  1  0.010288  0.746861  0.914016  1
  O  O41  1  0.990208  0.245991  0.086512  1
  O  O42  1  0.511555  0.243386  0.583439  1
  O  O43  1  0.499619  0.747533  0.416459  1
  O  O44  1  0.239311  0.922553  0.986466  1
  O  O45  1  0.760869  0.422668  0.014035  1
  O  O46  1  0.731770  0.418139  0.509572  1
  O  O47  1  0.269409  0.930842  0.486886  1
  O  O48  1  0.169790  0.084548  0.905264  1
  O  O49  1  0.829172  0.584307  0.095407  1
  O  O50  1  0.670257  0.580049  0.591245  1
  O  O51  1  0.341550  0.087703  0.405291  1
  O  O52  1  0.097263  0.532800  0.846678  1
  O  O53  1  0.903224  0.031911  0.153803  1
  O  O54  1  0.592149  0.034178  0.652162  1
  O  O55  1  0.411860  0.529224  0.350247  1
  O  O56  1  0.572962  0.177738  0.850058  1
  O  O57  1  0.426141  0.677916  0.150876  1
  O  O58  1  0.068420  0.676958  0.647986  1
  O  O59  1  0.921217  0.178165  0.352648  1
  O  O60  1  0.739376  0.013043  0.954306  1
  O  O61  1  0.259860  0.511816  0.046341  1
  O  O62  1  0.234668  0.505702  0.542024  1
  O  O63  1  0.767928  0.020847  0.454439  1
  O  O64  1  0.023371  0.227943  0.780904  1
  O  O65  1  0.975568  0.728510  0.220118  1
  O  O66  1  0.521921  0.727683  0.717425  1
  O  O67  1  0.476303  0.229233  0.282667  1
  O  O68  1  0.485396  0.089181  0.750983  1
  O  O69  1  0.514156  0.591953  0.250726  1
  O  O70  1  0.985385  0.589566  0.747662  1
  O  O71  1  0.012824  0.091158  0.252933  1
  O  O72  1  0.021916  0.953415  0.721782  1
  O  O73  1  0.978472  0.455366  0.279633  1
  O  O74  1  0.523126  0.453730  0.776657  1
  O  O75  1  0.475417  0.954937  0.223578  1
