# generated using pymatgen
data_BaGdAgS3
_symmetry_space_group_name_H-M   'P 1'
_cell_length_a   10.51325700
_cell_length_b   4.16915400
_cell_length_c   13.81090100
_cell_angle_alpha   90.00000000
_cell_angle_beta   90.00000000
_cell_angle_gamma   90.00000000
_symmetry_Int_Tables_number   1
_chemical_formula_structural   BaGdAgS3
_chemical_formula_sum   'Ba4 Gd4 Ag4 S12'
_cell_volume   605.35095310
_cell_formula_units_Z   4
loop_
 _symmetry_equiv_pos_site_id
 _symmetry_equiv_pos_as_xyz
  1  'x, y, z'
loop_
 _atom_site_type_symbol
 _atom_site_label
 _atom_site_symmetry_multiplicity
 _atom_site_fract_x
 _atom_site_fract_y
 _atom_site_fract_z
 _atom_site_occupancy
  Ba  Ba0  1  0.266817  0.250000  0.998908  1
  Ba  Ba1  1  0.766816  0.250000  0.501092  1
  Ba  Ba2  1  0.233183  0.750000  0.498908  1
  Ba  Ba3  1  0.733184  0.750000  0.001092  1
  Gd  Gd4  1  0.012613  0.250000  0.243964  1
  Gd  Gd5  1  0.512614  0.250000  0.256036  1
  Gd  Gd6  1  0.487387  0.750000  0.743964  1
  Gd  Gd7  1  0.987387  0.750000  0.756036  1
  Ag  Ag8  1  0.261020  0.750000  0.222894  1
  Ag  Ag9  1  0.761020  0.750000  0.277106  1
  Ag  Ag10  1  0.238980  0.250000  0.722894  1
  Ag  Ag11  1  0.738980  0.250000  0.777105  1
  S  S12  1  0.069542  0.750000  0.113607  1
  S  S13  1  0.458893  0.750000  0.120446  1
  S  S14  1  0.759971  0.250000  0.170689  1
  S  S15  1  0.259971  0.250000  0.329311  1
  S  S16  1  0.958893  0.750000  0.379554  1
  S  S17  1  0.569542  0.750000  0.386394  1
  S  S18  1  0.430458  0.250000  0.613606  1
  S  S19  1  0.041107  0.250000  0.620445  1
  S  S20  1  0.740030  0.750000  0.670689  1
  S  S21  1  0.240029  0.750000  0.829311  1
  S  S22  1  0.541108  0.250000  0.879555  1
  S  S23  1  0.930458  0.250000  0.886394  1
