# generated using pymatgen
data_Zr12Co(Si4Ru)3
_symmetry_space_group_name_H-M   'P 1'
_cell_length_a   3.90304100
_cell_length_b   10.39659814
_cell_length_c   11.81480215
_cell_angle_alpha   89.75491706
_cell_angle_beta   90.00000000
_cell_angle_gamma   90.00000000
_symmetry_Int_Tables_number   1
_chemical_formula_structural   Zr12Co(Si4Ru)3
_chemical_formula_sum   'Zr12 Co1 Si12 Ru3'
_cell_volume   479.42077665
_cell_formula_units_Z   1
loop_
 _symmetry_equiv_pos_site_id
 _symmetry_equiv_pos_as_xyz
  1  'x, y, z'
loop_
 _atom_site_type_symbol
 _atom_site_label
 _atom_site_symmetry_multiplicity
 _atom_site_fract_x
 _atom_site_fract_y
 _atom_site_fract_z
 _atom_site_occupancy
  Zr  Zr0  1  0.250000  0.878029  0.019557  1
  Zr  Zr1  1  0.250000  0.619713  0.523061  1
  Zr  Zr2  1  0.750000  0.124866  0.977818  1
  Zr  Zr3  1  0.750000  0.376091  0.478783  1
  Zr  Zr4  1  0.250000  0.926363  0.599007  1
  Zr  Zr5  1  0.250000  0.574021  0.098005  1
  Zr  Zr6  1  0.750000  0.072822  0.403701  1
  Zr  Zr7  1  0.750000  0.427486  0.904211  1
  Zr  Zr8  1  0.250000  0.654820  0.800295  1
  Zr  Zr9  1  0.250000  0.841667  0.301050  1
  Zr  Zr10  1  0.750000  0.342160  0.199297  1
  Zr  Zr11  1  0.750000  0.163259  0.699026  1
  Co  Co12  1  0.250000  0.385704  0.679954  1
  Si  Si13  1  0.250000  0.018577  0.823758  1
  Si  Si14  1  0.250000  0.484451  0.325407  1
  Si  Si15  1  0.750000  0.985794  0.175039  1
  Si  Si16  1  0.750000  0.505695  0.676277  1
  Si  Si17  1  0.250000  0.256219  0.838518  1
  Si  Si18  1  0.250000  0.248915  0.342898  1
  Si  Si19  1  0.750000  0.750412  0.157471  1
  Si  Si20  1  0.750000  0.746894  0.658088  1
  Si  Si21  1  0.250000  0.195977  0.543863  1
  Si  Si22  1  0.250000  0.305203  0.042410  1
  Si  Si23  1  0.750000  0.803279  0.457947  1
  Si  Si24  1  0.750000  0.696645  0.956775  1
  Ru  Ru25  1  0.250000  0.114478  0.179419  1
  Ru  Ru26  1  0.750000  0.613564  0.320068  1
  Ru  Ru27  1  0.750000  0.886897  0.818300  1
