# generated using pymatgen
data_Li4Zr3PaRh8
_symmetry_space_group_name_H-M   'P 1'
_cell_length_a   5.94854604
_cell_length_b   5.94826503
_cell_length_c   7.08339800
_cell_angle_alpha   90.00120550
_cell_angle_beta   89.99824998
_cell_angle_gamma   89.99956686
_symmetry_Int_Tables_number   1
_chemical_formula_structural   Li4Zr3PaRh8
_chemical_formula_sum   'Li4 Zr3 Pa1 Rh8'
_cell_volume   250.63561414
_cell_formula_units_Z   1
loop_
 _symmetry_equiv_pos_site_id
 _symmetry_equiv_pos_as_xyz
  1  'x, y, z'
loop_
 _atom_site_type_symbol
 _atom_site_label
 _atom_site_symmetry_multiplicity
 _atom_site_fract_x
 _atom_site_fract_y
 _atom_site_fract_z
 _atom_site_occupancy
  Li  Li0  1  0.749954  0.250002  0.000167  1
  Li  Li1  1  0.249965  0.750003  0.499805  1
  Li  Li2  1  0.750029  0.249996  0.500197  1
  Li  Li3  1  0.250038  0.750005  0.999824  1
  Zr  Zr4  1  0.750109  0.750006  0.999996  1
  Zr  Zr5  1  0.250128  0.249995  0.499989  1
  Zr  Zr6  1  0.749875  0.750003  0.500010  1
  Pa  Pa7  1  0.249875  0.249992  0.000006  1
  Rh  Rh8  1  0.499045  0.498990  0.249222  1
  Rh  Rh9  1  0.499048  0.001003  0.249233  1
  Rh  Rh10  1  0.001008  0.499005  0.249366  1
  Rh  Rh11  1  0.001013  0.001013  0.249357  1
  Rh  Rh12  1  0.000982  0.498995  0.750630  1
  Rh  Rh13  1  0.000989  0.000994  0.750640  1
  Rh  Rh14  1  0.498967  0.499021  0.750780  1
  Rh  Rh15  1  0.498976  0.000979  0.750777  1
