# generated using pymatgen
data_Tb4Tc3B16Os
_symmetry_space_group_name_H-M   'P 1'
_cell_length_a   5.98465147
_cell_length_b   11.57229070
_cell_length_c   3.59738000
_cell_angle_alpha   90.00000000
_cell_angle_beta   90.00000000
_cell_angle_gamma   90.12333559
_symmetry_Int_Tables_number   1
_chemical_formula_structural   Tb4Tc3B16Os
_chemical_formula_sum   'Tb4 Tc3 B16 Os1'
_cell_volume   249.14002721
_cell_formula_units_Z   1
loop_
 _symmetry_equiv_pos_site_id
 _symmetry_equiv_pos_as_xyz
  1  'x, y, z'
loop_
 _atom_site_type_symbol
 _atom_site_label
 _atom_site_symmetry_multiplicity
 _atom_site_fract_x
 _atom_site_fract_y
 _atom_site_fract_z
 _atom_site_occupancy
  Tb  Tb0  1  0.628524  0.350625  0.000000  1
  Tb  Tb1  1  0.372284  0.648654  0.000000  1
  Tb  Tb2  1  0.127396  0.150975  0.000000  1
  Tb  Tb3  1  0.872929  0.849510  0.000000  1
  Tc  Tc4  1  0.632465  0.086736  0.000000  1
  Tc  Tc5  1  0.367027  0.912278  0.000000  1
  Tc  Tc6  1  0.139552  0.410134  0.000000  1
  B  B7  1  0.786758  0.184803  0.500000  1
  B  B8  1  0.212156  0.815041  0.500000  1
  B  B9  1  0.287221  0.314602  0.500000  1
  B  B10  1  0.712067  0.685038  0.500000  1
  B  B11  1  0.863537  0.031670  0.500000  1
  B  B12  1  0.136088  0.968410  0.500000  1
  B  B13  1  0.363439  0.469572  0.500000  1
  B  B14  1  0.637253  0.530822  0.500000  1
  B  B15  1  0.886923  0.453503  0.500000  1
  B  B16  1  0.112638  0.547025  0.500000  1
  B  B17  1  0.386958  0.046671  0.500000  1
  B  B18  1  0.612683  0.952842  0.500000  1
  B  B19  1  0.975437  0.308524  0.500000  1
  B  B20  1  0.024922  0.691488  0.500000  1
  B  B21  1  0.477585  0.191864  0.500000  1
  B  B22  1  0.523279  0.807918  0.500000  1
  Os  Os23  1  0.860879  0.591297  0.000000  1
