# generated using pymatgen
data_Tb2HoHf(Al3Rh)6
_symmetry_space_group_name_H-M   'P 1'
_cell_length_a   7.53899469
_cell_length_b   7.52411533
_cell_length_c   9.41121300
_cell_angle_alpha   90.00000000
_cell_angle_beta   90.00000000
_cell_angle_gamma   119.46857007
_symmetry_Int_Tables_number   1
_chemical_formula_structural   Tb2HoHf(Al3Rh)6
_chemical_formula_sum   'Tb2 Ho1 Hf1 Al18 Rh6'
_cell_volume   464.77842545
_cell_formula_units_Z   1
loop_
 _symmetry_equiv_pos_site_id
 _symmetry_equiv_pos_as_xyz
  1  'x, y, z'
loop_
 _atom_site_type_symbol
 _atom_site_label
 _atom_site_symmetry_multiplicity
 _atom_site_fract_x
 _atom_site_fract_y
 _atom_site_fract_z
 _atom_site_occupancy
  Tb  Tb0  1  0.006198  0.327951  0.750000  1
  Tb  Tb1  1  0.328665  0.006265  0.750000  1
  Ho  Ho2  1  0.672053  0.995282  0.250000  1
  Hf  Hf3  1  0.995977  0.672519  0.250000  1
  Al  Al4  1  0.124863  0.122091  0.250000  1
  Al  Al5  1  0.871101  0.869810  0.750000  1
  Al  Al6  1  0.000015  0.339048  0.080441  1
  Al  Al7  1  0.999426  0.664787  0.928926  1
  Al  Al8  1  0.999426  0.664787  0.571074  1
  Al  Al9  1  0.332158  0.997154  0.419588  1
  Al  Al10  1  0.000015  0.339048  0.419559  1
  Al  Al11  1  0.664418  0.998373  0.574888  1
  Al  Al12  1  0.664418  0.998373  0.925112  1
  Al  Al13  1  0.332158  0.997154  0.080412  1
  Al  Al14  1  0.333511  0.333465  0.547576  1
  Al  Al15  1  0.669668  0.667172  0.444171  1
  Al  Al16  1  0.669668  0.667172  0.055829  1
  Al  Al17  1  0.333511  0.333465  0.952424  1
  Al  Al18  1  0.335959  0.551479  0.250000  1
  Al  Al19  1  0.660830  0.451292  0.750000  1
  Al  Al20  1  0.557066  0.345479  0.250000  1
  Al  Al21  1  0.449976  0.659134  0.750000  1
  Rh  Rh22  1  0.672906  0.328420  0.001727  1
  Rh  Rh23  1  0.327584  0.672500  0.002168  1
  Rh  Rh24  1  0.327584  0.672500  0.497832  1
  Rh  Rh25  1  0.672906  0.328420  0.498273  1
  Rh  Rh26  1  0.998969  0.998431  0.001989  1
  Rh  Rh27  1  0.998969  0.998431  0.498011  1
