# generated using pymatgen
data_Li4Sm2YSn4
_symmetry_space_group_name_H-M   'P 1'
_cell_length_a   4.66179760
_cell_length_b   7.08177798
_cell_length_c   8.71987960
_cell_angle_alpha   113.95825147
_cell_angle_beta   105.50417658
_cell_angle_gamma   89.99999936
_symmetry_Int_Tables_number   1
_chemical_formula_structural   Li4Sm2YSn4
_chemical_formula_sum   'Li4 Sm2 Y1 Sn4'
_cell_volume   251.56725488
_cell_formula_units_Z   1
loop_
 _symmetry_equiv_pos_site_id
 _symmetry_equiv_pos_as_xyz
  1  'x, y, z'
loop_
 _atom_site_type_symbol
 _atom_site_label
 _atom_site_symmetry_multiplicity
 _atom_site_fract_x
 _atom_site_fract_y
 _atom_site_fract_z
 _atom_site_occupancy
  Li  Li0  1  0.326711  0.017296  0.653420  1
  Li  Li1  1  0.673289  0.982704  0.346580  1
  Li  Li2  1  0.326711  0.636124  0.653420  1
  Li  Li3  1  0.673289  0.363876  0.346580  1
  Sm  Sm4  1  0.871409  0.371409  0.742817  1
  Sm  Sm5  1  0.128591  0.628591  0.257183  1
  Y  Y6  1  0.000000  0.000000  0.000000  1
  Sn  Sn7  1  0.212386  0.212386  0.424770  1
  Sn  Sn8  1  0.787614  0.787614  0.575230  1
  Sn  Sn9  1  0.500000  0.297155  0.000000  1
  Sn  Sn10  1  0.500000  0.702845  0.000000  1
