# generated using pymatgen
data_Tb5Yb2Tm(B6Os)4
_symmetry_space_group_name_H-M   'P 1'
_cell_length_a   3.65588400
_cell_length_b   9.16762102
_cell_length_c   11.56087415
_cell_angle_alpha   89.84408577
_cell_angle_beta   90.00000000
_cell_angle_gamma   90.00000000
_symmetry_Int_Tables_number   1
_chemical_formula_structural   Tb5Yb2Tm(B6Os)4
_chemical_formula_sum   'Tb5 Yb2 Tm1 B24 Os4'
_cell_volume   387.47003734
_cell_formula_units_Z   1
loop_
 _symmetry_equiv_pos_site_id
 _symmetry_equiv_pos_as_xyz
  1  'x, y, z'
loop_
 _atom_site_type_symbol
 _atom_site_label
 _atom_site_symmetry_multiplicity
 _atom_site_fract_x
 _atom_site_fract_y
 _atom_site_fract_z
 _atom_site_occupancy
  Tb  Tb0  1  0.000000  0.821965  0.086066  1
  Tb  Tb1  1  0.000000  0.178032  0.913417  1
  Tb  Tb2  1  0.000000  0.941836  0.370302  1
  Tb  Tb3  1  0.000000  0.058277  0.630107  1
  Tb  Tb4  1  0.000000  0.442865  0.129728  1
  Yb  Yb5  1  0.000000  0.324983  0.414798  1
  Yb  Yb6  1  0.000000  0.675089  0.585607  1
  Tm  Tm7  1  0.000000  0.557373  0.869232  1
  B  B8  1  0.500000  0.553596  0.432782  1
  B  B9  1  0.500000  0.446684  0.567764  1
  B  B10  1  0.500000  0.053513  0.066831  1
  B  B11  1  0.500000  0.945589  0.932906  1
  B  B12  1  0.500000  0.746915  0.418002  1
  B  B13  1  0.500000  0.253472  0.582290  1
  B  B14  1  0.500000  0.247741  0.081416  1
  B  B15  1  0.500000  0.750783  0.918301  1
  B  B16  1  0.500000  0.790119  0.265114  1
  B  B17  1  0.500000  0.210539  0.735094  1
  B  B18  1  0.500000  0.289629  0.234234  1
  B  B19  1  0.500000  0.709011  0.765948  1
  B  B20  1  0.500000  0.631329  0.185777  1
  B  B21  1  0.500000  0.369880  0.814631  1
  B  B22  1  0.500000  0.131305  0.313534  1
  B  B23  1  0.500000  0.868246  0.686699  1
  B  B24  1  0.500000  0.983776  0.211478  1
  B  B25  1  0.500000  0.015769  0.788651  1
  B  B26  1  0.500000  0.484006  0.288606  1
  B  B27  1  0.500000  0.516956  0.712295  1
  B  B28  1  0.500000  0.603286  0.027202  1
  B  B29  1  0.500000  0.397931  0.970369  1
  B  B30  1  0.500000  0.101035  0.472126  1
  B  B31  1  0.500000  0.898983  0.528155  1
  Os  Os32  1  0.000000  0.638872  0.319550  1
  Os  Os33  1  0.000000  0.362095  0.681148  1
  Os  Os34  1  0.000000  0.136727  0.177474  1
  Os  Os35  1  0.000000  0.861794  0.822365  1
