# generated using pymatgen
data_Gd4Sc3CoO12
_symmetry_space_group_name_H-M   'P 1'
_cell_length_a   5.71632233
_cell_length_b   7.91124131
_cell_length_c   5.45001549
_cell_angle_alpha   90.37327131
_cell_angle_beta   89.89798286
_cell_angle_gamma   89.21874275
_symmetry_Int_Tables_number   1
_chemical_formula_structural   Gd4Sc3CoO12
_chemical_formula_sum   'Gd4 Sc3 Co1 O12'
_cell_volume   246.43859724
_cell_formula_units_Z   1
loop_
 _symmetry_equiv_pos_site_id
 _symmetry_equiv_pos_as_xyz
  1  'x, y, z'
loop_
 _atom_site_type_symbol
 _atom_site_label
 _atom_site_symmetry_multiplicity
 _atom_site_fract_x
 _atom_site_fract_y
 _atom_site_fract_z
 _atom_site_occupancy
  Gd  Gd0  1  0.433884  0.758590  0.486183  1
  Gd  Gd1  1  0.058650  0.241265  0.976786  1
  Gd  Gd2  1  0.941349  0.758735  0.023213  1
  Gd  Gd3  1  0.566117  0.241410  0.513819  1
  Sc  Sc4  1  0.499999  0.000000  0.000000  1
  Sc  Sc5  1  0.499999  0.499999  0.000000  1
  Sc  Sc6  1  0.000000  0.499999  0.500000  1
  Co  Co7  1  0.000000  0.000000  0.500000  1
  O  O8  1  0.192897  0.567209  0.191687  1
  O  O9  1  0.306622  0.436137  0.688890  1
  O  O10  1  0.709188  0.945710  0.310509  1
  O  O11  1  0.806170  0.054571  0.790419  1
  O  O12  1  0.807102  0.432792  0.808313  1
  O  O13  1  0.693377  0.563864  0.311108  1
  O  O14  1  0.290811  0.054289  0.689489  1
  O  O15  1  0.193829  0.945428  0.209581  1
  O  O16  1  0.454786  0.248613  0.114057  1
  O  O17  1  0.041445  0.761489  0.614833  1
  O  O18  1  0.958554  0.238511  0.385168  1
  O  O19  1  0.545213  0.751387  0.885942  1
