# generated using pymatgen
data_Sm10Zn3Si15Au2
_symmetry_space_group_name_H-M   'P 1'
_cell_length_a   4.12745229
_cell_length_b   4.20147574
_cell_length_c   35.42767423
_cell_angle_alpha   86.57421322
_cell_angle_beta   86.61605858
_cell_angle_gamma   89.99302767
_symmetry_Int_Tables_number   1
_chemical_formula_structural   Sm10Zn3Si15Au2
_chemical_formula_sum   'Sm10 Zn3 Si15 Au2'
_cell_volume   612.19442953
_cell_formula_units_Z   1
loop_
 _symmetry_equiv_pos_site_id
 _symmetry_equiv_pos_as_xyz
  1  'x, y, z'
loop_
 _atom_site_type_symbol
 _atom_site_label
 _atom_site_symmetry_multiplicity
 _atom_site_fract_x
 _atom_site_fract_y
 _atom_site_fract_z
 _atom_site_occupancy
  Sm  Sm0  1  0.948206  0.448427  0.102712  1
  Sm  Sm1  1  0.349547  0.849717  0.300475  1
  Sm  Sm2  1  0.751034  0.251061  0.497878  1
  Sm  Sm3  1  0.148478  0.648860  0.702338  1
  Sm  Sm4  1  0.546751  0.047035  0.905907  1
  Sm  Sm5  1  0.000278  0.999934  0.999990  1
  Sm  Sm6  1  0.401306  0.400946  0.198008  1
  Sm  Sm7  1  0.802302  0.802026  0.395843  1
  Sm  Sm8  1  0.203193  0.202884  0.594655  1
  Sm  Sm9  1  0.601533  0.601280  0.797435  1
  Zn  Zn10  1  0.466423  0.966524  0.066839  1
  Zn  Zn11  1  0.867750  0.367707  0.264661  1
  Zn  Zn12  1  0.269108  0.768851  0.462559  1
  Si  Si13  1  0.666557  0.166686  0.666542  1
  Si  Si14  1  0.064733  0.564995  0.869834  1
  Si  Si15  1  0.916346  0.917034  0.166692  1
  Si  Si16  1  0.317390  0.318294  0.364392  1
  Si  Si17  1  0.718056  0.718517  0.563077  1
  Si  Si18  1  0.116327  0.116175  0.766885  1
  Si  Si19  1  0.515032  0.515297  0.969377  1
  Si  Si20  1  0.433318  0.932866  0.133651  1
  Si  Si21  1  0.834376  0.334037  0.331427  1
  Si  Si22  1  0.235440  0.734893  0.529646  1
  Si  Si23  1  0.633977  0.133790  0.732695  1
  Si  Si24  1  0.032374  0.531948  0.935745  1
  Si  Si25  1  0.482556  0.482430  0.035184  1
  Si  Si26  1  0.883547  0.883755  0.232746  1
  Si  Si27  1  0.284716  0.285023  0.430430  1
  Au  Au28  1  0.684086  0.684091  0.632144  1
  Au  Au29  1  0.082458  0.082116  0.835829  1
