# generated using pymatgen
data_CuMo3PdN
_symmetry_space_group_name_H-M   'P 1'
_cell_length_a   6.80137000
_cell_length_b   6.80137000
_cell_length_c   6.80137000
_cell_angle_alpha   90.00000000
_cell_angle_beta   90.00000000
_cell_angle_gamma   90.00000000
_symmetry_Int_Tables_number   1
_chemical_formula_structural   CuMo3PdN
_chemical_formula_sum   'Cu4 Mo12 Pd4 N4'
_cell_volume   314.62208469
_cell_formula_units_Z   4
loop_
 _symmetry_equiv_pos_site_id
 _symmetry_equiv_pos_as_xyz
  1  'x, y, z'
loop_
 _atom_site_type_symbol
 _atom_site_label
 _atom_site_symmetry_multiplicity
 _atom_site_fract_x
 _atom_site_fract_y
 _atom_site_fract_z
 _atom_site_occupancy
  Cu  Cu0  1  0.182550  0.817450  0.317450  1
  Cu  Cu1  1  0.317450  0.182550  0.817450  1
  Cu  Cu2  1  0.817450  0.317450  0.182550  1
  Cu  Cu3  1  0.682550  0.682550  0.682550  1
  Mo  Mo4  1  0.800091  0.962353  0.372614  1
  Mo  Mo5  1  0.699909  0.037647  0.872614  1
  Mo  Mo6  1  0.199909  0.462353  0.127386  1
  Mo  Mo7  1  0.300091  0.537647  0.627386  1
  Mo  Mo8  1  0.962353  0.372614  0.800091  1
  Mo  Mo9  1  0.037647  0.872614  0.699909  1
  Mo  Mo10  1  0.462353  0.127386  0.199909  1
  Mo  Mo11  1  0.537647  0.627386  0.300091  1
  Mo  Mo12  1  0.372614  0.800091  0.962353  1
  Mo  Mo13  1  0.872614  0.699909  0.037647  1
  Mo  Mo14  1  0.127386  0.199909  0.462353  1
  Mo  Mo15  1  0.627386  0.300091  0.537647  1
  Pd  Pd16  1  0.567052  0.432948  0.932948  1
  Pd  Pd17  1  0.432948  0.932948  0.567052  1
  Pd  Pd18  1  0.932948  0.567052  0.432948  1
  Pd  Pd19  1  0.067052  0.067052  0.067052  1
  N  N20  1  0.873232  0.126768  0.626768  1
  N  N21  1  0.626768  0.873232  0.126768  1
  N  N22  1  0.126768  0.626768  0.873232  1
  N  N23  1  0.373232  0.373232  0.373232  1
