# generated using pymatgen
data_Pr12FeCoBr17
_symmetry_space_group_name_H-M   'P 1'
_cell_length_a   9.62019625
_cell_length_b   11.50554186
_cell_length_c   11.59331974
_cell_angle_alpha   93.52245659
_cell_angle_beta   104.82828253
_cell_angle_gamma   114.51764413
_symmetry_Int_Tables_number   1
_chemical_formula_structural   Pr12FeCoBr17
_chemical_formula_sum   'Pr12 Fe1 Co1 Br17'
_cell_volume   1107.93826258
_cell_formula_units_Z   1
loop_
 _symmetry_equiv_pos_site_id
 _symmetry_equiv_pos_as_xyz
  1  'x, y, z'
loop_
 _atom_site_type_symbol
 _atom_site_label
 _atom_site_symmetry_multiplicity
 _atom_site_fract_x
 _atom_site_fract_y
 _atom_site_fract_z
 _atom_site_occupancy
  Pr  Pr0  1  0.059896  0.516650  0.321540  1
  Pr  Pr1  1  0.981115  0.809359  0.574639  1
  Pr  Pr2  1  0.639847  0.238508  0.287408  1
  Pr  Pr3  1  0.018433  0.191549  0.422620  1
  Pr  Pr4  1  0.231413  0.672381  0.996023  1
  Pr  Pr5  1  0.260317  0.994864  0.893035  1
  Pr  Pr6  1  0.361688  0.761482  0.711914  1
  Pr  Pr7  1  0.938370  0.481022  0.677350  1
  Pr  Pr8  1  0.741029  0.006875  0.108270  1
  Pr  Pr9  1  0.156710  0.287184  0.147620  1
  Pr  Pr10  1  0.769735  0.327318  0.005475  1
  Pr  Pr11  1  0.842104  0.712464  0.853683  1
  Fe  Fe12  1  0.895836  0.261029  0.213674  1
  Co  Co13  1  0.103937  0.738949  0.785958  1
  Br  Br14  1  0.792640  0.525900  0.423388  1
  Br  Br15  1  0.648767  0.425116  0.759035  1
  Br  Br16  1  0.847416  0.901133  0.327325  1
  Br  Br17  1  0.320675  0.214026  0.364664  1
  Br  Br18  1  0.152690  0.096926  0.674376  1
  Br  Br19  1  0.582418  0.048445  0.849804  1
  Br  Br20  1  0.760767  0.185275  0.534616  1
  Br  Br21  1  0.541791  0.706010  0.947129  1
  Br  Br22  1  0.352153  0.576736  0.239714  1
  Br  Br23  1  0.207587  0.475232  0.578825  1
  Br  Br24  1  0.054366  0.374278  0.901128  1
  Br  Br25  1  0.456729  0.292043  0.050960  1
  Br  Br26  1  0.000353  0.999246  0.999112  1
  Br  Br27  1  0.240013  0.816262  0.467542  1
  Br  Br28  1  0.414256  0.949994  0.148804  1
  Br  Br29  1  0.679699  0.786169  0.636331  1
  Br  Br30  1  0.947252  0.627574  0.098038  1
