# generated using pymatgen
data_Y2TiCrCo10As7
_symmetry_space_group_name_H-M   'P 1'
_cell_length_a   3.76415600
_cell_length_b   9.39261337
_cell_length_c   9.44417671
_cell_angle_alpha   119.76037189
_cell_angle_beta   90.00000000
_cell_angle_gamma   90.00000000
_symmetry_Int_Tables_number   1
_chemical_formula_structural   Y2TiCrCo10As7
_chemical_formula_sum   'Y2 Ti1 Cr1 Co10 As7'
_cell_volume   289.86275093
_cell_formula_units_Z   1
loop_
 _symmetry_equiv_pos_site_id
 _symmetry_equiv_pos_as_xyz
  1  'x, y, z'
loop_
 _atom_site_type_symbol
 _atom_site_label
 _atom_site_symmetry_multiplicity
 _atom_site_fract_x
 _atom_site_fract_y
 _atom_site_fract_z
 _atom_site_occupancy
  Y  Y0  1  0.000000  0.671584  0.338887  1
  Y  Y1  1  0.500000  0.331444  0.666844  1
  Ti  Ti2  1  0.500000  0.782100  0.893263  1
  Cr  Cr3  1  0.500000  0.117566  0.219777  1
  Co  Co4  1  0.000000  0.568557  0.940688  1
  Co  Co5  1  0.000000  0.368990  0.428619  1
  Co  Co6  1  0.000000  0.057963  0.628846  1
  Co  Co7  1  0.500000  0.093449  0.876801  1
  Co  Co8  1  0.000000  0.880328  0.157997  1
  Co  Co9  1  0.000000  0.283477  0.124626  1
  Co  Co10  1  0.000000  0.842679  0.722563  1
  Co  Co11  1  0.500000  0.949709  0.382966  1
  Co  Co12  1  0.500000  0.431059  0.047928  1
  Co  Co13  1  0.500000  0.617381  0.564922  1
  As  As14  1  0.000000  0.007806  0.001524  1
  As  As15  1  0.500000  0.706502  0.119547  1
  As  As16  1  0.500000  0.411973  0.291025  1
  As  As17  1  0.500000  0.887514  0.596372  1
  As  As18  1  0.000000  0.581983  0.697250  1
  As  As19  1  0.000000  0.113644  0.413572  1
  As  As20  1  0.000000  0.294290  0.885980  1
