# generated using pymatgen
data_Tb3Dy2FeRuO12
_symmetry_space_group_name_H-M   'P 1'
_cell_length_a   6.83376914
_cell_length_b   6.83308199
_cell_length_c   7.30905100
_cell_angle_alpha   74.42353660
_cell_angle_beta   74.42226477
_cell_angle_gamma   51.12650484
_symmetry_Int_Tables_number   1
_chemical_formula_structural   Tb3Dy2FeRuO12
_chemical_formula_sum   'Tb3 Dy2 Fe1 Ru1 O12'
_cell_volume   253.66899780
_cell_formula_units_Z   1
loop_
 _symmetry_equiv_pos_site_id
 _symmetry_equiv_pos_as_xyz
  1  'x, y, z'
loop_
 _atom_site_type_symbol
 _atom_site_label
 _atom_site_symmetry_multiplicity
 _atom_site_fract_x
 _atom_site_fract_y
 _atom_site_fract_z
 _atom_site_occupancy
  Tb  Tb0  1  0.997725  0.001980  0.000037  1
  Tb  Tb1  1  0.299974  0.306544  0.859383  1
  Tb  Tb2  1  0.308108  0.308100  0.330944  1
  Dy  Dy3  1  0.691672  0.691655  0.669541  1
  Dy  Dy4  1  0.693273  0.699842  0.140408  1
  Fe  Fe5  1  0.248642  0.751553  0.499986  1
  Ru  Ru6  1  0.759811  0.240489  0.499939  1
  O  O7  1  0.402323  0.903479  0.924650  1
  O  O8  1  0.574211  0.095949  0.581991  1
  O  O9  1  0.901838  0.428064  0.418150  1
  O  O10  1  0.093919  0.599127  0.075469  1
  O  O11  1  0.994446  0.007352  0.316108  1
  O  O12  1  0.510021  0.490461  0.686858  1
  O  O13  1  0.900903  0.406512  0.924112  1
  O  O14  1  0.100892  0.578409  0.580160  1
  O  O15  1  0.423584  0.897087  0.419968  1
  O  O16  1  0.595050  0.096445  0.075926  1
  O  O17  1  0.510164  0.490635  0.312900  1
  O  O18  1  0.993444  0.006316  0.683469  1
