# generated using pymatgen
data_Pr2FeSi4Rh
_symmetry_space_group_name_H-M   'P 1'
_cell_length_a   8.81372205
_cell_length_b   8.81372278
_cell_length_c   4.06559500
_cell_angle_alpha   90.00000000
_cell_angle_beta   90.00000000
_cell_angle_gamma   152.51277822
_symmetry_Int_Tables_number   1
_chemical_formula_structural   Pr2FeSi4Rh
_chemical_formula_sum   'Pr2 Fe1 Si4 Rh1'
_cell_volume   145.76804816
_cell_formula_units_Z   1
loop_
 _symmetry_equiv_pos_site_id
 _symmetry_equiv_pos_as_xyz
  1  'x, y, z'
loop_
 _atom_site_type_symbol
 _atom_site_label
 _atom_site_symmetry_multiplicity
 _atom_site_fract_x
 _atom_site_fract_y
 _atom_site_fract_z
 _atom_site_occupancy
  Pr  Pr0  1  0.103305  0.896695  0.250000  1
  Pr  Pr1  1  0.896034  0.103966  0.750000  1
  Fe  Fe2  1  0.750155  0.249845  0.250000  1
  Si  Si3  1  0.316461  0.683539  0.250000  1
  Si  Si4  1  0.684060  0.315940  0.750000  1
  Si  Si5  1  0.537593  0.462407  0.750000  1
  Si  Si6  1  0.463050  0.536950  0.250000  1
  Rh  Rh7  1  0.249343  0.750657  0.750000  1
