# generated using pymatgen
data_Ho8AlCdPt23
_symmetry_space_group_name_H-M   'P 1'
_cell_length_a   8.26808200
_cell_length_b   8.39723600
_cell_length_c   8.39723600
_cell_angle_alpha   90.00000000
_cell_angle_beta   90.00000000
_cell_angle_gamma   90.00000000
_symmetry_Int_Tables_number   1
_chemical_formula_structural   Ho8AlCdPt23
_chemical_formula_sum   'Ho8 Al1 Cd1 Pt23'
_cell_volume   583.01199904
_cell_formula_units_Z   1
loop_
 _symmetry_equiv_pos_site_id
 _symmetry_equiv_pos_as_xyz
  1  'x, y, z'
loop_
 _atom_site_type_symbol
 _atom_site_label
 _atom_site_symmetry_multiplicity
 _atom_site_fract_x
 _atom_site_fract_y
 _atom_site_fract_z
 _atom_site_occupancy
  Ho  Ho0  1  0.250799  0.243638  0.243638  1
  Ho  Ho1  1  0.748380  0.746323  0.746323  1
  Ho  Ho2  1  0.748380  0.746323  0.253677  1
  Ho  Ho3  1  0.748380  0.253677  0.746323  1
  Ho  Ho4  1  0.250799  0.243638  0.756362  1
  Ho  Ho5  1  0.250799  0.756362  0.243638  1
  Ho  Ho6  1  0.250799  0.756362  0.756362  1
  Ho  Ho7  1  0.748380  0.253677  0.253677  1
  Al  Al8  1  0.999137  0.000000  0.000000  1
  Cd  Cd9  1  0.255772  0.500000  0.500000  1
  Pt  Pt10  1  0.258453  0.500000  0.000000  1
  Pt  Pt11  1  0.740458  0.500000  0.000000  1
  Pt  Pt12  1  0.003705  0.259011  0.500000  1
  Pt  Pt13  1  0.502144  0.263274  0.000000  1
  Pt  Pt14  1  0.003705  0.740989  0.500000  1
  Pt  Pt15  1  0.502144  0.736726  0.000000  1
  Pt  Pt16  1  0.502144  0.000000  0.263274  1
  Pt  Pt17  1  0.258453  0.000000  0.500000  1
  Pt  Pt18  1  0.502144  0.000000  0.736726  1
  Pt  Pt19  1  0.740458  0.000000  0.500000  1
  Pt  Pt20  1  0.003705  0.500000  0.259011  1
  Pt  Pt21  1  0.003705  0.500000  0.740989  1
  Pt  Pt22  1  0.747229  0.500000  0.500000  1
  Pt  Pt23  1  0.496870  0.251985  0.500000  1
  Pt  Pt24  1  0.496870  0.748015  0.500000  1
  Pt  Pt25  1  0.496870  0.500000  0.251985  1
  Pt  Pt26  1  0.496870  0.500000  0.748015  1
  Pt  Pt27  1  0.296409  0.000000  0.000000  1
  Pt  Pt28  1  0.704555  0.000000  0.000000  1
  Pt  Pt29  1  0.997870  0.289655  0.000000  1
  Pt  Pt30  1  0.997870  0.710345  0.000000  1
  Pt  Pt31  1  0.997870  0.000000  0.289655  1
  Pt  Pt32  1  0.997870  0.000000  0.710345  1
