# generated using pymatgen
data_Ho3Sc5Re3B24Ir
_symmetry_space_group_name_H-M   'P 1'
_cell_length_a   3.56516100
_cell_length_b   8.96314112
_cell_length_c   11.33420500
_cell_angle_alpha   90.08987488
_cell_angle_beta   90.00000000
_cell_angle_gamma   90.00000000
_symmetry_Int_Tables_number   1
_chemical_formula_structural   Ho3Sc5Re3B24Ir
_chemical_formula_sum   'Ho3 Sc5 Re3 B24 Ir1'
_cell_volume   362.18454171
_cell_formula_units_Z   1
loop_
 _symmetry_equiv_pos_site_id
 _symmetry_equiv_pos_as_xyz
  1  'x, y, z'
loop_
 _atom_site_type_symbol
 _atom_site_label
 _atom_site_symmetry_multiplicity
 _atom_site_fract_x
 _atom_site_fract_y
 _atom_site_fract_z
 _atom_site_occupancy
  Ho  Ho0  1  0.500000  0.316776  0.414873  1
  Ho  Ho1  1  0.500000  0.680367  0.590017  1
  Ho  Ho2  1  0.500000  0.178889  0.912762  1
  Sc  Sc3  1  0.500000  0.826519  0.079054  1
  Sc  Sc4  1  0.500000  0.441992  0.126632  1
  Sc  Sc5  1  0.500000  0.556574  0.872636  1
  Sc  Sc6  1  0.500000  0.054885  0.628464  1
  Sc  Sc7  1  0.500000  0.945911  0.371326  1
  Re  Re8  1  0.500000  0.137880  0.181003  1
  Re  Re9  1  0.500000  0.860156  0.821230  1
  Re  Re10  1  0.500000  0.360404  0.680192  1
  B  B11  1  0.000000  0.096161  0.473059  1
  B  B12  1  0.000000  0.900961  0.526435  1
  B  B13  1  0.000000  0.403206  0.974050  1
  B  B14  1  0.000000  0.600148  0.027977  1
  B  B15  1  0.000000  0.128042  0.316869  1
  B  B16  1  0.000000  0.870644  0.683994  1
  B  B17  1  0.000000  0.371841  0.816897  1
  B  B18  1  0.000000  0.630893  0.180892  1
  B  B19  1  0.000000  0.051911  0.066540  1
  B  B20  1  0.000000  0.945709  0.934654  1
  B  B21  1  0.000000  0.446224  0.566838  1
  B  B22  1  0.000000  0.555102  0.433268  1
  B  B23  1  0.000000  0.481745  0.285589  1
  B  B24  1  0.000000  0.519908  0.714383  1
  B  B25  1  0.000000  0.019043  0.786429  1
  B  B26  1  0.000000  0.978653  0.212360  1
  B  B27  1  0.000000  0.253097  0.081078  1
  B  B28  1  0.000000  0.747254  0.921544  1
  B  B29  1  0.000000  0.245894  0.581276  1
  B  B30  1  0.000000  0.753677  0.419354  1
  B  B31  1  0.000000  0.294234  0.235426  1
  B  B32  1  0.000000  0.705583  0.766493  1
  B  B33  1  0.000000  0.205477  0.735066  1
  B  B34  1  0.000000  0.794193  0.263263  1
  Ir  Ir35  1  0.500000  0.640047  0.318076  1
