# generated using pymatgen
data_TbNd2Cd(Ir2O7)2
_symmetry_space_group_name_H-M   'P 1'
_cell_length_a   7.39146959
_cell_length_b   7.26416720
_cell_length_c   7.41890200
_cell_angle_alpha   59.29282749
_cell_angle_beta   59.87715307
_cell_angle_gamma   59.28950738
_symmetry_Int_Tables_number   1
_chemical_formula_structural   TbNd2Cd(Ir2O7)2
_chemical_formula_sum   'Tb1 Nd2 Cd1 Ir4 O14'
_cell_volume   278.36089099
_cell_formula_units_Z   1
loop_
 _symmetry_equiv_pos_site_id
 _symmetry_equiv_pos_as_xyz
  1  'x, y, z'
loop_
 _atom_site_type_symbol
 _atom_site_label
 _atom_site_symmetry_multiplicity
 _atom_site_fract_x
 _atom_site_fract_y
 _atom_site_fract_z
 _atom_site_occupancy
  Tb  Tb0  1  0.625000  0.125000  0.125000  1
  Nd  Nd1  1  0.125000  0.125000  0.625000  1
  Nd  Nd2  1  0.125000  0.125000  0.125000  1
  Cd  Cd3  1  0.125000  0.625000  0.125000  1
  Ir  Ir4  1  0.125000  0.625000  0.625000  1
  Ir  Ir5  1  0.625000  0.125000  0.625000  1
  Ir  Ir6  1  0.625000  0.625000  0.125000  1
  Ir  Ir7  1  0.625000  0.625000  0.625000  1
  O  O8  1  0.693765  0.709368  0.298433  1
  O  O9  1  0.292944  0.288566  0.709244  1
  O  O10  1  0.703968  0.288692  0.715164  1
  O  O11  1  0.299818  0.701152  0.298632  1
  O  O12  1  0.299818  0.701152  0.700398  1
  O  O13  1  0.703968  0.288692  0.292175  1
  O  O14  1  0.556235  0.540632  0.951567  1
  O  O15  1  0.957056  0.961434  0.540756  1
  O  O16  1  0.546032  0.961308  0.534836  1
  O  O17  1  0.950182  0.548848  0.951368  1
  O  O18  1  0.950182  0.548848  0.549602  1
  O  O19  1  0.546032  0.961308  0.957825  1
  O  O20  1  0.256282  0.255418  0.244150  1
  O  O21  1  0.993718  0.994582  0.005850  1
