# generated using pymatgen
data_Dy16MgCd3(OsPt)2
_symmetry_space_group_name_H-M   'P 1'
_cell_length_a   9.69130410
_cell_length_b   9.69130303
_cell_length_c   9.74695339
_cell_angle_alpha   59.53972262
_cell_angle_beta   59.53972301
_cell_angle_gamma   59.37051645
_symmetry_Int_Tables_number   1
_chemical_formula_structural   Dy16MgCd3(OsPt)2
_chemical_formula_sum   'Dy16 Mg1 Cd3 Os2 Pt2'
_cell_volume   639.70792134
_cell_formula_units_Z   1
loop_
 _symmetry_equiv_pos_site_id
 _symmetry_equiv_pos_as_xyz
  1  'x, y, z'
loop_
 _atom_site_type_symbol
 _atom_site_label
 _atom_site_symmetry_multiplicity
 _atom_site_fract_x
 _atom_site_fract_y
 _atom_site_fract_z
 _atom_site_occupancy
  Dy  Dy0  1  0.350119  0.350119  0.353338  1
  Dy  Dy1  1  0.349538  0.349538  0.949924  1
  Dy  Dy2  1  0.344898  0.958231  0.348381  1
  Dy  Dy3  1  0.958231  0.344898  0.348381  1
  Dy  Dy4  1  0.813733  0.188986  0.190912  1
  Dy  Dy5  1  0.185826  0.815376  0.807406  1
  Dy  Dy6  1  0.188986  0.813733  0.190912  1
  Dy  Dy7  1  0.815376  0.185826  0.807406  1
  Dy  Dy8  1  0.188731  0.188731  0.810595  1
  Dy  Dy9  1  0.809497  0.809497  0.189949  1
  Dy  Dy10  1  0.938643  0.556850  0.567871  1
  Dy  Dy11  1  0.556643  0.937571  0.939096  1
  Dy  Dy12  1  0.556850  0.938643  0.567871  1
  Dy  Dy13  1  0.937571  0.556642  0.939096  1
  Dy  Dy14  1  0.564052  0.564052  0.938632  1
  Dy  Dy15  1  0.938923  0.938923  0.561575  1
  Mg  Mg16  1  0.574961  0.574961  0.574881  1
  Cd  Cd17  1  0.581077  0.581077  0.255452  1
  Cd  Cd18  1  0.581820  0.253472  0.581638  1
  Cd  Cd19  1  0.253472  0.581820  0.581638  1
  Os  Os20  1  0.144524  0.144524  0.137202  1
  Os  Os21  1  0.145839  0.145839  0.574908  1
  Pt  Pt22  1  0.145930  0.574760  0.141467  1
  Pt  Pt23  1  0.574760  0.145930  0.141467  1
