# generated using pymatgen
data_Dy4ErOs2
_symmetry_space_group_name_H-M   'P 1'
_cell_length_a   6.34686975
_cell_length_b   7.34313273
_cell_length_c   8.42135040
_cell_angle_alpha   96.85069700
_cell_angle_beta   112.13758661
_cell_angle_gamma   89.99999948
_symmetry_Int_Tables_number   1
_chemical_formula_structural   Dy4ErOs2
_chemical_formula_sum   'Dy8 Er2 Os4'
_cell_volume   360.52432227
_cell_formula_units_Z   2
loop_
 _symmetry_equiv_pos_site_id
 _symmetry_equiv_pos_as_xyz
  1  'x, y, z'
loop_
 _atom_site_type_symbol
 _atom_site_label
 _atom_site_symmetry_multiplicity
 _atom_site_fract_x
 _atom_site_fract_y
 _atom_site_fract_z
 _atom_site_occupancy
  Dy  Dy0  1  0.792570  0.583926  0.816606  1
  Dy  Dy1  1  0.975965  0.916074  0.183394  1
  Dy  Dy2  1  0.207430  0.416074  0.183394  1
  Dy  Dy3  1  0.024035  0.083926  0.816606  1
  Dy  Dy4  1  0.204209  0.683562  0.564981  1
  Dy  Dy5  1  0.639229  0.816438  0.435019  1
  Dy  Dy6  1  0.795791  0.316438  0.435019  1
  Dy  Dy7  1  0.360771  0.183562  0.564981  1
  Er  Er8  1  0.421756  0.750000  0.000000  1
  Er  Er9  1  0.578244  0.250000  0.000000  1
  Os  Os10  1  0.602368  0.923035  0.781565  1
  Os  Os11  1  0.820804  0.576965  0.218435  1
  Os  Os12  1  0.397632  0.076965  0.218435  1
  Os  Os13  1  0.179196  0.423035  0.781565  1
