# generated using pymatgen
data_GdH5Pt
_symmetry_space_group_name_H-M   'P 1'
_cell_length_a   4.69483000
_cell_length_b   4.54624100
_cell_length_c   12.78849200
_cell_angle_alpha   90.00000000
_cell_angle_beta   90.00000000
_cell_angle_gamma   90.00000000
_symmetry_Int_Tables_number   1
_chemical_formula_structural   GdH5Pt
_chemical_formula_sum   'Gd4 H20 Pt4'
_cell_volume   272.95538174
_cell_formula_units_Z   4
loop_
 _symmetry_equiv_pos_site_id
 _symmetry_equiv_pos_as_xyz
  1  'x, y, z'
loop_
 _atom_site_type_symbol
 _atom_site_label
 _atom_site_symmetry_multiplicity
 _atom_site_fract_x
 _atom_site_fract_y
 _atom_site_fract_z
 _atom_site_occupancy
  Gd  Gd0  1  0.282334  0.013887  0.632246  1
  Gd  Gd1  1  0.782334  0.486113  0.367754  1
  Gd  Gd2  1  0.217666  0.986113  0.132246  1
  Gd  Gd3  1  0.717666  0.513887  0.867754  1
  H  H4  1  0.744465  0.221660  0.546556  1
  H  H5  1  0.244465  0.278340  0.453444  1
  H  H6  1  0.755535  0.778340  0.046556  1
  H  H7  1  0.255535  0.721660  0.953444  1
  H  H8  1  0.024200  0.893979  0.798845  1
  H  H9  1  0.524200  0.606021  0.201155  1
  H  H10  1  0.475800  0.106021  0.298845  1
  H  H11  1  0.975800  0.393979  0.701155  1
  H  H12  1  0.209173  0.359870  0.830964  1
  H  H13  1  0.709173  0.140130  0.169036  1
  H  H14  1  0.290827  0.640130  0.330964  1
  H  H15  1  0.790827  0.859870  0.669036  1
  H  H16  1  0.558166  0.992547  0.807066  1
  H  H17  1  0.058166  0.507453  0.192934  1
  H  H18  1  0.941834  0.007453  0.307066  1
  H  H19  1  0.441834  0.492547  0.692934  1
  H  H20  1  0.936790  0.298686  0.018995  1
  H  H21  1  0.436790  0.201314  0.981005  1
  H  H22  1  0.563210  0.701314  0.518995  1
  H  H23  1  0.063210  0.798686  0.481005  1
  Pt  Pt24  1  0.251202  0.032244  0.885962  1
  Pt  Pt25  1  0.751202  0.467756  0.114038  1
  Pt  Pt26  1  0.248798  0.967756  0.385962  1
  Pt  Pt27  1  0.748798  0.532244  0.614038  1
