# generated using pymatgen
data_Tb5Ho3AlPd24
_symmetry_space_group_name_H-M   'P 1'
_cell_length_a   8.35350504
_cell_length_b   8.35350404
_cell_length_c   8.35365900
_cell_angle_alpha   89.99951985
_cell_angle_beta   90.00061732
_cell_angle_gamma   90.01105653
_symmetry_Int_Tables_number   1
_chemical_formula_structural   Tb5Ho3AlPd24
_chemical_formula_sum   'Tb5 Ho3 Al1 Pd24'
_cell_volume   582.92698592
_cell_formula_units_Z   1
loop_
 _symmetry_equiv_pos_site_id
 _symmetry_equiv_pos_as_xyz
  1  'x, y, z'
loop_
 _atom_site_type_symbol
 _atom_site_label
 _atom_site_symmetry_multiplicity
 _atom_site_fract_x
 _atom_site_fract_y
 _atom_site_fract_z
 _atom_site_occupancy
  Tb  Tb0  1  0.251496  0.251504  0.251538  1
  Tb  Tb1  1  0.748489  0.748481  0.748446  1
  Tb  Tb2  1  0.748498  0.748502  0.251537  1
  Tb  Tb3  1  0.748486  0.251516  0.748484  1
  Tb  Tb4  1  0.251518  0.251513  0.748447  1
  Ho  Ho5  1  0.251509  0.748489  0.251524  1
  Ho  Ho6  1  0.251466  0.748533  0.748515  1
  Ho  Ho7  1  0.748517  0.251486  0.251521  1
  Al  Al8  1  0.000050  0.999950  0.000040  1
  Pd  Pd9  1  0.259694  0.500739  0.000015  1
  Pd  Pd10  1  0.740345  0.499662  0.000425  1
  Pd  Pd11  1  0.999597  0.259666  0.499628  1
  Pd  Pd12  1  0.500337  0.259655  0.000424  1
  Pd  Pd13  1  0.000851  0.740296  0.499970  1
  Pd  Pd14  1  0.499262  0.740305  0.000016  1
  Pd  Pd15  1  0.499975  0.999993  0.259699  1
  Pd  Pd16  1  0.259704  0.999148  0.499970  1
  Pd  Pd17  1  0.499625  0.999565  0.740328  1
  Pd  Pd18  1  0.740334  0.000404  0.499628  1
  Pd  Pd19  1  0.000008  0.500026  0.259699  1
  Pd  Pd20  1  0.000434  0.500374  0.740328  1
  Pd  Pd21  1  0.252617  0.500840  0.499988  1
  Pd  Pd22  1  0.747381  0.499614  0.499567  1
  Pd  Pd23  1  0.500387  0.252620  0.499568  1
  Pd  Pd24  1  0.499160  0.747381  0.499988  1
  Pd  Pd25  1  0.499981  0.500019  0.252633  1
  Pd  Pd26  1  0.499573  0.500426  0.747362  1
  Pd  Pd27  1  0.289319  0.999253  0.000008  1
  Pd  Pd28  1  0.710623  0.000361  0.000379  1
  Pd  Pd29  1  0.999639  0.289378  0.000378  1
  Pd  Pd30  1  0.000746  0.710680  0.000008  1
  Pd  Pd31  1  0.000008  0.999991  0.289325  1
  Pd  Pd32  1  0.000372  0.999629  0.710614  1
