# generated using pymatgen
data_Sr2Li5CuP5
_symmetry_space_group_name_H-M   'P 1'
_cell_length_a   4.21488528
_cell_length_b   4.21488637
_cell_length_c   13.18125546
_cell_angle_alpha   99.20004309
_cell_angle_beta   99.20004595
_cell_angle_gamma   90.00000849
_symmetry_Int_Tables_number   1
_chemical_formula_structural   Sr2Li5CuP5
_chemical_formula_sum   'Sr2 Li5 Cu1 P5'
_cell_volume   228.10406593
_cell_formula_units_Z   1
loop_
 _symmetry_equiv_pos_site_id
 _symmetry_equiv_pos_as_xyz
  1  'x, y, z'
loop_
 _atom_site_type_symbol
 _atom_site_label
 _atom_site_symmetry_multiplicity
 _atom_site_fract_x
 _atom_site_fract_y
 _atom_site_fract_z
 _atom_site_occupancy
  Sr  Sr0  1  0.647909  0.647909  0.295819  1
  Sr  Sr1  1  0.352091  0.352091  0.704181  1
  Li  Li2  1  0.949635  0.449635  0.899271  1
  Li  Li3  1  0.449873  0.949873  0.899747  1
  Li  Li4  1  0.050127  0.550127  0.100253  1
  Li  Li5  1  0.550365  0.050365  0.100729  1
  Li  Li6  1  0.250000  0.750000  0.500000  1
  Cu  Cu7  1  0.750000  0.250000  0.500000  1
  P  P8  1  0.500000  0.500000  0.000000  1
  P  P9  1  0.887190  0.887190  0.774380  1
  P  P10  1  0.112810  0.112810  0.225620  1
  P  P11  1  0.800513  0.800513  0.601026  1
  P  P12  1  0.199487  0.199487  0.398974  1
