# generated using pymatgen
data_Li3Ce3Pt2Au
_symmetry_space_group_name_H-M   'P 1'
_cell_length_a   7.37811600
_cell_length_b   7.37811610
_cell_length_c   4.04542400
_cell_angle_alpha   90.00000000
_cell_angle_beta   90.00000000
_cell_angle_gamma   119.99999957
_symmetry_Int_Tables_number   1
_chemical_formula_structural   Li3Ce3Pt2Au
_chemical_formula_sum   'Li3 Ce3 Pt2 Au1'
_cell_volume   190.71534766
_cell_formula_units_Z   1
loop_
 _symmetry_equiv_pos_site_id
 _symmetry_equiv_pos_as_xyz
  1  'x, y, z'
loop_
 _atom_site_type_symbol
 _atom_site_label
 _atom_site_symmetry_multiplicity
 _atom_site_fract_x
 _atom_site_fract_y
 _atom_site_fract_z
 _atom_site_occupancy
  Li  Li0  1  0.765581  0.765581  0.500000  1
  Li  Li1  1  0.234419  0.000000  0.500000  1
  Li  Li2  1  0.000000  0.234419  0.500000  1
  Ce  Ce3  1  0.421437  0.421437  0.000000  1
  Ce  Ce4  1  0.578563  0.000000  0.000000  1
  Ce  Ce5  1  0.000000  0.578563  0.000000  1
  Pt  Pt6  1  0.666667  0.333333  0.500000  1
  Pt  Pt7  1  0.333333  0.666667  0.500000  1
  Au  Au8  1  0.000000  0.000000  0.000000  1
