# generated using pymatgen
data_Y2Ga5Co3
_symmetry_space_group_name_H-M   'P 1'
_cell_length_a   5.55113553
_cell_length_b   8.34621368
_cell_length_c   8.34621461
_cell_angle_alpha   96.24997858
_cell_angle_beta   109.39663639
_cell_angle_gamma   109.39663727
_symmetry_Int_Tables_number   1
_chemical_formula_structural   Y2Ga5Co3
_chemical_formula_sum   'Y4 Ga10 Co6'
_cell_volume   333.43752982
_cell_formula_units_Z   2
loop_
 _symmetry_equiv_pos_site_id
 _symmetry_equiv_pos_as_xyz
  1  'x, y, z'
loop_
 _atom_site_type_symbol
 _atom_site_label
 _atom_site_symmetry_multiplicity
 _atom_site_fract_x
 _atom_site_fract_y
 _atom_site_fract_z
 _atom_site_occupancy
  Y  Y0  1  0.775782  0.419054  0.132091  1
  Y  Y1  1  0.724218  0.867909  0.580946  1
  Y  Y2  1  0.224218  0.580946  0.867909  1
  Y  Y3  1  0.275782  0.132091  0.419054  1
  Ga  Ga4  1  0.821099  0.736824  0.905489  1
  Ga  Ga5  1  0.678901  0.094511  0.263176  1
  Ga  Ga6  1  0.178901  0.263176  0.094511  1
  Ga  Ga7  1  0.321099  0.905489  0.736824  1
  Ga  Ga8  1  0.750000  0.205577  0.794423  1
  Ga  Ga9  1  0.250000  0.794423  0.205577  1
  Ga  Ga10  1  0.750000  0.499808  0.500192  1
  Ga  Ga11  1  0.250000  0.500192  0.499808  1
  Ga  Ga12  1  0.750000  0.795006  0.204994  1
  Ga  Ga13  1  0.250000  0.204994  0.795006  1
  Co  Co14  1  0.584587  0.436578  0.734510  1
  Co  Co15  1  0.915413  0.265490  0.563422  1
  Co  Co16  1  0.415413  0.563422  0.265490  1
  Co  Co17  1  0.084587  0.734510  0.436578  1
  Co  Co18  1  0.750000  0.000204  0.999796  1
  Co  Co19  1  0.250000  0.999796  0.000204  1
