# generated using pymatgen
data_GdZrReB6
_symmetry_space_group_name_H-M   'P 1'
_cell_length_a   3.57124600
_cell_length_b   9.06170400
_cell_length_c   11.43440800
_cell_angle_alpha   90.00000000
_cell_angle_beta   90.00000000
_cell_angle_gamma   90.00000000
_symmetry_Int_Tables_number   1
_chemical_formula_structural   GdZrReB6
_chemical_formula_sum   'Gd4 Zr4 Re4 B24'
_cell_volume   370.03544250
_cell_formula_units_Z   4
loop_
 _symmetry_equiv_pos_site_id
 _symmetry_equiv_pos_as_xyz
  1  'x, y, z'
loop_
 _atom_site_type_symbol
 _atom_site_label
 _atom_site_symmetry_multiplicity
 _atom_site_fract_x
 _atom_site_fract_y
 _atom_site_fract_z
 _atom_site_occupancy
  Gd  Gd0  1  0.000000  0.321799  0.413832  1
  Gd  Gd1  1  0.000000  0.678201  0.586168  1
  Gd  Gd2  1  0.000000  0.821799  0.086168  1
  Gd  Gd3  1  0.000000  0.178201  0.913832  1
  Zr  Zr4  1  0.000000  0.944850  0.373008  1
  Zr  Zr5  1  0.000000  0.055150  0.626992  1
  Zr  Zr6  1  0.000000  0.444850  0.126992  1
  Zr  Zr7  1  0.000000  0.555150  0.873008  1
  Re  Re8  1  0.000000  0.641509  0.318341  1
  Re  Re9  1  0.000000  0.358491  0.681659  1
  Re  Re10  1  0.000000  0.141509  0.181659  1
  Re  Re11  1  0.000000  0.858491  0.818341  1
  B  B12  1  0.500000  0.554217  0.432682  1
  B  B13  1  0.500000  0.445783  0.567318  1
  B  B14  1  0.500000  0.054217  0.067318  1
  B  B15  1  0.500000  0.945783  0.932682  1
  B  B16  1  0.500000  0.752189  0.418011  1
  B  B17  1  0.500000  0.247811  0.581989  1
  B  B18  1  0.500000  0.252189  0.081989  1
  B  B19  1  0.500000  0.747811  0.918011  1
  B  B20  1  0.500000  0.794876  0.264738  1
  B  B21  1  0.500000  0.205124  0.735262  1
  B  B22  1  0.500000  0.294876  0.235262  1
  B  B23  1  0.500000  0.705124  0.764738  1
  B  B24  1  0.500000  0.630794  0.183455  1
  B  B25  1  0.500000  0.369206  0.816545  1
  B  B26  1  0.500000  0.130794  0.316545  1
  B  B27  1  0.500000  0.869206  0.683455  1
  B  B28  1  0.500000  0.982587  0.213246  1
  B  B29  1  0.500000  0.017413  0.786754  1
  B  B30  1  0.500000  0.482587  0.286754  1
  B  B31  1  0.500000  0.517413  0.713246  1
  B  B32  1  0.500000  0.600756  0.027056  1
  B  B33  1  0.500000  0.399244  0.972944  1
  B  B34  1  0.500000  0.100756  0.472944  1
  B  B35  1  0.500000  0.899244  0.527056  1
