# generated using pymatgen
data_Pr7SmCu2(Si6Pd)2
_symmetry_space_group_name_H-M   'P 1'
_cell_length_a   8.21263633
_cell_length_b   8.21263800
_cell_length_c   8.57688001
_cell_angle_alpha   89.99628926
_cell_angle_beta   90.00371144
_cell_angle_gamma   119.96531596
_symmetry_Int_Tables_number   1
_chemical_formula_structural   Pr7SmCu2(Si6Pd)2
_chemical_formula_sum   'Pr7 Sm1 Cu2 Si12 Pd2'
_cell_volume   501.16059489
_cell_formula_units_Z   1
loop_
 _symmetry_equiv_pos_site_id
 _symmetry_equiv_pos_as_xyz
  1  'x, y, z'
loop_
 _atom_site_type_symbol
 _atom_site_label
 _atom_site_symmetry_multiplicity
 _atom_site_fract_x
 _atom_site_fract_y
 _atom_site_fract_z
 _atom_site_occupancy
  Pr  Pr0  1  0.500120  0.499880  0.249786  1
  Pr  Pr1  1  0.000298  0.500138  0.750362  1
  Pr  Pr2  1  0.999803  0.499901  0.249670  1
  Pr  Pr3  1  0.499862  0.999702  0.750362  1
  Pr  Pr4  1  0.500099  0.000197  0.249670  1
  Pr  Pr5  1  0.000018  0.999982  0.750453  1
  Pr  Pr6  1  0.999998  0.000002  0.249710  1
  Sm  Sm7  1  0.499887  0.500113  0.749961  1
  Cu  Cu8  1  0.666163  0.333837  0.996674  1
  Cu  Cu9  1  0.333892  0.666108  0.998401  1
  Si  Si10  1  0.830902  0.169098  0.999919  1
  Si  Si11  1  0.169004  0.830996  0.999958  1
  Si  Si12  1  0.338429  0.169724  0.998701  1
  Si  Si13  1  0.165927  0.834073  0.500091  1
  Si  Si14  1  0.661492  0.830261  0.998664  1
  Si  Si15  1  0.834054  0.165946  0.500251  1
  Si  Si16  1  0.830276  0.661571  0.998701  1
  Si  Si17  1  0.668117  0.833728  0.501302  1
  Si  Si18  1  0.169739  0.338508  0.998664  1
  Si  Si19  1  0.331873  0.166300  0.501369  1
  Si  Si20  1  0.166272  0.331883  0.501302  1
  Si  Si21  1  0.833700  0.668127  0.501369  1
  Pd  Pd22  1  0.333804  0.666196  0.501831  1
  Pd  Pd23  1  0.666269  0.333731  0.502830  1
