# generated using pymatgen
data_TmBe12Cu
_symmetry_space_group_name_H-M   'P 1'
_cell_length_a   7.24241460
_cell_length_b   7.29349020
_cell_length_c   7.22487321
_cell_angle_alpha   59.84501994
_cell_angle_beta   59.84354790
_cell_angle_gamma   59.60700004
_symmetry_Int_Tables_number   1
_chemical_formula_structural   TmBe12Cu
_chemical_formula_sum   'Tm2 Be24 Cu2'
_cell_volume   268.41536123
_cell_formula_units_Z   2
loop_
 _symmetry_equiv_pos_site_id
 _symmetry_equiv_pos_as_xyz
  1  'x, y, z'
loop_
 _atom_site_type_symbol
 _atom_site_label
 _atom_site_symmetry_multiplicity
 _atom_site_fract_x
 _atom_site_fract_y
 _atom_site_fract_z
 _atom_site_occupancy
  Tm  Tm0  1  0.252706  0.247294  0.252706  1
  Tm  Tm1  1  0.747294  0.752706  0.747294  1
  Be  Be2  1  0.500000  0.500000  0.500000  1
  Be  Be3  1  0.000000  0.000000  0.000000  1
  Be  Be4  1  0.564374  0.794387  0.435626  1
  Be  Be5  1  0.435626  0.205613  0.564374  1
  Be  Be6  1  0.290240  0.935928  0.709760  1
  Be  Be7  1  0.709760  0.064072  0.290240  1
  Be  Be8  1  0.931365  0.279135  0.068635  1
  Be  Be9  1  0.068635  0.720865  0.931365  1
  Be  Be10  1  0.207372  0.800325  0.557369  1
  Be  Be11  1  0.792628  0.199675  0.442631  1
  Be  Be12  1  0.442631  0.565065  0.792628  1
  Be  Be13  1  0.557369  0.434935  0.207372  1
  Be  Be14  1  0.711047  0.286704  0.936366  1
  Be  Be15  1  0.288953  0.713296  0.063634  1
  Be  Be16  1  0.063634  0.934117  0.288953  1
  Be  Be17  1  0.936366  0.065883  0.711047  1
  Be  Be18  1  0.565947  0.205910  0.792203  1
  Be  Be19  1  0.434053  0.794090  0.207797  1
  Be  Be20  1  0.792203  0.435940  0.565947  1
  Be  Be21  1  0.207797  0.564060  0.434053  1
  Be  Be22  1  0.936308  0.712308  0.291814  1
  Be  Be23  1  0.063692  0.287692  0.708186  1
  Be  Be24  1  0.291814  0.059571  0.936308  1
  Be  Be25  1  0.708186  0.940429  0.063692  1
  Cu  Cu26  1  0.803683  0.557919  0.196317  1
  Cu  Cu27  1  0.196317  0.442081  0.803683  1
