# generated using pymatgen
data_Cs6K3GaBiSb3
_symmetry_space_group_name_H-M   'P 1'
_cell_length_a   11.23985012
_cell_length_b   11.22132513
_cell_length_c   11.76692100
_cell_angle_alpha   90.00021529
_cell_angle_beta   90.00061800
_cell_angle_gamma   119.94510022
_symmetry_Int_Tables_number   1
_chemical_formula_structural   Cs6K3GaBiSb3
_chemical_formula_sum   'Cs12 K6 Ga2 Bi2 Sb6'
_cell_volume   1285.99157732
_cell_formula_units_Z   2
loop_
 _symmetry_equiv_pos_site_id
 _symmetry_equiv_pos_as_xyz
  1  'x, y, z'
loop_
 _atom_site_type_symbol
 _atom_site_label
 _atom_site_symmetry_multiplicity
 _atom_site_fract_x
 _atom_site_fract_y
 _atom_site_fract_z
 _atom_site_occupancy
  Cs  Cs0  1  0.418907  0.209454  0.041606  1
  Cs  Cs1  1  0.790235  0.209027  0.041314  1
  Cs  Cs2  1  0.790237  0.581211  0.041312  1
  Cs  Cs3  1  0.790553  0.581845  0.458721  1
  Cs  Cs4  1  0.418271  0.209135  0.458429  1
  Cs  Cs5  1  0.790552  0.208709  0.458719  1
  Cs  Cs6  1  0.209222  0.791083  0.541835  1
  Cs  Cs7  1  0.581765  0.790883  0.541602  1
  Cs  Cs8  1  0.209219  0.418135  0.541833  1
  Cs  Cs9  1  0.209536  0.418773  0.958128  1
  Cs  Cs10  1  0.209539  0.790764  0.958126  1
  Cs  Cs11  1  0.581129  0.790564  0.958363  1
  K  K12  1  0.119632  0.238266  0.250527  1
  K  K13  1  0.119633  0.881367  0.250524  1
  K  K14  1  0.761137  0.880566  0.250528  1
  K  K15  1  0.238890  0.119444  0.749470  1
  K  K16  1  0.880528  0.119452  0.749486  1
  K  K17  1  0.880528  0.761072  0.749483  1
  Ga  Ga18  1  0.337282  0.668630  0.250010  1
  Ga  Ga19  1  0.666822  0.333426  0.749991  1
  Bi  Bi20  1  0.999999  0.999999  0.999988  1
  Bi  Bi21  1  0.051276  0.525634  0.250006  1
  Sb  Sb22  1  0.472604  0.527528  0.250010  1
  Sb  Sb23  1  0.472596  0.945056  0.250010  1
  Sb  Sb24  1  0.000004  0.000002  0.500011  1
  Sb  Sb25  1  0.527734  0.055437  0.749988  1
  Sb  Sb26  1  0.527726  0.472309  0.749989  1
  Sb  Sb27  1  0.944448  0.472232  0.749990  1
