# generated using pymatgen
data_CaSmYGa8Ag3
_symmetry_space_group_name_H-M   'P 1'
_cell_length_a   4.37019079
_cell_length_b   8.40428655
_cell_length_c   8.40428714
_cell_angle_alpha   70.52917574
_cell_angle_beta   74.93006557
_cell_angle_gamma   74.93007692
_symmetry_Int_Tables_number   1
_chemical_formula_structural   CaSmYGa8Ag3
_chemical_formula_sum   'Ca1 Sm1 Y1 Ga8 Ag3'
_cell_volume   275.87379126
_cell_formula_units_Z   1
loop_
 _symmetry_equiv_pos_site_id
 _symmetry_equiv_pos_as_xyz
  1  'x, y, z'
loop_
 _atom_site_type_symbol
 _atom_site_label
 _atom_site_symmetry_multiplicity
 _atom_site_fract_x
 _atom_site_fract_y
 _atom_site_fract_z
 _atom_site_occupancy
  Ca  Ca0  1  0.301812  0.698188  0.698188  1
  Sm  Sm1  1  0.999559  0.000441  0.000441  1
  Y  Y2  1  0.701149  0.298851  0.298851  1
  Ga  Ga3  1  0.340750  0.288928  0.029571  1
  Ga  Ga4  1  0.661159  0.706236  0.971447  1
  Ga  Ga5  1  0.340750  0.029571  0.288928  1
  Ga  Ga6  1  0.661159  0.971447  0.706236  1
  Ga  Ga7  1  0.141009  0.576421  0.141561  1
  Ga  Ga8  1  0.856181  0.423827  0.863811  1
  Ga  Ga9  1  0.141009  0.141561  0.576421  1
  Ga  Ga10  1  0.856181  0.863811  0.423827  1
  Ag  Ag11  1  0.499399  0.304197  0.697005  1
  Ag  Ag12  1  0.499399  0.697005  0.304197  1
  Ag  Ag13  1  0.000486  0.499514  0.499514  1
