# generated using pymatgen
data_Y5Fe7Co10(P6Ru)2
_symmetry_space_group_name_H-M   'P 1'
_cell_length_a   12.04025949
_cell_length_b   12.00083923
_cell_length_c   3.70120300
_cell_angle_alpha   90.00000000
_cell_angle_beta   90.00000000
_cell_angle_gamma   119.89175553
_symmetry_Int_Tables_number   1
_chemical_formula_structural   Y5Fe7Co10(P6Ru)2
_chemical_formula_sum   'Y5 Fe7 Co10 P12 Ru2'
_cell_volume   463.65363919
_cell_formula_units_Z   1
loop_
 _symmetry_equiv_pos_site_id
 _symmetry_equiv_pos_as_xyz
  1  'x, y, z'
loop_
 _atom_site_type_symbol
 _atom_site_label
 _atom_site_symmetry_multiplicity
 _atom_site_fract_x
 _atom_site_fract_y
 _atom_site_fract_z
 _atom_site_occupancy
  Y  Y0  1  0.333927  0.667489  0.500000  1
  Y  Y1  1  0.666073  0.333560  0.500000  1
  Y  Y2  1  0.000000  0.187201  0.000000  1
  Y  Y3  1  0.814892  0.814532  0.000000  1
  Y  Y4  1  0.185108  0.999640  0.000000  1
  Fe  Fe5  1  0.622880  0.820496  0.500000  1
  Fe  Fe6  1  0.177820  0.798785  0.500000  1
  Fe  Fe7  1  0.198253  0.378259  0.500000  1
  Fe  Fe8  1  0.377120  0.197618  0.500000  1
  Fe  Fe9  1  0.822180  0.620966  0.500000  1
  Fe  Fe10  1  0.801747  0.180008  0.500000  1
  Fe  Fe11  1  0.000000  0.552399  0.500000  1
  Co  Co12  1  0.514699  0.640117  0.000000  1
  Co  Co13  1  0.359460  0.875125  0.000000  1
  Co  Co14  1  0.124409  0.485383  0.000000  1
  Co  Co15  1  0.485301  0.125417  0.000000  1
  Co  Co16  1  0.640540  0.515665  0.000000  1
  Co  Co17  1  0.875591  0.360974  0.000000  1
  Co  Co18  1  0.000000  0.714871  0.000000  1
  Co  Co19  1  0.283824  0.283797  0.000000  1
  Co  Co20  1  0.716176  0.999973  0.000000  1
  Co  Co21  1  0.000000  0.999643  0.500000  1
  P  P22  1  0.000000  0.367069  0.500000  1
  P  P23  1  0.638617  0.637435  0.500000  1
  P  P24  1  0.361383  0.998818  0.500000  1
  P  P25  1  0.522416  0.832771  0.000000  1
  P  P26  1  0.166108  0.687977  0.000000  1
  P  P27  1  0.309661  0.477851  0.000000  1
  P  P28  1  0.477584  0.310355  0.000000  1
  P  P29  1  0.833892  0.521869  0.000000  1
  P  P30  1  0.690339  0.168190  0.000000  1
  P  P31  1  0.000000  0.816760  0.500000  1
  P  P32  1  0.181596  0.181829  0.500000  1
  P  P33  1  0.818404  0.000234  0.500000  1
  Ru  Ru34  1  0.447459  0.447192  0.500000  1
  Ru  Ru35  1  0.552541  0.999733  0.500000  1
