# generated using pymatgen
data_ZrTl4TeBr12
_symmetry_space_group_name_H-M   'P 1'
_cell_length_a   7.53569800
_cell_length_b   7.53569800
_cell_length_c   11.22375600
_cell_angle_alpha   90.00000000
_cell_angle_beta   90.00000000
_cell_angle_gamma   90.00000000
_symmetry_Int_Tables_number   1
_chemical_formula_structural   ZrTl4TeBr12
_chemical_formula_sum   'Zr1 Tl4 Te1 Br12'
_cell_volume   637.36056259
_cell_formula_units_Z   1
loop_
 _symmetry_equiv_pos_site_id
 _symmetry_equiv_pos_as_xyz
  1  'x, y, z'
loop_
 _atom_site_type_symbol
 _atom_site_label
 _atom_site_symmetry_multiplicity
 _atom_site_fract_x
 _atom_site_fract_y
 _atom_site_fract_z
 _atom_site_occupancy
  Zr  Zr0  1  0.000000  0.000000  0.000000  1
  Tl  Tl1  1  0.000000  0.500000  0.248983  1
  Tl  Tl2  1  0.500000  0.000000  0.248983  1
  Tl  Tl3  1  0.000000  0.500000  0.751017  1
  Tl  Tl4  1  0.500000  0.000000  0.751017  1
  Te  Te5  1  0.500000  0.500000  0.500000  1
  Br  Br6  1  0.000000  0.000000  0.236661  1
  Br  Br7  1  0.500000  0.500000  0.255816  1
  Br  Br8  1  0.000000  0.000000  0.763338  1
  Br  Br9  1  0.500000  0.500000  0.744184  1
  Br  Br10  1  0.196529  0.291233  0.000000  1
  Br  Br11  1  0.708767  0.196529  0.000000  1
  Br  Br12  1  0.291233  0.803471  0.000000  1
  Br  Br13  1  0.702607  0.199607  0.500000  1
  Br  Br14  1  0.297393  0.800393  0.500000  1
  Br  Br15  1  0.803471  0.708767  0.000000  1
  Br  Br16  1  0.800393  0.702607  0.500000  1
  Br  Br17  1  0.199607  0.297393  0.500000  1
