# generated using pymatgen
data_Er9Lu(In2Sb)2
_symmetry_space_group_name_H-M   'P 1'
_cell_length_a   8.90486512
_cell_length_b   8.86214441
_cell_length_c   6.53574307
_cell_angle_alpha   90.01659364
_cell_angle_beta   89.99174559
_cell_angle_gamma   119.84142025
_symmetry_Int_Tables_number   1
_chemical_formula_structural   Er9Lu(In2Sb)2
_chemical_formula_sum   'Er9 Lu1 In4 Sb2'
_cell_volume   447.38716448
_cell_formula_units_Z   1
loop_
 _symmetry_equiv_pos_site_id
 _symmetry_equiv_pos_as_xyz
  1  'x, y, z'
loop_
 _atom_site_type_symbol
 _atom_site_label
 _atom_site_symmetry_multiplicity
 _atom_site_fract_x
 _atom_site_fract_y
 _atom_site_fract_z
 _atom_site_occupancy
  Er  Er0  1  0.003667  0.766634  0.749842  1
  Er  Er1  1  0.003667  0.237033  0.250158  1
  Er  Er2  1  0.765680  0.760740  0.250092  1
  Er  Er3  1  0.765680  0.004940  0.749908  1
  Er  Er4  1  0.233913  0.236019  0.749860  1
  Er  Er5  1  0.233913  0.997893  0.250140  1
  Er  Er6  1  0.665288  0.332644  0.000000  1
  Er  Er7  1  0.665244  0.332622  0.500000  1
  Er  Er8  1  0.329324  0.664662  0.000000  1
  Lu  Lu9  1  0.329320  0.664661  0.500000  1
  In  In10  1  0.398919  0.000446  0.749601  1
  In  In11  1  0.398919  0.398473  0.250399  1
  In  In12  1  0.998207  0.596981  0.250476  1
  In  In13  1  0.998207  0.401226  0.749524  1
  Sb  Sb14  1  0.605027  0.607391  0.749568  1
  Sb  Sb15  1  0.605027  0.997636  0.250432  1
