# generated using pymatgen
data_Li2ErSi2(PPd5)4
_symmetry_space_group_name_H-M   'P 1'
_cell_length_a   8.60670230
_cell_length_b   8.61250775
_cell_length_c   8.60985928
_cell_angle_alpha   59.98981895
_cell_angle_beta   60.00058409
_cell_angle_gamma   59.97767915
_symmetry_Int_Tables_number   1
_chemical_formula_structural   Li2ErSi2(PPd5)4
_chemical_formula_sum   'Li2 Er1 Si2 P4 Pd20'
_cell_volume   451.17252891
_cell_formula_units_Z   1
loop_
 _symmetry_equiv_pos_site_id
 _symmetry_equiv_pos_as_xyz
  1  'x, y, z'
loop_
 _atom_site_type_symbol
 _atom_site_label
 _atom_site_symmetry_multiplicity
 _atom_site_fract_x
 _atom_site_fract_y
 _atom_site_fract_z
 _atom_site_occupancy
  Li  Li0  1  0.999205  0.000000  0.000795  1
  Li  Li1  1  0.750315  0.750013  0.749659  1
  Er  Er2  1  0.250887  0.249965  0.249184  1
  Si  Si3  1  0.735812  0.265325  0.264065  1
  Si  Si4  1  0.735812  0.734799  0.264065  1
  P  P5  1  0.737059  0.264101  0.734740  1
  P  P6  1  0.265609  0.735902  0.262587  1
  P  P7  1  0.264556  0.736931  0.735607  1
  P  P8  1  0.264556  0.262907  0.735607  1
  Pd  Pd9  1  0.341414  0.001434  0.001632  1
  Pd  Pd10  1  0.002652  0.655160  0.343656  1
  Pd  Pd11  1  0.342325  0.001183  0.655310  1
  Pd  Pd12  1  0.003243  0.654270  0.999125  1
  Pd  Pd13  1  0.654415  0.342790  0.999326  1
  Pd  Pd14  1  0.616829  0.619289  0.144592  1
  Pd  Pd15  1  0.382582  0.846211  0.385722  1
  Pd  Pd16  1  0.147182  0.617542  0.617732  1
  Pd  Pd17  1  0.653600  0.001156  0.344088  1
  Pd  Pd18  1  0.000416  0.342481  0.656484  1
  Pd  Pd19  1  0.654415  0.003469  0.999326  1
  Pd  Pd20  1  0.002652  0.998533  0.343656  1
  Pd  Pd21  1  0.617235  0.146079  0.619330  1
  Pd  Pd22  1  0.341414  0.655519  0.001632  1
  Pd  Pd23  1  0.382582  0.385487  0.385722  1
  Pd  Pd24  1  0.617235  0.617354  0.619330  1
  Pd  Pd25  1  0.384772  0.385038  0.845154  1
  Pd  Pd26  1  0.000416  0.000619  0.656484  1
  Pd  Pd27  1  0.847568  0.383084  0.386266  1
  Pd  Pd28  1  0.003243  0.343362  0.999125  1
