# generated using pymatgen
data_Hf12Ti4Mn7Os
_symmetry_space_group_name_H-M   'P 1'
_cell_length_a   8.38884039
_cell_length_b   8.38883971
_cell_length_c   8.36545836
_cell_angle_alpha   59.90749800
_cell_angle_beta   59.90749873
_cell_angle_gamma   60.00000288
_symmetry_Int_Tables_number   1
_chemical_formula_structural   Hf12Ti4Mn7Os
_chemical_formula_sum   'Hf12 Ti4 Mn7 Os1'
_cell_volume   415.69035679
_cell_formula_units_Z   1
loop_
 _symmetry_equiv_pos_site_id
 _symmetry_equiv_pos_as_xyz
  1  'x, y, z'
loop_
 _atom_site_type_symbol
 _atom_site_label
 _atom_site_symmetry_multiplicity
 _atom_site_fract_x
 _atom_site_fract_y
 _atom_site_fract_z
 _atom_site_occupancy
  Hf  Hf0  1  0.432833  0.816826  0.817508  1
  Hf  Hf1  1  0.816934  0.432456  0.433676  1
  Hf  Hf2  1  0.816826  0.432833  0.817508  1
  Hf  Hf3  1  0.432456  0.816934  0.433676  1
  Hf  Hf4  1  0.816934  0.816934  0.433676  1
  Hf  Hf5  1  0.432833  0.432833  0.817508  1
  Hf  Hf6  1  0.566943  0.183020  0.183093  1
  Hf  Hf7  1  0.182388  0.571319  0.563904  1
  Hf  Hf8  1  0.183020  0.566943  0.183093  1
  Hf  Hf9  1  0.571319  0.182388  0.563904  1
  Hf  Hf10  1  0.182388  0.182388  0.563904  1
  Hf  Hf11  1  0.566943  0.566943  0.183093  1
  Ti  Ti12  1  0.999920  0.999920  0.500239  1
  Ti  Ti13  1  0.995804  0.507690  0.000703  1
  Ti  Ti14  1  0.507690  0.995804  0.000703  1
  Ti  Ti15  1  0.995804  0.995804  0.000703  1
  Mn  Mn16  1  0.207212  0.876749  0.208826  1
  Mn  Mn17  1  0.876749  0.207212  0.208826  1
  Mn  Mn18  1  0.207212  0.207212  0.208826  1
  Mn  Mn19  1  0.792241  0.792241  0.123278  1
  Mn  Mn20  1  0.792577  0.122794  0.792053  1
  Mn  Mn21  1  0.122794  0.792577  0.792053  1
  Mn  Mn22  1  0.792577  0.792577  0.792053  1
  Os  Os23  1  0.207602  0.207602  0.877194  1
