# generated using pymatgen
data_N2Cl15
_symmetry_space_group_name_H-M   'P 1'
_cell_length_a   6.47895203
_cell_length_b   9.99388636
_cell_length_c   14.78873325
_cell_angle_alpha   94.73912796
_cell_angle_beta   107.95978297
_cell_angle_gamma   95.05355807
_symmetry_Int_Tables_number   1
_chemical_formula_structural   N2Cl15
_chemical_formula_sum   'N2 Cl15'
_cell_volume   901.25894359
_cell_formula_units_Z   1
loop_
 _symmetry_equiv_pos_site_id
 _symmetry_equiv_pos_as_xyz
  1  'x, y, z'
loop_
 _atom_site_type_symbol
 _atom_site_label
 _atom_site_symmetry_multiplicity
 _atom_site_fract_x
 _atom_site_fract_y
 _atom_site_fract_z
 _atom_site_occupancy
  N  N0  1  0.488495  0.245702  0.606171  1
  N  N1  1  0.357895  0.158434  0.587514  1
  Cl  Cl2  1  0.794612  0.910135  0.580306  1
  Cl  Cl3  1  0.567275  0.027400  0.956993  1
  Cl  Cl4  1  0.979962  0.791946  0.201342  1
  Cl  Cl5  1  0.381043  0.612995  0.751575  1
  Cl  Cl6  1  0.040954  0.523377  0.899106  1
  Cl  Cl7  1  0.237581  0.256731  0.120336  1
  Cl  Cl8  1  0.147288  0.709271  0.668680  1
  Cl  Cl9  1  0.968689  0.272400  0.388825  1
  Cl  Cl10  1  0.852675  0.358717  0.486561  1
  Cl  Cl11  1  0.761267  0.642785  0.209143  1
  Cl  Cl12  1  0.787225  0.527223  0.948688  1
  Cl  Cl13  1  0.954778  0.087889  0.086997  1
  Cl  Cl14  1  0.570682  0.348040  0.156965  1
  Cl  Cl15  1  0.251789  0.941858  0.904351  1
  Cl  Cl16  1  0.510513  0.810018  0.497386  1
