# generated using pymatgen
data_AlH4I4N
_symmetry_space_group_name_H-M   'P 1'
_cell_length_a   10.46711493
_cell_length_b   10.46711571
_cell_length_c   10.46711449
_cell_angle_alpha   135.33364305
_cell_angle_beta   135.33364619
_cell_angle_gamma   65.01223389
_symmetry_Int_Tables_number   1
_chemical_formula_structural   AlH4I4N
_chemical_formula_sum   'Al2 H8 I8 N2'
_cell_volume   558.58490251
_cell_formula_units_Z   2
loop_
 _symmetry_equiv_pos_site_id
 _symmetry_equiv_pos_as_xyz
  1  'x, y, z'
loop_
 _atom_site_type_symbol
 _atom_site_label
 _atom_site_symmetry_multiplicity
 _atom_site_fract_x
 _atom_site_fract_y
 _atom_site_fract_z
 _atom_site_occupancy
  Al  Al0  1  0.500000  0.500000  0.000000  1
  Al  Al1  1  0.250000  0.750000  0.500000  1
  H  H2  1  0.889921  0.284880  0.606597  1
  H  H3  1  0.716675  0.110079  0.394959  1
  H  H4  1  0.715120  0.321717  0.605041  1
  H  H5  1  0.071717  0.966675  0.106597  1
  H  H6  1  0.678283  0.283325  0.393403  1
  H  H7  1  0.034880  0.928283  0.894959  1
  H  H8  1  0.033325  0.139921  0.105041  1
  H  H9  1  0.860079  0.965120  0.893403  1
  I  I10  1  0.720803  0.350461  0.910207  1
  I  I11  1  0.100461  0.690255  0.129659  1
  I  I12  1  0.189404  0.279197  0.629659  1
  I  I13  1  0.440255  0.810596  0.089793  1
  I  I14  1  0.309745  0.439404  0.410207  1
  I  I15  1  0.560596  0.970803  0.870341  1
  I  I16  1  0.649539  0.559745  0.370341  1
  I  I17  1  0.029197  0.899539  0.589793  1
  N  N18  1  0.750000  0.250000  0.500000  1
  N  N19  1  0.000000  0.000000  0.000000  1
