# generated using pymatgen
data_DyHo11InCo2Ni2Rh
_symmetry_space_group_name_H-M   'P 1'
_cell_length_a   8.28661742
_cell_length_b   8.28348086
_cell_length_c   8.28661800
_cell_angle_alpha   110.50093744
_cell_angle_beta   109.86140306
_cell_angle_gamma   108.07617979
_symmetry_Int_Tables_number   1
_chemical_formula_structural   DyHo11InCo2Ni2Rh
_chemical_formula_sum   'Dy1 Ho11 In1 Co2 Ni2 Rh1'
_cell_volume   437.57877182
_cell_formula_units_Z   1
loop_
 _symmetry_equiv_pos_site_id
 _symmetry_equiv_pos_as_xyz
  1  'x, y, z'
loop_
 _atom_site_type_symbol
 _atom_site_label
 _atom_site_symmetry_multiplicity
 _atom_site_fract_x
 _atom_site_fract_y
 _atom_site_fract_z
 _atom_site_occupancy
  Dy  Dy0  1  0.683674  0.988611  0.304938  1
  Ho  Ho1  1  0.407718  0.216190  0.192199  1
  Ho  Ho2  1  0.591278  0.783838  0.807300  1
  Ho  Ho3  1  0.023992  0.216190  0.808472  1
  Ho  Ho4  1  0.976537  0.783838  0.192561  1
  Ho  Ho5  1  0.183455  0.292245  0.475663  1
  Ho  Ho6  1  0.816456  0.707788  0.525003  1
  Ho  Ho7  1  0.182784  0.707788  0.891331  1
  Ho  Ho8  1  0.816582  0.292245  0.108791  1
  Ho  Ho9  1  0.316522  0.622356  0.305834  1
  Ho  Ho10  1  0.683018  0.377786  0.694768  1
  Ho  Ho11  1  0.316747  0.010937  0.694190  1
  In  In12  1  0.499903  0.499653  0.999750  1
  Co  Co13  1  0.114643  0.614743  0.500100  1
  Co  Co14  1  0.885652  0.386069  0.500418  1
  Ni  Ni15  1  0.369095  0.000017  0.367458  1
  Ni  Ni16  1  0.632559  0.000017  0.630922  1
  Rh  Rh17  1  0.999387  0.999689  0.000302  1
