# generated using pymatgen
data_NaTb6Sn23Ir6
_symmetry_space_group_name_H-M   'P 1'
_cell_length_a   9.89107100
_cell_length_b   9.89107196
_cell_length_c   10.12167600
_cell_angle_alpha   90.00000000
_cell_angle_beta   90.00000000
_cell_angle_gamma   120.00000682
_symmetry_Int_Tables_number   1
_chemical_formula_structural   NaTb6Sn23Ir6
_chemical_formula_sum   'Na1 Tb6 Sn23 Ir6'
_cell_volume   857.57026462
_cell_formula_units_Z   1
loop_
 _symmetry_equiv_pos_site_id
 _symmetry_equiv_pos_as_xyz
  1  'x, y, z'
loop_
 _atom_site_type_symbol
 _atom_site_label
 _atom_site_symmetry_multiplicity
 _atom_site_fract_x
 _atom_site_fract_y
 _atom_site_fract_z
 _atom_site_occupancy
  Na  Na0  1  0.000000  0.000000  0.000000  1
  Tb  Tb1  1  0.480782  0.519218  0.305449  1
  Tb  Tb2  1  0.519218  0.480782  0.694551  1
  Tb  Tb3  1  0.480782  0.961563  0.305449  1
  Tb  Tb4  1  0.519218  0.038437  0.694551  1
  Tb  Tb5  1  0.038437  0.519218  0.305449  1
  Tb  Tb6  1  0.961563  0.480782  0.694551  1
  Sn  Sn7  1  0.348961  0.000000  0.000000  1
  Sn  Sn8  1  0.651039  0.000000  0.000000  1
  Sn  Sn9  1  0.000000  0.348961  0.000000  1
  Sn  Sn10  1  0.000000  0.651039  0.000000  1
  Sn  Sn11  1  0.651039  0.651039  0.000000  1
  Sn  Sn12  1  0.348961  0.348961  0.000000  1
  Sn  Sn13  1  0.333333  0.666667  0.824520  1
  Sn  Sn14  1  0.666667  0.333333  0.175480  1
  Sn  Sn15  1  0.000000  0.000000  0.500000  1
  Sn  Sn16  1  0.777931  0.222069  0.459496  1
  Sn  Sn17  1  0.222069  0.777931  0.540504  1
  Sn  Sn18  1  0.777931  0.555862  0.459496  1
  Sn  Sn19  1  0.222069  0.444138  0.540504  1
  Sn  Sn20  1  0.444138  0.222069  0.459496  1
  Sn  Sn21  1  0.555862  0.777931  0.540504  1
  Sn  Sn22  1  0.333333  0.666667  0.117825  1
  Sn  Sn23  1  0.666667  0.333333  0.882175  1
  Sn  Sn24  1  0.116367  0.883633  0.280935  1
  Sn  Sn25  1  0.883633  0.116367  0.719065  1
  Sn  Sn26  1  0.116367  0.232735  0.280935  1
  Sn  Sn27  1  0.883633  0.767265  0.719065  1
  Sn  Sn28  1  0.767265  0.883633  0.280935  1
  Sn  Sn29  1  0.232735  0.116367  0.719065  1
  Ir  Ir30  1  0.828187  0.171813  0.203204  1
  Ir  Ir31  1  0.171813  0.828187  0.796796  1
  Ir  Ir32  1  0.828187  0.656373  0.203204  1
  Ir  Ir33  1  0.171813  0.343627  0.796796  1
  Ir  Ir34  1  0.343627  0.171813  0.203204  1
  Ir  Ir35  1  0.656373  0.828187  0.796796  1
