# generated using pymatgen
data_NdU3(NbN2)4
_symmetry_space_group_name_H-M   'P 1'
_cell_length_a   3.28922300
_cell_length_b   5.72520510
_cell_length_c   11.01901021
_cell_angle_alpha   89.97834054
_cell_angle_beta   90.00000000
_cell_angle_gamma   90.00000000
_symmetry_Int_Tables_number   1
_chemical_formula_structural   NdU3(NbN2)4
_chemical_formula_sum   'Nd1 U3 Nb4 N8'
_cell_volume   207.50421457
_cell_formula_units_Z   1
loop_
 _symmetry_equiv_pos_site_id
 _symmetry_equiv_pos_as_xyz
  1  'x, y, z'
loop_
 _atom_site_type_symbol
 _atom_site_label
 _atom_site_symmetry_multiplicity
 _atom_site_fract_x
 _atom_site_fract_y
 _atom_site_fract_z
 _atom_site_occupancy
  Nd  Nd0  1  0.250000  0.579240  0.854305  1
  U  U1  1  0.750000  0.425744  0.142127  1
  U  U2  1  0.750000  0.924927  0.357263  1
  U  U3  1  0.250000  0.078925  0.643288  1
  Nb  Nb4  1  0.250000  0.922843  0.102782  1
  Nb  Nb5  1  0.750000  0.073955  0.904098  1
  Nb  Nb6  1  0.750000  0.576616  0.597354  1
  Nb  Nb7  1  0.250000  0.425040  0.400504  1
  N  N8  1  0.250000  0.658913  0.246031  1
  N  N9  1  0.750000  0.323666  0.745063  1
  N  N10  1  0.750000  0.849732  0.738741  1
  N  N11  1  0.250000  0.159920  0.257837  1
  N  N12  1  0.250000  0.766834  0.503298  1
  N  N13  1  0.750000  0.233388  0.494261  1
  N  N14  1  0.750000  0.740680  0.011023  1
  N  N15  1  0.250000  0.259578  0.002027  1
