# generated using pymatgen
data_Sm3Cd2Pb5
_symmetry_space_group_name_H-M   'P 1'
_cell_length_a   12.71064900
_cell_length_b   12.71064872
_cell_length_c   4.58398300
_cell_angle_alpha   90.00000000
_cell_angle_beta   90.00000000
_cell_angle_gamma   157.93888881
_symmetry_Int_Tables_number   1
_chemical_formula_structural   Sm3Cd2Pb5
_chemical_formula_sum   'Sm3 Cd2 Pb5'
_cell_volume   278.16251044
_cell_formula_units_Z   1
loop_
 _symmetry_equiv_pos_site_id
 _symmetry_equiv_pos_as_xyz
  1  'x, y, z'
loop_
 _atom_site_type_symbol
 _atom_site_label
 _atom_site_symmetry_multiplicity
 _atom_site_fract_x
 _atom_site_fract_y
 _atom_site_fract_z
 _atom_site_occupancy
  Sm  Sm0  1  0.000000  0.000000  0.000000  1
  Sm  Sm1  1  0.811870  0.188129  0.000000  1
  Sm  Sm2  1  0.188129  0.811870  0.000000  1
  Cd  Cd3  1  0.596859  0.403141  0.000000  1
  Cd  Cd4  1  0.403141  0.596859  0.000000  1
  Pb  Pb5  1  0.904080  0.095920  0.500000  1
  Pb  Pb6  1  0.703993  0.296007  0.500000  1
  Pb  Pb7  1  0.500000  0.500000  0.500000  1
  Pb  Pb8  1  0.296007  0.703993  0.500000  1
  Pb  Pb9  1  0.095920  0.904080  0.500000  1
