# generated using pymatgen
data_Eu3Pb5
_symmetry_space_group_name_H-M   'P 1'
_cell_length_a   6.89749389
_cell_length_b   6.89749337
_cell_length_c   11.13666400
_cell_angle_alpha   90.00000000
_cell_angle_beta   90.00000000
_cell_angle_gamma   101.14547240
_symmetry_Int_Tables_number   1
_chemical_formula_structural   Eu3Pb5
_chemical_formula_sum   'Eu6 Pb10'
_cell_volume   519.83859519
_cell_formula_units_Z   2
loop_
 _symmetry_equiv_pos_site_id
 _symmetry_equiv_pos_as_xyz
  1  'x, y, z'
loop_
 _atom_site_type_symbol
 _atom_site_label
 _atom_site_symmetry_multiplicity
 _atom_site_fract_x
 _atom_site_fract_y
 _atom_site_fract_z
 _atom_site_occupancy
  Eu  Eu0  1  0.293088  0.706912  0.000000  1
  Eu  Eu1  1  0.293088  0.706912  0.500000  1
  Eu  Eu2  1  0.706912  0.293088  0.000000  1
  Eu  Eu3  1  0.706912  0.293088  0.500000  1
  Eu  Eu4  1  0.889939  0.889939  0.250000  1
  Eu  Eu5  1  0.110061  0.110061  0.750000  1
  Pb  Pb6  1  0.198547  0.198547  0.042933  1
  Pb  Pb7  1  0.801453  0.801453  0.957067  1
  Pb  Pb8  1  0.198547  0.198547  0.457067  1
  Pb  Pb9  1  0.801453  0.801453  0.542933  1
  Pb  Pb10  1  0.433558  0.996423  0.250000  1
  Pb  Pb11  1  0.003577  0.566442  0.750000  1
  Pb  Pb12  1  0.566442  0.003577  0.750000  1
  Pb  Pb13  1  0.996423  0.433558  0.250000  1
  Pb  Pb14  1  0.483527  0.483527  0.250000  1
  Pb  Pb15  1  0.516473  0.516473  0.750000  1
