# generated using pymatgen
data_Pr8Be4Si11Hg
_symmetry_space_group_name_H-M   'P 1'
_cell_length_a   8.06007312
_cell_length_b   8.06007341
_cell_length_c   8.68980403
_cell_angle_alpha   90.00815518
_cell_angle_beta   89.99184571
_cell_angle_gamma   119.79339540
_symmetry_Int_Tables_number   1
_chemical_formula_structural   Pr8Be4Si11Hg
_chemical_formula_sum   'Pr8 Be4 Si11 Hg1'
_cell_volume   489.91301701
_cell_formula_units_Z   1
loop_
 _symmetry_equiv_pos_site_id
 _symmetry_equiv_pos_as_xyz
  1  'x, y, z'
loop_
 _atom_site_type_symbol
 _atom_site_label
 _atom_site_symmetry_multiplicity
 _atom_site_fract_x
 _atom_site_fract_y
 _atom_site_fract_z
 _atom_site_occupancy
  Pr  Pr0  1  0.500323  0.499677  0.749504  1
  Pr  Pr1  1  0.500534  0.499466  0.250381  1
  Pr  Pr2  1  0.004023  0.506180  0.746115  1
  Pr  Pr3  1  0.003978  0.506139  0.253986  1
  Pr  Pr4  1  0.493820  0.995977  0.746115  1
  Pr  Pr5  1  0.493861  0.996022  0.253986  1
  Pr  Pr6  1  0.002246  0.997754  0.745988  1
  Pr  Pr7  1  0.002220  0.997780  0.253974  1
  Be  Be8  1  0.660434  0.339566  0.997991  1
  Be  Be9  1  0.334758  0.665242  0.001610  1
  Be  Be10  1  0.334027  0.665973  0.498295  1
  Be  Be11  1  0.666862  0.333138  0.501762  1
  Si  Si12  1  0.171635  0.828365  0.999928  1
  Si  Si13  1  0.345444  0.173900  0.000135  1
  Si  Si14  1  0.171891  0.828109  0.500191  1
  Si  Si15  1  0.651754  0.817485  0.999985  1
  Si  Si16  1  0.828237  0.171763  0.499800  1
  Si  Si17  1  0.826100  0.654556  0.000135  1
  Si  Si18  1  0.655812  0.827995  0.500184  1
  Si  Si19  1  0.182515  0.348246  0.999985  1
  Si  Si20  1  0.344292  0.172665  0.499850  1
  Si  Si21  1  0.172005  0.344188  0.500184  1
  Si  Si22  1  0.827335  0.655708  0.499850  1
  Hg  Hg23  1  0.825895  0.174105  0.000063  1
