# generated using pymatgen
data_Dy5HoWO12
_symmetry_space_group_name_H-M   'P 1'
_cell_length_a   6.49225215
_cell_length_b   6.49186328
_cell_length_c   6.48808715
_cell_angle_alpha   98.68598965
_cell_angle_beta   98.61190799
_cell_angle_gamma   98.63019725
_symmetry_Int_Tables_number   1
_chemical_formula_structural   Dy5HoWO12
_chemical_formula_sum   'Dy5 Ho1 W1 O12'
_cell_volume   263.06432691
_cell_formula_units_Z   1
loop_
 _symmetry_equiv_pos_site_id
 _symmetry_equiv_pos_as_xyz
  1  'x, y, z'
loop_
 _atom_site_type_symbol
 _atom_site_label
 _atom_site_symmetry_multiplicity
 _atom_site_fract_x
 _atom_site_fract_y
 _atom_site_fract_z
 _atom_site_occupancy
  Dy  Dy0  1  0.611603  0.144158  0.315799  1
  Dy  Dy1  1  0.855871  0.683954  0.387738  1
  Dy  Dy2  1  0.683656  0.388411  0.855808  1
  Dy  Dy3  1  0.387975  0.855549  0.683743  1
  Dy  Dy4  1  0.144366  0.316479  0.612049  1
  Ho  Ho5  1  0.317043  0.611524  0.144730  1
  W  W6  1  0.000538  0.000161  0.000241  1
  O  O7  1  0.589645  0.432615  0.177516  1
  O  O8  1  0.432757  0.177575  0.591116  1
  O  O9  1  0.177861  0.590532  0.431416  1
  O  O10  1  0.408456  0.567852  0.823651  1
  O  O11  1  0.566773  0.822099  0.408029  1
  O  O12  1  0.822636  0.409444  0.567312  1
  O  O13  1  0.703040  0.034425  0.924782  1
  O  O14  1  0.076215  0.297531  0.966978  1
  O  O15  1  0.965801  0.075126  0.297440  1
  O  O16  1  0.297060  0.964914  0.075222  1
  O  O17  1  0.924553  0.702744  0.033919  1
  O  O18  1  0.034149  0.924907  0.702510  1
