# generated using pymatgen
data_Y2Si4Ge(AsRh6)2
_symmetry_space_group_name_H-M   'P 1'
_cell_length_a   9.86911980
_cell_length_b   9.88598623
_cell_length_c   3.87957767
_cell_angle_alpha   90.02603534
_cell_angle_beta   89.95484731
_cell_angle_gamma   120.34059921
_symmetry_Int_Tables_number   1
_chemical_formula_structural   Y2Si4Ge(AsRh6)2
_chemical_formula_sum   'Y2 Si4 Ge1 As2 Rh12'
_cell_volume   326.67249584
_cell_formula_units_Z   1
loop_
 _symmetry_equiv_pos_site_id
 _symmetry_equiv_pos_as_xyz
  1  'x, y, z'
loop_
 _atom_site_type_symbol
 _atom_site_label
 _atom_site_symmetry_multiplicity
 _atom_site_fract_x
 _atom_site_fract_y
 _atom_site_fract_z
 _atom_site_occupancy
  Y  Y0  1  0.333817  0.661088  0.751091  1
  Y  Y1  1  0.001093  0.002501  0.250982  1
  Si  Si2  1  0.957391  0.220837  0.752533  1
  Si  Si3  1  0.777301  0.734191  0.751805  1
  Si  Si4  1  0.265282  0.047776  0.751177  1
  Si  Si5  1  0.376179  0.442685  0.250447  1
  Ge  Ge6  1  0.666263  0.334127  0.577362  1
  As  As7  1  0.550603  0.926880  0.250117  1
  As  As8  1  0.071759  0.623611  0.250344  1
  Rh  Rh9  1  0.737814  0.954443  0.752809  1
  Rh  Rh10  1  0.044252  0.784838  0.751435  1
  Rh  Rh11  1  0.222394  0.268778  0.751908  1
  Rh  Rh12  1  0.607086  0.713896  0.250079  1
  Rh  Rh13  1  0.280534  0.894747  0.249637  1
  Rh  Rh14  1  0.110680  0.390334  0.250143  1
  Rh  Rh15  1  0.938678  0.452381  0.752039  1
  Rh  Rh16  1  0.542096  0.482887  0.750374  1
  Rh  Rh17  1  0.514400  0.061779  0.751243  1
  Rh  Rh18  1  0.405913  0.215916  0.251350  1
  Rh  Rh19  1  0.787009  0.189467  0.254312  1
  Rh  Rh20  1  0.809457  0.596837  0.252996  1
