# generated using pymatgen
data_Lu7Sc(RuPt)4
_symmetry_space_group_name_H-M   'P 1'
_cell_length_a   6.60428901
_cell_length_b   6.68499601
_cell_length_c   6.86486000
_cell_angle_alpha   89.99974625
_cell_angle_beta   90.00017790
_cell_angle_gamma   89.99328271
_symmetry_Int_Tables_number   1
_chemical_formula_structural   Lu7Sc(RuPt)4
_chemical_formula_sum   'Lu7 Sc1 Ru4 Pt4'
_cell_volume   303.08113469
_cell_formula_units_Z   1
loop_
 _symmetry_equiv_pos_site_id
 _symmetry_equiv_pos_as_xyz
  1  'x, y, z'
loop_
 _atom_site_type_symbol
 _atom_site_label
 _atom_site_symmetry_multiplicity
 _atom_site_fract_x
 _atom_site_fract_y
 _atom_site_fract_z
 _atom_site_occupancy
  Lu  Lu0  1  0.500196  0.000043  0.249983  1
  Lu  Lu1  1  0.500191  0.499969  0.249970  1
  Lu  Lu2  1  0.000117  0.999994  0.250070  1
  Lu  Lu3  1  0.000120  0.499976  0.250068  1
  Lu  Lu4  1  0.999783  0.000032  0.749929  1
  Lu  Lu5  1  0.999772  0.499973  0.749931  1
  Lu  Lu6  1  0.499875  0.999992  0.750027  1
  Sc  Sc7  1  0.499834  0.500003  0.750058  1
  Ru  Ru8  1  0.748099  0.251965  0.998163  1
  Ru  Ru9  1  0.252012  0.748038  0.501866  1
  Ru  Ru10  1  0.747962  0.252009  0.501952  1
  Ru  Ru11  1  0.252047  0.747973  0.997995  1
  Pt  Pt12  1  0.252157  0.252289  0.997625  1
  Pt  Pt13  1  0.747820  0.747698  0.997620  1
  Pt  Pt14  1  0.747689  0.747730  0.502348  1
  Pt  Pt15  1  0.252325  0.252320  0.502387  1
