# generated using pymatgen
data_Mg4Zn6NiPt
_symmetry_space_group_name_H-M   'P 1'
_cell_length_a   5.08823361
_cell_length_b   5.17048737
_cell_length_c   8.40193100
_cell_angle_alpha   90.00000000
_cell_angle_beta   90.00000000
_cell_angle_gamma   119.48787043
_symmetry_Int_Tables_number   1
_chemical_formula_structural   Mg4Zn6NiPt
_chemical_formula_sum   'Mg4 Zn6 Ni1 Pt1'
_cell_volume   192.40945738
_cell_formula_units_Z   1
loop_
 _symmetry_equiv_pos_site_id
 _symmetry_equiv_pos_as_xyz
  1  'x, y, z'
loop_
 _atom_site_type_symbol
 _atom_site_label
 _atom_site_symmetry_multiplicity
 _atom_site_fract_x
 _atom_site_fract_y
 _atom_site_fract_z
 _atom_site_occupancy
  Mg  Mg0  1  0.325604  0.656818  0.065311  1
  Mg  Mg1  1  0.673563  0.332940  0.563764  1
  Mg  Mg2  1  0.673563  0.332940  0.936236  1
  Mg  Mg3  1  0.325604  0.656818  0.434689  1
  Zn  Zn4  1  0.993012  0.009347  0.007060  1
  Zn  Zn5  1  0.993012  0.009347  0.492940  1
  Zn  Zn6  1  0.343680  0.164863  0.250000  1
  Zn  Zn7  1  0.666067  0.832402  0.750000  1
  Zn  Zn8  1  0.169837  0.835278  0.750000  1
  Zn  Zn9  1  0.831513  0.656765  0.250000  1
  Ni  Ni10  1  0.826970  0.167079  0.250000  1
  Pt  Pt11  1  0.177574  0.345403  0.750000  1
