# generated using pymatgen
data_LiLa2Ho3(P2Ru3)6
_symmetry_space_group_name_H-M   'P 1'
_cell_length_a   12.69384292
_cell_length_b   12.46994321
_cell_length_c   3.99708500
_cell_angle_alpha   90.00000000
_cell_angle_beta   90.00000000
_cell_angle_gamma   119.44622751
_symmetry_Int_Tables_number   1
_chemical_formula_structural   LiLa2Ho3(P2Ru3)6
_chemical_formula_sum   'Li1 La2 Ho3 P12 Ru18'
_cell_volume   550.97019378
_cell_formula_units_Z   1
loop_
 _symmetry_equiv_pos_site_id
 _symmetry_equiv_pos_as_xyz
  1  'x, y, z'
loop_
 _atom_site_type_symbol
 _atom_site_label
 _atom_site_symmetry_multiplicity
 _atom_site_fract_x
 _atom_site_fract_y
 _atom_site_fract_z
 _atom_site_occupancy
  Li  Li0  1  0.000752  0.562906  0.000000  1
  La  La1  1  0.001228  0.181529  0.500000  1
  La  La2  1  0.818550  0.814744  0.500000  1
  Ho  Ho3  1  0.183699  0.999085  0.500000  1
  Ho  Ho4  1  0.657503  0.328818  0.000000  1
  Ho  Ho5  1  0.339682  0.669318  0.000000  1
  P  P6  1  0.003144  0.806083  0.000000  1
  P  P7  1  0.187081  0.184629  0.000000  1
  P  P8  1  0.812192  0.000708  0.000000  1
  P  P9  1  0.692659  0.175813  0.500000  1
  P  P10  1  0.817877  0.518597  0.500000  1
  P  P11  1  0.474875  0.305640  0.500000  1
  P  P12  1  0.183295  0.700954  0.500000  1
  P  P13  1  0.524302  0.830479  0.500000  1
  P  P14  1  0.306291  0.480795  0.500000  1
  P  P15  1  0.000230  0.371866  0.000000  1
  P  P16  1  0.623295  0.622801  0.000000  1
  P  P17  1  0.373737  0.999136  0.000000  1
  Ru  Ru18  1  0.444377  0.443952  0.000000  1
  Ru  Ru19  1  0.554375  0.001229  0.000000  1
  Ru  Ru20  1  0.002296  0.708776  0.500000  1
  Ru  Ru21  1  0.284421  0.284742  0.500000  1
  Ru  Ru22  1  0.714544  0.002700  0.500000  1
  Ru  Ru23  1  0.802264  0.188081  0.000000  1
  Ru  Ru24  1  0.813579  0.615019  0.000000  1
  Ru  Ru25  1  0.374275  0.188730  0.000000  1
  Ru  Ru26  1  0.188927  0.806000  0.000000  1
  Ru  Ru27  1  0.621709  0.815353  0.000000  1
  Ru  Ru28  1  0.197672  0.384131  0.000000  1
  Ru  Ru29  1  0.875906  0.369678  0.500000  1
  Ru  Ru30  1  0.629574  0.507539  0.500000  1
  Ru  Ru31  1  0.493532  0.128883  0.500000  1
  Ru  Ru32  1  0.370006  0.878281  0.500000  1
  Ru  Ru33  1  0.505226  0.633692  0.500000  1
  Ru  Ru34  1  0.123820  0.493173  0.500000  1
  Ru  Ru35  1  0.003105  0.996142  0.000000  1
