# generated using pymatgen
data_Ba5ErOs3O16
_symmetry_space_group_name_H-M   'P 1'
_cell_length_a   6.02302890
_cell_length_b   6.02540330
_cell_length_c   10.64426036
_cell_angle_alpha   93.00257713
_cell_angle_beta   93.01640317
_cell_angle_gamma   90.03356285
_symmetry_Int_Tables_number   1
_chemical_formula_structural   Ba5ErOs3O16
_chemical_formula_sum   'Ba5 Er1 Os3 O16'
_cell_volume   385.22580549
_cell_formula_units_Z   1
loop_
 _symmetry_equiv_pos_site_id
 _symmetry_equiv_pos_as_xyz
  1  'x, y, z'
loop_
 _atom_site_type_symbol
 _atom_site_label
 _atom_site_symmetry_multiplicity
 _atom_site_fract_x
 _atom_site_fract_y
 _atom_site_fract_z
 _atom_site_occupancy
  Ba  Ba0  1  0.510649  0.028047  0.202481  1
  Ba  Ba1  1  0.028107  0.510591  0.202501  1
  Ba  Ba2  1  0.000077  0.999963  0.499972  1
  Ba  Ba3  1  0.972060  0.489469  0.797386  1
  Ba  Ba4  1  0.489379  0.971933  0.797407  1
  Er  Er5  1  0.500291  0.500090  0.000044  1
  Os  Os6  1  0.000240  0.000149  0.000095  1
  Os  Os7  1  0.562486  0.562301  0.393664  1
  Os  Os8  1  0.437281  0.437601  0.606325  1
  O  O9  1  0.765266  0.233972  0.999929  1
  O  O10  1  0.769633  0.768567  0.017988  1
  O  O11  1  0.039474  0.039746  0.172910  1
  O  O12  1  0.482712  0.482527  0.204980  1
  O  O13  1  0.763625  0.763662  0.332120  1
  O  O14  1  0.319226  0.748841  0.376489  1
  O  O15  1  0.749217  0.319403  0.376600  1
  O  O16  1  0.326373  0.326288  0.438089  1
  O  O17  1  0.673294  0.673506  0.561848  1
  O  O18  1  0.250333  0.680718  0.623378  1
  O  O19  1  0.680589  0.250916  0.623441  1
  O  O20  1  0.236092  0.236121  0.667883  1
  O  O21  1  0.517119  0.517379  0.794973  1
  O  O22  1  0.960639  0.960285  0.827307  1
  O  O23  1  0.230660  0.231590  0.982079  1
  O  O24  1  0.235181  0.766325  0.000120  1
