# generated using pymatgen
data_Sc5Se6
_symmetry_space_group_name_H-M   'P 1'
_cell_length_a   6.62112593
_cell_length_b   6.65417868
_cell_length_c   6.66005104
_cell_angle_alpha   110.22055196
_cell_angle_beta   100.08521135
_cell_angle_gamma   59.74552662
_symmetry_Int_Tables_number   1
_chemical_formula_structural   Sc5Se6
_chemical_formula_sum   'Sc5 Se6'
_cell_volume   237.84198965
_cell_formula_units_Z   1
loop_
 _symmetry_equiv_pos_site_id
 _symmetry_equiv_pos_as_xyz
  1  'x, y, z'
loop_
 _atom_site_type_symbol
 _atom_site_label
 _atom_site_symmetry_multiplicity
 _atom_site_fract_x
 _atom_site_fract_y
 _atom_site_fract_z
 _atom_site_occupancy
  Sc  Sc0  1  0.546571  0.907387  0.983075  1
  Sc  Sc1  1  0.882909  0.740979  0.484904  1
  Sc  Sc2  1  0.880375  0.241737  0.983131  1
  Sc  Sc3  1  0.213547  0.576006  0.984364  1
  Sc  Sc4  1  0.544061  0.410926  0.484750  1
  Se  Se5  1  0.886241  0.484403  0.730062  1
  Se  Se6  1  0.541062  0.157126  0.730444  1
  Se  Se7  1  0.541746  0.666027  0.237777  1
  Se  Se8  1  0.213707  0.321640  0.237630  1
  Se  Se9  1  0.213408  0.829678  0.729187  1
  Se  Se10  1  0.884567  0.994048  0.237167  1
