# generated using pymatgen
data_Pr8Fe(Si4Pt)3
_symmetry_space_group_name_H-M   'P 1'
_cell_length_a   8.22455600
_cell_length_b   8.22455613
_cell_length_c   8.64593300
_cell_angle_alpha   90.00000000
_cell_angle_beta   90.00000000
_cell_angle_gamma   120.00000753
_symmetry_Int_Tables_number   1
_chemical_formula_structural   Pr8Fe(Si4Pt)3
_chemical_formula_sum   'Pr8 Fe1 Si12 Pt3'
_cell_volume   506.48594149
_cell_formula_units_Z   1
loop_
 _symmetry_equiv_pos_site_id
 _symmetry_equiv_pos_as_xyz
  1  'x, y, z'
loop_
 _atom_site_type_symbol
 _atom_site_label
 _atom_site_symmetry_multiplicity
 _atom_site_fract_x
 _atom_site_fract_y
 _atom_site_fract_z
 _atom_site_occupancy
  Pr  Pr0  1  0.501279  0.498721  0.753278  1
  Pr  Pr1  1  0.501544  0.498456  0.246852  1
  Pr  Pr2  1  0.997445  0.498721  0.753278  1
  Pr  Pr3  1  0.996910  0.498456  0.246852  1
  Pr  Pr4  1  0.501279  0.002555  0.753278  1
  Pr  Pr5  1  0.501544  0.003090  0.246852  1
  Pr  Pr6  1  0.000000  0.000000  0.750649  1
  Pr  Pr7  1  0.000000  0.000000  0.249252  1
  Fe  Fe8  1  0.666667  0.333333  0.998828  1
  Si  Si9  1  0.827946  0.172054  0.000173  1
  Si  Si10  1  0.164901  0.835099  0.999787  1
  Si  Si11  1  0.344106  0.172054  0.000173  1
  Si  Si12  1  0.165883  0.834117  0.500447  1
  Si  Si13  1  0.670199  0.835099  0.999787  1
  Si  Si14  1  0.834759  0.165241  0.499547  1
  Si  Si15  1  0.827946  0.655894  0.000173  1
  Si  Si16  1  0.668235  0.834117  0.500447  1
  Si  Si17  1  0.164901  0.329801  0.999787  1
  Si  Si18  1  0.330481  0.165241  0.499547  1
  Si  Si19  1  0.165883  0.331765  0.500447  1
  Si  Si20  1  0.834759  0.669519  0.499547  1
  Pt  Pt21  1  0.333333  0.666667  0.000853  1
  Pt  Pt22  1  0.333333  0.666667  0.499456  1
  Pt  Pt23  1  0.666667  0.333333  0.500709  1
