# generated using pymatgen
data_CoBr35
_symmetry_space_group_name_H-M   'P 1'
_cell_length_a   15.98197694
_cell_length_b   11.40028128
_cell_length_c   10.79188300
_cell_angle_alpha   88.81408278
_cell_angle_beta   66.02770512
_cell_angle_gamma   92.31545406
_symmetry_Int_Tables_number   1
_chemical_formula_structural   CoBr35
_chemical_formula_sum   'Co1 Br35'
_cell_volume   1793.71352310
_cell_formula_units_Z   1
loop_
 _symmetry_equiv_pos_site_id
 _symmetry_equiv_pos_as_xyz
  1  'x, y, z'
loop_
 _atom_site_type_symbol
 _atom_site_label
 _atom_site_symmetry_multiplicity
 _atom_site_fract_x
 _atom_site_fract_y
 _atom_site_fract_z
 _atom_site_occupancy
  Co  Co0  1  0.233391  0.437928  0.449657  1
  Br  Br1  1  0.510709  0.265676  0.520761  1
  Br  Br2  1  0.767228  0.577799  0.556997  1
  Br  Br3  1  0.492439  0.684384  0.745909  1
  Br  Br4  1  0.050189  0.887052  0.866884  1
  Br  Br5  1  0.893135  0.160528  0.005311  1
  Br  Br6  1  0.647379  0.321903  0.290819  1
  Br  Br7  1  0.621628  0.345655  0.836715  1
  Br  Br8  1  0.354543  0.755904  0.709899  1
  Br  Br9  1  0.333421  0.575060  0.243593  1
  Br  Br10  1  0.649485  0.142675  0.806541  1
  Br  Br11  1  0.906951  0.539656  0.352649  1
  Br  Br12  1  0.056190  0.953390  0.639231  1
  Br  Br13  1  0.894751  0.107986  0.243307  1
  Br  Br14  1  0.892359  0.217693  0.783387  1
  Br  Br15  1  0.648696  0.049235  0.234912  1
  Br  Br16  1  0.021737  0.815884  0.111794  1
  Br  Br17  1  0.369321  0.976975  0.724556  1
  Br  Br18  1  0.898997  0.317520  0.307380  1
  Br  Br19  1  0.873265  0.929235  0.714669  1
  Br  Br20  1  0.896462  0.663837  0.794115  1
  Br  Br21  1  0.320215  0.027427  0.278833  1
  Br  Br22  1  0.330423  0.319836  0.277446  1
  Br  Br23  1  0.628508  0.613254  0.788755  1
  Br  Br24  1  0.112439  0.437893  0.380402  1
  Br  Br25  1  0.706535  0.907798  0.793267  1
  Br  Br26  1  0.876939  0.454294  0.798443  1
  Br  Br27  1  0.488624  0.037337  0.257124  1
  Br  Br28  1  0.159364  0.287491  0.606258  1
  Br  Br29  1  0.673152  0.774417  0.269830  1
  Br  Br30  1  0.847538  0.797724  0.193669  1
  Br  Br31  1  0.378274  0.201476  0.740339  1
  Br  Br32  1  0.333021  0.478901  0.556524  1
  Br  Br33  1  0.653513  0.545916  0.270055  1
  Br  Br34  1  0.161500  0.600816  0.571510  1
  Br  Br35  1  0.317674  0.789445  0.278459  1
