# generated using pymatgen
data_Dy4Ho4Ti3Si16W9
_symmetry_space_group_name_H-M   'P 1'
_cell_length_a   6.90130893
_cell_length_b   6.90150199
_cell_length_c   12.80997161
_cell_angle_alpha   89.99046746
_cell_angle_beta   90.01365749
_cell_angle_gamma   89.89501591
_symmetry_Int_Tables_number   1
_chemical_formula_structural   Dy4Ho4Ti3Si16W9
_chemical_formula_sum   'Dy4 Ho4 Ti3 Si16 W9'
_cell_volume   610.13017742
_cell_formula_units_Z   1
loop_
 _symmetry_equiv_pos_site_id
 _symmetry_equiv_pos_as_xyz
  1  'x, y, z'
loop_
 _atom_site_type_symbol
 _atom_site_label
 _atom_site_symmetry_multiplicity
 _atom_site_fract_x
 _atom_site_fract_y
 _atom_site_fract_z
 _atom_site_occupancy
  Dy  Dy0  1  0.339334  0.002236  0.468565  1
  Dy  Dy1  1  0.496704  0.838125  0.719216  1
  Dy  Dy2  1  0.499846  0.161859  0.217495  1
  Dy  Dy3  1  0.838262  0.496748  0.280870  1
  Ho  Ho4  1  0.161710  0.499636  0.782473  1
  Ho  Ho5  1  0.659831  0.999130  0.968793  1
  Ho  Ho6  1  0.002045  0.339593  0.531434  1
  Ho  Ho7  1  0.999196  0.659844  0.031185  1
  Ti  Ti8  1  0.170594  0.831271  0.248553  1
  Ti  Ti9  1  0.831343  0.170669  0.751396  1
  Ti  Ti10  1  0.669182  0.669107  0.500008  1
  Si  Si11  1  0.200113  0.130012  0.683130  1
  Si  Si12  1  0.372665  0.698349  0.933418  1
  Si  Si13  1  0.629389  0.299061  0.433584  1
  Si  Si14  1  0.698584  0.372884  0.066394  1
  Si  Si15  1  0.298824  0.628807  0.566606  1
  Si  Si16  1  0.797603  0.871454  0.183675  1
  Si  Si17  1  0.129313  0.200336  0.316901  1
  Si  Si18  1  0.871634  0.797320  0.816330  1
  Si  Si19  1  0.288797  0.962248  0.062300  1
  Si  Si20  1  0.539928  0.791304  0.313888  1
  Si  Si21  1  0.458744  0.209620  0.814312  1
  Si  Si22  1  0.791844  0.539787  0.686060  1
  Si  Si23  1  0.209427  0.459030  0.185676  1
  Si  Si24  1  0.709951  0.041220  0.563887  1
  Si  Si25  1  0.962450  0.289041  0.937614  1
  Si  Si26  1  0.041017  0.709434  0.436161  1
  W  W27  1  0.331301  0.331456  0.999857  1
  W  W28  1  0.157933  0.002776  0.873693  1
  W  W29  1  0.494771  0.664958  0.124546  1
  W  W30  1  0.505447  0.340490  0.624852  1
  W  W31  1  0.664990  0.494822  0.875376  1
  W  W32  1  0.340216  0.505468  0.375338  1
  W  W33  1  0.840214  0.993944  0.374416  1
  W  W34  1  0.002809  0.157972  0.126246  1
  W  W35  1  0.993987  0.839987  0.625755  1
