# generated using pymatgen
data_Cs2V2Cu3AgTe8
_symmetry_space_group_name_H-M   'P 1'
_cell_length_a   10.95527935
_cell_length_b   10.95527931
_cell_length_c   8.44685410
_cell_angle_alpha   92.15060708
_cell_angle_beta   87.84939303
_cell_angle_gamma   148.22015830
_symmetry_Int_Tables_number   1
_chemical_formula_structural   Cs2V2Cu3AgTe8
_chemical_formula_sum   'Cs2 V2 Cu3 Ag1 Te8'
_cell_volume   533.50529039
_cell_formula_units_Z   1
loop_
 _symmetry_equiv_pos_site_id
 _symmetry_equiv_pos_as_xyz
  1  'x, y, z'
loop_
 _atom_site_type_symbol
 _atom_site_label
 _atom_site_symmetry_multiplicity
 _atom_site_fract_x
 _atom_site_fract_y
 _atom_site_fract_z
 _atom_site_occupancy
  Cs  Cs0  1  0.463050  0.830537  0.253343  1
  Cs  Cs1  1  0.830537  0.463050  0.746657  1
  V  V2  1  0.783739  0.991205  0.746342  1
  V  V3  1  0.991205  0.783739  0.253658  1
  Cu  Cu4  1  0.896144  0.896144  0.500000  1
  Cu  Cu5  1  0.278245  0.493242  0.742712  1
  Cu  Cu6  1  0.493242  0.278245  0.257288  1
  Ag  Ag7  1  0.907809  0.907809  0.000000  1
  Te  Te8  1  0.633096  0.622003  0.261152  1
  Te  Te9  1  0.020376  0.249189  0.992155  1
  Te  Te10  1  0.022908  0.230096  0.496538  1
  Te  Te11  1  0.450876  0.857147  0.745625  1
  Te  Te12  1  0.857147  0.450876  0.254375  1
  Te  Te13  1  0.249189  0.020376  0.007845  1
  Te  Te14  1  0.622003  0.633096  0.738848  1
  Te  Te15  1  0.230096  0.022908  0.503462  1
