# generated using pymatgen
data_Hf2TaNbAs2
_symmetry_space_group_name_H-M   'P 1'
_cell_length_a   7.08014000
_cell_length_b   3.58734300
_cell_length_c   8.54886000
_cell_angle_alpha   90.00000000
_cell_angle_beta   90.00000000
_cell_angle_gamma   90.00000000
_symmetry_Int_Tables_number   1
_chemical_formula_structural   Hf2TaNbAs2
_chemical_formula_sum   'Hf4 Ta2 Nb2 As4'
_cell_volume   217.13156048
_cell_formula_units_Z   2
loop_
 _symmetry_equiv_pos_site_id
 _symmetry_equiv_pos_as_xyz
  1  'x, y, z'
loop_
 _atom_site_type_symbol
 _atom_site_label
 _atom_site_symmetry_multiplicity
 _atom_site_fract_x
 _atom_site_fract_y
 _atom_site_fract_z
 _atom_site_occupancy
  Hf  Hf0  1  0.537784  0.750001  0.164244  1
  Hf  Hf1  1  0.037784  0.750001  0.335755  1
  Hf  Hf2  1  0.961383  0.250000  0.666185  1
  Hf  Hf3  1  0.461383  0.250000  0.833814  1
  Ta  Ta4  1  0.638095  0.750001  0.560547  1
  Ta  Ta5  1  0.138095  0.750001  0.939452  1
  Nb  Nb6  1  0.862828  0.250000  0.059908  1
  Nb  Nb7  1  0.362828  0.250000  0.440091  1
  As  As8  1  0.241688  0.250000  0.145227  1
  As  As9  1  0.741688  0.250000  0.354772  1
  As  As10  1  0.258222  0.750001  0.645182  1
  As  As11  1  0.758222  0.750001  0.854817  1
