# generated using pymatgen
data_K4Mn9FeO20
_symmetry_space_group_name_H-M   'P 1'
_cell_length_a   7.90196848
_cell_length_b   5.16529836
_cell_length_c   12.98721522
_cell_angle_alpha   86.73828561
_cell_angle_beta   83.46505879
_cell_angle_gamma   69.60016633
_symmetry_Int_Tables_number   1
_chemical_formula_structural   K4Mn9FeO20
_chemical_formula_sum   'K4 Mn9 Fe1 O20'
_cell_volume   493.52843560
_cell_formula_units_Z   1
loop_
 _symmetry_equiv_pos_site_id
 _symmetry_equiv_pos_as_xyz
  1  'x, y, z'
loop_
 _atom_site_type_symbol
 _atom_site_label
 _atom_site_symmetry_multiplicity
 _atom_site_fract_x
 _atom_site_fract_y
 _atom_site_fract_z
 _atom_site_occupancy
  K  K0  1  0.057434  0.715621  0.501461  1
  K  K1  1  0.545883  0.476388  0.497861  1
  K  K2  1  0.555379  0.215557  0.000907  1
  K  K3  1  0.048555  0.985269  0.998083  1
  Mn  Mn4  1  0.049449  0.349698  0.749536  1
  Mn  Mn5  1  0.347130  0.448690  0.253553  1
  Mn  Mn6  1  0.255405  0.749175  0.746429  1
  Mn  Mn7  1  0.451028  0.153299  0.745227  1
  Mn  Mn8  1  0.549356  0.849911  0.250022  1
  Mn  Mn9  1  0.751560  0.250692  0.245710  1
  Mn  Mn10  1  0.646040  0.549486  0.754494  1
  Mn  Mn11  1  0.950451  0.652323  0.245596  1
  Mn  Mn12  1  0.848706  0.949012  0.754106  1
  Fe  Fe13  1  0.150652  0.045495  0.255930  1
  O  O14  1  0.055867  0.013518  0.673746  1
  O  O15  1  0.130893  0.393555  0.328696  1
  O  O16  1  0.165241  0.704653  0.172826  1
  O  O17  1  0.042037  0.687216  0.826415  1
  O  O18  1  0.237390  0.081394  0.820707  1
  O  O19  1  0.366478  0.120391  0.176236  1
  O  O20  1  0.280335  0.437067  0.666181  1
  O  O21  1  0.324062  0.753281  0.337420  1
  O  O22  1  0.543286  0.184193  0.325371  1
  O  O23  1  0.433423  0.516035  0.832083  1
  O  O24  1  0.556208  0.513864  0.173666  1
  O  O25  1  0.469488  0.788571  0.668270  1
  O  O26  1  0.669301  0.223574  0.676227  1
  O  O27  1  0.740648  0.579575  0.321892  1
  O  O28  1  0.784430  0.933509  0.163853  1
  O  O29  1  0.635723  0.877709  0.826628  1
  O  O30  1  0.957653  0.329516  0.171016  1
  O  O31  1  0.816583  0.266096  0.835979  1
  O  O32  1  0.858881  0.620289  0.677773  1
  O  O33  1  0.924245  0.977410  0.325820  1
