# generated using pymatgen
data_Sm8Ho12Si15Bi
_symmetry_space_group_name_H-M   'P 1'
_cell_length_a   7.46387595
_cell_length_b   7.76967257
_cell_length_c   14.75643200
_cell_angle_alpha   90.09585837
_cell_angle_beta   89.17541752
_cell_angle_gamma   90.06437152
_symmetry_Int_Tables_number   1
_chemical_formula_structural   Sm8Ho12Si15Bi
_chemical_formula_sum   'Sm8 Ho12 Si15 Bi1'
_cell_volume   855.66278372
_cell_formula_units_Z   1
loop_
 _symmetry_equiv_pos_site_id
 _symmetry_equiv_pos_as_xyz
  1  'x, y, z'
loop_
 _atom_site_type_symbol
 _atom_site_label
 _atom_site_symmetry_multiplicity
 _atom_site_fract_x
 _atom_site_fract_y
 _atom_site_fract_z
 _atom_site_occupancy
  Sm  Sm0  1  0.020399  0.181170  0.097868  1
  Sm  Sm1  1  0.978847  0.819776  0.903257  1
  Sm  Sm2  1  0.478948  0.680784  0.902837  1
  Sm  Sm3  1  0.981312  0.825359  0.599090  1
  Sm  Sm4  1  0.520573  0.319431  0.098455  1
  Sm  Sm5  1  0.011937  0.173262  0.398369  1
  Sm  Sm6  1  0.520179  0.317216  0.398588  1
  Sm  Sm7  1  0.499081  0.688886  0.602114  1
  Ho  Ho8  1  0.157558  0.510081  0.755196  1
  Ho  Ho9  1  0.840900  0.488756  0.250884  1
  Ho  Ho10  1  0.342488  0.012249  0.249279  1
  Ho  Ho11  1  0.660483  0.988444  0.752564  1
  Ho  Ho12  1  0.338868  0.160309  0.630505  1
  Ho  Ho13  1  0.668302  0.823422  0.374483  1
  Ho  Ho14  1  0.164050  0.687769  0.370856  1
  Ho  Ho15  1  0.675261  0.820251  0.121853  1
  Ho  Ho16  1  0.820022  0.323280  0.623409  1
  Ho  Ho17  1  0.322785  0.178518  0.877828  1
  Ho  Ho18  1  0.823047  0.320742  0.877972  1
  Ho  Ho19  1  0.176416  0.678979  0.122358  1
  Si  Si20  1  0.029992  0.111994  0.751064  1
  Si  Si21  1  0.966945  0.893324  0.246003  1
  Si  Si22  1  0.466059  0.609762  0.247305  1
  Si  Si23  1  0.531141  0.391118  0.753065  1
  Si  Si24  1  0.276138  0.870366  0.752954  1
  Si  Si25  1  0.723780  0.124010  0.247243  1
  Si  Si26  1  0.223442  0.377068  0.248912  1
  Si  Si27  1  0.779253  0.625057  0.751487  1
  Si  Si28  1  0.820411  0.534990  0.456406  1
  Si  Si29  1  0.342611  0.968596  0.460872  1
  Si  Si30  1  0.851679  0.530282  0.039761  1
  Si  Si31  1  0.658792  0.033416  0.538174  1
  Si  Si32  1  0.147162  0.469504  0.960920  1
  Si  Si33  1  0.647192  0.030897  0.960796  1
  Si  Si34  1  0.351311  0.970043  0.039833  1
  Bi  Bi35  1  0.182635  0.460891  0.537439  1
