# generated using pymatgen
data_La3NdIn16Pt5Au3
_symmetry_space_group_name_H-M   'P 1'
_cell_length_a   4.68790600
_cell_length_b   7.35595975
_cell_length_c   18.81251113
_cell_angle_alpha   90.07182579
_cell_angle_beta   90.00000000
_cell_angle_gamma   90.00000000
_symmetry_Int_Tables_number   1
_chemical_formula_structural   La3NdIn16Pt5Au3
_chemical_formula_sum   'La3 Nd1 In16 Pt5 Au3'
_cell_volume   648.73102421
_cell_formula_units_Z   1
loop_
 _symmetry_equiv_pos_site_id
 _symmetry_equiv_pos_as_xyz
  1  'x, y, z'
loop_
 _atom_site_type_symbol
 _atom_site_label
 _atom_site_symmetry_multiplicity
 _atom_site_fract_x
 _atom_site_fract_y
 _atom_site_fract_z
 _atom_site_occupancy
  La  La0  1  0.750000  0.972565  0.640512  1
  La  La1  1  0.250000  0.476634  0.858953  1
  La  La2  1  0.250000  0.024187  0.358221  1
  Nd  Nd3  1  0.750000  0.526191  0.142846  1
  In  In4  1  0.250000  0.236792  0.190892  1
  In  In5  1  0.250000  0.507715  0.426674  1
  In  In6  1  0.250000  0.992693  0.930199  1
  In  In7  1  0.250000  0.826253  0.185567  1
  In  In8  1  0.250000  0.676418  0.684587  1
  In  In9  1  0.250000  0.258730  0.690728  1
  In  In10  1  0.250000  0.146284  0.534739  1
  In  In11  1  0.750000  0.986491  0.073184  1
  In  In12  1  0.750000  0.167084  0.815184  1
  In  In13  1  0.250000  0.357939  0.037243  1
  In  In14  1  0.750000  0.843943  0.464306  1
  In  In15  1  0.750000  0.655367  0.968176  1
  In  In16  1  0.750000  0.766864  0.810905  1
  In  In17  1  0.750000  0.514762  0.568499  1
  In  In18  1  0.750000  0.330250  0.310761  1
  In  In19  1  0.750000  0.735649  0.306795  1
  Pt  Pt20  1  0.250000  0.963515  0.783261  1
  Pt  Pt21  1  0.750000  0.035785  0.217834  1
  Pt  Pt22  1  0.250000  0.536526  0.280890  1
  Pt  Pt23  1  0.250000  0.751794  0.539297  1
  Pt  Pt24  1  0.250000  0.747118  0.041202  1
  Au  Au25  1  0.750000  0.248590  0.458540  1
  Au  Au26  1  0.750000  0.250392  0.961836  1
  Au  Au27  1  0.750000  0.463466  0.718171  1
