# generated using pymatgen
data_Er6Ni20As4P9
_symmetry_space_group_name_H-M   'P 1'
_cell_length_a   12.74891300
_cell_length_b   12.74891229
_cell_length_c   3.76038600
_cell_angle_alpha   90.00000000
_cell_angle_beta   90.00000000
_cell_angle_gamma   119.99999924
_symmetry_Int_Tables_number   1
_chemical_formula_structural   Er6Ni20As4P9
_chemical_formula_sum   'Er6 Ni20 As4 P9'
_cell_volume   529.30909074
_cell_formula_units_Z   1
loop_
 _symmetry_equiv_pos_site_id
 _symmetry_equiv_pos_as_xyz
  1  'x, y, z'
loop_
 _atom_site_type_symbol
 _atom_site_label
 _atom_site_symmetry_multiplicity
 _atom_site_fract_x
 _atom_site_fract_y
 _atom_site_fract_z
 _atom_site_occupancy
  Er  Er0  1  0.526176  0.810152  0.000000  1
  Er  Er1  1  0.283976  0.473824  0.000000  1
  Er  Er2  1  0.189848  0.716024  0.000000  1
  Er  Er3  1  0.806964  0.281778  0.500000  1
  Er  Er4  1  0.474813  0.193036  0.500000  1
  Er  Er5  1  0.718222  0.525187  0.500000  1
  Ni  Ni6  1  0.795352  0.910765  0.000000  1
  Ni  Ni7  1  0.115413  0.204648  0.000000  1
  Ni  Ni8  1  0.089235  0.884587  0.000000  1
  Ni  Ni9  1  0.333333  0.666667  0.500000  1
  Ni  Ni10  1  0.920796  0.081959  0.500000  1
  Ni  Ni11  1  0.161163  0.079204  0.500000  1
  Ni  Ni12  1  0.918041  0.838837  0.500000  1
  Ni  Ni13  1  0.666667  0.333333  0.000000  1
  Ni  Ni14  1  0.555956  0.578650  0.000000  1
  Ni  Ni15  1  0.022694  0.444044  0.000000  1
  Ni  Ni16  1  0.421350  0.977306  0.000000  1
  Ni  Ni17  1  0.675826  0.755733  0.500000  1
  Ni  Ni18  1  0.079909  0.324174  0.500000  1
  Ni  Ni19  1  0.244267  0.920091  0.500000  1
  Ni  Ni20  1  0.979289  0.562036  0.500000  1
  Ni  Ni21  1  0.582746  0.020711  0.500000  1
  Ni  Ni22  1  0.437964  0.417254  0.500000  1
  Ni  Ni23  1  0.744168  0.072763  0.000000  1
  Ni  Ni24  1  0.328595  0.255832  0.000000  1
  Ni  Ni25  1  0.927237  0.671405  0.000000  1
  As  As26  1  0.947292  0.231531  0.000000  1
  As  As27  1  0.284239  0.052708  0.000000  1
  As  As28  1  0.768469  0.715761  0.000000  1
  As  As29  1  0.000000  0.000000  0.000000  1
  P  P30  1  0.475200  0.614710  0.500000  1
  P  P31  1  0.139510  0.524800  0.500000  1
  P  P32  1  0.385290  0.860490  0.500000  1
  P  P33  1  0.715877  0.952562  0.500000  1
  P  P34  1  0.236686  0.284123  0.500000  1
  P  P35  1  0.047438  0.763314  0.500000  1
  P  P36  1  0.861032  0.473095  0.000000  1
  P  P37  1  0.612063  0.138968  0.000000  1
  P  P38  1  0.526905  0.387937  0.000000  1
