# generated using pymatgen
data_Hf2UF11
_symmetry_space_group_name_H-M   'P 1'
_cell_length_a   8.46594683
_cell_length_b   8.46594639
_cell_length_c   8.46594728
_cell_angle_alpha   125.14823452
_cell_angle_beta   106.62441366
_cell_angle_gamma   97.94425380
_symmetry_Int_Tables_number   1
_chemical_formula_structural   Hf2UF11
_chemical_formula_sum   'Hf4 U2 F22'
_cell_volume   438.43158317
_cell_formula_units_Z   2
loop_
 _symmetry_equiv_pos_site_id
 _symmetry_equiv_pos_as_xyz
  1  'x, y, z'
loop_
 _atom_site_type_symbol
 _atom_site_label
 _atom_site_symmetry_multiplicity
 _atom_site_fract_x
 _atom_site_fract_y
 _atom_site_fract_z
 _atom_site_occupancy
  Hf  Hf0  1  0.680423  0.632892  0.313315  1
  Hf  Hf1  1  0.319577  0.367108  0.686685  1
  Hf  Hf2  1  0.180423  0.867108  0.047531  1
  Hf  Hf3  1  0.819577  0.132892  0.952469  1
  U  U4  1  0.750000  0.250000  0.500000  1
  U  U5  1  0.250000  0.750000  0.500000  1
  F  F6  1  0.705810  0.890603  0.339039  1
  F  F7  1  0.294190  0.109397  0.660961  1
  F  F8  1  0.551564  0.366771  0.660961  1
  F  F9  1  0.948436  0.609397  0.815207  1
  F  F10  1  0.448436  0.633229  0.339039  1
  F  F11  1  0.051564  0.390603  0.184793  1
  F  F12  1  0.794190  0.133229  0.184793  1
  F  F13  1  0.205810  0.866771  0.815207  1
  F  F14  1  0.500000  0.500000  0.000000  1
  F  F15  1  0.000000  0.000000  0.000000  1
  F  F16  1  0.779855  0.870249  0.650103  1
  F  F17  1  0.220145  0.129751  0.349897  1
  F  F18  1  0.279855  0.629751  0.909607  1
  F  F19  1  0.720145  0.370249  0.090393  1
  F  F20  1  0.948691  0.738041  0.416142  1
  F  F21  1  0.051309  0.261959  0.583858  1
  F  F22  1  0.321898  0.532549  0.583858  1
  F  F23  1  0.178102  0.761959  0.210650  1
  F  F24  1  0.678102  0.467451  0.416142  1
  F  F25  1  0.821898  0.238041  0.789350  1
  F  F26  1  0.551309  0.967451  0.789350  1
  F  F27  1  0.448691  0.032549  0.210650  1
