# generated using pymatgen
data_ScFeCo4P3
_symmetry_space_group_name_H-M   'P 1'
_cell_length_a   3.59636700
_cell_length_b   10.09784200
_cell_length_c   11.65228300
_cell_angle_alpha   90.00000000
_cell_angle_beta   90.00000000
_cell_angle_gamma   90.00000000
_symmetry_Int_Tables_number   1
_chemical_formula_structural   ScFeCo4P3
_chemical_formula_sum   'Sc4 Fe4 Co16 P12'
_cell_volume   423.15901626
_cell_formula_units_Z   4
loop_
 _symmetry_equiv_pos_site_id
 _symmetry_equiv_pos_as_xyz
  1  'x, y, z'
loop_
 _atom_site_type_symbol
 _atom_site_label
 _atom_site_symmetry_multiplicity
 _atom_site_fract_x
 _atom_site_fract_y
 _atom_site_fract_z
 _atom_site_occupancy
  Sc  Sc0  1  0.250000  0.580948  0.703730  1
  Sc  Sc1  1  0.250000  0.919052  0.203730  1
  Sc  Sc2  1  0.750000  0.419052  0.296270  1
  Sc  Sc3  1  0.750000  0.080948  0.796270  1
  Fe  Fe4  1  0.250000  0.712478  0.988533  1
  Fe  Fe5  1  0.250000  0.787522  0.488533  1
  Fe  Fe6  1  0.750000  0.287522  0.011467  1
  Fe  Fe7  1  0.750000  0.212478  0.511467  1
  Co  Co8  1  0.250000  0.407210  0.484973  1
  Co  Co9  1  0.250000  0.092790  0.984973  1
  Co  Co10  1  0.750000  0.592790  0.515027  1
  Co  Co11  1  0.750000  0.907210  0.015027  1
  Co  Co12  1  0.250000  0.221010  0.176830  1
  Co  Co13  1  0.250000  0.278991  0.676830  1
  Co  Co14  1  0.750000  0.778991  0.823170  1
  Co  Co15  1  0.750000  0.721009  0.323170  1
  Co  Co16  1  0.250000  0.882892  0.699725  1
  Co  Co17  1  0.250000  0.617108  0.199725  1
  Co  Co18  1  0.750000  0.117108  0.300275  1
  Co  Co19  1  0.750000  0.382892  0.800275  1
  Co  Co20  1  0.250000  0.465789  0.932109  1
  Co  Co21  1  0.250000  0.034211  0.432109  1
  Co  Co22  1  0.750000  0.534211  0.067891  1
  Co  Co23  1  0.750000  0.965789  0.567891  1
  P  P24  1  0.250000  0.419087  0.115593  1
  P  P25  1  0.250000  0.080913  0.615593  1
  P  P26  1  0.750000  0.580913  0.884407  1
  P  P27  1  0.750000  0.919087  0.384407  1
  P  P28  1  0.250000  0.264842  0.867108  1
  P  P29  1  0.250000  0.235158  0.367108  1
  P  P30  1  0.750000  0.735158  0.132892  1
  P  P31  1  0.750000  0.764842  0.632892  1
  P  P32  1  0.250000  0.598600  0.390351  1
  P  P33  1  0.250000  0.901400  0.890351  1
  P  P34  1  0.750000  0.401400  0.609649  1
  P  P35  1  0.750000  0.098600  0.109649  1
