# generated using pymatgen
data_Ho4Er4Ti11Si16Ru
_symmetry_space_group_name_H-M   'P 1'
_cell_length_a   7.01470389
_cell_length_b   7.01453746
_cell_length_c   12.86114700
_cell_angle_alpha   90.02783106
_cell_angle_beta   89.97102682
_cell_angle_gamma   89.89166331
_symmetry_Int_Tables_number   1
_chemical_formula_structural   Ho4Er4Ti11Si16Ru
_chemical_formula_sum   'Ho4 Er4 Ti11 Si16 Ru1'
_cell_volume   632.83020625
_cell_formula_units_Z   1
loop_
 _symmetry_equiv_pos_site_id
 _symmetry_equiv_pos_as_xyz
  1  'x, y, z'
loop_
 _atom_site_type_symbol
 _atom_site_label
 _atom_site_symmetry_multiplicity
 _atom_site_fract_x
 _atom_site_fract_y
 _atom_site_fract_z
 _atom_site_occupancy
  Ho  Ho0  1  0.340830  0.003850  0.467450  1
  Ho  Ho1  1  0.496692  0.841129  0.717923  1
  Ho  Ho2  1  0.500352  0.158958  0.215057  1
  Ho  Ho3  1  0.841203  0.496690  0.282102  1
  Er  Er4  1  0.158897  0.500250  0.784921  1
  Er  Er5  1  0.657958  0.998627  0.968472  1
  Er  Er6  1  0.003722  0.340933  0.532595  1
  Er  Er7  1  0.998592  0.657909  0.031498  1
  Ti  Ti8  1  0.174727  0.827450  0.248413  1
  Ti  Ti9  1  0.827458  0.174835  0.751584  1
  Ti  Ti10  1  0.674122  0.674027  0.500013  1
  Ti  Ti11  1  0.149802  0.002941  0.875118  1
  Ti  Ti12  1  0.492804  0.655317  0.125023  1
  Ti  Ti13  1  0.506908  0.349520  0.627964  1
  Ti  Ti14  1  0.655310  0.492802  0.874956  1
  Ti  Ti15  1  0.349463  0.506886  0.372076  1
  Ti  Ti16  1  0.849170  0.994430  0.374972  1
  Ti  Ti17  1  0.002918  0.149820  0.124877  1
  Ti  Ti18  1  0.994438  0.849157  0.625060  1
  Si  Si19  1  0.203032  0.132961  0.684610  1
  Si  Si20  1  0.371924  0.700834  0.933206  1
  Si  Si21  1  0.631716  0.296302  0.434086  1
  Si  Si22  1  0.700979  0.371990  0.066698  1
  Si  Si23  1  0.296222  0.631489  0.566000  1
  Si  Si24  1  0.796237  0.867515  0.183390  1
  Si  Si25  1  0.132723  0.203117  0.315376  1
  Si  Si26  1  0.867548  0.796093  0.816619  1
  Si  Si27  1  0.287382  0.953895  0.064291  1
  Si  Si28  1  0.547123  0.792753  0.315552  1
  Si  Si29  1  0.449921  0.208890  0.818130  1
  Si  Si30  1  0.792905  0.546980  0.684446  1
  Si  Si31  1  0.208748  0.449941  0.181858  1
  Si  Si32  1  0.708282  0.048185  0.565612  1
  Si  Si33  1  0.953928  0.287483  0.935680  1
  Si  Si34  1  0.048063  0.708102  0.434420  1
  Ru  Ru35  1  0.327903  0.327936  0.999953  1
