# generated using pymatgen
data_LiCa2OsO6
_symmetry_space_group_name_H-M   'P 1'
_cell_length_a   5.41013129
_cell_length_b   5.67253300
_cell_length_c   13.19452337
_cell_angle_alpha   89.99668811
_cell_angle_beta   35.63105484
_cell_angle_gamma   89.99699033
_symmetry_Int_Tables_number   1
_chemical_formula_structural   LiCa2OsO6
_chemical_formula_sum   'Li2 Ca4 Os2 O12'
_cell_volume   235.89670895
_cell_formula_units_Z   2
loop_
 _symmetry_equiv_pos_site_id
 _symmetry_equiv_pos_as_xyz
  1  'x, y, z'
loop_
 _atom_site_type_symbol
 _atom_site_label
 _atom_site_symmetry_multiplicity
 _atom_site_fract_x
 _atom_site_fract_y
 _atom_site_fract_z
 _atom_site_occupancy
  Li  Li0  1  0.500000  0.500000  0.000000  1
  Li  Li1  1  0.000000  0.000000  0.500000  1
  Ca  Ca2  1  0.474872  0.565446  0.254351  1
  Ca  Ca3  1  0.974951  0.934538  0.754301  1
  Ca  Ca4  1  0.525128  0.434554  0.745649  1
  Ca  Ca5  1  0.025049  0.065462  0.245699  1
  Os  Os6  1  0.500000  0.500000  0.500000  1
  Os  Os7  1  0.000000  0.000000  0.000000  1
  O  O8  1  0.120924  0.685553  0.545282  1
  O  O9  1  0.620925  0.814481  0.045280  1
  O  O10  1  0.879076  0.314447  0.454718  1
  O  O11  1  0.379075  0.185519  0.954720  1
  O  O12  1  0.286785  0.719614  0.945775  1
  O  O13  1  0.786710  0.780319  0.445798  1
  O  O14  1  0.713215  0.280386  0.054225  1
  O  O15  1  0.213290  0.219681  0.554202  1
  O  O16  1  0.880363  0.468863  0.261598  1
  O  O17  1  0.380391  0.031141  0.761574  1
  O  O18  1  0.119637  0.531137  0.738402  1
  O  O19  1  0.619609  0.968859  0.238426  1
