# generated using pymatgen
data_GaRe6Sb13
_symmetry_space_group_name_H-M   'P 1'
_cell_length_a   8.22404597
_cell_length_b   8.22404643
_cell_length_c   8.19702700
_cell_angle_alpha   109.40468612
_cell_angle_beta   109.40468723
_cell_angle_gamma   109.53767437
_symmetry_Int_Tables_number   1
_chemical_formula_structural   GaRe6Sb13
_chemical_formula_sum   'Ga1 Re6 Sb13'
_cell_volume   427.13139721
_cell_formula_units_Z   1
loop_
 _symmetry_equiv_pos_site_id
 _symmetry_equiv_pos_as_xyz
  1  'x, y, z'
loop_
 _atom_site_type_symbol
 _atom_site_label
 _atom_site_symmetry_multiplicity
 _atom_site_fract_x
 _atom_site_fract_y
 _atom_site_fract_z
 _atom_site_occupancy
  Ga  Ga0  1  0.000000  0.000000  0.681172  1
  Re  Re1  1  0.340885  0.000000  0.338130  1
  Re  Re2  1  0.000000  0.340885  0.338130  1
  Re  Re3  1  0.000000  0.654535  0.656870  1
  Re  Re4  1  0.345465  0.345465  0.002335  1
  Re  Re5  1  0.659115  0.659115  0.997246  1
  Re  Re6  1  0.654535  0.000000  0.656870  1
  Sb  Sb7  1  0.751656  0.502431  0.251164  1
  Sb  Sb8  1  0.502431  0.751656  0.251164  1
  Sb  Sb9  1  0.497569  0.249225  0.748733  1
  Sb  Sb10  1  0.750775  0.248344  0.499508  1
  Sb  Sb11  1  0.248344  0.750775  0.499508  1
  Sb  Sb12  1  0.249225  0.497569  0.748733  1
  Sb  Sb13  1  0.000000  0.000000  0.346415  1
  Sb  Sb14  1  0.672693  0.000000  0.001374  1
  Sb  Sb15  1  0.000000  0.672693  0.001374  1
  Sb  Sb16  1  0.327307  0.327307  0.328681  1
  Sb  Sb17  1  0.000000  0.317924  0.990173  1
  Sb  Sb18  1  0.682076  0.682076  0.672249  1
  Sb  Sb19  1  0.317924  0.000000  0.990173  1
