# generated using pymatgen
data_DySc(Si7Ir3)2
_symmetry_space_group_name_H-M   'P 1'
_cell_length_a   8.01440470
_cell_length_b   8.01440475
_cell_length_c   8.01440447
_cell_angle_alpha   56.49058865
_cell_angle_beta   56.49058974
_cell_angle_gamma   56.49058985
_symmetry_Int_Tables_number   1
_chemical_formula_structural   DySc(Si7Ir3)2
_chemical_formula_sum   'Dy1 Sc1 Si14 Ir6'
_cell_volume   334.47083687
_cell_formula_units_Z   1
loop_
 _symmetry_equiv_pos_site_id
 _symmetry_equiv_pos_as_xyz
  1  'x, y, z'
loop_
 _atom_site_type_symbol
 _atom_site_label
 _atom_site_symmetry_multiplicity
 _atom_site_fract_x
 _atom_site_fract_y
 _atom_site_fract_z
 _atom_site_occupancy
  Dy  Dy0  1  0.000000  0.000000  0.000000  1
  Sc  Sc1  1  0.500000  0.500000  0.500000  1
  Si  Si2  1  0.750134  0.750134  0.750134  1
  Si  Si3  1  0.249866  0.249866  0.249866  1
  Si  Si4  1  0.849735  0.065394  0.671759  1
  Si  Si5  1  0.671759  0.849735  0.065394  1
  Si  Si6  1  0.065394  0.671759  0.849735  1
  Si  Si7  1  0.648796  0.826753  0.436441  1
  Si  Si8  1  0.436441  0.648796  0.826753  1
  Si  Si9  1  0.826753  0.436441  0.648796  1
  Si  Si10  1  0.173247  0.563559  0.351204  1
  Si  Si11  1  0.563559  0.351204  0.173247  1
  Si  Si12  1  0.351204  0.173247  0.563559  1
  Si  Si13  1  0.934606  0.328241  0.150265  1
  Si  Si14  1  0.328241  0.150265  0.934606  1
  Si  Si15  1  0.150265  0.934606  0.328241  1
  Ir  Ir16  1  0.073522  0.429716  0.747928  1
  Ir  Ir17  1  0.252072  0.926478  0.570284  1
  Ir  Ir18  1  0.570284  0.252072  0.926478  1
  Ir  Ir19  1  0.926478  0.570284  0.252072  1
  Ir  Ir20  1  0.429716  0.747928  0.073522  1
  Ir  Ir21  1  0.747928  0.073522  0.429716  1
