# generated using pymatgen
data_Pa4Al18CrIr5
_symmetry_space_group_name_H-M   'P 1'
_cell_length_a   7.59569356
_cell_length_b   7.59569453
_cell_length_c   9.33264763
_cell_angle_alpha   89.77340217
_cell_angle_beta   89.77339756
_cell_angle_gamma   118.92456140
_symmetry_Int_Tables_number   1
_chemical_formula_structural   Pa4Al18CrIr5
_chemical_formula_sum   'Pa4 Al18 Cr1 Ir5'
_cell_volume   471.26194105
_cell_formula_units_Z   1
loop_
 _symmetry_equiv_pos_site_id
 _symmetry_equiv_pos_as_xyz
  1  'x, y, z'
loop_
 _atom_site_type_symbol
 _atom_site_label
 _atom_site_symmetry_multiplicity
 _atom_site_fract_x
 _atom_site_fract_y
 _atom_site_fract_z
 _atom_site_occupancy
  Pa  Pa0  1  0.995644  0.682892  0.245391  1
  Pa  Pa1  1  0.004356  0.317108  0.754609  1
  Pa  Pa2  1  0.682892  0.995644  0.245391  1
  Pa  Pa3  1  0.317108  0.004356  0.754609  1
  Al  Al4  1  0.133752  0.133752  0.246594  1
  Al  Al5  1  0.866248  0.866248  0.753406  1
  Al  Al6  1  0.005826  0.336921  0.077843  1
  Al  Al7  1  0.994174  0.663079  0.922157  1
  Al  Al8  1  0.996564  0.660096  0.577437  1
  Al  Al9  1  0.339904  0.003436  0.422563  1
  Al  Al10  1  0.003436  0.339904  0.422563  1
  Al  Al11  1  0.660096  0.996564  0.577437  1
  Al  Al12  1  0.663079  0.994174  0.922157  1
  Al  Al13  1  0.336921  0.005826  0.077843  1
  Al  Al14  1  0.335069  0.335069  0.549922  1
  Al  Al15  1  0.664931  0.664931  0.450078  1
  Al  Al16  1  0.667470  0.667470  0.045682  1
  Al  Al17  1  0.332530  0.332530  0.954318  1
  Al  Al18  1  0.344252  0.552720  0.250167  1
  Al  Al19  1  0.655748  0.447280  0.749833  1
  Al  Al20  1  0.552720  0.344252  0.250167  1
  Al  Al21  1  0.447280  0.655748  0.749833  1
  Cr  Cr22  1  0.000000  0.000000  0.000000  1
  Ir  Ir23  1  0.674339  0.325661  0.000000  1
  Ir  Ir24  1  0.325661  0.674339  0.000000  1
  Ir  Ir25  1  0.326938  0.673062  0.500000  1
  Ir  Ir26  1  0.673062  0.326938  0.500000  1
  Ir  Ir27  1  0.000000  0.000000  0.500000  1
