# generated using pymatgen
data_Sr6Yb2RuRhO12
_symmetry_space_group_name_H-M   'P 1'
_cell_length_a   6.82272711
_cell_length_b   6.82272809
_cell_length_c   6.82272784
_cell_angle_alpha   91.87411450
_cell_angle_beta   91.87412346
_cell_angle_gamma   91.87412215
_symmetry_Int_Tables_number   1
_chemical_formula_structural   Sr6Yb2RuRhO12
_chemical_formula_sum   'Sr6 Yb2 Ru1 Rh1 O12'
_cell_volume   317.07427825
_cell_formula_units_Z   1
loop_
 _symmetry_equiv_pos_site_id
 _symmetry_equiv_pos_as_xyz
  1  'x, y, z'
loop_
 _atom_site_type_symbol
 _atom_site_label
 _atom_site_symmetry_multiplicity
 _atom_site_fract_x
 _atom_site_fract_y
 _atom_site_fract_z
 _atom_site_occupancy
  Sr  Sr0  1  0.743969  0.388894  0.118770  1
  Sr  Sr1  1  0.611107  0.881230  0.256031  1
  Sr  Sr2  1  0.118770  0.743969  0.388893  1
  Sr  Sr3  1  0.881230  0.256032  0.611107  1
  Sr  Sr4  1  0.388893  0.118770  0.743969  1
  Sr  Sr5  1  0.256031  0.611107  0.881230  1
  Yb  Yb6  1  0.255141  0.255141  0.255141  1
  Yb  Yb7  1  0.744859  0.744859  0.744859  1
  Ru  Ru8  1  0.000000  0.000000  0.000000  1
  Rh  Rh9  1  0.500000  0.500000  0.500000  1
  O  O10  1  0.918725  0.719648  0.046771  1
  O  O11  1  0.280352  0.953229  0.081274  1
  O  O12  1  0.412606  0.549839  0.208741  1
  O  O13  1  0.953228  0.081274  0.280352  1
  O  O14  1  0.549839  0.208741  0.412605  1
  O  O15  1  0.791258  0.587394  0.450161  1
  O  O16  1  0.208742  0.412605  0.549839  1
  O  O17  1  0.450160  0.791258  0.587395  1
  O  O18  1  0.046771  0.918725  0.719647  1
  O  O19  1  0.587394  0.450161  0.791259  1
  O  O20  1  0.719648  0.046771  0.918726  1
  O  O21  1  0.081275  0.280351  0.953228  1
