# generated using pymatgen
data_TbDy4Y15(CoBi2)4
_symmetry_space_group_name_H-M   'P 1'
_cell_length_a   8.04838775
_cell_length_b   8.86814029
_cell_length_c   12.44122524
_cell_angle_alpha   89.99178175
_cell_angle_beta   90.02838173
_cell_angle_gamma   90.00285914
_symmetry_Int_Tables_number   1
_chemical_formula_structural   TbDy4Y15(CoBi2)4
_chemical_formula_sum   'Tb1 Dy4 Y15 Co4 Bi8'
_cell_volume   887.98277343
_cell_formula_units_Z   1
loop_
 _symmetry_equiv_pos_site_id
 _symmetry_equiv_pos_as_xyz
  1  'x, y, z'
loop_
 _atom_site_type_symbol
 _atom_site_label
 _atom_site_symmetry_multiplicity
 _atom_site_fract_x
 _atom_site_fract_y
 _atom_site_fract_z
 _atom_site_occupancy
  Tb  Tb0  1  0.176877  0.533964  0.937103  1
  Dy  Dy1  1  0.675683  0.033812  0.562710  1
  Dy  Dy2  1  0.324266  0.966080  0.437215  1
  Dy  Dy3  1  0.175893  0.965990  0.937182  1
  Dy  Dy4  1  0.324108  0.533936  0.437200  1
  Y  Y5  1  0.848144  0.750142  0.801646  1
  Y  Y6  1  0.151986  0.249904  0.198485  1
  Y  Y7  1  0.348306  0.249830  0.698209  1
  Y  Y8  1  0.651592  0.750078  0.301779  1
  Y  Y9  1  0.379476  0.750110  0.689914  1
  Y  Y10  1  0.620175  0.249809  0.310144  1
  Y  Y11  1  0.879687  0.249873  0.809795  1
  Y  Y12  1  0.120502  0.750222  0.190168  1
  Y  Y13  1  0.954839  0.750243  0.502373  1
  Y  Y14  1  0.045857  0.249823  0.497565  1
  Y  Y15  1  0.454233  0.249827  0.997589  1
  Y  Y16  1  0.545042  0.750133  0.002307  1
  Y  Y17  1  0.823279  0.033785  0.062964  1
  Y  Y18  1  0.676776  0.466148  0.562927  1
  Y  Y19  1  0.823056  0.466240  0.062988  1
  Co  Co20  1  0.558337  0.750449  0.507899  1
  Co  Co21  1  0.440719  0.249615  0.491878  1
  Co  Co22  1  0.059609  0.249738  0.991737  1
  Co  Co23  1  0.941385  0.750315  0.008015  1
  Bi  Bi24  1  0.570813  0.492227  0.825556  1
  Bi  Bi25  1  0.429293  0.507762  0.174522  1
  Bi  Bi26  1  0.070580  0.507743  0.674315  1
  Bi  Bi27  1  0.429353  0.992220  0.174475  1
  Bi  Bi28  1  0.929621  0.492295  0.325670  1
  Bi  Bi29  1  0.570468  0.007708  0.825551  1
  Bi  Bi30  1  0.929672  0.007705  0.325703  1
  Bi  Bi31  1  0.070374  0.992275  0.674417  1
