# generated using pymatgen
data_Nd4Y12CdHg3Rh4
_symmetry_space_group_name_H-M   'P 1'
_cell_length_a   9.76226821
_cell_length_b   9.78877034
_cell_length_c   9.78877100
_cell_angle_alpha   60.00000116
_cell_angle_beta   59.91015719
_cell_angle_gamma   59.91015631
_symmetry_Int_Tables_number   1
_chemical_formula_structural   Nd4Y12CdHg3Rh4
_chemical_formula_sum   'Nd4 Y12 Cd1 Hg3 Rh4'
_cell_volume   660.54277927
_cell_formula_units_Z   1
loop_
 _symmetry_equiv_pos_site_id
 _symmetry_equiv_pos_as_xyz
  1  'x, y, z'
loop_
 _atom_site_type_symbol
 _atom_site_label
 _atom_site_symmetry_multiplicity
 _atom_site_fract_x
 _atom_site_fract_y
 _atom_site_fract_z
 _atom_site_occupancy
  Nd  Nd0  1  0.603177  0.601891  0.601891  1
  Nd  Nd1  1  0.603177  0.601891  0.193042  1
  Nd  Nd2  1  0.603177  0.193042  0.601891  1
  Nd  Nd3  1  0.185752  0.604750  0.604750  1
  Y  Y4  1  0.062547  0.436972  0.436972  1
  Y  Y5  1  0.435468  0.064307  0.064307  1
  Y  Y6  1  0.435468  0.064307  0.435917  1
  Y  Y7  1  0.062547  0.436972  0.063510  1
  Y  Y8  1  0.435468  0.435917  0.064307  1
  Y  Y9  1  0.062547  0.063510  0.436972  1
  Y  Y10  1  0.185308  0.815070  0.815070  1
  Y  Y11  1  0.815297  0.184689  0.184689  1
  Y  Y12  1  0.815297  0.184689  0.815325  1
  Y  Y13  1  0.185308  0.815070  0.184553  1
  Y  Y14  1  0.815297  0.815325  0.184689  1
  Y  Y15  1  0.185308  0.184553  0.815070  1
  Cd  Cd16  1  0.512643  0.829118  0.829118  1
  Hg  Hg17  1  0.833976  0.838286  0.838286  1
  Hg  Hg18  1  0.833976  0.838286  0.489451  1
  Hg  Hg19  1  0.833976  0.489451  0.838286  1
  Rh  Rh20  1  0.389928  0.392677  0.392677  1
  Rh  Rh21  1  0.389928  0.392677  0.824718  1
  Rh  Rh22  1  0.389928  0.824718  0.392677  1
  Rh  Rh23  1  0.824506  0.391831  0.391831  1
