# generated using pymatgen
data_Dy4ZnI6
_symmetry_space_group_name_H-M   'P 1'
_cell_length_a   4.16617800
_cell_length_b   14.15982400
_cell_length_c   14.87190600
_cell_angle_alpha   90.00000000
_cell_angle_beta   90.00000000
_cell_angle_gamma   90.00000000
_symmetry_Int_Tables_number   1
_chemical_formula_structural   Dy4ZnI6
_chemical_formula_sum   'Dy8 Zn2 I12'
_cell_volume   877.32864276
_cell_formula_units_Z   2
loop_
 _symmetry_equiv_pos_site_id
 _symmetry_equiv_pos_as_xyz
  1  'x, y, z'
loop_
 _atom_site_type_symbol
 _atom_site_label
 _atom_site_symmetry_multiplicity
 _atom_site_fract_x
 _atom_site_fract_y
 _atom_site_fract_z
 _atom_site_occupancy
  Dy  Dy0  1  0.500000  0.114328  0.347973  1
  Dy  Dy1  1  0.500000  0.885672  0.652027  1
  Dy  Dy2  1  0.500000  0.614328  0.152027  1
  Dy  Dy3  1  0.500000  0.385672  0.847973  1
  Dy  Dy4  1  0.000000  0.113746  0.578036  1
  Dy  Dy5  1  0.000000  0.886254  0.421964  1
  Dy  Dy6  1  0.000000  0.613746  0.921964  1
  Dy  Dy7  1  0.000000  0.386254  0.078036  1
  Zn  Zn8  1  0.500000  0.000000  0.500000  1
  Zn  Zn9  1  0.500000  0.500000  0.000000  1
  I  I10  1  0.500000  0.246743  0.165442  1
  I  I11  1  0.500000  0.753257  0.834558  1
  I  I12  1  0.500000  0.746743  0.334558  1
  I  I13  1  0.500000  0.253257  0.665442  1
  I  I14  1  0.000000  0.260432  0.415426  1
  I  I15  1  0.000000  0.739568  0.584574  1
  I  I16  1  0.000000  0.760432  0.084574  1
  I  I17  1  0.000000  0.239568  0.915426  1
  I  I18  1  0.000000  0.999974  0.237658  1
  I  I19  1  0.000000  0.000026  0.762342  1
  I  I20  1  0.000000  0.499974  0.262342  1
  I  I21  1  0.000000  0.500026  0.737658  1
