# generated using pymatgen
data_Ce2Sc3Sn4
_symmetry_space_group_name_H-M   'P 1'
_cell_length_a   7.82906900
_cell_length_b   7.96593300
_cell_length_c   15.01950000
_cell_angle_alpha   90.00000000
_cell_angle_beta   90.00000000
_cell_angle_gamma   90.00000000
_symmetry_Int_Tables_number   1
_chemical_formula_structural   Ce2Sc3Sn4
_chemical_formula_sum   'Ce8 Sc12 Sn16'
_cell_volume   936.70372046
_cell_formula_units_Z   4
loop_
 _symmetry_equiv_pos_site_id
 _symmetry_equiv_pos_as_xyz
  1  'x, y, z'
loop_
 _atom_site_type_symbol
 _atom_site_label
 _atom_site_symmetry_multiplicity
 _atom_site_fract_x
 _atom_site_fract_y
 _atom_site_fract_z
 _atom_site_occupancy
  Ce  Ce0  1  0.513460  0.325303  0.905363  1
  Ce  Ce1  1  0.013460  0.174697  0.594637  1
  Ce  Ce2  1  0.486540  0.674697  0.405363  1
  Ce  Ce3  1  0.986540  0.825303  0.094637  1
  Ce  Ce4  1  0.486540  0.674697  0.094637  1
  Ce  Ce5  1  0.986540  0.825303  0.405363  1
  Ce  Ce6  1  0.513460  0.325303  0.594637  1
  Ce  Ce7  1  0.013460  0.174697  0.905363  1
  Sc  Sc8  1  0.352296  0.837986  0.874242  1
  Sc  Sc9  1  0.852296  0.662014  0.625758  1
  Sc  Sc10  1  0.647704  0.162014  0.374242  1
  Sc  Sc11  1  0.147704  0.337986  0.125758  1
  Sc  Sc12  1  0.647704  0.162014  0.125758  1
  Sc  Sc13  1  0.147704  0.337986  0.374242  1
  Sc  Sc14  1  0.352296  0.837986  0.625758  1
  Sc  Sc15  1  0.852296  0.662014  0.874242  1
  Sc  Sc16  1  0.182757  0.502396  0.750000  1
  Sc  Sc17  1  0.682757  0.997604  0.750000  1
  Sc  Sc18  1  0.817243  0.497604  0.250000  1
  Sc  Sc19  1  0.317243  0.002396  0.250000  1
  Sn  Sn20  1  0.313352  0.044282  0.043234  1
  Sn  Sn21  1  0.813352  0.455718  0.456766  1
  Sn  Sn22  1  0.686648  0.955718  0.543234  1
  Sn  Sn23  1  0.186648  0.544282  0.956766  1
  Sn  Sn24  1  0.686648  0.955718  0.956766  1
  Sn  Sn25  1  0.186648  0.544282  0.543234  1
  Sn  Sn26  1  0.313352  0.044282  0.456766  1
  Sn  Sn27  1  0.813352  0.455718  0.043234  1
  Sn  Sn28  1  0.546951  0.629845  0.750000  1
  Sn  Sn29  1  0.046951  0.870155  0.750000  1
  Sn  Sn30  1  0.453049  0.370155  0.250000  1
  Sn  Sn31  1  0.953049  0.129845  0.250000  1
  Sn  Sn32  1  0.322641  0.142685  0.750000  1
  Sn  Sn33  1  0.822641  0.357315  0.750000  1
  Sn  Sn34  1  0.677359  0.857315  0.250000  1
  Sn  Sn35  1  0.177359  0.642685  0.250000  1
