# generated using pymatgen
data_Ce2Mn3Al20Ru
_symmetry_space_group_name_H-M   'P 1'
_cell_length_a   6.82534351
_cell_length_b   6.81768266
_cell_length_c   9.05121030
_cell_angle_alpha   89.92193070
_cell_angle_beta   90.03302023
_cell_angle_gamma   97.39802986
_symmetry_Int_Tables_number   1
_chemical_formula_structural   Ce2Mn3Al20Ru
_chemical_formula_sum   'Ce2 Mn3 Al20 Ru1'
_cell_volume   417.67370664
_cell_formula_units_Z   1
loop_
 _symmetry_equiv_pos_site_id
 _symmetry_equiv_pos_as_xyz
  1  'x, y, z'
loop_
 _atom_site_type_symbol
 _atom_site_label
 _atom_site_symmetry_multiplicity
 _atom_site_fract_x
 _atom_site_fract_y
 _atom_site_fract_z
 _atom_site_occupancy
  Ce  Ce0  1  0.878652  0.127047  0.752773  1
  Ce  Ce1  1  0.121348  0.872953  0.247227  1
  Mn  Mn2  1  0.500000  0.000000  0.000000  1
  Mn  Mn3  1  0.000000  0.500000  0.000000  1
  Mn  Mn4  1  0.000000  0.500000  0.500000  1
  Al  Al5  1  0.590675  0.865367  0.246816  1
  Al  Al6  1  0.781092  0.521781  0.250007  1
  Al  Al7  1  0.160770  0.838729  0.901769  1
  Al  Al8  1  0.409325  0.134633  0.753184  1
  Al  Al9  1  0.624455  0.376321  0.951928  1
  Al  Al10  1  0.844030  0.162265  0.401249  1
  Al  Al11  1  0.771574  0.770348  0.998844  1
  Al  Al12  1  0.867128  0.589016  0.750113  1
  Al  Al13  1  0.839230  0.161271  0.098231  1
  Al  Al14  1  0.218908  0.478219  0.749993  1
  Al  Al15  1  0.155970  0.837735  0.598751  1
  Al  Al16  1  0.775260  0.769661  0.498614  1
  Al  Al17  1  0.476342  0.219581  0.247206  1
  Al  Al18  1  0.626306  0.379357  0.548718  1
  Al  Al19  1  0.224740  0.230339  0.501386  1
  Al  Al20  1  0.373694  0.620643  0.451282  1
  Al  Al21  1  0.132872  0.410984  0.249887  1
  Al  Al22  1  0.523658  0.780419  0.752794  1
  Al  Al23  1  0.375545  0.623679  0.048072  1
  Al  Al24  1  0.228426  0.229652  0.001156  1
  Ru  Ru25  1  0.500000  0.000000  0.500000  1
