# generated using pymatgen
data_Y7Tm3In5Bi
_symmetry_space_group_name_H-M   'P 1'
_cell_length_a   6.57460200
_cell_length_b   9.02437857
_cell_length_c   9.00735300
_cell_angle_alpha   120.05119019
_cell_angle_beta   90.00116777
_cell_angle_gamma   90.06395916
_symmetry_Int_Tables_number   1
_chemical_formula_structural   Y7Tm3In5Bi
_chemical_formula_sum   'Y7 Tm3 In5 Bi1'
_cell_volume   462.58331948
_cell_formula_units_Z   1
loop_
 _symmetry_equiv_pos_site_id
 _symmetry_equiv_pos_as_xyz
  1  'x, y, z'
loop_
 _atom_site_type_symbol
 _atom_site_label
 _atom_site_symmetry_multiplicity
 _atom_site_fract_x
 _atom_site_fract_y
 _atom_site_fract_z
 _atom_site_occupancy
  Y  Y0  1  0.496415  0.329170  0.663167  1
  Y  Y1  1  0.751449  0.233413  0.000182  1
  Y  Y2  1  0.751442  0.762480  0.756248  1
  Y  Y3  1  0.751225  0.006265  0.243464  1
  Y  Y4  1  0.249290  0.761675  0.000236  1
  Y  Y5  1  0.248470  0.239164  0.237549  1
  Y  Y6  1  0.248332  0.000998  0.762079  1
  Tm  Tm7  1  0.495731  0.666642  0.337781  1
  Tm  Tm8  1  0.003613  0.665985  0.336599  1
  Tm  Tm9  1  0.004027  0.329328  0.662942  1
  In  In10  1  0.752366  0.405472  0.403003  1
  In  In11  1  0.752915  0.999933  0.595636  1
  In  In12  1  0.248398  0.398997  0.001206  1
  In  In13  1  0.248038  0.598445  0.599438  1
  In  In14  1  0.246872  0.996891  0.399269  1
  Bi  Bi15  1  0.751416  0.605146  0.001200  1
