# generated using pymatgen
data_Ho12InSi4Pd
_symmetry_space_group_name_H-M   'P 1'
_cell_length_a   8.43787323
_cell_length_b   8.43787376
_cell_length_c   8.43787434
_cell_angle_alpha   111.71797459
_cell_angle_beta   111.93254165
_cell_angle_gamma   104.85935231
_symmetry_Int_Tables_number   1
_chemical_formula_structural   Ho12InSi4Pd
_chemical_formula_sum   'Ho12 In1 Si4 Pd1'
_cell_volume   460.23806765
_cell_formula_units_Z   1
loop_
 _symmetry_equiv_pos_site_id
 _symmetry_equiv_pos_as_xyz
  1  'x, y, z'
loop_
 _atom_site_type_symbol
 _atom_site_label
 _atom_site_symmetry_multiplicity
 _atom_site_fract_x
 _atom_site_fract_y
 _atom_site_fract_z
 _atom_site_occupancy
  Ho  Ho0  1  0.320291  0.617741  0.297449  1
  Ho  Ho1  1  0.679709  0.382259  0.702551  1
  Ho  Ho2  1  0.320291  0.022840  0.702551  1
  Ho  Ho3  1  0.679709  0.977160  0.297449  1
  Ho  Ho4  1  0.180324  0.269634  0.449957  1
  Ho  Ho5  1  0.819676  0.730366  0.550043  1
  Ho  Ho6  1  0.180324  0.730366  0.910690  1
  Ho  Ho7  1  0.819676  0.269634  0.089310  1
  Ho  Ho8  1  0.431360  0.235108  0.196253  1
  Ho  Ho9  1  0.568640  0.764892  0.803747  1
  Ho  Ho10  1  0.038855  0.235108  0.803747  1
  Ho  Ho11  1  0.961145  0.764892  0.196253  1
  In  In12  1  0.500000  0.500000  0.000000  1
  Si  Si13  1  0.116687  0.616687  0.500000  1
  Si  Si14  1  0.883313  0.383313  0.500000  1
  Si  Si15  1  0.365024  0.000000  0.365024  1
  Si  Si16  1  0.634976  0.000000  0.634976  1
  Pd  Pd17  1  0.000000  0.000000  0.000000  1
