# generated using pymatgen
data_Dy9Lu11Pt16
_symmetry_space_group_name_H-M   'P 1'
_cell_length_a   7.38914533
_cell_length_b   7.48141641
_cell_length_c   14.61091102
_cell_angle_alpha   90.00269743
_cell_angle_beta   90.16064846
_cell_angle_gamma   90.03064389
_symmetry_Int_Tables_number   1
_chemical_formula_structural   Dy9Lu11Pt16
_chemical_formula_sum   'Dy9 Lu11 Pt16'
_cell_volume   807.70647161
_cell_formula_units_Z   1
loop_
 _symmetry_equiv_pos_site_id
 _symmetry_equiv_pos_as_xyz
  1  'x, y, z'
loop_
 _atom_site_type_symbol
 _atom_site_label
 _atom_site_symmetry_multiplicity
 _atom_site_fract_x
 _atom_site_fract_y
 _atom_site_fract_z
 _atom_site_occupancy
  Dy  Dy0  1  0.139414  0.331079  0.620104  1
  Dy  Dy1  1  0.483633  0.676135  0.595140  1
  Dy  Dy2  1  0.984000  0.826053  0.905672  1
  Dy  Dy3  1  0.516348  0.326481  0.095239  1
  Dy  Dy4  1  0.018347  0.171020  0.401967  1
  Dy  Dy5  1  0.516883  0.325627  0.404672  1
  Dy  Dy6  1  0.015854  0.174219  0.095314  1
  Dy  Dy7  1  0.483555  0.672933  0.905532  1
  Dy  Dy8  1  0.982134  0.826739  0.595773  1
  Lu  Lu9  1  0.639650  0.168061  0.622449  1
  Lu  Lu10  1  0.140689  0.331412  0.878549  1
  Lu  Lu11  1  0.359450  0.831868  0.121642  1
  Lu  Lu12  1  0.859783  0.668922  0.377952  1
  Lu  Lu13  1  0.362078  0.831960  0.377121  1
  Lu  Lu14  1  0.859040  0.668598  0.121678  1
  Lu  Lu15  1  0.640813  0.168194  0.878975  1
  Lu  Lu16  1  0.801389  0.509384  0.751037  1
  Lu  Lu17  1  0.302551  0.990613  0.751309  1
  Lu  Lu18  1  0.197713  0.491489  0.249714  1
  Lu  Lu19  1  0.697927  0.008956  0.249305  1
  Pt  Pt20  1  0.693835  0.970293  0.457735  1
  Pt  Pt21  1  0.191322  0.531287  0.042169  1
  Pt  Pt22  1  0.308658  0.030994  0.958028  1
  Pt  Pt23  1  0.802952  0.471970  0.542125  1
  Pt  Pt24  1  0.310283  0.026093  0.541598  1
  Pt  Pt25  1  0.808977  0.468877  0.958323  1
  Pt  Pt26  1  0.691404  0.969511  0.042637  1
  Pt  Pt27  1  0.192410  0.532328  0.454783  1
  Pt  Pt28  1  0.436841  0.379745  0.751406  1
  Pt  Pt29  1  0.934954  0.118537  0.751606  1
  Pt  Pt30  1  0.564349  0.620781  0.249460  1
  Pt  Pt31  1  0.064221  0.878907  0.249402  1
  Pt  Pt32  1  0.663473  0.858374  0.751073  1
  Pt  Pt33  1  0.164794  0.641807  0.751535  1
  Pt  Pt34  1  0.335652  0.141210  0.249517  1
  Pt  Pt35  1  0.834628  0.359546  0.249457  1
