# generated using pymatgen
data_CaLa(CdBi2)2
_symmetry_space_group_name_H-M   'P 1'
_cell_length_a   10.96789768
_cell_length_b   10.96789780
_cell_length_c   10.96789531
_cell_angle_alpha   154.77115798
_cell_angle_beta   154.77115915
_cell_angle_gamma   35.97969981
_symmetry_Int_Tables_number   1
_chemical_formula_structural   CaLa(CdBi2)2
_chemical_formula_sum   'Ca1 La1 Cd2 Bi4'
_cell_volume   239.39901515
_cell_formula_units_Z   1
loop_
 _symmetry_equiv_pos_site_id
 _symmetry_equiv_pos_as_xyz
  1  'x, y, z'
loop_
 _atom_site_type_symbol
 _atom_site_label
 _atom_site_symmetry_multiplicity
 _atom_site_fract_x
 _atom_site_fract_y
 _atom_site_fract_z
 _atom_site_occupancy
  Ca  Ca0  1  0.886388  0.886388  0.000000  1
  La  La1  1  0.119121  0.119121  0.000000  1
  Cd  Cd2  1  0.750084  0.250084  0.500000  1
  Cd  Cd3  1  0.250084  0.750084  0.500000  1
  Bi  Bi4  1  0.646385  0.646385  0.000000  1
  Bi  Bi5  1  0.000494  0.500494  0.500000  1
  Bi  Bi6  1  0.346950  0.346950  0.000000  1
  Bi  Bi7  1  0.500494  0.000494  0.500000  1
