# generated using pymatgen
data_Tm2Pa2ReB12Mo
_symmetry_space_group_name_H-M   'P 1'
_cell_length_a   3.72028000
_cell_length_b   9.13730602
_cell_length_c   11.49962903
_cell_angle_alpha   89.99234720
_cell_angle_beta   90.00000000
_cell_angle_gamma   90.00000000
_symmetry_Int_Tables_number   1
_chemical_formula_structural   Tm2Pa2ReB12Mo
_chemical_formula_sum   'Tm4 Pa4 Re2 B24 Mo2'
_cell_volume   390.91075953
_cell_formula_units_Z   2
loop_
 _symmetry_equiv_pos_site_id
 _symmetry_equiv_pos_as_xyz
  1  'x, y, z'
loop_
 _atom_site_type_symbol
 _atom_site_label
 _atom_site_symmetry_multiplicity
 _atom_site_fract_x
 _atom_site_fract_y
 _atom_site_fract_z
 _atom_site_occupancy
  Tm  Tm0  1  0.000000  0.944929  0.374115  1
  Tm  Tm1  1  0.000000  0.055071  0.625885  1
  Tm  Tm2  1  0.000000  0.445749  0.126143  1
  Tm  Tm3  1  0.000000  0.554251  0.873857  1
  Pa  Pa4  1  0.000000  0.322372  0.414032  1
  Pa  Pa5  1  0.000000  0.677628  0.585968  1
  Pa  Pa6  1  0.000000  0.820859  0.087222  1
  Pa  Pa7  1  0.000000  0.179141  0.912778  1
  Re  Re8  1  0.000000  0.138132  0.177980  1
  Re  Re9  1  0.000000  0.861868  0.822020  1
  B  B10  1  0.500000  0.553346  0.433140  1
  B  B11  1  0.500000  0.446654  0.566860  1
  B  B12  1  0.500000  0.053709  0.067072  1
  B  B13  1  0.500000  0.946291  0.932928  1
  B  B14  1  0.500000  0.749194  0.420443  1
  B  B15  1  0.500000  0.250806  0.579557  1
  B  B16  1  0.500000  0.249583  0.080297  1
  B  B17  1  0.500000  0.750417  0.919703  1
  B  B18  1  0.500000  0.794039  0.264801  1
  B  B19  1  0.500000  0.205961  0.735199  1
  B  B20  1  0.500000  0.292551  0.234522  1
  B  B21  1  0.500000  0.707449  0.765478  1
  B  B22  1  0.500000  0.632668  0.184101  1
  B  B23  1  0.500000  0.367332  0.815899  1
  B  B24  1  0.500000  0.131714  0.314987  1
  B  B25  1  0.500000  0.868286  0.685013  1
  B  B26  1  0.500000  0.982698  0.213339  1
  B  B27  1  0.500000  0.017302  0.786661  1
  B  B28  1  0.500000  0.481708  0.286409  1
  B  B29  1  0.500000  0.518292  0.713591  1
  B  B30  1  0.500000  0.608248  0.029370  1
  B  B31  1  0.500000  0.391752  0.970630  1
  B  B32  1  0.500000  0.107795  0.469459  1
  B  B33  1  0.500000  0.892205  0.530541  1
  Mo  Mo34  1  0.000000  0.638866  0.320865  1
  Mo  Mo35  1  0.000000  0.361134  0.679135  1
