# generated using pymatgen
data_Sr4HoSn3
_symmetry_space_group_name_H-M   'P 1'
_cell_length_a   9.74879869
_cell_length_b   9.74885623
_cell_length_c   9.74879915
_cell_angle_alpha   96.83868088
_cell_angle_beta   96.83857991
_cell_angle_gamma   139.62737996
_symmetry_Int_Tables_number   1
_chemical_formula_structural   Sr4HoSn3
_chemical_formula_sum   'Sr8 Ho2 Sn6'
_cell_volume   563.29743381
_cell_formula_units_Z   2
loop_
 _symmetry_equiv_pos_site_id
 _symmetry_equiv_pos_as_xyz
  1  'x, y, z'
loop_
 _atom_site_type_symbol
 _atom_site_label
 _atom_site_symmetry_multiplicity
 _atom_site_fract_x
 _atom_site_fract_y
 _atom_site_fract_z
 _atom_site_occupancy
  Sr  Sr0  1  0.084762  0.212793  0.297559  1
  Sr  Sr1  1  0.915238  0.787207  0.702441  1
  Sr  Sr2  1  0.787203  0.084760  0.871972  1
  Sr  Sr3  1  0.415234  0.712793  0.128031  1
  Sr  Sr4  1  0.212797  0.915240  0.128028  1
  Sr  Sr5  1  0.584766  0.287207  0.871969  1
  Sr  Sr6  1  0.712789  0.584760  0.297557  1
  Sr  Sr7  1  0.287211  0.415240  0.702443  1
  Ho  Ho8  1  0.249998  0.750000  0.499998  1
  Ho  Ho9  1  0.750002  0.250000  0.500002  1
  Sn  Sn10  1  0.145700  0.645699  0.791398  1
  Sn  Sn11  1  0.854300  0.354301  0.208602  1
  Sn  Sn12  1  0.354301  0.145699  0.500000  1
  Sn  Sn13  1  0.645699  0.854301  0.500000  1
  Sn  Sn14  1  0.250039  0.250000  0.000039  1
  Sn  Sn15  1  0.749961  0.750000  0.999961  1
