# generated using pymatgen
data_Pa4Al18VIr5
_symmetry_space_group_name_H-M   'P 1'
_cell_length_a   7.60389827
_cell_length_b   7.60389982
_cell_length_c   9.32316458
_cell_angle_alpha   89.68158513
_cell_angle_beta   89.68158048
_cell_angle_gamma   118.53134758
_symmetry_Int_Tables_number   1
_chemical_formula_structural   Pa4Al18VIr5
_chemical_formula_sum   'Pa4 Al18 V1 Ir5'
_cell_volume   473.56518216
_cell_formula_units_Z   1
loop_
 _symmetry_equiv_pos_site_id
 _symmetry_equiv_pos_as_xyz
  1  'x, y, z'
loop_
 _atom_site_type_symbol
 _atom_site_label
 _atom_site_symmetry_multiplicity
 _atom_site_fract_x
 _atom_site_fract_y
 _atom_site_fract_z
 _atom_site_occupancy
  Pa  Pa0  1  0.994816  0.689501  0.244649  1
  Pa  Pa1  1  0.005184  0.310499  0.755351  1
  Pa  Pa2  1  0.689501  0.994816  0.244649  1
  Pa  Pa3  1  0.310499  0.005184  0.755351  1
  Al  Al4  1  0.140947  0.140947  0.249275  1
  Al  Al5  1  0.859053  0.859053  0.750725  1
  Al  Al6  1  0.007900  0.342519  0.081306  1
  Al  Al7  1  0.992100  0.657481  0.918694  1
  Al  Al8  1  0.997334  0.657123  0.578069  1
  Al  Al9  1  0.342877  0.002666  0.421931  1
  Al  Al10  1  0.002666  0.342877  0.421931  1
  Al  Al11  1  0.657123  0.997334  0.578069  1
  Al  Al12  1  0.657481  0.992100  0.918694  1
  Al  Al13  1  0.342519  0.007900  0.081306  1
  Al  Al14  1  0.334696  0.334696  0.546250  1
  Al  Al15  1  0.665304  0.665304  0.453750  1
  Al  Al16  1  0.665279  0.665279  0.043316  1
  Al  Al17  1  0.334721  0.334721  0.956684  1
  Al  Al18  1  0.346468  0.557006  0.250750  1
  Al  Al19  1  0.653532  0.442994  0.749250  1
  Al  Al20  1  0.557006  0.346468  0.250750  1
  Al  Al21  1  0.442994  0.653532  0.749250  1
  V  V22  1  0.000000  0.000000  0.000000  1
  Ir  Ir23  1  0.674845  0.325155  0.000000  1
  Ir  Ir24  1  0.325155  0.674845  0.000000  1
  Ir  Ir25  1  0.327328  0.672672  0.500000  1
  Ir  Ir26  1  0.672672  0.327328  0.500000  1
  Ir  Ir27  1  0.000000  0.000000  0.500000  1
