# generated using pymatgen
data_Zr2Sc(Co3B2)3
_symmetry_space_group_name_H-M   'P 1'
_cell_length_a   5.71718953
_cell_length_b   5.71718999
_cell_length_c   5.71718893
_cell_angle_alpha   94.87575098
_cell_angle_beta   94.87575644
_cell_angle_gamma   94.87576297
_symmetry_Int_Tables_number   1
_chemical_formula_structural   Zr2Sc(Co3B2)3
_chemical_formula_sum   'Zr2 Sc1 Co9 B6'
_cell_volume   184.72135946
_cell_formula_units_Z   1
loop_
 _symmetry_equiv_pos_site_id
 _symmetry_equiv_pos_as_xyz
  1  'x, y, z'
loop_
 _atom_site_type_symbol
 _atom_site_label
 _atom_site_symmetry_multiplicity
 _atom_site_fract_x
 _atom_site_fract_y
 _atom_site_fract_z
 _atom_site_occupancy
  Zr  Zr0  1  0.672206  0.672206  0.672206  1
  Zr  Zr1  1  0.327794  0.327794  0.327794  1
  Sc  Sc2  1  0.000000  0.000000  0.000000  1
  Co  Co3  1  0.000000  0.000000  0.500000  1
  Co  Co4  1  0.500000  0.000000  0.000000  1
  Co  Co5  1  0.000000  0.500000  0.000000  1
  Co  Co6  1  0.694489  0.195540  0.694489  1
  Co  Co7  1  0.694489  0.694489  0.195540  1
  Co  Co8  1  0.195540  0.694489  0.694489  1
  Co  Co9  1  0.305511  0.804460  0.305511  1
  Co  Co10  1  0.305511  0.305511  0.804460  1
  Co  Co11  1  0.804460  0.305511  0.305511  1
  B  B12  1  0.624540  0.375460  0.000000  1
  B  B13  1  0.000000  0.624540  0.375460  1
  B  B14  1  0.375460  0.000000  0.624540  1
  B  B15  1  0.000000  0.375460  0.624540  1
  B  B16  1  0.624540  0.000000  0.375460  1
  B  B17  1  0.375460  0.624540  0.000000  1
