# generated using pymatgen
data_DyHo3(PdPt)2
_symmetry_space_group_name_H-M   'P 1'
_cell_length_a   4.53742500
_cell_length_b   5.58420005
_cell_length_c   6.99506831
_cell_angle_alpha   90.07024382
_cell_angle_beta   90.00000000
_cell_angle_gamma   90.00000000
_symmetry_Int_Tables_number   1
_chemical_formula_structural   DyHo3(PdPt)2
_chemical_formula_sum   'Dy1 Ho3 Pd2 Pt2'
_cell_volume   177.24013065
_cell_formula_units_Z   1
loop_
 _symmetry_equiv_pos_site_id
 _symmetry_equiv_pos_as_xyz
  1  'x, y, z'
loop_
 _atom_site_type_symbol
 _atom_site_label
 _atom_site_symmetry_multiplicity
 _atom_site_fract_x
 _atom_site_fract_y
 _atom_site_fract_z
 _atom_site_occupancy
  Dy  Dy0  1  0.000000  0.894897  0.182544  1
  Ho  Ho1  1  0.000000  0.105051  0.682540  1
  Ho  Ho2  1  0.500000  0.387110  0.318420  1
  Ho  Ho3  1  0.500000  0.612698  0.817982  1
  Pd  Pd4  1  0.000000  0.592345  0.543848  1
  Pd  Pd5  1  0.000000  0.407190  0.042997  1
  Pt  Pt6  1  0.500000  0.899881  0.456815  1
  Pt  Pt7  1  0.500000  0.100829  0.954855  1
