# generated using pymatgen
data_Lu14Sc6Bi11Pd
_symmetry_space_group_name_H-M   'P 1'
_cell_length_a   7.96600613
_cell_length_b   9.24524608
_cell_length_c   11.69274100
_cell_angle_alpha   89.86140912
_cell_angle_beta   89.73511956
_cell_angle_gamma   89.91493403
_symmetry_Int_Tables_number   1
_chemical_formula_structural   Lu14Sc6Bi11Pd
_chemical_formula_sum   'Lu14 Sc6 Bi11 Pd1'
_cell_volume   861.13067221
_cell_formula_units_Z   1
loop_
 _symmetry_equiv_pos_site_id
 _symmetry_equiv_pos_as_xyz
  1  'x, y, z'
loop_
 _atom_site_type_symbol
 _atom_site_label
 _atom_site_symmetry_multiplicity
 _atom_site_fract_x
 _atom_site_fract_y
 _atom_site_fract_z
 _atom_site_occupancy
  Lu  Lu0  1  0.355158  0.248904  0.299954  1
  Lu  Lu1  1  0.652542  0.752067  0.718752  1
  Lu  Lu2  1  0.149832  0.749027  0.781898  1
  Lu  Lu3  1  0.848731  0.251121  0.214912  1
  Lu  Lu4  1  0.197710  0.250508  0.775150  1
  Lu  Lu5  1  0.810391  0.750003  0.216002  1
  Lu  Lu6  1  0.315138  0.751268  0.280809  1
  Lu  Lu7  1  0.664613  0.248405  0.708112  1
  Lu  Lu8  1  0.308785  0.956626  0.558514  1
  Lu  Lu9  1  0.807155  0.566394  0.942779  1
  Lu  Lu10  1  0.684930  0.073163  0.446304  1
  Lu  Lu11  1  0.192221  0.432698  0.059930  1
  Lu  Lu12  1  0.683652  0.425822  0.446349  1
  Lu  Lu13  1  0.309040  0.543553  0.558038  1
  Sc  Sc14  1  0.040474  0.250060  0.508581  1
  Sc  Sc15  1  0.983404  0.750036  0.489355  1
  Sc  Sc16  1  0.480169  0.752332  0.011484  1
  Sc  Sc17  1  0.521556  0.247818  0.990262  1
  Sc  Sc18  1  0.193863  0.069808  0.060668  1
  Sc  Sc19  1  0.805061  0.930403  0.942233  1
  Bi  Bi20  1  0.600471  0.749660  0.457504  1
  Bi  Bi21  1  0.102138  0.758064  0.042313  1
  Bi  Bi22  1  0.901913  0.241789  0.952375  1
  Bi  Bi23  1  0.059468  0.002738  0.324758  1
  Bi  Bi24  1  0.935289  0.997529  0.673294  1
  Bi  Bi25  1  0.436915  0.995400  0.832158  1
  Bi  Bi26  1  0.934794  0.501562  0.672072  1
  Bi  Bi27  1  0.561898  0.005363  0.169965  1
  Bi  Bi28  1  0.059671  0.498367  0.325975  1
  Bi  Bi29  1  0.562290  0.494861  0.170887  1
  Bi  Bi30  1  0.437648  0.504723  0.830707  1
  Pd  Pd31  1  0.403075  0.249927  0.537906  1
