# generated using pymatgen
data_DyY3InPt11
_symmetry_space_group_name_H-M   'P 1'
_cell_length_a   4.19946400
_cell_length_b   5.87853287
_cell_length_c   11.69778135
_cell_angle_alpha   88.13305090
_cell_angle_beta   90.00000000
_cell_angle_gamma   90.00000000
_symmetry_Int_Tables_number   1
_chemical_formula_structural   DyY3InPt11
_chemical_formula_sum   'Dy1 Y3 In1 Pt11'
_cell_volume   288.62617753
_cell_formula_units_Z   1
loop_
 _symmetry_equiv_pos_site_id
 _symmetry_equiv_pos_as_xyz
  1  'x, y, z'
loop_
 _atom_site_type_symbol
 _atom_site_label
 _atom_site_symmetry_multiplicity
 _atom_site_fract_x
 _atom_site_fract_y
 _atom_site_fract_z
 _atom_site_occupancy
  Dy  Dy0  1  0.500000  0.244180  0.624048  1
  Y  Y1  1  0.500000  0.755783  0.376104  1
  Y  Y2  1  0.500000  0.718808  0.862350  1
  Y  Y3  1  0.500000  0.281141  0.137497  1
  In  In4  1  0.000000  0.000085  0.999861  1
  Pt  Pt5  1  0.000000  0.015121  0.250005  1
  Pt  Pt6  1  0.000000  0.985555  0.749618  1
  Pt  Pt7  1  0.000000  0.499953  0.999958  1
  Pt  Pt8  1  0.000000  0.499281  0.500495  1
  Pt  Pt9  1  0.000000  0.517940  0.249901  1
  Pt  Pt10  1  0.000000  0.481467  0.749710  1
  Pt  Pt11  1  0.500000  0.254805  0.378231  1
  Pt  Pt12  1  0.500000  0.228029  0.880613  1
  Pt  Pt13  1  0.500000  0.772105  0.118847  1
  Pt  Pt14  1  0.500000  0.745239  0.622268  1
  Pt  Pt15  1  0.000000  0.000509  0.500494  1
