# generated using pymatgen
data_TmLu3Pt2
_symmetry_space_group_name_H-M   'P 1'
_cell_length_a   4.70459200
_cell_length_b   7.02575803
_cell_length_c   8.59912002
_cell_angle_alpha   89.99157178
_cell_angle_beta   90.00000000
_cell_angle_gamma   90.00000000
_symmetry_Int_Tables_number   1
_chemical_formula_structural   TmLu3Pt2
_chemical_formula_sum   'Tm2 Lu6 Pt4'
_cell_volume   284.22950556
_cell_formula_units_Z   2
loop_
 _symmetry_equiv_pos_site_id
 _symmetry_equiv_pos_as_xyz
  1  'x, y, z'
loop_
 _atom_site_type_symbol
 _atom_site_label
 _atom_site_symmetry_multiplicity
 _atom_site_fract_x
 _atom_site_fract_y
 _atom_site_fract_z
 _atom_site_occupancy
  Tm  Tm0  1  0.750000  0.010762  0.669564  1
  Tm  Tm1  1  0.250000  0.989238  0.330436  1
  Lu  Lu2  1  0.750000  0.643112  0.420999  1
  Lu  Lu3  1  0.250000  0.356888  0.579001  1
  Lu  Lu4  1  0.750000  0.144112  0.078423  1
  Lu  Lu5  1  0.250000  0.855888  0.921577  1
  Lu  Lu6  1  0.750000  0.510814  0.832007  1
  Lu  Lu7  1  0.250000  0.489186  0.167993  1
  Pt  Pt8  1  0.750000  0.242947  0.405123  1
  Pt  Pt9  1  0.250000  0.757053  0.594877  1
  Pt  Pt10  1  0.750000  0.741274  0.094033  1
  Pt  Pt11  1  0.250000  0.258726  0.905967  1
