# generated using pymatgen
data_TbY3B4I5
_symmetry_space_group_name_H-M   'P 1'
_cell_length_a   9.66153670
_cell_length_b   9.66153570
_cell_length_c   9.79028874
_cell_angle_alpha   74.56356728
_cell_angle_beta   74.56356906
_cell_angle_gamma   25.66445490
_symmetry_Int_Tables_number   1
_chemical_formula_structural   TbY3B4I5
_chemical_formula_sum   'Tb1 Y3 B4 I5'
_cell_volume   380.76683380
_cell_formula_units_Z   1
loop_
 _symmetry_equiv_pos_site_id
 _symmetry_equiv_pos_as_xyz
  1  'x, y, z'
loop_
 _atom_site_type_symbol
 _atom_site_label
 _atom_site_symmetry_multiplicity
 _atom_site_fract_x
 _atom_site_fract_y
 _atom_site_fract_z
 _atom_site_occupancy
  Tb  Tb0  1  0.871038  0.871038  0.063103  1
  Y  Y1  1  0.506206  0.506206  0.754634  1
  Y  Y2  1  0.495340  0.495340  0.244674  1
  Y  Y3  1  0.129866  0.129866  0.935801  1
  B  B4  1  0.314854  0.686346  0.999759  1
  B  B5  1  0.686346  0.314854  0.999759  1
  B  B6  1  0.999261  0.999261  0.099167  1
  B  B7  1  0.001872  0.001872  0.900345  1
  I  I8  1  0.678026  0.678026  0.687109  1
  I  I9  1  0.323449  0.323449  0.312476  1
  I  I10  1  0.330600  0.330600  0.852748  1
  I  I11  1  0.671421  0.671421  0.143962  1
  I  I12  1  0.006022  0.006022  0.496664  1
