# generated using pymatgen
data_CsTbDyTm8(C2I9)2
_symmetry_space_group_name_H-M   'P 1'
_cell_length_a   11.48578068
_cell_length_b   11.44805326
_cell_length_c   11.42646413
_cell_angle_alpha   113.11314772
_cell_angle_beta   86.43826189
_cell_angle_gamma   120.30199373
_symmetry_Int_Tables_number   1
_chemical_formula_structural   CsTbDyTm8(C2I9)2
_chemical_formula_sum   'Cs1 Tb1 Dy1 Tm8 C4 I18'
_cell_volume   1175.45788153
_cell_formula_units_Z   1
loop_
 _symmetry_equiv_pos_site_id
 _symmetry_equiv_pos_as_xyz
  1  'x, y, z'
loop_
 _atom_site_type_symbol
 _atom_site_label
 _atom_site_symmetry_multiplicity
 _atom_site_fract_x
 _atom_site_fract_y
 _atom_site_fract_z
 _atom_site_occupancy
  Cs  Cs0  1  0.499658  0.999453  0.499995  1
  Tb  Tb1  1  0.895247  0.055488  0.999888  1
  Dy  Dy2  1  0.723790  0.647006  0.985926  1
  Tm  Tm3  1  0.686854  0.729700  0.717692  1
  Tm  Tm4  1  0.275148  0.349525  0.014555  1
  Tm  Tm5  1  0.092407  0.381969  0.285589  1
  Tm  Tm6  1  0.963678  0.036396  0.321960  1
  Tm  Tm7  1  0.907934  0.616790  0.712817  1
  Tm  Tm8  1  0.100285  0.945674  0.000637  1
  Tm  Tm9  1  0.036975  0.963767  0.678633  1
  Tm  Tm10  1  0.312909  0.269719  0.283160  1
  C  C11  1  0.151377  0.217247  0.117986  1
  C  C12  1  0.849978  0.780865  0.881323  1
  C  C13  1  0.927234  0.858773  0.804502  1
  C  C14  1  0.073916  0.139969  0.195403  1
  I  I15  1  0.452462  0.531835  0.832219  1
  I  I16  1  0.378019  0.041774  0.156150  1
  I  I17  1  0.782906  0.856267  0.503966  1
  I  I18  1  0.842141  0.312940  0.155887  1
  I  I19  1  0.544514  0.467017  0.168148  1
  I  I20  1  0.218290  0.144440  0.496872  1
  I  I21  1  0.315885  0.098788  0.828299  1
  I  I22  1  0.683319  0.902166  0.174916  1
  I  I23  1  0.973557  0.757644  0.171602  1
  I  I24  1  0.936143  0.296052  0.498447  1
  I  I25  1  0.031838  0.245673  0.828291  1
  I  I26  1  0.066636  0.706225  0.502163  1
  I  I27  1  0.259643  0.616108  0.179696  1
  I  I28  1  0.742350  0.380173  0.816352  1
  I  I29  1  0.648381  0.443640  0.507465  1
  I  I30  1  0.158251  0.694376  0.847781  1
  I  I31  1  0.617108  0.955944  0.839666  1
  I  I32  1  0.351162  0.556594  0.492014  1
