# generated using pymatgen
data_Pr2Al8SiIr2Rh
_symmetry_space_group_name_H-M   'P 1'
_cell_length_a   7.60560877
_cell_length_b   7.58574634
_cell_length_c   9.60001208
_cell_angle_alpha   89.95196028
_cell_angle_beta   89.92598162
_cell_angle_gamma   119.62786770
_symmetry_Int_Tables_number   1
_chemical_formula_structural   Pr2Al8SiIr2Rh
_chemical_formula_sum   'Pr4 Al16 Si2 Ir4 Rh2'
_cell_volume   481.44876466
_cell_formula_units_Z   2
loop_
 _symmetry_equiv_pos_site_id
 _symmetry_equiv_pos_as_xyz
  1  'x, y, z'
loop_
 _atom_site_type_symbol
 _atom_site_label
 _atom_site_symmetry_multiplicity
 _atom_site_fract_x
 _atom_site_fract_y
 _atom_site_fract_z
 _atom_site_occupancy
  Pr  Pr0  1  0.994960  0.665223  0.244364  1
  Pr  Pr1  1  0.004792  0.334813  0.755521  1
  Pr  Pr2  1  0.673597  0.999753  0.247266  1
  Pr  Pr3  1  0.326371  0.000203  0.752700  1
  Al  Al4  1  0.131480  0.130079  0.250040  1
  Al  Al5  1  0.868596  0.870022  0.749932  1
  Al  Al6  1  0.997140  0.665765  0.566814  1
  Al  Al7  1  0.334899  0.001530  0.428057  1
  Al  Al8  1  0.002646  0.334213  0.433152  1
  Al  Al9  1  0.665148  0.998706  0.571972  1
  Al  Al10  1  0.661618  0.993816  0.924523  1
  Al  Al11  1  0.338280  0.006265  0.075428  1
  Al  Al12  1  0.334571  0.333499  0.549797  1
  Al  Al13  1  0.665501  0.666422  0.450183  1
  Al  Al14  1  0.662305  0.664980  0.051286  1
  Al  Al15  1  0.337707  0.334727  0.948713  1
  Al  Al16  1  0.340368  0.546438  0.249753  1
  Al  Al17  1  0.659755  0.453267  0.750416  1
  Al  Al18  1  0.545565  0.341290  0.250126  1
  Al  Al19  1  0.454576  0.658659  0.749872  1
  Si  Si20  1  0.004892  0.328831  0.073893  1
  Si  Si21  1  0.995034  0.671072  0.926276  1
  Ir  Ir22  1  0.312149  0.662346  0.998919  1
  Ir  Ir23  1  0.328288  0.669801  0.500101  1
  Ir  Ir24  1  0.671695  0.330286  0.499924  1
  Ir  Ir25  1  0.999965  0.000074  0.499976  1
  Rh  Rh26  1  0.687998  0.337884  0.001029  1
  Rh  Rh27  1  0.000105  0.000034  0.999968  1
