# generated using pymatgen
data_ZrNb2Sn(PO4)6
_symmetry_space_group_name_H-M   'P 1'
_cell_length_a   8.81792938
_cell_length_b   8.81590867
_cell_length_c   9.14422328
_cell_angle_alpha   90.10068075
_cell_angle_beta   118.67807072
_cell_angle_gamma   120.00185336
_symmetry_Int_Tables_number   1
_chemical_formula_structural   ZrNb2Sn(PO4)6
_chemical_formula_sum   'Zr1 Nb2 Sn1 P6 O24'
_cell_volume   512.02888174
_cell_formula_units_Z   1
loop_
 _symmetry_equiv_pos_site_id
 _symmetry_equiv_pos_as_xyz
  1  'x, y, z'
loop_
 _atom_site_type_symbol
 _atom_site_label
 _atom_site_symmetry_multiplicity
 _atom_site_fract_x
 _atom_site_fract_y
 _atom_site_fract_z
 _atom_site_occupancy
  Zr  Zr0  1  0.219078  0.860979  0.079611  1
  Nb  Nb1  1  0.213310  0.357653  0.570011  1
  Nb  Nb2  1  0.787533  0.142769  0.930663  1
  Sn  Sn3  1  0.790082  0.643525  0.434060  1
  P  P4  1  0.990414  0.961181  0.250358  1
  P  P5  1  0.289250  0.530127  0.252949  1
  P  P6  1  0.282690  0.752485  0.745906  1
  P  P7  1  0.721996  0.258553  0.254137  1
  P  P8  1  0.717992  0.465698  0.747333  1
  P  P9  1  0.998211  0.032136  0.750007  1
  O  O10  1  0.299512  0.705379  0.227412  1
  O  O11  1  0.864427  0.995709  0.080683  1
  O  O12  1  0.841861  0.856054  0.591329  1
  O  O13  1  0.830927  0.797665  0.272041  1
  O  O14  1  0.136733  0.927559  0.234556  1
  O  O15  1  0.475741  0.536540  0.275664  1
  O  O16  1  0.106495  0.744819  0.580002  1
  O  O17  1  0.900609  0.635702  0.908663  1
  O  O18  1  0.274896  0.773276  0.906833  1
  O  O19  1  0.494812  0.919843  0.782193  1
  O  O20  1  0.731023  0.476534  0.585899  1
  O  O21  1  0.730718  0.436034  0.267513  1
  O  O22  1  0.280353  0.577016  0.714641  1
  O  O23  1  0.275311  0.501562  0.414621  1
  O  O24  1  0.525185  0.093500  0.234366  1
  O  O25  1  0.723211  0.215365  0.089811  1
  O  O26  1  0.085503  0.362578  0.088180  1
  O  O27  1  0.916724  0.283323  0.418924  1
  O  O28  1  0.508596  0.432944  0.706153  1
  O  O29  1  0.865168  0.078211  0.781809  1
  O  O30  1  0.136489  0.199746  0.709863  1
  O  O31  1  0.129672  0.138485  0.408483  1
  O  O32  1  0.144473  0.015297  0.916795  1
  O  O33  1  0.711005  0.291751  0.788532  1
