# generated using pymatgen
data_NiSe2O7
_symmetry_space_group_name_H-M   'P 1'
_cell_length_a   5.10556669
_cell_length_b   7.34746520
_cell_length_c   8.51892183
_cell_angle_alpha   92.13391649
_cell_angle_beta   94.08807964
_cell_angle_gamma   105.17953828
_symmetry_Int_Tables_number   1
_chemical_formula_structural   NiSe2O7
_chemical_formula_sum   'Ni2 Se4 O14'
_cell_volume   307.11643192
_cell_formula_units_Z   2
loop_
 _symmetry_equiv_pos_site_id
 _symmetry_equiv_pos_as_xyz
  1  'x, y, z'
loop_
 _atom_site_type_symbol
 _atom_site_label
 _atom_site_symmetry_multiplicity
 _atom_site_fract_x
 _atom_site_fract_y
 _atom_site_fract_z
 _atom_site_occupancy
  Ni  Ni0  1  0.000000  0.500000  0.000000  1
  Ni  Ni1  1  0.500000  0.000000  0.500000  1
  Se  Se2  1  0.514750  0.651037  0.769472  1
  Se  Se3  1  0.485250  0.348963  0.230528  1
  Se  Se4  1  0.122596  0.244898  0.687314  1
  Se  Se5  1  0.877404  0.755102  0.312686  1
  O  O6  1  0.755218  0.544402  0.811780  1
  O  O7  1  0.244782  0.455598  0.188220  1
  O  O8  1  0.337192  0.691803  0.915099  1
  O  O9  1  0.662808  0.308197  0.084901  1
  O  O10  1  0.630738  0.833278  0.663616  1
  O  O11  1  0.369262  0.166722  0.336384  1
  O  O12  1  0.279174  0.484050  0.627220  1
  O  O13  1  0.720826  0.515950  0.372780  1
  O  O14  1  0.876519  0.191429  0.544169  1
  O  O15  1  0.123481  0.808571  0.455831  1
  O  O16  1  0.351277  0.123134  0.683896  1
  O  O17  1  0.648723  0.876866  0.316104  1
  O  O18  1  0.044843  0.266268  0.870930  1
  O  O19  1  0.955157  0.733732  0.129070  1
