# generated using pymatgen
data_LiSi3Ru4
_symmetry_space_group_name_H-M   'P 1'
_cell_length_a   7.03624500
_cell_length_b   7.03624482
_cell_length_c   4.77228800
_cell_angle_alpha   90.00000000
_cell_angle_beta   90.00000000
_cell_angle_gamma   119.99999614
_symmetry_Int_Tables_number   1
_chemical_formula_structural   LiSi3Ru4
_chemical_formula_sum   'Li2 Si6 Ru8'
_cell_volume   204.61581060
_cell_formula_units_Z   2
loop_
 _symmetry_equiv_pos_site_id
 _symmetry_equiv_pos_as_xyz
  1  'x, y, z'
loop_
 _atom_site_type_symbol
 _atom_site_label
 _atom_site_symmetry_multiplicity
 _atom_site_fract_x
 _atom_site_fract_y
 _atom_site_fract_z
 _atom_site_occupancy
  Li  Li0  1  0.666666  0.333334  0.000000  1
  Li  Li1  1  0.333334  0.666667  0.000000  1
  Si  Si2  1  0.605518  0.000000  0.253828  1
  Si  Si3  1  0.394482  0.394482  0.253828  1
  Si  Si4  1  0.000000  0.605518  0.253828  1
  Si  Si5  1  0.394482  0.000000  0.746171  1
  Si  Si6  1  0.000000  0.394482  0.746171  1
  Si  Si7  1  0.605518  0.605518  0.746171  1
  Ru  Ru8  1  0.251678  0.000000  0.235821  1
  Ru  Ru9  1  0.000000  0.251677  0.235821  1
  Ru  Ru10  1  0.748322  0.748322  0.235821  1
  Ru  Ru11  1  0.666666  0.333334  0.500001  1
  Ru  Ru12  1  0.333334  0.666667  0.500001  1
  Ru  Ru13  1  0.748322  0.000000  0.764178  1
  Ru  Ru14  1  0.251677  0.251677  0.764178  1
  Ru  Ru15  1  0.000000  0.748322  0.764178  1
