# generated using pymatgen
data_TbFe2SiC
_symmetry_space_group_name_H-M   'P 1'
_cell_length_a   5.53648841
_cell_length_b   5.53648772
_cell_length_c   6.77069600
_cell_angle_alpha   90.00000000
_cell_angle_beta   90.00000000
_cell_angle_gamma   140.18295839
_symmetry_Int_Tables_number   1
_chemical_formula_structural   TbFe2SiC
_chemical_formula_sum   'Tb2 Fe4 Si2 C2'
_cell_volume   132.89585957
_cell_formula_units_Z   2
loop_
 _symmetry_equiv_pos_site_id
 _symmetry_equiv_pos_as_xyz
  1  'x, y, z'
loop_
 _atom_site_type_symbol
 _atom_site_label
 _atom_site_symmetry_multiplicity
 _atom_site_fract_x
 _atom_site_fract_y
 _atom_site_fract_z
 _atom_site_occupancy
  Tb  Tb0  1  0.550432  0.449568  0.250000  1
  Tb  Tb1  1  0.449568  0.550432  0.750000  1
  Fe  Fe2  1  0.833730  0.166270  0.061821  1
  Fe  Fe3  1  0.166270  0.833730  0.938179  1
  Fe  Fe4  1  0.166270  0.833730  0.561821  1
  Fe  Fe5  1  0.833730  0.166270  0.438179  1
  Si  Si6  1  0.270585  0.729415  0.250000  1
  Si  Si7  1  0.729415  0.270585  0.750000  1
  C  C8  1  0.000000  0.000000  0.000000  1
  C  C9  1  0.000000  0.000000  0.500000  1
