# generated using pymatgen
data_NdSmTh6(ReC2)4
_symmetry_space_group_name_H-M   'P 1'
_cell_length_a   5.36143800
_cell_length_b   6.69476308
_cell_length_c   10.09161038
_cell_angle_alpha   89.80982355
_cell_angle_beta   90.00000000
_cell_angle_gamma   90.00000000
_symmetry_Int_Tables_number   1
_chemical_formula_structural   NdSmTh6(ReC2)4
_chemical_formula_sum   'Nd1 Sm1 Th6 Re4 C8'
_cell_volume   362.22179892
_cell_formula_units_Z   1
loop_
 _symmetry_equiv_pos_site_id
 _symmetry_equiv_pos_as_xyz
  1  'x, y, z'
loop_
 _atom_site_type_symbol
 _atom_site_label
 _atom_site_symmetry_multiplicity
 _atom_site_fract_x
 _atom_site_fract_y
 _atom_site_fract_z
 _atom_site_occupancy
  Nd  Nd0  1  0.750000  0.312956  0.450995  1
  Sm  Sm1  1  0.250000  0.684604  0.550446  1
  Th  Th2  1  0.750000  0.475237  0.777399  1
  Th  Th3  1  0.250000  0.026086  0.282378  1
  Th  Th4  1  0.750000  0.973723  0.717875  1
  Th  Th5  1  0.250000  0.525362  0.222910  1
  Th  Th6  1  0.750000  0.810132  0.048353  1
  Th  Th7  1  0.250000  0.189605  0.951267  1
  Re  Re8  1  0.750000  0.771182  0.362747  1
  Re  Re9  1  0.250000  0.726170  0.861265  1
  Re  Re10  1  0.250000  0.229129  0.637653  1
  Re  Re11  1  0.750000  0.274023  0.138124  1
  C  C12  1  0.250000  0.964318  0.741995  1
  C  C13  1  0.750000  0.533835  0.242946  1
  C  C14  1  0.250000  0.467140  0.756328  1
  C  C15  1  0.750000  0.034639  0.256717  1
  C  C16  1  0.250000  0.322262  0.451197  1
  C  C17  1  0.750000  0.165229  0.947573  1
  C  C18  1  0.250000  0.834580  0.052211  1
  C  C19  1  0.750000  0.679788  0.549621  1
