# generated using pymatgen
data_YHoGe2Ru2C
_symmetry_space_group_name_H-M   'P 1'
_cell_length_a   5.87838438
_cell_length_b   5.87838389
_cell_length_c   6.90337548
_cell_angle_alpha   125.23503696
_cell_angle_beta   125.23503712
_cell_angle_gamma   40.98031958
_symmetry_Int_Tables_number   1
_chemical_formula_structural   YHoGe2Ru2C
_chemical_formula_sum   'Y1 Ho1 Ge2 Ru2 C1'
_cell_volume   123.24768542
_cell_formula_units_Z   1
loop_
 _symmetry_equiv_pos_site_id
 _symmetry_equiv_pos_as_xyz
  1  'x, y, z'
loop_
 _atom_site_type_symbol
 _atom_site_label
 _atom_site_symmetry_multiplicity
 _atom_site_fract_x
 _atom_site_fract_y
 _atom_site_fract_z
 _atom_site_occupancy
  Y  Y0  1  0.438193  0.438193  0.707034  1
  Ho  Ho1  1  0.561013  0.561013  0.291562  1
  Ge  Ge2  1  0.844970  0.844970  0.308213  1
  Ge  Ge3  1  0.154649  0.154649  0.690519  1
  Ru  Ru4  1  0.201112  0.201112  0.096715  1
  Ru  Ru5  1  0.799352  0.799352  0.903891  1
  C  C6  1  0.000711  0.000711  0.002069  1
