# generated using pymatgen
data_UCl30
_symmetry_space_group_name_H-M   'P 1'
_cell_length_a   14.33100698
_cell_length_b   14.33100677
_cell_length_c   16.12705973
_cell_angle_alpha   84.32797585
_cell_angle_beta   84.32797600
_cell_angle_gamma   128.15675574
_symmetry_Int_Tables_number   1
_chemical_formula_structural   UCl30
_chemical_formula_sum   'U1 Cl30'
_cell_volume   2536.97430980
_cell_formula_units_Z   1
loop_
 _symmetry_equiv_pos_site_id
 _symmetry_equiv_pos_as_xyz
  1  'x, y, z'
loop_
 _atom_site_type_symbol
 _atom_site_label
 _atom_site_symmetry_multiplicity
 _atom_site_fract_x
 _atom_site_fract_y
 _atom_site_fract_z
 _atom_site_occupancy
  U  U0  1  0.000000  0.000000  0.000000  1
  Cl  Cl1  1  0.944004  0.944004  0.158724  1
  Cl  Cl2  1  0.055996  0.055996  0.841276  1
  Cl  Cl3  1  0.068999  0.204221  0.005524  1
  Cl  Cl4  1  0.931001  0.795779  0.994476  1
  Cl  Cl5  1  0.204221  0.068999  0.005524  1
  Cl  Cl6  1  0.795779  0.931001  0.994476  1
  Cl  Cl7  1  0.202902  0.742966  0.063468  1
  Cl  Cl8  1  0.797098  0.257034  0.936532  1
  Cl  Cl9  1  0.695655  0.080311  0.263471  1
  Cl  Cl10  1  0.257034  0.797098  0.936532  1
  Cl  Cl11  1  0.304345  0.919689  0.736529  1
  Cl  Cl12  1  0.742966  0.202902  0.063468  1
  Cl  Cl13  1  0.974762  0.210554  0.771003  1
  Cl  Cl14  1  0.919689  0.304345  0.736529  1
  Cl  Cl15  1  0.025238  0.789446  0.228997  1
  Cl  Cl16  1  0.080311  0.695655  0.263471  1
  Cl  Cl17  1  0.789446  0.025238  0.228997  1
  Cl  Cl18  1  0.210554  0.974762  0.771003  1
  Cl  Cl19  1  0.468309  0.545682  0.260790  1
  Cl  Cl20  1  0.531691  0.454318  0.739210  1
  Cl  Cl21  1  0.505597  0.206113  0.452928  1
  Cl  Cl22  1  0.454318  0.531691  0.739210  1
  Cl  Cl23  1  0.494403  0.793887  0.547072  1
  Cl  Cl24  1  0.545682  0.468309  0.260790  1
  Cl  Cl25  1  0.238829  0.430198  0.543640  1
  Cl  Cl26  1  0.793887  0.494403  0.547072  1
  Cl  Cl27  1  0.761171  0.569802  0.456360  1
  Cl  Cl28  1  0.206113  0.505597  0.452928  1
  Cl  Cl29  1  0.569802  0.761171  0.456360  1
  Cl  Cl30  1  0.430198  0.238829  0.543640  1
