# generated using pymatgen
data_YLu5Bi2Ru
_symmetry_space_group_name_H-M   'P 1'
_cell_length_a   8.23374900
_cell_length_b   8.18591183
_cell_length_c   4.17548500
_cell_angle_alpha   90.00000000
_cell_angle_beta   90.00000000
_cell_angle_gamma   120.19350578
_symmetry_Int_Tables_number   1
_chemical_formula_structural   YLu5Bi2Ru
_chemical_formula_sum   'Y1 Lu5 Bi2 Ru1'
_cell_volume   243.24958695
_cell_formula_units_Z   1
loop_
 _symmetry_equiv_pos_site_id
 _symmetry_equiv_pos_as_xyz
  1  'x, y, z'
loop_
 _atom_site_type_symbol
 _atom_site_label
 _atom_site_symmetry_multiplicity
 _atom_site_fract_x
 _atom_site_fract_y
 _atom_site_fract_z
 _atom_site_occupancy
  Y  Y0  1  0.610634  0.000000  0.000000  1
  Lu  Lu1  1  0.382572  0.382929  0.000000  1
  Lu  Lu2  1  0.999643  0.617072  0.000000  1
  Lu  Lu3  1  0.233709  0.000000  0.500000  1
  Lu  Lu4  1  0.000437  0.231578  0.500000  1
  Lu  Lu5  1  0.768859  0.768423  0.500000  1
  Bi  Bi6  1  0.666650  0.335650  0.500000  1
  Bi  Bi7  1  0.331001  0.664349  0.500000  1
  Ru  Ru8  1  0.006495  0.000000  0.000000  1
