# generated using pymatgen
data_Ca12Tm3Ge12Mo5O48
_symmetry_space_group_name_H-M   'P 1'
_cell_length_a   11.07068154
_cell_length_b   11.07030045
_cell_length_c   11.06818221
_cell_angle_alpha   109.45718476
_cell_angle_beta   109.48913042
_cell_angle_gamma   109.48452004
_symmetry_Int_Tables_number   1
_chemical_formula_structural   Ca12Tm3Ge12Mo5O48
_chemical_formula_sum   'Ca12 Tm3 Ge12 Mo5 O48'
_cell_volume   1043.98934450
_cell_formula_units_Z   1
loop_
 _symmetry_equiv_pos_site_id
 _symmetry_equiv_pos_as_xyz
  1  'x, y, z'
loop_
 _atom_site_type_symbol
 _atom_site_label
 _atom_site_symmetry_multiplicity
 _atom_site_fract_x
 _atom_site_fract_y
 _atom_site_fract_z
 _atom_site_occupancy
  Ca  Ca0  1  0.249409  0.875774  0.625605  1
  Ca  Ca1  1  0.747317  0.624839  0.873173  1
  Ca  Ca2  1  0.626240  0.875683  0.752733  1
  Ca  Ca3  1  0.872426  0.628245  0.250585  1
  Ca  Ca4  1  0.622336  0.250653  0.878359  1
  Ca  Ca5  1  0.874486  0.752603  0.627335  1
  Ca  Ca6  1  0.750591  0.124226  0.374395  1
  Ca  Ca7  1  0.252683  0.375161  0.126827  1
  Ca  Ca8  1  0.373760  0.124317  0.247267  1
  Ca  Ca9  1  0.127574  0.371755  0.749415  1
  Ca  Ca10  1  0.377664  0.749347  0.121641  1
  Ca  Ca11  1  0.125514  0.247397  0.372665  1
  Tm  Tm12  1  0.500000  0.000000  0.500000  1
  Tm  Tm13  1  0.000000  0.500000  0.500000  1
  Tm  Tm14  1  0.000000  0.500000  0.000000  1
  Ge  Ge15  1  0.128160  0.754716  0.876806  1
  Ge  Ge16  1  0.871840  0.245284  0.123194  1
  Ge  Ge17  1  0.622457  0.375319  0.248351  1
  Ge  Ge18  1  0.750041  0.875118  0.125140  1
  Ge  Ge19  1  0.878127  0.123572  0.751312  1
  Ge  Ge20  1  0.253027  0.625507  0.377132  1
  Ge  Ge21  1  0.746973  0.374493  0.622868  1
  Ge  Ge22  1  0.249959  0.124882  0.874860  1
  Ge  Ge23  1  0.121873  0.876428  0.248688  1
  Ge  Ge24  1  0.377543  0.624681  0.751649  1
  Ge  Ge25  1  0.625868  0.748352  0.372926  1
  Ge  Ge26  1  0.374132  0.251648  0.627074  1
  Mo  Mo27  1  0.500000  0.500000  0.500000  1
  Mo  Mo28  1  0.500000  0.500000  0.000000  1
  Mo  Mo29  1  0.000000  0.000000  0.500000  1
  Mo  Mo30  1  0.500000  0.000000  0.000000  1
  Mo  Mo31  1  0.000000  0.000000  0.000000  1
  O  O32  1  0.412031  0.807239  0.790858  1
  O  O33  1  0.874626  0.392630  0.088960  1
  O  O34  1  0.103614  0.981973  0.691668  1
  O  O35  1  0.521834  0.624063  0.711985  1
  O  O36  1  0.696768  0.089760  0.713966  1
  O  O37  1  0.621966  0.709845  0.517023  1
  O  O38  1  0.621102  0.410969  0.101470  1
  O  O39  1  0.711692  0.521300  0.622183  1
  O  O40  1  0.804498  0.519002  0.394162  1
  O  O41  1  0.982100  0.790080  0.879560  1
  O  O42  1  0.789618  0.877635  0.981391  1
  O  O43  1  0.709700  0.691778  0.088200  1
  O  O44  1  0.410799  0.106017  0.625799  1
  O  O45  1  0.398311  0.807010  0.523450  1
  O  O46  1  0.090073  0.716448  0.694061  1
  O  O47  1  0.104939  0.623964  0.409490  1
  O  O48  1  0.519018  0.398866  0.809189  1
  O  O49  1  0.088879  0.879259  0.397405  1
  O  O50  1  0.977490  0.693821  0.104146  1
  O  O51  1  0.195502  0.480998  0.605838  1
  O  O52  1  0.689068  0.099540  0.977558  1
  O  O53  1  0.784083  0.410125  0.804857  1
  O  O54  1  0.396073  0.087471  0.877463  1
  O  O55  1  0.877486  0.977309  0.787943  1
  O  O56  1  0.587969  0.192761  0.209142  1
  O  O57  1  0.125374  0.607370  0.911040  1
  O  O58  1  0.896386  0.018027  0.308332  1
  O  O59  1  0.478166  0.375937  0.288015  1
  O  O60  1  0.303232  0.910240  0.286034  1
  O  O61  1  0.378034  0.290155  0.482977  1
  O  O62  1  0.378898  0.589031  0.898530  1
  O  O63  1  0.288308  0.478700  0.377817  1
  O  O64  1  0.122514  0.022691  0.212057  1
  O  O65  1  0.603927  0.912529  0.122537  1
  O  O66  1  0.215917  0.589875  0.195143  1
  O  O67  1  0.190118  0.211335  0.588025  1
  O  O68  1  0.310932  0.900460  0.022442  1
  O  O69  1  0.022510  0.306179  0.895854  1
  O  O70  1  0.911121  0.120741  0.602595  1
  O  O71  1  0.480982  0.601134  0.190811  1
  O  O72  1  0.895061  0.376036  0.590510  1
  O  O73  1  0.909927  0.283552  0.305939  1
  O  O74  1  0.601689  0.192990  0.476550  1
  O  O75  1  0.589201  0.893983  0.374201  1
  O  O76  1  0.290300  0.308222  0.911800  1
  O  O77  1  0.210382  0.122365  0.018609  1
  O  O78  1  0.017900  0.209920  0.120440  1
  O  O79  1  0.809882  0.788665  0.411975  1
