# generated using pymatgen
data_Er8Th4Tc3Os
_symmetry_space_group_name_H-M   'P 1'
_cell_length_a   6.33841334
_cell_length_b   7.32054235
_cell_length_c   9.41599200
_cell_angle_alpha   90.00000000
_cell_angle_beta   90.00000000
_cell_angle_gamma   89.95058256
_symmetry_Int_Tables_number   1
_chemical_formula_structural   Er8Th4Tc3Os
_chemical_formula_sum   'Er8 Th4 Tc3 Os1'
_cell_volume   436.90773472
_cell_formula_units_Z   1
loop_
 _symmetry_equiv_pos_site_id
 _symmetry_equiv_pos_as_xyz
  1  'x, y, z'
loop_
 _atom_site_type_symbol
 _atom_site_label
 _atom_site_symmetry_multiplicity
 _atom_site_fract_x
 _atom_site_fract_y
 _atom_site_fract_z
 _atom_site_occupancy
  Er  Er0  1  0.331687  0.673465  0.066304  1
  Er  Er1  1  0.166472  0.174439  0.432336  1
  Er  Er2  1  0.664826  0.327702  0.566791  1
  Er  Er3  1  0.832233  0.825325  0.932579  1
  Er  Er4  1  0.664826  0.327702  0.933209  1
  Er  Er5  1  0.832233  0.825325  0.567421  1
  Er  Er6  1  0.331687  0.673465  0.433696  1
  Er  Er7  1  0.166472  0.174439  0.067664  1
  Th  Th8  1  0.855339  0.549717  0.250000  1
  Th  Th9  1  0.641809  0.047745  0.250000  1
  Th  Th10  1  0.145411  0.449347  0.750000  1
  Th  Th11  1  0.352414  0.954185  0.750000  1
  Tc  Tc12  1  0.018514  0.870391  0.250000  1
  Tc  Tc13  1  0.480575  0.370229  0.250000  1
  Tc  Tc14  1  0.979710  0.130572  0.750000  1
  Os  Os15  1  0.535793  0.625949  0.750000  1
