# generated using pymatgen
data_TbEr3Sc6(GaSi3)2
_symmetry_space_group_name_H-M   'P 1'
_cell_length_a   7.11359611
_cell_length_b   7.39479330
_cell_length_c   14.12498168
_cell_angle_alpha   90.05307855
_cell_angle_beta   89.84565934
_cell_angle_gamma   90.17578315
_symmetry_Int_Tables_number   1
_chemical_formula_structural   TbEr3Sc6(GaSi3)2
_chemical_formula_sum   'Tb2 Er6 Sc12 Ga4 Si12'
_cell_volume   743.01799724
_cell_formula_units_Z   2
loop_
 _symmetry_equiv_pos_site_id
 _symmetry_equiv_pos_as_xyz
  1  'x, y, z'
loop_
 _atom_site_type_symbol
 _atom_site_label
 _atom_site_symmetry_multiplicity
 _atom_site_fract_x
 _atom_site_fract_y
 _atom_site_fract_z
 _atom_site_occupancy
  Tb  Tb0  1  0.013076  0.174895  0.096471  1
  Tb  Tb1  1  0.988683  0.825105  0.902233  1
  Er  Er2  1  0.487568  0.677397  0.901667  1
  Er  Er3  1  0.988721  0.827470  0.600742  1
  Er  Er4  1  0.510237  0.320811  0.096916  1
  Er  Er5  1  0.008687  0.175090  0.400076  1
  Er  Er6  1  0.510385  0.323946  0.400223  1
  Er  Er7  1  0.491304  0.676143  0.601047  1
  Sc  Sc8  1  0.163782  0.500898  0.751690  1
  Sc  Sc9  1  0.835704  0.498522  0.249909  1
  Sc  Sc10  1  0.335564  0.001687  0.248249  1
  Sc  Sc11  1  0.664134  0.998553  0.750159  1
  Sc  Sc12  1  0.334858  0.174567  0.628414  1
  Sc  Sc13  1  0.668068  0.826727  0.373341  1
  Sc  Sc14  1  0.169306  0.672951  0.372572  1
  Sc  Sc15  1  0.667901  0.826408  0.125440  1
  Sc  Sc16  1  0.829699  0.325075  0.627059  1
  Sc  Sc17  1  0.331256  0.175713  0.874629  1
  Sc  Sc18  1  0.829437  0.323865  0.874444  1
  Sc  Sc19  1  0.172944  0.674700  0.124248  1
  Ga  Ga20  1  0.163168  0.460829  0.539667  1
  Ga  Ga21  1  0.838107  0.538845  0.461921  1
  Ga  Ga22  1  0.337698  0.960759  0.462230  1
  Ga  Ga23  1  0.838115  0.538645  0.038406  1
  Si  Si24  1  0.033741  0.115966  0.751451  1
  Si  Si25  1  0.966501  0.884206  0.248817  1
  Si  Si26  1  0.466923  0.613211  0.248072  1
  Si  Si27  1  0.533893  0.386731  0.751669  1
  Si  Si28  1  0.287149  0.870952  0.751280  1
  Si  Si29  1  0.713547  0.129093  0.248382  1
  Si  Si30  1  0.213406  0.370724  0.248413  1
  Si  Si31  1  0.787273  0.629711  0.751720  1
  Si  Si32  1  0.659187  0.036576  0.539056  1
  Si  Si33  1  0.159163  0.463543  0.960703  1
  Si  Si34  1  0.656564  0.036164  0.961326  1
  Si  Si35  1  0.344254  0.963523  0.037357  1
