# generated using pymatgen
data_YSc(Co3Si2)2
_symmetry_space_group_name_H-M   'P 1'
_cell_length_a   6.19166047
_cell_length_b   6.19166145
_cell_length_c   6.19176757
_cell_angle_alpha   130.56063421
_cell_angle_beta   112.62092573
_cell_angle_gamma   87.99981714
_symmetry_Int_Tables_number   1
_chemical_formula_structural   YSc(Co3Si2)2
_chemical_formula_sum   'Y1 Sc1 Co6 Si4'
_cell_volume   158.43035507
_cell_formula_units_Z   1
loop_
 _symmetry_equiv_pos_site_id
 _symmetry_equiv_pos_as_xyz
  1  'x, y, z'
loop_
 _atom_site_type_symbol
 _atom_site_label
 _atom_site_symmetry_multiplicity
 _atom_site_fract_x
 _atom_site_fract_y
 _atom_site_fract_z
 _atom_site_occupancy
  Y  Y0  1  0.749910  0.471618  0.721528  1
  Sc  Sc1  1  0.250028  0.542924  0.292952  1
  Co  Co2  1  0.994927  0.996870  0.491797  1
  Co  Co3  1  0.505094  0.996904  0.001998  1
  Co  Co4  1  0.719432  0.994827  0.719545  1
  Co  Co5  1  0.224719  0.500114  0.719545  1
  Co  Co6  1  0.275346  0.994816  0.275328  1
  Co  Co7  1  0.780512  0.499981  0.275328  1
  Si  Si8  1  0.087265  0.883983  0.796978  1
  Si  Si9  1  0.925044  0.129284  0.204012  1
  Si  Si10  1  0.574728  0.778970  0.204012  1
  Si  Si11  1  0.412995  0.209712  0.796978  1
