# generated using pymatgen
data_Yb17U3Pt16
_symmetry_space_group_name_H-M   'P 1'
_cell_length_a   7.48378236
_cell_length_b   7.55623253
_cell_length_c   14.60940269
_cell_angle_alpha   90.30096677
_cell_angle_beta   89.95111366
_cell_angle_gamma   89.92326823
_symmetry_Int_Tables_number   1
_chemical_formula_structural   Yb17U3Pt16
_chemical_formula_sum   'Yb17 U3 Pt16'
_cell_volume   826.13758659
_cell_formula_units_Z   1
loop_
 _symmetry_equiv_pos_site_id
 _symmetry_equiv_pos_as_xyz
  1  'x, y, z'
loop_
 _atom_site_type_symbol
 _atom_site_label
 _atom_site_symmetry_multiplicity
 _atom_site_fract_x
 _atom_site_fract_y
 _atom_site_fract_z
 _atom_site_occupancy
  Yb  Yb0  1  0.854263  0.660911  0.377282  1
  Yb  Yb1  1  0.355533  0.834448  0.378676  1
  Yb  Yb2  1  0.857385  0.663201  0.121103  1
  Yb  Yb3  1  0.640644  0.165661  0.879836  1
  Yb  Yb4  1  0.143710  0.332481  0.621270  1
  Yb  Yb5  1  0.486644  0.673008  0.592925  1
  Yb  Yb6  1  0.985756  0.823948  0.906442  1
  Yb  Yb7  1  0.514713  0.324625  0.097008  1
  Yb  Yb8  1  0.012758  0.182356  0.405056  1
  Yb  Yb9  1  0.512823  0.321329  0.403739  1
  Yb  Yb10  1  0.005304  0.181954  0.098112  1
  Yb  Yb11  1  0.491284  0.683786  0.903368  1
  Yb  Yb12  1  0.991201  0.813850  0.592286  1
  Yb  Yb13  1  0.803704  0.509663  0.749363  1
  Yb  Yb14  1  0.303137  0.988247  0.749522  1
  Yb  Yb15  1  0.188511  0.492156  0.252561  1
  Yb  Yb16  1  0.699864  0.005486  0.251544  1
  U  U17  1  0.647187  0.158265  0.624014  1
  U  U18  1  0.146456  0.342552  0.876966  1
  U  U19  1  0.353656  0.842179  0.123529  1
  Pt  Pt20  1  0.698742  0.970781  0.465419  1
  Pt  Pt21  1  0.203558  0.544976  0.036145  1
  Pt  Pt22  1  0.293902  0.046307  0.963810  1
  Pt  Pt23  1  0.802981  0.447610  0.541259  1
  Pt  Pt24  1  0.328010  0.034766  0.545265  1
  Pt  Pt25  1  0.829822  0.462782  0.955056  1
  Pt  Pt26  1  0.666820  0.958451  0.043494  1
  Pt  Pt27  1  0.180712  0.531962  0.458710  1
  Pt  Pt28  1  0.443212  0.371430  0.745419  1
  Pt  Pt29  1  0.943258  0.127616  0.757035  1
  Pt  Pt30  1  0.550534  0.624482  0.241232  1
  Pt  Pt31  1  0.065735  0.878696  0.245990  1
  Pt  Pt32  1  0.677715  0.870050  0.742482  1
  Pt  Pt33  1  0.175144  0.629624  0.756683  1
  Pt  Pt34  1  0.332492  0.135435  0.246017  1
  Pt  Pt35  1  0.812829  0.364924  0.251381  1
