# generated using pymatgen
data_Ca20InSi9Hg2
_symmetry_space_group_name_H-M   'P 1'
_cell_length_a   7.73317200
_cell_length_b   7.73317200
_cell_length_c   15.12444300
_cell_angle_alpha   90.00000000
_cell_angle_beta   90.00000000
_cell_angle_gamma   90.00000000
_symmetry_Int_Tables_number   1
_chemical_formula_structural   Ca20InSi9Hg2
_chemical_formula_sum   'Ca20 In1 Si9 Hg2'
_cell_volume   904.47117169
_cell_formula_units_Z   1
loop_
 _symmetry_equiv_pos_site_id
 _symmetry_equiv_pos_as_xyz
  1  'x, y, z'
loop_
 _atom_site_type_symbol
 _atom_site_label
 _atom_site_symmetry_multiplicity
 _atom_site_fract_x
 _atom_site_fract_y
 _atom_site_fract_z
 _atom_site_occupancy
  Ca  Ca0  1  0.684785  0.169629  0.108488  1
  Ca  Ca1  1  0.175948  0.674603  0.614633  1
  Ca  Ca2  1  0.315215  0.830371  0.108488  1
  Ca  Ca3  1  0.824052  0.325397  0.614633  1
  Ca  Ca4  1  0.830371  0.684785  0.108488  1
  Ca  Ca5  1  0.325397  0.175948  0.614633  1
  Ca  Ca6  1  0.169629  0.315215  0.108488  1
  Ca  Ca7  1  0.674603  0.824052  0.614633  1
  Ca  Ca8  1  0.830371  0.315215  0.891512  1
  Ca  Ca9  1  0.325397  0.824052  0.385367  1
  Ca  Ca10  1  0.169629  0.684785  0.891512  1
  Ca  Ca11  1  0.674603  0.175948  0.385367  1
  Ca  Ca12  1  0.684785  0.830371  0.891512  1
  Ca  Ca13  1  0.175948  0.325397  0.385367  1
  Ca  Ca14  1  0.315215  0.169629  0.891512  1
  Ca  Ca15  1  0.824052  0.674603  0.385367  1
  Ca  Ca16  1  0.500000  0.500000  0.758369  1
  Ca  Ca17  1  0.000000  0.000000  0.248611  1
  Ca  Ca18  1  0.000000  0.000000  0.751389  1
  Ca  Ca19  1  0.500000  0.500000  0.241631  1
  In  In20  1  0.500000  0.500000  0.000000  1
  Si  Si21  1  0.610302  0.113081  0.751939  1
  Si  Si22  1  0.113081  0.610302  0.248061  1
  Si  Si23  1  0.886919  0.389698  0.248061  1
  Si  Si24  1  0.389698  0.886919  0.751939  1
  Si  Si25  1  0.886919  0.610302  0.751939  1
  Si  Si26  1  0.389698  0.113081  0.248061  1
  Si  Si27  1  0.113081  0.389698  0.751939  1
  Si  Si28  1  0.610302  0.886919  0.248061  1
  Si  Si29  1  0.000000  0.000000  0.000000  1
  Hg  Hg30  1  0.500000  0.500000  0.500000  1
  Hg  Hg31  1  0.000000  0.000000  0.500000  1
