# generated using pymatgen
data_KBa2(SnP)6
_symmetry_space_group_name_H-M   'P 1'
_cell_length_a   7.13176764
_cell_length_b   7.13176812
_cell_length_c   9.74909934
_cell_angle_alpha   82.97747445
_cell_angle_beta   82.97747522
_cell_angle_gamma   119.99814754
_symmetry_Int_Tables_number   1
_chemical_formula_structural   KBa2(SnP)6
_chemical_formula_sum   'K1 Ba2 Sn6 P6'
_cell_volume   416.40020613
_cell_formula_units_Z   1
loop_
 _symmetry_equiv_pos_site_id
 _symmetry_equiv_pos_as_xyz
  1  'x, y, z'
loop_
 _atom_site_type_symbol
 _atom_site_label
 _atom_site_symmetry_multiplicity
 _atom_site_fract_x
 _atom_site_fract_y
 _atom_site_fract_z
 _atom_site_occupancy
  K  K0  1  0.000000  0.000000  0.000000  1
  Ba  Ba1  1  0.666484  0.333516  0.000000  1
  Ba  Ba2  1  0.333516  0.666484  0.000000  1
  Sn  Sn3  1  0.540822  0.876588  0.370538  1
  Sn  Sn4  1  0.211860  0.211860  0.370704  1
  Sn  Sn5  1  0.876588  0.540822  0.370538  1
  Sn  Sn6  1  0.459178  0.123412  0.629462  1
  Sn  Sn7  1  0.123412  0.459178  0.629462  1
  Sn  Sn8  1  0.788140  0.788140  0.629296  1
  P  P9  1  0.411399  0.411399  0.765622  1
  P  P10  1  0.078062  0.744583  0.766146  1
  P  P11  1  0.744583  0.078062  0.766146  1
  P  P12  1  0.588601  0.588601  0.234378  1
  P  P13  1  0.255417  0.921938  0.233854  1
  P  P14  1  0.921938  0.255417  0.233854  1
