# generated using pymatgen
data_Tb7Ho3Rh4
_symmetry_space_group_name_H-M   'P 1'
_cell_length_a   6.43519629
_cell_length_b   7.16403377
_cell_length_c   8.70932241
_cell_angle_alpha   96.80762585
_cell_angle_beta   111.90680641
_cell_angle_gamma   90.05942294
_symmetry_Int_Tables_number   1
_chemical_formula_structural   Tb7Ho3Rh4
_chemical_formula_sum   'Tb7 Ho3 Rh4'
_cell_volume   369.45099388
_cell_formula_units_Z   1
loop_
 _symmetry_equiv_pos_site_id
 _symmetry_equiv_pos_as_xyz
  1  'x, y, z'
loop_
 _atom_site_type_symbol
 _atom_site_label
 _atom_site_symmetry_multiplicity
 _atom_site_fract_x
 _atom_site_fract_y
 _atom_site_fract_z
 _atom_site_occupancy
  Tb  Tb0  1  0.980013  0.917895  0.187651  1
  Tb  Tb1  1  0.792597  0.581918  0.811552  1
  Tb  Tb2  1  0.019020  0.082620  0.811949  1
  Tb  Tb3  1  0.208022  0.417440  0.188570  1
  Tb  Tb4  1  0.645478  0.812337  0.435858  1
  Tb  Tb5  1  0.208790  0.686966  0.563413  1
  Tb  Tb6  1  0.354543  0.187746  0.564074  1
  Ho  Ho7  1  0.790865  0.312872  0.435618  1
  Ho  Ho8  1  0.424192  0.749986  0.000051  1
  Ho  Ho9  1  0.575820  0.250345  0.000346  1
  Rh  Rh10  1  0.816845  0.573648  0.221286  1
  Rh  Rh11  1  0.596526  0.925809  0.781271  1
  Rh  Rh12  1  0.182069  0.425592  0.778044  1
  Rh  Rh13  1  0.405221  0.074829  0.220315  1
