# generated using pymatgen
data_Tb7Y2Zr3Ga20
_symmetry_space_group_name_H-M   'P 1'
_cell_length_a   6.06652158
_cell_length_b   9.52692205
_cell_length_c   11.36936697
_cell_angle_alpha   89.99735249
_cell_angle_beta   90.13759330
_cell_angle_gamma   90.01122001
_symmetry_Int_Tables_number   1
_chemical_formula_structural   Tb7Y2Zr3Ga20
_chemical_formula_sum   'Tb7 Y2 Zr3 Ga20'
_cell_volume   657.09381875
_cell_formula_units_Z   1
loop_
 _symmetry_equiv_pos_site_id
 _symmetry_equiv_pos_as_xyz
  1  'x, y, z'
loop_
 _atom_site_type_symbol
 _atom_site_label
 _atom_site_symmetry_multiplicity
 _atom_site_fract_x
 _atom_site_fract_y
 _atom_site_fract_z
 _atom_site_occupancy
  Tb  Tb0  1  0.613509  0.987691  0.853723  1
  Tb  Tb1  1  0.111491  0.010516  0.648683  1
  Tb  Tb2  1  0.388768  0.488997  0.147123  1
  Tb  Tb3  1  0.111524  0.489482  0.648641  1
  Tb  Tb4  1  0.388716  0.011022  0.147067  1
  Tb  Tb5  1  0.887465  0.988948  0.352541  1
  Tb  Tb6  1  0.613515  0.512361  0.853727  1
  Y  Y7  1  0.348735  0.249989  0.423567  1
  Y  Y8  1  0.887297  0.511036  0.352442  1
  Zr  Zr9  1  0.857888  0.749970  0.075294  1
  Zr  Zr10  1  0.642393  0.749978  0.577542  1
  Zr  Zr11  1  0.144516  0.250021  0.924320  1
  Ga  Ga12  1  0.874559  0.049891  0.087037  1
  Ga  Ga13  1  0.624604  0.451394  0.591311  1
  Ga  Ga14  1  0.125264  0.551999  0.912183  1
  Ga  Ga15  1  0.375980  0.940403  0.411196  1
  Ga  Ga16  1  0.125232  0.947997  0.912174  1
  Ga  Ga17  1  0.375879  0.559502  0.411208  1
  Ga  Ga18  1  0.874556  0.450138  0.087084  1
  Ga  Ga19  1  0.624606  0.048655  0.591279  1
  Ga  Ga20  1  0.167577  0.749989  0.250110  1
  Ga  Ga21  1  0.332146  0.750015  0.751124  1
  Ga  Ga22  1  0.833127  0.249995  0.750926  1
  Ga  Ga23  1  0.677550  0.250046  0.246420  1
  Ga  Ga24  1  0.381409  0.750019  0.004657  1
  Ga  Ga25  1  0.113530  0.750013  0.506287  1
  Ga  Ga26  1  0.621087  0.250008  0.993094  1
  Ga  Ga27  1  0.870295  0.250052  0.498599  1
  Ga  Ga28  1  0.603091  0.749959  0.291573  1
  Ga  Ga29  1  0.900342  0.749998  0.794836  1
  Ga  Ga30  1  0.402480  0.249980  0.709707  1
  Ga  Ga31  1  0.100870  0.249936  0.194528  1
