# generated using pymatgen
data_SmY3Ga4PdRu3
_symmetry_space_group_name_H-M   'P 1'
_cell_length_a   4.54052100
_cell_length_b   7.20196539
_cell_length_c   7.22503375
_cell_angle_alpha   90.38477178
_cell_angle_beta   90.00000000
_cell_angle_gamma   90.00000000
_symmetry_Int_Tables_number   1
_chemical_formula_structural   SmY3Ga4PdRu3
_chemical_formula_sum   'Sm1 Y3 Ga4 Pd1 Ru3'
_cell_volume   236.25815348
_cell_formula_units_Z   1
loop_
 _symmetry_equiv_pos_site_id
 _symmetry_equiv_pos_as_xyz
  1  'x, y, z'
loop_
 _atom_site_type_symbol
 _atom_site_label
 _atom_site_symmetry_multiplicity
 _atom_site_fract_x
 _atom_site_fract_y
 _atom_site_fract_z
 _atom_site_occupancy
  Sm  Sm0  1  0.250000  0.518213  0.194343  1
  Y  Y1  1  0.250000  0.017824  0.309594  1
  Y  Y2  1  0.750000  0.973963  0.692524  1
  Y  Y3  1  0.750000  0.486965  0.797875  1
  Ga  Ga4  1  0.250000  0.699493  0.602144  1
  Ga  Ga5  1  0.250000  0.187020  0.880668  1
  Ga  Ga6  1  0.750000  0.299500  0.409995  1
  Ga  Ga7  1  0.750000  0.805034  0.104470  1
  Pd  Pd8  1  0.750000  0.169015  0.068891  1
  Ru  Ru9  1  0.250000  0.343409  0.567220  1
  Ru  Ru10  1  0.250000  0.838081  0.936715  1
  Ru  Ru11  1  0.750000  0.661482  0.435561  1
