# generated using pymatgen
data_Cs3DyI6
_symmetry_space_group_name_H-M   'P 1'
_cell_length_a   10.68347700
_cell_length_b   10.68347700
_cell_length_c   8.85810300
_cell_angle_alpha   90.00000000
_cell_angle_beta   90.00000000
_cell_angle_gamma   90.00000000
_symmetry_Int_Tables_number   1
_chemical_formula_structural   Cs3DyI6
_chemical_formula_sum   'Cs6 Dy2 I12'
_cell_volume   1011.03447469
_cell_formula_units_Z   2
loop_
 _symmetry_equiv_pos_site_id
 _symmetry_equiv_pos_as_xyz
  1  'x, y, z'
loop_
 _atom_site_type_symbol
 _atom_site_label
 _atom_site_symmetry_multiplicity
 _atom_site_fract_x
 _atom_site_fract_y
 _atom_site_fract_z
 _atom_site_occupancy
  Cs  Cs0  1  0.000000  0.000000  0.500000  1
  Cs  Cs1  1  0.000000  0.000000  0.000000  1
  Cs  Cs2  1  0.233474  0.586796  0.500000  1
  Cs  Cs3  1  0.766526  0.413204  0.500000  1
  Cs  Cs4  1  0.413204  0.233474  0.000000  1
  Cs  Cs5  1  0.586796  0.766526  0.000000  1
  Dy  Dy6  1  0.500000  0.000000  0.500000  1
  Dy  Dy7  1  0.000000  0.500000  0.000000  1
  I  I8  1  0.694257  0.058781  0.743771  1
  I  I9  1  0.305743  0.941219  0.743771  1
  I  I10  1  0.941219  0.694257  0.243771  1
  I  I11  1  0.058781  0.305743  0.243771  1
  I  I12  1  0.305743  0.941219  0.256229  1
  I  I13  1  0.694257  0.058781  0.256229  1
  I  I14  1  0.058781  0.305743  0.756229  1
  I  I15  1  0.941219  0.694257  0.756229  1
  I  I16  1  0.570763  0.725795  0.500000  1
  I  I17  1  0.429237  0.274205  0.500000  1
  I  I18  1  0.274205  0.570763  0.000000  1
  I  I19  1  0.725795  0.429237  0.000000  1
