# generated using pymatgen
data_KFeI4
_symmetry_space_group_name_H-M   'P 1'
_cell_length_a   8.41555000
_cell_length_b   11.36327400
_cell_length_c   11.45429800
_cell_angle_alpha   90.00000000
_cell_angle_beta   90.00000000
_cell_angle_gamma   90.00000000
_symmetry_Int_Tables_number   1
_chemical_formula_structural   KFeI4
_chemical_formula_sum   'K4 Fe4 I16'
_cell_volume   1095.35390585
_cell_formula_units_Z   4
loop_
 _symmetry_equiv_pos_site_id
 _symmetry_equiv_pos_as_xyz
  1  'x, y, z'
loop_
 _atom_site_type_symbol
 _atom_site_label
 _atom_site_symmetry_multiplicity
 _atom_site_fract_x
 _atom_site_fract_y
 _atom_site_fract_z
 _atom_site_occupancy
  K  K0  1  0.322543  0.250000  0.250000  1
  K  K1  1  0.677457  0.750000  0.750000  1
  K  K2  1  0.177457  0.750000  0.250000  1
  K  K3  1  0.822543  0.250000  0.750000  1
  Fe  Fe4  1  0.250000  0.000000  0.679171  1
  Fe  Fe5  1  0.750000  0.000000  0.320829  1
  Fe  Fe6  1  0.250000  0.500000  0.820829  1
  Fe  Fe7  1  0.750000  0.500000  0.179171  1
  I  I8  1  0.165539  0.175264  0.554204  1
  I  I9  1  0.834461  0.824736  0.445796  1
  I  I10  1  0.334461  0.824736  0.554204  1
  I  I11  1  0.334461  0.675264  0.945796  1
  I  I12  1  0.665539  0.175264  0.445796  1
  I  I13  1  0.665539  0.324736  0.054204  1
  I  I14  1  0.165539  0.324736  0.945796  1
  I  I15  1  0.834461  0.675264  0.054204  1
  I  I16  1  0.987613  0.044757  0.186531  1
  I  I17  1  0.012387  0.955243  0.813469  1
  I  I18  1  0.512387  0.955243  0.186531  1
  I  I19  1  0.512387  0.544757  0.313469  1
  I  I20  1  0.487613  0.044757  0.813469  1
  I  I21  1  0.487613  0.455243  0.686531  1
  I  I22  1  0.987613  0.455243  0.313469  1
  I  I23  1  0.012387  0.544757  0.686531  1
