# generated using pymatgen
data_YMgZn3Ru
_symmetry_space_group_name_H-M   'P 1'
_cell_length_a   5.27456724
_cell_length_b   5.30777938
_cell_length_c   5.27456700
_cell_angle_alpha   60.20676873
_cell_angle_beta   59.99999521
_cell_angle_gamma   60.20677390
_symmetry_Int_Tables_number   1
_chemical_formula_structural   YMgZn3Ru
_chemical_formula_sum   'Y1 Mg1 Zn3 Ru1'
_cell_volume   104.74221893
_cell_formula_units_Z   1
loop_
 _symmetry_equiv_pos_site_id
 _symmetry_equiv_pos_as_xyz
  1  'x, y, z'
loop_
 _atom_site_type_symbol
 _atom_site_label
 _atom_site_symmetry_multiplicity
 _atom_site_fract_x
 _atom_site_fract_y
 _atom_site_fract_z
 _atom_site_occupancy
  Y  Y0  1  0.746910  0.759271  0.746910  1
  Mg  Mg1  1  0.005731  0.982807  0.005731  1
  Zn  Zn2  1  0.373068  0.377088  0.876776  1
  Zn  Zn3  1  0.876776  0.377088  0.373068  1
  Zn  Zn4  1  0.373068  0.377088  0.373068  1
  Ru  Ru5  1  0.374448  0.876658  0.374448  1
