# generated using pymatgen
data_TbHo5Co14(P3Rh)4
_symmetry_space_group_name_H-M   'P 1'
_cell_length_a   3.71401400
_cell_length_b   10.63596500
_cell_length_c   12.35611000
_cell_angle_alpha   90.00000000
_cell_angle_beta   90.00000000
_cell_angle_gamma   90.00000000
_symmetry_Int_Tables_number   1
_chemical_formula_structural   TbHo5Co14(P3Rh)4
_chemical_formula_sum   'Tb1 Ho5 Co14 P12 Rh4'
_cell_volume   488.09257595
_cell_formula_units_Z   1
loop_
 _symmetry_equiv_pos_site_id
 _symmetry_equiv_pos_as_xyz
  1  'x, y, z'
loop_
 _atom_site_type_symbol
 _atom_site_label
 _atom_site_symmetry_multiplicity
 _atom_site_fract_x
 _atom_site_fract_y
 _atom_site_fract_z
 _atom_site_occupancy
  Tb  Tb0  1  0.000000  0.500000  0.520928  1
  Ho  Ho1  1  0.500000  0.000000  0.479660  1
  Ho  Ho2  1  0.500000  0.814255  0.205717  1
  Ho  Ho3  1  0.500000  0.185745  0.205717  1
  Ho  Ho4  1  0.000000  0.686083  0.794221  1
  Ho  Ho5  1  0.000000  0.313917  0.794221  1
  Co  Co6  1  0.000000  0.500000  0.988282  1
  Co  Co7  1  0.500000  0.000000  0.011809  1
  Co  Co8  1  0.500000  0.299789  0.429491  1
  Co  Co9  1  0.500000  0.700211  0.429491  1
  Co  Co10  1  0.000000  0.199269  0.570376  1
  Co  Co11  1  0.000000  0.800731  0.570376  1
  Co  Co12  1  0.500000  0.880256  0.709873  1
  Co  Co13  1  0.500000  0.119744  0.709873  1
  Co  Co14  1  0.000000  0.619963  0.289852  1
  Co  Co15  1  0.000000  0.380037  0.289852  1
  Co  Co16  1  0.500000  0.331963  0.993828  1
  Co  Co17  1  0.500000  0.668037  0.993828  1
  Co  Co18  1  0.000000  0.167802  0.006175  1
  Co  Co19  1  0.000000  0.832198  0.006175  1
  P  P20  1  0.500000  0.301924  0.613534  1
  P  P21  1  0.500000  0.698076  0.613534  1
  P  P22  1  0.000000  0.197475  0.386599  1
  P  P23  1  0.000000  0.802525  0.386599  1
  P  P24  1  0.500000  0.500000  0.889993  1
  P  P25  1  0.000000  0.000000  0.110210  1
  P  P26  1  0.500000  0.844436  0.894421  1
  P  P27  1  0.500000  0.155564  0.894421  1
  P  P28  1  0.000000  0.655785  0.105579  1
  P  P29  1  0.000000  0.344215  0.105579  1
  P  P30  1  0.500000  0.500000  0.349520  1
  P  P31  1  0.000000  0.000000  0.649736  1
  Rh  Rh32  1  0.500000  0.500000  0.159845  1
  Rh  Rh33  1  0.000000  0.000000  0.839849  1
  Rh  Rh34  1  0.500000  0.500000  0.704044  1
  Rh  Rh35  1  0.000000  0.000000  0.296796  1
