# generated using pymatgen
data_Rb5Np(PS4)3
_symmetry_space_group_name_H-M   'P 1'
_cell_length_a   10.18879500
_cell_length_b   13.58367131
_cell_length_c   18.66254600
_cell_angle_alpha   101.59958496
_cell_angle_beta   90.00000000
_cell_angle_gamma   90.00000000
_symmetry_Int_Tables_number   1
_chemical_formula_structural   Rb5Np(PS4)3
_chemical_formula_sum   'Rb20 Np4 P12 S48'
_cell_volume   2530.16782650
_cell_formula_units_Z   4
loop_
 _symmetry_equiv_pos_site_id
 _symmetry_equiv_pos_as_xyz
  1  'x, y, z'
loop_
 _atom_site_type_symbol
 _atom_site_label
 _atom_site_symmetry_multiplicity
 _atom_site_fract_x
 _atom_site_fract_y
 _atom_site_fract_z
 _atom_site_occupancy
  Rb  Rb0  1  0.665315  0.805561  0.716106  1
  Rb  Rb1  1  0.182986  0.517105  0.129677  1
  Rb  Rb2  1  0.817014  0.482895  0.870323  1
  Rb  Rb3  1  0.383256  0.846580  0.192930  1
  Rb  Rb4  1  0.165315  0.194439  0.783894  1
  Rb  Rb5  1  0.116744  0.846580  0.692930  1
  Rb  Rb6  1  0.145979  0.852287  0.451019  1
  Rb  Rb7  1  0.616744  0.153420  0.807070  1
  Rb  Rb8  1  0.120791  0.514763  0.375582  1
  Rb  Rb9  1  0.883256  0.153420  0.307070  1
  Rb  Rb10  1  0.620791  0.485237  0.124418  1
  Rb  Rb11  1  0.645979  0.147713  0.048981  1
  Rb  Rb12  1  0.879209  0.485237  0.624418  1
  Rb  Rb13  1  0.354021  0.852287  0.951019  1
  Rb  Rb14  1  0.854021  0.147713  0.548981  1
  Rb  Rb15  1  0.334685  0.194439  0.283894  1
  Rb  Rb16  1  0.834685  0.805561  0.216106  1
  Rb  Rb17  1  0.682986  0.482895  0.370323  1
  Rb  Rb18  1  0.317014  0.517105  0.629677  1
  Rb  Rb19  1  0.379209  0.514763  0.875582  1
  Np  Np20  1  0.601190  0.816648  0.463096  1
  Np  Np21  1  0.898810  0.816648  0.963096  1
  Np  Np22  1  0.101190  0.183352  0.036904  1
  Np  Np23  1  0.398810  0.183352  0.536904  1
  P  P24  1  0.084804  0.971861  0.128993  1
  P  P25  1  0.097554  0.648572  0.821159  1
  P  P26  1  0.402446  0.648572  0.321159  1
  P  P27  1  0.640565  0.718033  0.017794  1
  P  P28  1  0.597554  0.351428  0.678841  1
  P  P29  1  0.140565  0.281967  0.482206  1
  P  P30  1  0.915196  0.028139  0.871007  1
  P  P31  1  0.359435  0.281967  0.982206  1
  P  P32  1  0.859435  0.718033  0.517794  1
  P  P33  1  0.902446  0.351428  0.178841  1
  P  P34  1  0.415196  0.971861  0.628993  1
  P  P35  1  0.584804  0.028139  0.371007  1
  S  S36  1  0.307764  0.353059  0.458658  1
  S  S37  1  0.032515  0.664013  0.546366  1
  S  S38  1  0.088972  0.975937  0.237257  1
  S  S39  1  0.692236  0.646941  0.541342  1
  S  S40  1  0.904358  0.334259  0.065535  1
  S  S41  1  0.967485  0.335987  0.453634  1
  S  S42  1  0.676830  0.866695  0.064458  1
  S  S43  1  0.410310  0.824008  0.573944  1
  S  S44  1  0.595642  0.334259  0.565535  1
  S  S45  1  0.417561  0.502178  0.270362  1
  S  S46  1  0.192236  0.353059  0.958658  1
  S  S47  1  0.532515  0.335987  0.953634  1
  S  S48  1  0.467485  0.664013  0.046366  1
  S  S49  1  0.845409  0.713543  0.406948  1
  S  S50  1  0.931498  0.732561  0.808954  1
  S  S51  1  0.246159  0.047680  0.099956  1
  S  S52  1  0.176830  0.133305  0.435542  1
  S  S53  1  0.917561  0.497822  0.229638  1
  S  S54  1  0.345409  0.286457  0.093052  1
  S  S55  1  0.823170  0.866695  0.564458  1
  S  S56  1  0.095642  0.665741  0.934465  1
  S  S57  1  0.253841  0.047680  0.599956  1
  S  S58  1  0.732522  0.294235  0.210536  1
  S  S59  1  0.571709  0.035793  0.585279  1
  S  S60  1  0.654591  0.713543  0.906948  1
  S  S61  1  0.910310  0.175992  0.926056  1
  S  S62  1  0.411028  0.975937  0.737257  1
  S  S63  1  0.068502  0.267439  0.191046  1
  S  S64  1  0.428291  0.964207  0.414721  1
  S  S65  1  0.089690  0.824008  0.073944  1
  S  S66  1  0.911028  0.024063  0.762743  1
  S  S67  1  0.082439  0.502178  0.770362  1
  S  S68  1  0.323170  0.133305  0.935542  1
  S  S69  1  0.928291  0.035793  0.085279  1
  S  S70  1  0.588972  0.024063  0.262743  1
  S  S71  1  0.746159  0.952320  0.400044  1
  S  S72  1  0.589690  0.175992  0.426056  1
  S  S73  1  0.071709  0.964207  0.914721  1
  S  S74  1  0.404358  0.665741  0.434465  1
  S  S75  1  0.753841  0.952320  0.900044  1
  S  S76  1  0.431498  0.267439  0.691046  1
  S  S77  1  0.232522  0.705765  0.289464  1
  S  S78  1  0.767478  0.294235  0.710536  1
  S  S79  1  0.154591  0.286457  0.593052  1
  S  S80  1  0.568502  0.732561  0.308954  1
  S  S81  1  0.807764  0.646941  0.041342  1
  S  S82  1  0.582439  0.497822  0.729638  1
  S  S83  1  0.267478  0.705765  0.789464  1
