# generated using pymatgen
data_Dy2Th(GaRh)3
_symmetry_space_group_name_H-M   'P 1'
_cell_length_a   7.36846400
_cell_length_b   7.27347777
_cell_length_c   3.85539100
_cell_angle_alpha   90.00000000
_cell_angle_beta   90.00000000
_cell_angle_gamma   120.43295445
_symmetry_Int_Tables_number   1
_chemical_formula_structural   Dy2Th(GaRh)3
_chemical_formula_sum   'Dy2 Th1 Ga3 Rh3'
_cell_volume   178.15862405
_cell_formula_units_Z   1
loop_
 _symmetry_equiv_pos_site_id
 _symmetry_equiv_pos_as_xyz
  1  'x, y, z'
loop_
 _atom_site_type_symbol
 _atom_site_label
 _atom_site_symmetry_multiplicity
 _atom_site_fract_x
 _atom_site_fract_y
 _atom_site_fract_z
 _atom_site_occupancy
  Dy  Dy0  1  0.996585  0.408353  0.500000  1
  Dy  Dy1  1  0.588232  0.591647  0.500000  1
  Th  Th2  1  0.420637  0.000000  0.500000  1
  Ga  Ga3  1  0.986936  0.738469  0.000000  1
  Ga  Ga4  1  0.248467  0.261531  0.000000  1
  Ga  Ga5  1  0.767856  0.000000  0.000000  1
  Rh  Rh6  1  0.332000  0.681725  0.000000  1
  Rh  Rh7  1  0.650276  0.318275  0.000000  1
  Rh  Rh8  1  0.009010  0.000000  0.500000  1
