# generated using pymatgen
data_Hf16Ni4MoRh3
_symmetry_space_group_name_H-M   'P 1'
_cell_length_a   8.68083723
_cell_length_b   8.62165013
_cell_length_c   8.62183300
_cell_angle_alpha   60.00117426
_cell_angle_beta   60.22507601
_cell_angle_gamma   60.22562119
_symmetry_Int_Tables_number   1
_chemical_formula_structural   Hf16Ni4MoRh3
_chemical_formula_sum   'Hf16 Ni4 Mo1 Rh3'
_cell_volume   457.83753906
_cell_formula_units_Z   1
loop_
 _symmetry_equiv_pos_site_id
 _symmetry_equiv_pos_as_xyz
  1  'x, y, z'
loop_
 _atom_site_type_symbol
 _atom_site_label
 _atom_site_symmetry_multiplicity
 _atom_site_fract_x
 _atom_site_fract_y
 _atom_site_fract_z
 _atom_site_occupancy
  Hf  Hf0  1  0.671394  0.109531  0.109545  1
  Hf  Hf1  1  0.104778  0.687540  0.103837  1
  Hf  Hf2  1  0.104789  0.103840  0.687522  1
  Hf  Hf3  1  0.104777  0.103846  0.103851  1
  Hf  Hf4  1  0.316182  0.315295  0.684245  1
  Hf  Hf5  1  0.693291  0.678401  0.314154  1
  Hf  Hf6  1  0.316175  0.684252  0.315290  1
  Hf  Hf7  1  0.693288  0.314142  0.678423  1
  Hf  Hf8  1  0.693290  0.314156  0.314156  1
  Hf  Hf9  1  0.316180  0.684269  0.684263  1
  Hf  Hf10  1  0.944952  0.950138  0.552457  1
  Hf  Hf11  1  0.552541  0.552272  0.947602  1
  Hf  Hf12  1  0.944957  0.552451  0.950139  1
  Hf  Hf13  1  0.552543  0.947603  0.552261  1
  Hf  Hf14  1  0.552557  0.947570  0.947586  1
  Hf  Hf15  1  0.944946  0.552447  0.552448  1
  Ni  Ni16  1  0.325141  0.891639  0.891632  1
  Ni  Ni17  1  0.887851  0.319979  0.896090  1
  Ni  Ni18  1  0.887833  0.896098  0.319973  1
  Ni  Ni19  1  0.887836  0.896094  0.896108  1
  Mo  Mo20  1  0.003321  0.332225  0.332231  1
  Rh  Rh21  1  0.333788  0.991415  0.337391  1
  Rh  Rh22  1  0.333804  0.337398  0.991420  1
  Rh  Rh23  1  0.333783  0.337395  0.337372  1
