# generated using pymatgen
data_Er4AgPt
_symmetry_space_group_name_H-M   'P 1'
_cell_length_a   9.49602965
_cell_length_b   9.49602916
_cell_length_c   9.49528900
_cell_angle_alpha   60.00258182
_cell_angle_beta   60.00258354
_cell_angle_gamma   60.00093587
_symmetry_Int_Tables_number   1
_chemical_formula_structural   Er4AgPt
_chemical_formula_sum   'Er16 Ag4 Pt4'
_cell_volume   605.47653334
_cell_formula_units_Z   4
loop_
 _symmetry_equiv_pos_site_id
 _symmetry_equiv_pos_as_xyz
  1  'x, y, z'
loop_
 _atom_site_type_symbol
 _atom_site_label
 _atom_site_symmetry_multiplicity
 _atom_site_fract_x
 _atom_site_fract_y
 _atom_site_fract_z
 _atom_site_occupancy
  Er  Er0  1  0.354394  0.354394  0.354248  1
  Er  Er1  1  0.354394  0.354394  0.936966  1
  Er  Er2  1  0.354430  0.936874  0.354349  1
  Er  Er3  1  0.936874  0.354430  0.354349  1
  Er  Er4  1  0.809726  0.190241  0.190274  1
  Er  Er5  1  0.190241  0.809726  0.809758  1
  Er  Er6  1  0.190241  0.809726  0.190274  1
  Er  Er7  1  0.809726  0.190241  0.809758  1
  Er  Er8  1  0.190239  0.190239  0.809761  1
  Er  Er9  1  0.809731  0.809731  0.190269  1
  Er  Er10  1  0.934706  0.565328  0.565263  1
  Er  Er11  1  0.565328  0.934706  0.934702  1
  Er  Er12  1  0.565328  0.934706  0.565263  1
  Er  Er13  1  0.934706  0.565328  0.934702  1
  Er  Er14  1  0.565303  0.565303  0.934697  1
  Er  Er15  1  0.934660  0.934660  0.565340  1
  Ag  Ag16  1  0.582417  0.582417  0.582400  1
  Ag  Ag17  1  0.582417  0.582417  0.252768  1
  Ag  Ag18  1  0.582420  0.252772  0.582404  1
  Ag  Ag19  1  0.252772  0.582420  0.582404  1
  Pt  Pt20  1  0.143741  0.143741  0.143762  1
  Pt  Pt21  1  0.143741  0.143741  0.568755  1
  Pt  Pt22  1  0.143754  0.568711  0.143767  1
  Pt  Pt23  1  0.568711  0.143754  0.143767  1
