# generated using pymatgen
data_LaZnIn3Rh
_symmetry_space_group_name_H-M   'P 1'
_cell_length_a   4.35472500
_cell_length_b   7.57722600
_cell_length_c   8.21741400
_cell_angle_alpha   90.00000000
_cell_angle_beta   90.00000000
_cell_angle_gamma   90.00000000
_symmetry_Int_Tables_number   1
_chemical_formula_structural   LaZnIn3Rh
_chemical_formula_sum   'La2 Zn2 In6 Rh2'
_cell_volume   271.14783619
_cell_formula_units_Z   2
loop_
 _symmetry_equiv_pos_site_id
 _symmetry_equiv_pos_as_xyz
  1  'x, y, z'
loop_
 _atom_site_type_symbol
 _atom_site_label
 _atom_site_symmetry_multiplicity
 _atom_site_fract_x
 _atom_site_fract_y
 _atom_site_fract_z
 _atom_site_occupancy
  La  La0  1  0.000000  0.391275  0.250000  1
  La  La1  1  0.000000  0.608725  0.750000  1
  Zn  Zn2  1  0.000000  0.000000  0.000000  1
  Zn  Zn3  1  0.000000  0.000000  0.500000  1
  In  In4  1  0.500000  0.056269  0.250000  1
  In  In5  1  0.500000  0.943731  0.750000  1
  In  In6  1  0.500000  0.695586  0.058012  1
  In  In7  1  0.500000  0.304414  0.941988  1
  In  In8  1  0.500000  0.695586  0.441988  1
  In  In9  1  0.500000  0.304414  0.558012  1
  Rh  Rh10  1  0.000000  0.807251  0.250000  1
  Rh  Rh11  1  0.000000  0.192749  0.750000  1
