# generated using pymatgen
data_La12Ru(PtBr4)3
_symmetry_space_group_name_H-M   'P 1'
_cell_length_a   10.63268965
_cell_length_b   10.63268990
_cell_length_c   10.63269013
_cell_angle_alpha   109.23693991
_cell_angle_beta   109.23693929
_cell_angle_gamma   109.23694186
_symmetry_Int_Tables_number   1
_chemical_formula_structural   La12Ru(PtBr4)3
_chemical_formula_sum   'La12 Ru1 Pt3 Br12'
_cell_volume   933.29345897
_cell_formula_units_Z   1
loop_
 _symmetry_equiv_pos_site_id
 _symmetry_equiv_pos_as_xyz
  1  'x, y, z'
loop_
 _atom_site_type_symbol
 _atom_site_label
 _atom_site_symmetry_multiplicity
 _atom_site_fract_x
 _atom_site_fract_y
 _atom_site_fract_z
 _atom_site_occupancy
  La  La0  1  0.263698  0.750000  0.236302  1
  La  La1  1  0.486876  0.750000  0.013124  1
  La  La2  1  0.238927  0.470693  0.480999  1
  La  La3  1  0.019001  0.029307  0.261073  1
  La  La4  1  0.236302  0.263698  0.750000  1
  La  La5  1  0.013124  0.486876  0.750000  1
  La  La6  1  0.480999  0.238927  0.470693  1
  La  La7  1  0.261073  0.019001  0.029307  1
  La  La8  1  0.750000  0.236302  0.263698  1
  La  La9  1  0.750000  0.013124  0.486876  1
  La  La10  1  0.470693  0.480999  0.238927  1
  La  La11  1  0.029307  0.261073  0.019001  1
  Ru  Ru12  1  0.250000  0.250000  0.250000  1
  Pt  Pt13  1  0.499933  0.000067  0.250000  1
  Pt  Pt14  1  0.250000  0.499933  0.000067  1
  Pt  Pt15  1  0.000067  0.250000  0.499933  1
  Br  Br16  1  0.250000  0.994089  0.505911  1
  Br  Br17  1  0.511550  0.506252  0.756336  1
  Br  Br18  1  0.250000  0.755275  0.744725  1
  Br  Br19  1  0.988450  0.743664  0.993748  1
  Br  Br20  1  0.994089  0.505911  0.250000  1
  Br  Br21  1  0.743664  0.993748  0.988450  1
  Br  Br22  1  0.755275  0.744725  0.250000  1
  Br  Br23  1  0.506252  0.756336  0.511550  1
  Br  Br24  1  0.505911  0.250000  0.994089  1
  Br  Br25  1  0.756336  0.511550  0.506252  1
  Br  Br26  1  0.744725  0.250000  0.755275  1
  Br  Br27  1  0.993748  0.988450  0.743664  1
