# generated using pymatgen
data_Na4DySi6P6Ir19
_symmetry_space_group_name_H-M   'P 1'
_cell_length_a   12.74637919
_cell_length_b   12.74086631
_cell_length_c   3.93960600
_cell_angle_alpha   90.00000000
_cell_angle_beta   90.00000000
_cell_angle_gamma   119.94725358
_symmetry_Int_Tables_number   1
_chemical_formula_structural   Na4DySi6P6Ir19
_chemical_formula_sum   'Na4 Dy1 Si6 P6 Ir19'
_cell_volume   554.37010222
_cell_formula_units_Z   1
loop_
 _symmetry_equiv_pos_site_id
 _symmetry_equiv_pos_as_xyz
  1  'x, y, z'
loop_
 _atom_site_type_symbol
 _atom_site_label
 _atom_site_symmetry_multiplicity
 _atom_site_fract_x
 _atom_site_fract_y
 _atom_site_fract_z
 _atom_site_occupancy
  Na  Na0  1  0.333403  0.667156  0.500000  1
  Na  Na1  1  0.666318  0.332696  0.500000  1
  Na  Na2  1  0.002266  0.818295  0.000000  1
  Na  Na3  1  0.182556  0.183308  0.000000  1
  Dy  Dy4  1  0.821017  0.998627  0.000000  1
  Si  Si5  1  0.002081  0.635937  0.500000  1
  Si  Si6  1  0.364292  0.366322  0.500000  1
  Si  Si7  1  0.632398  0.997869  0.500000  1
  Si  Si8  1  0.517445  0.680859  0.000000  1
  Si  Si9  1  0.316979  0.837002  0.000000  1
  Si  Si10  1  0.164092  0.481601  0.000000  1
  P  P11  1  0.483878  0.177891  0.000000  1
  P  P12  1  0.693748  0.514913  0.000000  1
  P  P13  1  0.821761  0.307294  0.000000  1
  P  P14  1  0.001156  0.181029  0.500000  1
  P  P15  1  0.823297  0.816817  0.500000  1
  P  P16  1  0.180995  0.002348  0.500000  1
  Ir  Ir17  1  0.517139  0.870745  0.000000  1
  Ir  Ir18  1  0.127633  0.644714  0.000000  1
  Ir  Ir19  1  0.353766  0.481722  0.000000  1
  Ir  Ir20  1  0.494326  0.367885  0.000000  1
  Ir  Ir21  1  0.873226  0.506745  0.000000  1
  Ir  Ir22  1  0.633636  0.127232  0.000000  1
  Ir  Ir23  1  0.004005  0.451117  0.500000  1
  Ir  Ir24  1  0.545077  0.557128  0.500000  1
  Ir  Ir25  1  0.445067  0.991482  0.500000  1
  Ir  Ir26  1  0.991189  0.280067  0.000000  1
  Ir  Ir27  1  0.719664  0.713119  0.000000  1
  Ir  Ir28  1  0.286882  0.008186  0.000000  1
  Ir  Ir29  1  0.632660  0.808631  0.500000  1
  Ir  Ir30  1  0.193321  0.822383  0.500000  1
  Ir  Ir31  1  0.177355  0.371938  0.500000  1
  Ir  Ir32  1  0.384905  0.186080  0.500000  1
  Ir  Ir33  1  0.800239  0.614817  0.500000  1
  Ir  Ir34  1  0.815825  0.195965  0.500000  1
  Ir  Ir35  1  0.996400  0.000081  0.500000  1
