# generated using pymatgen
data_Y6ZrAl15Os7
_symmetry_space_group_name_H-M   'P 1'
_cell_length_a   9.01663328
_cell_length_b   9.01663442
_cell_length_c   9.00656367
_cell_angle_alpha   59.96301100
_cell_angle_beta   59.96300781
_cell_angle_gamma   60.00000418
_symmetry_Int_Tables_number   1
_chemical_formula_structural   Y6ZrAl15Os7
_chemical_formula_sum   'Y6 Zr1 Al15 Os7'
_cell_volume   517.47570071
_cell_formula_units_Z   1
loop_
 _symmetry_equiv_pos_site_id
 _symmetry_equiv_pos_as_xyz
  1  'x, y, z'
loop_
 _atom_site_type_symbol
 _atom_site_label
 _atom_site_symmetry_multiplicity
 _atom_site_fract_x
 _atom_site_fract_y
 _atom_site_fract_z
 _atom_site_occupancy
  Y  Y0  1  0.707692  0.707692  0.285900  1
  Y  Y1  1  0.298716  0.707692  0.285900  1
  Y  Y2  1  0.707692  0.298716  0.285900  1
  Y  Y3  1  0.286571  0.286571  0.715618  1
  Y  Y4  1  0.711240  0.286571  0.715618  1
  Y  Y5  1  0.286571  0.711240  0.715618  1
  Zr  Zr6  1  0.880799  0.880799  0.357602  1
  Al  Al7  1  0.877921  0.365092  0.879065  1
  Al  Al8  1  0.365092  0.877921  0.879065  1
  Al  Al9  1  0.877921  0.877921  0.879065  1
  Al  Al10  1  0.124459  0.124459  0.626623  1
  Al  Al11  1  0.120897  0.635650  0.122559  1
  Al  Al12  1  0.635650  0.120897  0.122559  1
  Al  Al13  1  0.120897  0.120897  0.122559  1
  Al  Al14  1  0.669144  0.669144  0.992568  1
  Al  Al15  1  0.664829  0.999662  0.670682  1
  Al  Al16  1  0.999662  0.664829  0.670682  1
  Al  Al17  1  0.664829  0.664829  0.670682  1
  Al  Al18  1  0.331408  0.331408  0.005776  1
  Al  Al19  1  0.333070  0.001218  0.332642  1
  Al  Al20  1  0.001218  0.333070  0.332642  1
  Al  Al21  1  0.333070  0.333070  0.332642  1
  Os  Os22  1  0.003798  0.003798  0.988605  1
  Os  Os23  1  0.000563  0.000563  0.502503  1
  Os  Os24  1  0.496370  0.000563  0.502503  1
  Os  Os25  1  0.000563  0.496370  0.502503  1
  Os  Os26  1  0.499484  0.499484  0.000640  1
  Os  Os27  1  0.000393  0.499484  0.000640  1
  Os  Os28  1  0.499484  0.000393  0.000640  1
