# generated using pymatgen
data_Tb2ZnBRh5
_symmetry_space_group_name_H-M   'P 1'
_cell_length_a   5.94703355
_cell_length_b   5.80779751
_cell_length_c   5.80779755
_cell_angle_alpha   61.59255238
_cell_angle_beta   59.20371993
_cell_angle_gamma   59.20371981
_symmetry_Int_Tables_number   1
_chemical_formula_structural   Tb2ZnBRh5
_chemical_formula_sum   'Tb2 Zn1 B1 Rh5'
_cell_volume   141.67604621
_cell_formula_units_Z   1
loop_
 _symmetry_equiv_pos_site_id
 _symmetry_equiv_pos_as_xyz
  1  'x, y, z'
loop_
 _atom_site_type_symbol
 _atom_site_label
 _atom_site_symmetry_multiplicity
 _atom_site_fract_x
 _atom_site_fract_y
 _atom_site_fract_z
 _atom_site_occupancy
  Tb  Tb0  1  0.252108  0.247892  0.247892  1
  Tb  Tb1  1  0.752108  0.747892  0.747892  1
  Zn  Zn2  1  0.713894  0.286107  0.286107  1
  B  B3  1  0.010391  0.989609  0.989609  1
  Rh  Rh4  1  0.252109  0.747892  0.249946  1
  Rh  Rh5  1  0.750054  0.747891  0.249947  1
  Rh  Rh6  1  0.252109  0.249946  0.747892  1
  Rh  Rh7  1  0.750054  0.249947  0.747891  1
  Rh  Rh8  1  0.267173  0.732828  0.732828  1
