# generated using pymatgen
data_LiDy8InIrRh
_symmetry_space_group_name_H-M   'P 1'
_cell_length_a   9.64607376
_cell_length_b   9.64607390
_cell_length_c   9.64868800
_cell_angle_alpha   59.99102808
_cell_angle_beta   59.99102760
_cell_angle_gamma   60.14951936
_symmetry_Int_Tables_number   1
_chemical_formula_structural   LiDy8InIrRh
_chemical_formula_sum   'Li2 Dy16 In2 Ir2 Rh2'
_cell_volume   635.45343690
_cell_formula_units_Z   2
loop_
 _symmetry_equiv_pos_site_id
 _symmetry_equiv_pos_as_xyz
  1  'x, y, z'
loop_
 _atom_site_type_symbol
 _atom_site_label
 _atom_site_symmetry_multiplicity
 _atom_site_fract_x
 _atom_site_fract_y
 _atom_site_fract_z
 _atom_site_occupancy
  Li  Li0  1  0.822372  0.822372  0.825583  1
  Li  Li1  1  0.822372  0.822372  0.529672  1
  Dy  Dy2  1  0.599136  0.599136  0.600026  1
  Dy  Dy3  1  0.599136  0.599136  0.201703  1
  Dy  Dy4  1  0.598078  0.207862  0.597030  1
  Dy  Dy5  1  0.207862  0.598078  0.597030  1
  Dy  Dy6  1  0.061070  0.438811  0.439550  1
  Dy  Dy7  1  0.438811  0.061070  0.060569  1
  Dy  Dy8  1  0.438811  0.061070  0.439550  1
  Dy  Dy9  1  0.061070  0.438811  0.060569  1
  Dy  Dy10  1  0.442344  0.442344  0.057656  1
  Dy  Dy11  1  0.066013  0.066013  0.433987  1
  Dy  Dy12  1  0.187519  0.813228  0.812141  1
  Dy  Dy13  1  0.813228  0.187519  0.187111  1
  Dy  Dy14  1  0.813228  0.187519  0.812141  1
  Dy  Dy15  1  0.187519  0.813228  0.187111  1
  Dy  Dy16  1  0.809982  0.809982  0.190018  1
  Dy  Dy17  1  0.185451  0.185451  0.814549  1
  In  In18  1  0.834736  0.505069  0.830097  1
  In  In19  1  0.505069  0.834736  0.830097  1
  Ir  Ir20  1  0.395054  0.824423  0.390263  1
  Ir  Ir21  1  0.824423  0.395054  0.390263  1
  Rh  Rh22  1  0.393357  0.393357  0.388326  1
  Rh  Rh23  1  0.393357  0.393357  0.824960  1
