# generated using pymatgen
data_Hf8Tc3Ru4Pt
_symmetry_space_group_name_H-M   'P 1'
_cell_length_a   6.52771700
_cell_length_b   6.52741700
_cell_length_c   6.49341100
_cell_angle_alpha   90.00146966
_cell_angle_beta   89.99785275
_cell_angle_gamma   89.99635735
_symmetry_Int_Tables_number   1
_chemical_formula_structural   Hf8Tc3Ru4Pt
_chemical_formula_sum   'Hf8 Tc3 Ru4 Pt1'
_cell_volume   276.67859897
_cell_formula_units_Z   1
loop_
 _symmetry_equiv_pos_site_id
 _symmetry_equiv_pos_as_xyz
  1  'x, y, z'
loop_
 _atom_site_type_symbol
 _atom_site_label
 _atom_site_symmetry_multiplicity
 _atom_site_fract_x
 _atom_site_fract_y
 _atom_site_fract_z
 _atom_site_occupancy
  Hf  Hf0  1  0.496537  0.996602  0.252813  1
  Hf  Hf1  1  0.496535  0.503365  0.252822  1
  Hf  Hf2  1  0.003246  0.996623  0.252844  1
  Hf  Hf3  1  0.003240  0.503415  0.252837  1
  Hf  Hf4  1  0.003448  0.996605  0.747165  1
  Hf  Hf5  1  0.003455  0.503363  0.747174  1
  Hf  Hf6  1  0.496762  0.996616  0.747166  1
  Hf  Hf7  1  0.496764  0.503412  0.747159  1
  Tc  Tc8  1  0.249991  0.750000  0.499916  1
  Tc  Tc9  1  0.750012  0.250000  0.500093  1
  Tc  Tc10  1  0.250015  0.749999  0.999915  1
  Ru  Ru11  1  0.249971  0.249999  0.000000  1
  Ru  Ru12  1  0.750034  0.750000  0.999982  1
  Ru  Ru13  1  0.749985  0.750000  0.499967  1
  Ru  Ru14  1  0.250016  0.249999  0.500023  1
  Pt  Pt15  1  0.749988  0.249999  0.000126  1
