# generated using pymatgen
data_SrU6(PO11)2
_symmetry_space_group_name_H-M   'P 1'
_cell_length_a   5.83426600
_cell_length_b   7.28051995
_cell_length_c   13.04607800
_cell_angle_alpha   86.84002085
_cell_angle_beta   90.00000000
_cell_angle_gamma   90.00000000
_symmetry_Int_Tables_number   1
_chemical_formula_structural   SrU6(PO11)2
_chemical_formula_sum   'Sr1 U6 P2 O22'
_cell_volume   553.30902042
_cell_formula_units_Z   1
loop_
 _symmetry_equiv_pos_site_id
 _symmetry_equiv_pos_as_xyz
  1  'x, y, z'
loop_
 _atom_site_type_symbol
 _atom_site_label
 _atom_site_symmetry_multiplicity
 _atom_site_fract_x
 _atom_site_fract_y
 _atom_site_fract_z
 _atom_site_occupancy
  Sr  Sr0  1  0.000000  0.142938  0.539368  1
  U  U1  1  0.000000  0.631776  0.323730  1
  U  U2  1  0.500000  0.376231  0.675479  1
  U  U3  1  0.000000  0.018108  0.805672  1
  U  U4  1  0.500000  0.982287  0.197372  1
  U  U5  1  0.000000  0.326709  0.064466  1
  U  U6  1  0.500000  0.674125  0.938202  1
  P  P7  1  0.000000  0.682321  0.591828  1
  P  P8  1  0.500000  0.317502  0.405076  1
  O  O9  1  0.215561  0.561019  0.609385  1
  O  O10  1  0.725476  0.428412  0.390809  1
  O  O11  1  0.274524  0.428412  0.390809  1
  O  O12  1  0.784439  0.561019  0.609385  1
  O  O13  1  0.000000  0.774748  0.480411  1
  O  O14  1  0.500000  0.236852  0.520121  1
  O  O15  1  0.751237  0.813400  0.272683  1
  O  O16  1  0.237780  0.182707  0.706499  1
  O  O17  1  0.762220  0.182707  0.706499  1
  O  O18  1  0.248763  0.813400  0.272683  1
  O  O19  1  0.000000  0.849774  0.660205  1
  O  O20  1  0.500000  0.151332  0.338005  1
  O  O21  1  0.000000  0.188057  0.928411  1
  O  O22  1  0.500000  0.821915  0.068204  1
  O  O23  1  0.750730  0.153794  0.131673  1
  O  O24  1  0.253643  0.846371  0.868696  1
  O  O25  1  0.746357  0.846371  0.868696  1
  O  O26  1  0.249270  0.153794  0.131673  1
  O  O27  1  0.000000  0.490917  0.194331  1
  O  O28  1  0.500000  0.497669  0.809149  1
  O  O29  1  0.250369  0.502612  0.001491  1
  O  O30  1  0.749631  0.502612  0.001491  1
