# generated using pymatgen
data_SrPr3Sm3CoI12
_symmetry_space_group_name_H-M   'P 1'
_cell_length_a   9.90694101
_cell_length_b   10.01276914
_cell_length_c   9.99337027
_cell_angle_alpha   106.16884356
_cell_angle_beta   106.51074692
_cell_angle_gamma   106.18908070
_symmetry_Int_Tables_number   1
_chemical_formula_structural   SrPr3Sm3CoI12
_chemical_formula_sum   'Sr1 Pr3 Sm3 Co1 I12'
_cell_volume   841.04483759
_cell_formula_units_Z   1
loop_
 _symmetry_equiv_pos_site_id
 _symmetry_equiv_pos_as_xyz
  1  'x, y, z'
loop_
 _atom_site_type_symbol
 _atom_site_label
 _atom_site_symmetry_multiplicity
 _atom_site_fract_x
 _atom_site_fract_y
 _atom_site_fract_z
 _atom_site_occupancy
  Sr  Sr0  1  0.499958  0.500170  0.499807  1
  Pr  Pr1  1  0.287635  0.020735  0.092344  1
  Pr  Pr2  1  0.903213  0.698339  0.979590  1
  Pr  Pr3  1  0.712812  0.980033  0.907720  1
  Sm  Sm4  1  0.979315  0.905755  0.702435  1
  Sm  Sm5  1  0.021377  0.096540  0.298018  1
  Sm  Sm6  1  0.095777  0.296913  0.020819  1
  Co  Co7  1  0.000379  0.000776  0.000433  1
  I  I8  1  0.541835  0.626568  0.855751  1
  I  I9  1  0.452231  0.373197  0.141252  1
  I  I10  1  0.318805  0.925496  0.771454  1
  I  I11  1  0.370074  0.142652  0.454830  1
  I  I12  1  0.928322  0.780093  0.326631  1
  I  I13  1  0.681225  0.074618  0.228622  1
  I  I14  1  0.072885  0.223453  0.679018  1
  I  I15  1  0.776025  0.322730  0.926489  1
  I  I16  1  0.228813  0.674779  0.074593  1
  I  I17  1  0.861629  0.550619  0.627435  1
  I  I18  1  0.137875  0.448957  0.367432  1
  I  I19  1  0.629815  0.857578  0.545328  1
