# generated using pymatgen
data_NaEr(NbSe2)6
_symmetry_space_group_name_H-M   'P 1'
_cell_length_a   6.05794100
_cell_length_b   6.05793919
_cell_length_c   14.74944600
_cell_angle_alpha   90.00000000
_cell_angle_beta   90.00000000
_cell_angle_gamma   120.00000442
_symmetry_Int_Tables_number   1
_chemical_formula_structural   NaEr(NbSe2)6
_chemical_formula_sum   'Na1 Er1 Nb6 Se12'
_cell_volume   468.76617814
_cell_formula_units_Z   1
loop_
 _symmetry_equiv_pos_site_id
 _symmetry_equiv_pos_as_xyz
  1  'x, y, z'
loop_
 _atom_site_type_symbol
 _atom_site_label
 _atom_site_symmetry_multiplicity
 _atom_site_fract_x
 _atom_site_fract_y
 _atom_site_fract_z
 _atom_site_occupancy
  Na  Na0  1  0.666667  0.333333  0.750000  1
  Er  Er1  1  0.333333  0.666667  0.250000  1
  Nb  Nb2  1  0.333333  0.666667  0.008110  1
  Nb  Nb3  1  0.000000  0.000000  0.006138  1
  Nb  Nb4  1  0.666667  0.333333  0.005557  1
  Nb  Nb5  1  0.333333  0.666667  0.491890  1
  Nb  Nb6  1  0.000000  0.000000  0.493862  1
  Nb  Nb7  1  0.666667  0.333333  0.494443  1
  Se  Se8  1  0.673366  0.666129  0.379042  1
  Se  Se9  1  0.665281  0.670396  0.606258  1
  Se  Se10  1  0.005116  0.670396  0.893742  1
  Se  Se11  1  0.665281  0.994884  0.893742  1
  Se  Se12  1  0.673366  0.007238  0.120958  1
  Se  Se13  1  0.333871  0.007238  0.379042  1
  Se  Se14  1  0.005116  0.334719  0.606258  1
  Se  Se15  1  0.329604  0.994884  0.606258  1
  Se  Se16  1  0.992762  0.666129  0.120958  1
  Se  Se17  1  0.329604  0.334719  0.893742  1
  Se  Se18  1  0.992762  0.326634  0.379042  1
  Se  Se19  1  0.333871  0.326634  0.120958  1
