# generated using pymatgen
data_Sm3Dy5Re2(B12Ru)2
_symmetry_space_group_name_H-M   'P 1'
_cell_length_a   3.70026700
_cell_length_b   9.20382331
_cell_length_c   11.61619418
_cell_angle_alpha   90.20073943
_cell_angle_beta   90.00000000
_cell_angle_gamma   90.00000000
_symmetry_Int_Tables_number   1
_chemical_formula_structural   Sm3Dy5Re2(B12Ru)2
_chemical_formula_sum   'Sm3 Dy5 Re2 B24 Ru2'
_cell_volume   395.60569345
_cell_formula_units_Z   1
loop_
 _symmetry_equiv_pos_site_id
 _symmetry_equiv_pos_as_xyz
  1  'x, y, z'
loop_
 _atom_site_type_symbol
 _atom_site_label
 _atom_site_symmetry_multiplicity
 _atom_site_fract_x
 _atom_site_fract_y
 _atom_site_fract_z
 _atom_site_occupancy
  Sm  Sm0  1  0.000000  0.321704  0.412608  1
  Sm  Sm1  1  0.000000  0.678266  0.587544  1
  Sm  Sm2  1  0.000000  0.824519  0.084756  1
  Dy  Dy3  1  0.000000  0.174951  0.915576  1
  Dy  Dy4  1  0.000000  0.942959  0.370022  1
  Dy  Dy5  1  0.000000  0.057390  0.630028  1
  Dy  Dy6  1  0.000000  0.442652  0.129060  1
  Dy  Dy7  1  0.000000  0.556863  0.870567  1
  Re  Re8  1  0.000000  0.138978  0.179421  1
  Re  Re9  1  0.000000  0.861966  0.820224  1
  B  B10  1  0.500000  0.554829  0.431641  1
  B  B11  1  0.500000  0.444907  0.568610  1
  B  B12  1  0.500000  0.054451  0.067041  1
  B  B13  1  0.500000  0.947236  0.932037  1
  B  B14  1  0.500000  0.748737  0.417719  1
  B  B15  1  0.500000  0.251276  0.582671  1
  B  B16  1  0.500000  0.248839  0.080900  1
  B  B17  1  0.500000  0.751423  0.917652  1
  B  B18  1  0.500000  0.790050  0.266550  1
  B  B19  1  0.500000  0.209319  0.734440  1
  B  B20  1  0.500000  0.291032  0.233437  1
  B  B21  1  0.500000  0.709109  0.766177  1
  B  B22  1  0.500000  0.630470  0.186549  1
  B  B23  1  0.500000  0.368451  0.814220  1
  B  B24  1  0.500000  0.130998  0.314011  1
  B  B25  1  0.500000  0.869536  0.686037  1
  B  B26  1  0.500000  0.984439  0.212566  1
  B  B27  1  0.500000  0.017290  0.787677  1
  B  B28  1  0.500000  0.484552  0.287434  1
  B  B29  1  0.500000  0.514965  0.712716  1
  B  B30  1  0.500000  0.601810  0.028201  1
  B  B31  1  0.500000  0.396379  0.971180  1
  B  B32  1  0.500000  0.102021  0.471951  1
  B  B33  1  0.500000  0.898138  0.528187  1
  Ru  Ru34  1  0.000000  0.638406  0.320785  1
  Ru  Ru35  1  0.000000  0.361091  0.679805  1
