# generated using pymatgen
data_HoErNiB8Pt
_symmetry_space_group_name_H-M   'P 1'
_cell_length_a   6.91176478
_cell_length_b   6.91176417
_cell_length_c   6.91176410
_cell_angle_alpha   111.41370954
_cell_angle_beta   113.44301831
_cell_angle_gamma   103.71329300
_symmetry_Int_Tables_number   1
_chemical_formula_structural   HoErNiB8Pt
_chemical_formula_sum   'Ho2 Er2 Ni2 B16 Pt2'
_cell_volume   252.19464288
_cell_formula_units_Z   2
loop_
 _symmetry_equiv_pos_site_id
 _symmetry_equiv_pos_as_xyz
  1  'x, y, z'
loop_
 _atom_site_type_symbol
 _atom_site_label
 _atom_site_symmetry_multiplicity
 _atom_site_fract_x
 _atom_site_fract_y
 _atom_site_fract_z
 _atom_site_occupancy
  Ho  Ho0  1  0.746543  0.246543  0.500000  1
  Ho  Ho1  1  0.253457  0.753457  0.500000  1
  Er  Er2  1  0.796153  0.796153  0.000000  1
  Er  Er3  1  0.203847  0.203847  0.000000  1
  Ni  Ni4  1  0.500000  0.743197  0.243197  1
  Ni  Ni5  1  0.500000  0.256803  0.756803  1
  B  B6  1  0.272822  0.107823  0.380645  1
  B  B7  1  0.727178  0.892177  0.619355  1
  B  B8  1  0.272822  0.892177  0.164999  1
  B  B9  1  0.727178  0.107823  0.835001  1
  B  B10  1  0.109820  0.735562  0.845382  1
  B  B11  1  0.890180  0.264438  0.154618  1
  B  B12  1  0.109820  0.264438  0.374258  1
  B  B13  1  0.890180  0.735562  0.625742  1
  B  B14  1  0.113634  0.106070  0.526363  1
  B  B15  1  0.579707  0.587271  0.473637  1
  B  B16  1  0.113634  0.587271  0.007564  1
  B  B17  1  0.579707  0.106070  0.992436  1
  B  B18  1  0.886366  0.893930  0.473637  1
  B  B19  1  0.420293  0.412729  0.526363  1
  B  B20  1  0.886366  0.412729  0.992436  1
  B  B21  1  0.420293  0.893930  0.007564  1
  Pt  Pt22  1  0.272713  0.500000  0.772713  1
  Pt  Pt23  1  0.727287  0.500000  0.227287  1
