# generated using pymatgen
data_LaTcH9
_symmetry_space_group_name_H-M   'P 1'
_cell_length_a   4.92241600
_cell_length_b   4.92241583
_cell_length_c   8.76377700
_cell_angle_alpha   90.00000000
_cell_angle_beta   90.00000000
_cell_angle_gamma   119.99986407
_symmetry_Int_Tables_number   1
_chemical_formula_structural   LaTcH9
_chemical_formula_sum   'La2 Tc2 H18'
_cell_volume   183.89891104
_cell_formula_units_Z   2
loop_
 _symmetry_equiv_pos_site_id
 _symmetry_equiv_pos_as_xyz
  1  'x, y, z'
loop_
 _atom_site_type_symbol
 _atom_site_label
 _atom_site_symmetry_multiplicity
 _atom_site_fract_x
 _atom_site_fract_y
 _atom_site_fract_z
 _atom_site_occupancy
  La  La0  1  0.000000  0.000000  0.000000  1
  La  La1  1  0.000000  0.000000  0.500000  1
  Tc  Tc2  1  0.333334  0.666667  0.250000  1
  Tc  Tc3  1  0.666666  0.333333  0.750000  1
  H  H4  1  0.474974  0.525026  0.389375  1
  H  H5  1  0.474974  0.949948  0.389375  1
  H  H6  1  0.050051  0.525026  0.389375  1
  H  H7  1  0.949949  0.474974  0.889375  1
  H  H8  1  0.132838  0.265677  0.250000  1
  H  H9  1  0.867162  0.132838  0.750000  1
  H  H10  1  0.265677  0.132838  0.750000  1
  H  H11  1  0.734323  0.867162  0.250000  1
  H  H12  1  0.132838  0.867162  0.250000  1
  H  H13  1  0.867162  0.734323  0.750000  1
  H  H14  1  0.474974  0.949948  0.110625  1
  H  H15  1  0.525026  0.474974  0.610625  1
  H  H16  1  0.949949  0.474974  0.610625  1
  H  H17  1  0.050051  0.525026  0.110625  1
  H  H18  1  0.474974  0.525026  0.110625  1
  H  H19  1  0.525026  0.050052  0.889375  1
  H  H20  1  0.525026  0.474974  0.889375  1
  H  H21  1  0.525026  0.050052  0.610625  1
