# generated using pymatgen
data_LuTh5(GaPd)6
_symmetry_space_group_name_H-M   'P 1'
_cell_length_a   7.32635900
_cell_length_b   7.32993768
_cell_length_c   8.20493300
_cell_angle_alpha   90.00000000
_cell_angle_beta   90.00000000
_cell_angle_gamma   120.01991464
_symmetry_Int_Tables_number   1
_chemical_formula_structural   LuTh5(GaPd)6
_chemical_formula_sum   'Lu1 Th5 Ga6 Pd6'
_cell_volume   381.51091053
_cell_formula_units_Z   1
loop_
 _symmetry_equiv_pos_site_id
 _symmetry_equiv_pos_as_xyz
  1  'x, y, z'
loop_
 _atom_site_type_symbol
 _atom_site_label
 _atom_site_symmetry_multiplicity
 _atom_site_fract_x
 _atom_site_fract_y
 _atom_site_fract_z
 _atom_site_occupancy
  Lu  Lu0  1  0.999923  0.405467  0.250000  1
  Th  Th1  1  0.583606  0.581820  0.250000  1
  Th  Th2  1  0.000066  0.419614  0.750000  1
  Th  Th3  1  0.416658  0.998594  0.250000  1
  Th  Th4  1  0.415156  0.000939  0.750000  1
  Th  Th5  1  0.584639  0.585899  0.750000  1
  Ga  Ga6  1  0.240311  0.243526  0.498798  1
  Ga  Ga7  1  0.759650  0.003231  0.498750  1
  Ga  Ga8  1  0.000060  0.755663  0.495286  1
  Ga  Ga9  1  0.759650  0.003231  0.001250  1
  Ga  Ga10  1  0.240311  0.243526  0.001202  1
  Ga  Ga11  1  0.000060  0.755663  0.004714  1
  Pd  Pd12  1  0.330682  0.664963  0.496515  1
  Pd  Pd13  1  0.999904  0.002008  0.750000  1
  Pd  Pd14  1  0.000006  0.002192  0.250000  1
  Pd  Pd15  1  0.330682  0.664963  0.003485  1
  Pd  Pd16  1  0.669321  0.334351  0.496841  1
  Pd  Pd17  1  0.669321  0.334351  0.003159  1
