# generated using pymatgen
data_SiNi2GeRh2
_symmetry_space_group_name_H-M   'P 1'
_cell_length_a   3.70607300
_cell_length_b   5.76566100
_cell_length_c   7.13864700
_cell_angle_alpha   90.00000000
_cell_angle_beta   90.00000000
_cell_angle_gamma   90.00000000
_symmetry_Int_Tables_number   1
_chemical_formula_structural   SiNi2GeRh2
_chemical_formula_sum   'Si2 Ni4 Ge2 Rh4'
_cell_volume   152.53832754
_cell_formula_units_Z   2
loop_
 _symmetry_equiv_pos_site_id
 _symmetry_equiv_pos_as_xyz
  1  'x, y, z'
loop_
 _atom_site_type_symbol
 _atom_site_label
 _atom_site_symmetry_multiplicity
 _atom_site_fract_x
 _atom_site_fract_y
 _atom_site_fract_z
 _atom_site_occupancy
  Si  Si0  1  0.500000  0.750948  0.622577  1
  Si  Si1  1  0.500000  0.250948  0.377423  1
  Ni  Ni2  1  0.500000  0.360980  0.685972  1
  Ni  Ni3  1  0.500000  0.860980  0.314028  1
  Ni  Ni4  1  0.000000  0.647446  0.799654  1
  Ni  Ni5  1  0.000000  0.147446  0.200346  1
  Ge  Ge6  1  0.000000  0.251293  0.877823  1
  Ge  Ge7  1  0.000000  0.751292  0.122177  1
  Rh  Rh8  1  0.500000  0.456370  0.077482  1
  Rh  Rh9  1  0.500000  0.956370  0.922518  1
  Rh  Rh10  1  0.000000  0.532965  0.431973  1
  Rh  Rh11  1  0.000000  0.032965  0.568027  1
