# generated using pymatgen
data_Sm2Ho4Pt5Rh13
_symmetry_space_group_name_H-M   'P 1'
_cell_length_a   5.32173026
_cell_length_b   5.32172986
_cell_length_c   17.53505254
_cell_angle_alpha   89.94069238
_cell_angle_beta   90.05930587
_cell_angle_gamma   120.09648056
_symmetry_Int_Tables_number   1
_chemical_formula_structural   Sm2Ho4Pt5Rh13
_chemical_formula_sum   'Sm2 Ho4 Pt5 Rh13'
_cell_volume   429.65516049
_cell_formula_units_Z   1
loop_
 _symmetry_equiv_pos_site_id
 _symmetry_equiv_pos_as_xyz
  1  'x, y, z'
loop_
 _atom_site_type_symbol
 _atom_site_label
 _atom_site_symmetry_multiplicity
 _atom_site_fract_x
 _atom_site_fract_y
 _atom_site_fract_z
 _atom_site_occupancy
  Sm  Sm0  1  0.333148  0.666852  0.750405  1
  Sm  Sm1  1  0.666817  0.333183  0.249021  1
  Ho  Ho2  1  0.333388  0.666612  0.957178  1
  Ho  Ho3  1  0.666758  0.333242  0.042511  1
  Ho  Ho4  1  0.666248  0.333752  0.457931  1
  Ho  Ho5  1  0.333134  0.666866  0.543336  1
  Pt  Pt6  1  0.170009  0.829991  0.376391  1
  Pt  Pt7  1  0.334632  0.665368  0.249409  1
  Pt  Pt8  1  0.666649  0.333351  0.749963  1
  Pt  Pt9  1  0.998308  0.001692  0.500597  1
  Pt  Pt10  1  0.000142  0.999858  0.999923  1
  Rh  Rh11  1  0.169383  0.333521  0.375203  1
  Rh  Rh12  1  0.666479  0.830617  0.375203  1
  Rh  Rh13  1  0.831295  0.168705  0.624774  1
  Rh  Rh14  1  0.831752  0.665165  0.625157  1
  Rh  Rh15  1  0.334835  0.168248  0.625157  1
  Rh  Rh16  1  0.832283  0.167717  0.875137  1
  Rh  Rh17  1  0.832128  0.664425  0.875010  1
  Rh  Rh18  1  0.335575  0.167872  0.875010  1
  Rh  Rh19  1  0.167432  0.832568  0.125061  1
  Rh  Rh20  1  0.168594  0.336445  0.124257  1
  Rh  Rh21  1  0.663555  0.831406  0.124257  1
  Rh  Rh22  1  0.997324  0.002676  0.249111  1
  Rh  Rh23  1  0.000133  0.999867  0.749998  1
