# generated using pymatgen
data_LuZrAu6
_symmetry_space_group_name_H-M   'P 1'
_cell_length_a   4.94466400
_cell_length_b   5.04203000
_cell_length_c   6.16510400
_cell_angle_alpha   90.00000000
_cell_angle_beta   90.00000000
_cell_angle_gamma   90.00000000
_symmetry_Int_Tables_number   1
_chemical_formula_structural   LuZrAu6
_chemical_formula_sum   'Lu1 Zr1 Au6'
_cell_volume   153.70309700
_cell_formula_units_Z   1
loop_
 _symmetry_equiv_pos_site_id
 _symmetry_equiv_pos_as_xyz
  1  'x, y, z'
loop_
 _atom_site_type_symbol
 _atom_site_label
 _atom_site_symmetry_multiplicity
 _atom_site_fract_x
 _atom_site_fract_y
 _atom_site_fract_z
 _atom_site_occupancy
  Lu  Lu0  1  0.500000  0.659202  0.500000  1
  Zr  Zr1  1  0.000000  0.343896  0.000000  1
  Au  Au2  1  0.500000  0.656543  0.000000  1
  Au  Au3  1  0.000000  0.336485  0.500000  1
  Au  Au4  1  0.000000  0.838124  0.751891  1
  Au  Au5  1  0.000000  0.838124  0.248109  1
  Au  Au6  1  0.500000  0.163813  0.757778  1
  Au  Au7  1  0.500000  0.163813  0.242222  1
