# generated using pymatgen
data_Ho19Er(Ir5Pd)2
_symmetry_space_group_name_H-M   'P 1'
_cell_length_a   10.98489598
_cell_length_b   10.93779701
_cell_length_c   6.31666800
_cell_angle_alpha   90.00079623
_cell_angle_beta   89.82373464
_cell_angle_gamma   89.99760331
_symmetry_Int_Tables_number   1
_chemical_formula_structural   Ho19Er(Ir5Pd)2
_chemical_formula_sum   'Ho19 Er1 Ir10 Pd2'
_cell_volume   758.94762071
_cell_formula_units_Z   1
loop_
 _symmetry_equiv_pos_site_id
 _symmetry_equiv_pos_as_xyz
  1  'x, y, z'
loop_
 _atom_site_type_symbol
 _atom_site_label
 _atom_site_symmetry_multiplicity
 _atom_site_fract_x
 _atom_site_fract_y
 _atom_site_fract_z
 _atom_site_occupancy
  Ho  Ho0  1  0.291765  0.088278  0.373451  1
  Ho  Ho1  1  0.291773  0.911749  0.873507  1
  Ho  Ho2  1  0.701396  0.091534  0.869015  1
  Ho  Ho3  1  0.701418  0.908429  0.368910  1
  Ho  Ho4  1  0.580095  0.789295  0.876032  1
  Ho  Ho5  1  0.580101  0.210879  0.376056  1
  Ho  Ho6  1  0.409143  0.790797  0.376352  1
  Ho  Ho7  1  0.409081  0.209086  0.876326  1
  Ho  Ho8  1  0.209998  0.411409  0.622005  1
  Ho  Ho9  1  0.209903  0.588642  0.122018  1
  Ho  Ho10  1  0.790047  0.417991  0.124306  1
  Ho  Ho11  1  0.789891  0.581935  0.624317  1
  Ho  Ho12  1  0.915988  0.706513  0.133996  1
  Ho  Ho13  1  0.915941  0.293458  0.634089  1
  Ho  Ho14  1  0.094632  0.704533  0.623856  1
  Ho  Ho15  1  0.094572  0.295462  0.123768  1
  Ho  Ho16  1  0.005141  0.998292  0.500125  1
  Ho  Ho17  1  0.005110  0.001696  0.000113  1
  Ho  Ho18  1  0.500013  0.498519  0.000749  1
  Er  Er19  1  0.499943  0.501455  0.500709  1
  Ir  Ir20  1  0.153539  0.154462  0.750162  1
  Ir  Ir21  1  0.153437  0.845486  0.250065  1
  Ir  Ir22  1  0.655666  0.346406  0.747860  1
  Ir  Ir23  1  0.655612  0.653648  0.248762  1
  Ir  Ir24  1  0.347691  0.346393  0.252195  1
  Ir  Ir25  1  0.347724  0.653565  0.751406  1
  Ir  Ir26  1  0.500103  0.999925  0.121147  1
  Ir  Ir27  1  0.500079  0.000089  0.621141  1
  Ir  Ir28  1  0.999713  0.500852  0.878919  1
  Ir  Ir29  1  0.999734  0.499177  0.378890  1
  Pd  Pd30  1  0.845387  0.154240  0.249878  1
  Pd  Pd31  1  0.845360  0.845805  0.749876  1
