# generated using pymatgen
data_Zn3GaAs(PN2)6
_symmetry_space_group_name_H-M   'P 1'
_cell_length_a   7.18555954
_cell_length_b   7.15534922
_cell_length_c   7.18555989
_cell_angle_alpha   109.38607091
_cell_angle_beta   109.55622255
_cell_angle_gamma   109.38608868
_symmetry_Int_Tables_number   1
_chemical_formula_structural   Zn3GaAs(PN2)6
_chemical_formula_sum   'Zn3 Ga1 As1 P6 N12'
_cell_volume   284.69866584
_cell_formula_units_Z   1
loop_
 _symmetry_equiv_pos_site_id
 _symmetry_equiv_pos_as_xyz
  1  'x, y, z'
loop_
 _atom_site_type_symbol
 _atom_site_label
 _atom_site_symmetry_multiplicity
 _atom_site_fract_x
 _atom_site_fract_y
 _atom_site_fract_z
 _atom_site_occupancy
  Zn  Zn0  1  0.666430  0.668363  0.666430  1
  Zn  Zn1  1  0.333570  0.001934  0.000000  1
  Zn  Zn2  1  0.000000  0.001934  0.333570  1
  Ga  Ga3  1  0.000000  0.339478  0.000000  1
  As  As4  1  0.000000  0.003183  0.000000  1
  P  P5  1  0.751210  0.249639  0.499586  1
  P  P6  1  0.251623  0.750053  0.500414  1
  P  P7  1  0.500414  0.750053  0.251623  1
  P  P8  1  0.499586  0.249639  0.751210  1
  P  P9  1  0.748377  0.498429  0.248790  1
  P  P10  1  0.248790  0.498429  0.748377  1
  N  N11  1  0.558994  0.270083  0.000000  1
  N  N12  1  0.445336  0.445490  0.719784  1
  N  N13  1  0.000000  0.270083  0.558994  1
  N  N14  1  0.274448  0.000154  0.554664  1
  N  N15  1  0.719784  0.445490  0.445336  1
  N  N16  1  0.000000  0.554079  0.267329  1
  N  N17  1  0.554664  0.000154  0.274448  1
  N  N18  1  0.441006  0.711089  0.441006  1
  N  N19  1  0.267329  0.554079  0.000000  1
  N  N20  1  0.732671  0.286749  0.732671  1
  N  N21  1  0.725552  0.725706  0.280216  1
  N  N22  1  0.280216  0.725706  0.725552  1
