# generated using pymatgen
data_KRb5TbYF12
_symmetry_space_group_name_H-M   'P 1'
_cell_length_a   6.83673532
_cell_length_b   6.63701690
_cell_length_c   11.51743157
_cell_angle_alpha   55.18840155
_cell_angle_beta   89.97556622
_cell_angle_gamma   90.14834799
_symmetry_Int_Tables_number   1
_chemical_formula_structural   KRb5TbYF12
_chemical_formula_sum   'K1 Rb5 Tb1 Y1 F12'
_cell_volume   429.07742922
_cell_formula_units_Z   1
loop_
 _symmetry_equiv_pos_site_id
 _symmetry_equiv_pos_as_xyz
  1  'x, y, z'
loop_
 _atom_site_type_symbol
 _atom_site_label
 _atom_site_symmetry_multiplicity
 _atom_site_fract_x
 _atom_site_fract_y
 _atom_site_fract_z
 _atom_site_occupancy
  K  K0  1  0.500000  0.500000  0.000000  1
  Rb  Rb1  1  0.953729  0.728143  0.757334  1
  Rb  Rb2  1  0.455800  0.264393  0.749121  1
  Rb  Rb3  1  0.046271  0.271857  0.242666  1
  Rb  Rb4  1  0.544200  0.735607  0.250879  1
  Rb  Rb5  1  0.000000  0.500000  0.500000  1
  Tb  Tb6  1  0.000000  0.000000  0.000000  1
  Y  Y7  1  0.500000  0.000000  0.500000  1
  F  F8  1  0.950210  0.882879  0.219263  1
  F  F9  1  0.451379  0.123693  0.278316  1
  F  F10  1  0.049790  0.117121  0.780737  1
  F  F11  1  0.548621  0.876307  0.721684  1
  F  F12  1  0.741225  0.243880  0.937133  1
  F  F13  1  0.236856  0.766017  0.565959  1
  F  F14  1  0.258775  0.756120  0.062867  1
  F  F15  1  0.763144  0.233983  0.434041  1
  F  F16  1  0.326161  0.314436  0.455594  1
  F  F17  1  0.812055  0.692960  0.041137  1
  F  F18  1  0.673839  0.685564  0.544406  1
  F  F19  1  0.187945  0.307040  0.958863  1
