# generated using pymatgen
data_La3ThCdTc
_symmetry_space_group_name_H-M   'P 1'
_cell_length_a   10.06573320
_cell_length_b   10.06573285
_cell_length_c   10.06573400
_cell_angle_alpha   60.00000281
_cell_angle_beta   60.00000393
_cell_angle_gamma   60.00000719
_symmetry_Int_Tables_number   1
_chemical_formula_structural   La3ThCdTc
_chemical_formula_sum   'La12 Th4 Cd4 Tc4'
_cell_volume   721.14286675
_cell_formula_units_Z   4
loop_
 _symmetry_equiv_pos_site_id
 _symmetry_equiv_pos_as_xyz
  1  'x, y, z'
loop_
 _atom_site_type_symbol
 _atom_site_label
 _atom_site_symmetry_multiplicity
 _atom_site_fract_x
 _atom_site_fract_y
 _atom_site_fract_z
 _atom_site_occupancy
  La  La0  1  0.058844  0.441156  0.441156  1
  La  La1  1  0.441156  0.058844  0.058844  1
  La  La2  1  0.441156  0.058844  0.441156  1
  La  La3  1  0.058844  0.441156  0.058844  1
  La  La4  1  0.441156  0.441156  0.058844  1
  La  La5  1  0.058844  0.058844  0.441156  1
  La  La6  1  0.192985  0.807015  0.807015  1
  La  La7  1  0.807015  0.192985  0.192985  1
  La  La8  1  0.807015  0.192985  0.807015  1
  La  La9  1  0.192985  0.807015  0.192985  1
  La  La10  1  0.807015  0.807015  0.192985  1
  La  La11  1  0.192985  0.192985  0.807015  1
  Th  Th12  1  0.593080  0.593080  0.593080  1
  Th  Th13  1  0.593080  0.593080  0.220761  1
  Th  Th14  1  0.593080  0.220761  0.593080  1
  Th  Th15  1  0.220761  0.593080  0.593080  1
  Cd  Cd16  1  0.828730  0.828730  0.828730  1
  Cd  Cd17  1  0.828730  0.828730  0.513808  1
  Cd  Cd18  1  0.828730  0.513808  0.828730  1
  Cd  Cd19  1  0.513808  0.828730  0.828730  1
  Tc  Tc20  1  0.390400  0.390400  0.390400  1
  Tc  Tc21  1  0.390400  0.390400  0.828799  1
  Tc  Tc22  1  0.390400  0.828799  0.390400  1
  Tc  Tc23  1  0.828799  0.390400  0.390400  1
