# generated using pymatgen
data_Ca3Ho(SiPd14)2
_symmetry_space_group_name_H-M   'P 1'
_cell_length_a   8.92181400
_cell_length_b   8.92181400
_cell_length_c   7.10366600
_cell_angle_alpha   90.00000000
_cell_angle_beta   90.00000000
_cell_angle_gamma   90.00000000
_symmetry_Int_Tables_number   1
_chemical_formula_structural   Ca3Ho(SiPd14)2
_chemical_formula_sum   'Ca3 Ho1 Si2 Pd28'
_cell_volume   565.44304093
_cell_formula_units_Z   1
loop_
 _symmetry_equiv_pos_site_id
 _symmetry_equiv_pos_as_xyz
  1  'x, y, z'
loop_
 _atom_site_type_symbol
 _atom_site_label
 _atom_site_symmetry_multiplicity
 _atom_site_fract_x
 _atom_site_fract_y
 _atom_site_fract_z
 _atom_site_occupancy
  Ca  Ca0  1  0.500000  0.000000  0.936509  1
  Ca  Ca1  1  0.000000  0.500000  0.063491  1
  Ca  Ca2  1  0.000000  0.000000  0.500000  1
  Ho  Ho3  1  0.500000  0.500000  0.500000  1
  Si  Si4  1  0.500000  0.000000  0.447395  1
  Si  Si5  1  0.000000  0.500000  0.552605  1
  Pd  Pd6  1  0.334143  0.833362  0.615732  1
  Pd  Pd7  1  0.334143  0.166638  0.615732  1
  Pd  Pd8  1  0.665857  0.833362  0.615732  1
  Pd  Pd9  1  0.665857  0.166638  0.615732  1
  Pd  Pd10  1  0.166638  0.665857  0.384268  1
  Pd  Pd11  1  0.166638  0.334143  0.384268  1
  Pd  Pd12  1  0.833362  0.665857  0.384268  1
  Pd  Pd13  1  0.833362  0.334143  0.384268  1
  Pd  Pd14  1  0.500000  0.768617  0.258593  1
  Pd  Pd15  1  0.500000  0.231383  0.258593  1
  Pd  Pd16  1  0.270837  0.000000  0.256270  1
  Pd  Pd17  1  0.729163  0.000000  0.256270  1
  Pd  Pd18  1  0.000000  0.729163  0.743730  1
  Pd  Pd19  1  0.000000  0.270837  0.743730  1
  Pd  Pd20  1  0.231383  0.500000  0.741407  1
  Pd  Pd21  1  0.768617  0.500000  0.741407  1
  Pd  Pd22  1  0.500000  0.349654  0.852874  1
  Pd  Pd23  1  0.500000  0.650346  0.852874  1
  Pd  Pd24  1  0.848961  0.000000  0.855337  1
  Pd  Pd25  1  0.151039  0.000000  0.855337  1
  Pd  Pd26  1  0.000000  0.151039  0.144663  1
  Pd  Pd27  1  0.000000  0.848961  0.144663  1
  Pd  Pd28  1  0.650346  0.500000  0.147126  1
  Pd  Pd29  1  0.349654  0.500000  0.147126  1
  Pd  Pd30  1  0.250181  0.749819  0.000000  1
  Pd  Pd31  1  0.250181  0.250181  0.000000  1
  Pd  Pd32  1  0.749819  0.749819  0.000000  1
  Pd  Pd33  1  0.749819  0.250181  0.000000  1
