# generated using pymatgen
data_PrHoSe6
_symmetry_space_group_name_H-M   'P 1'
_cell_length_a   12.83735500
_cell_length_b   12.83735653
_cell_length_c   3.98034400
_cell_angle_alpha   90.00000000
_cell_angle_beta   90.00000000
_cell_angle_gamma   162.23508150
_symmetry_Int_Tables_number   1
_chemical_formula_structural   PrHoSe6
_chemical_formula_sum   'Pr1 Ho1 Se6'
_cell_volume   200.13886640
_cell_formula_units_Z   1
loop_
 _symmetry_equiv_pos_site_id
 _symmetry_equiv_pos_as_xyz
  1  'x, y, z'
loop_
 _atom_site_type_symbol
 _atom_site_label
 _atom_site_symmetry_multiplicity
 _atom_site_fract_x
 _atom_site_fract_y
 _atom_site_fract_z
 _atom_site_occupancy
  Pr  Pr0  1  0.827305  0.172695  0.000000  1
  Ho  Ho1  1  0.171758  0.828242  0.500000  1
  Se  Se2  1  0.424903  0.575097  0.000000  1
  Se  Se3  1  0.578727  0.421273  0.500000  1
  Se  Se4  1  0.703618  0.296382  0.000000  1
  Se  Se5  1  0.289212  0.710788  0.500000  1
  Se  Se6  1  0.081247  0.918753  0.000000  1
  Se  Se7  1  0.923230  0.076770  0.500000  1
