# generated using pymatgen
data_SrTb2(SiIr2)3
_symmetry_space_group_name_H-M   'P 1'
_cell_length_a   5.63514200
_cell_length_b   5.63514239
_cell_length_c   15.14425900
_cell_angle_alpha   90.00000000
_cell_angle_beta   90.00000000
_cell_angle_gamma   120.00000945
_symmetry_Int_Tables_number   1
_chemical_formula_structural   SrTb2(SiIr2)3
_chemical_formula_sum   'Sr2 Tb4 Si6 Ir12'
_cell_volume   416.47446360
_cell_formula_units_Z   2
loop_
 _symmetry_equiv_pos_site_id
 _symmetry_equiv_pos_as_xyz
  1  'x, y, z'
loop_
 _atom_site_type_symbol
 _atom_site_label
 _atom_site_symmetry_multiplicity
 _atom_site_fract_x
 _atom_site_fract_y
 _atom_site_fract_z
 _atom_site_occupancy
  Sr  Sr0  1  0.333333  0.666667  0.750000  1
  Sr  Sr1  1  0.666667  0.333333  0.250000  1
  Tb  Tb2  1  0.333333  0.666667  0.541368  1
  Tb  Tb3  1  0.666667  0.333333  0.458632  1
  Tb  Tb4  1  0.666667  0.333333  0.041368  1
  Tb  Tb5  1  0.333333  0.666667  0.958632  1
  Si  Si6  1  0.000000  0.000000  0.250000  1
  Si  Si7  1  0.000000  0.000000  0.750000  1
  Si  Si8  1  0.333333  0.666667  0.250000  1
  Si  Si9  1  0.666667  0.333333  0.750000  1
  Si  Si10  1  0.000000  0.000000  0.000000  1
  Si  Si11  1  0.000000  0.000000  0.500000  1
  Ir  Ir12  1  0.167560  0.335120  0.128839  1
  Ir  Ir13  1  0.832440  0.664880  0.871161  1
  Ir  Ir14  1  0.664880  0.832440  0.128839  1
  Ir  Ir15  1  0.832440  0.664880  0.628839  1
  Ir  Ir16  1  0.335120  0.167560  0.871161  1
  Ir  Ir17  1  0.167560  0.335120  0.371161  1
  Ir  Ir18  1  0.167560  0.832440  0.128839  1
  Ir  Ir19  1  0.335120  0.167560  0.628839  1
  Ir  Ir20  1  0.832440  0.167560  0.871161  1
  Ir  Ir21  1  0.664880  0.832440  0.371161  1
  Ir  Ir22  1  0.832440  0.167560  0.628839  1
  Ir  Ir23  1  0.167560  0.832440  0.371161  1
