# generated using pymatgen
data_Hf6Ti4Ga2Si3P
_symmetry_space_group_name_H-M   'P 1'
_cell_length_a   7.77699862
_cell_length_b   7.76706615
_cell_length_c   5.31357500
_cell_angle_alpha   90.00000000
_cell_angle_beta   90.00000000
_cell_angle_gamma   120.23386921
_symmetry_Int_Tables_number   1
_chemical_formula_structural   Hf6Ti4Ga2Si3P
_chemical_formula_sum   'Hf6 Ti4 Ga2 Si3 P1'
_cell_volume   277.30530211
_cell_formula_units_Z   1
loop_
 _symmetry_equiv_pos_site_id
 _symmetry_equiv_pos_as_xyz
  1  'x, y, z'
loop_
 _atom_site_type_symbol
 _atom_site_label
 _atom_site_symmetry_multiplicity
 _atom_site_fract_x
 _atom_site_fract_y
 _atom_site_fract_z
 _atom_site_occupancy
  Hf  Hf0  1  0.256559  0.998060  0.250000  1
  Hf  Hf1  1  0.743255  0.001727  0.750000  1
  Hf  Hf2  1  0.996541  0.251024  0.250000  1
  Hf  Hf3  1  0.000642  0.748511  0.750000  1
  Hf  Hf4  1  0.757188  0.758835  0.250000  1
  Hf  Hf5  1  0.240685  0.242140  0.750000  1
  Ti  Ti6  1  0.332418  0.673423  0.000442  1
  Ti  Ti7  1  0.670161  0.326518  0.000556  1
  Ti  Ti8  1  0.670161  0.326518  0.499444  1
  Ti  Ti9  1  0.332418  0.673423  0.499558  1
  Ga  Ga10  1  0.400857  0.401055  0.250000  1
  Ga  Ga11  1  0.598519  0.597244  0.750000  1
  Si  Si12  1  0.392980  0.002346  0.750000  1
  Si  Si13  1  0.997436  0.603064  0.250000  1
  Si  Si14  1  0.002958  0.398299  0.750000  1
  P  P15  1  0.607222  0.997814  0.250000  1
