# generated using pymatgen
data_PrZr(SiTc2)4
_symmetry_space_group_name_H-M   'P 1'
_cell_length_a   7.38438835
_cell_length_b   7.38438835
_cell_length_c   4.12100000
_cell_angle_alpha   90.00000000
_cell_angle_beta   90.00000000
_cell_angle_gamma   88.00652397
_symmetry_Int_Tables_number   1
_chemical_formula_structural   PrZr(SiTc2)4
_chemical_formula_sum   'Pr1 Zr1 Si4 Tc8'
_cell_volume   224.57879888
_cell_formula_units_Z   1
loop_
 _symmetry_equiv_pos_site_id
 _symmetry_equiv_pos_as_xyz
  1  'x, y, z'
loop_
 _atom_site_type_symbol
 _atom_site_label
 _atom_site_symmetry_multiplicity
 _atom_site_fract_x
 _atom_site_fract_y
 _atom_site_fract_z
 _atom_site_occupancy
  Pr  Pr0  1  0.500000  0.500000  0.000000  1
  Zr  Zr1  1  0.000000  0.000000  0.500000  1
  Si  Si2  1  0.199598  0.800402  0.000000  1
  Si  Si3  1  0.281609  0.281609  0.500000  1
  Si  Si4  1  0.718391  0.718391  0.500000  1
  Si  Si5  1  0.800402  0.199598  0.000000  1
  Tc  Tc6  1  0.601713  0.147771  0.500000  1
  Tc  Tc7  1  0.398287  0.852229  0.500000  1
  Tc  Tc8  1  0.147771  0.601713  0.500000  1
  Tc  Tc9  1  0.852229  0.398287  0.500000  1
  Tc  Tc10  1  0.083304  0.339931  0.000000  1
  Tc  Tc11  1  0.916696  0.660069  0.000000  1
  Tc  Tc12  1  0.660069  0.916696  0.000000  1
  Tc  Tc13  1  0.339931  0.083304  0.000000  1
