# generated using pymatgen
data_Lu5(BiO6)2
_symmetry_space_group_name_H-M   'P 1'
_cell_length_a   6.49758518
_cell_length_b   6.47365684
_cell_length_c   6.43471900
_cell_angle_alpha   99.15260783
_cell_angle_beta   98.91680050
_cell_angle_gamma   99.54130654
_symmetry_Int_Tables_number   1
_chemical_formula_structural   Lu5(BiO6)2
_chemical_formula_sum   'Lu5 Bi2 O12'
_cell_volume   258.90919253
_cell_formula_units_Z   1
loop_
 _symmetry_equiv_pos_site_id
 _symmetry_equiv_pos_as_xyz
  1  'x, y, z'
loop_
 _atom_site_type_symbol
 _atom_site_label
 _atom_site_symmetry_multiplicity
 _atom_site_fract_x
 _atom_site_fract_y
 _atom_site_fract_z
 _atom_site_occupancy
  Lu  Lu0  1  0.859346  0.693113  0.394577  1
  Lu  Lu1  1  0.386678  0.855996  0.679645  1
  Lu  Lu2  1  0.313674  0.611202  0.148620  1
  Lu  Lu3  1  0.141655  0.314811  0.605734  1
  Lu  Lu4  1  0.607456  0.133039  0.310254  1
  Bi  Bi5  1  0.677142  0.394727  0.856311  1
  Bi  Bi6  1  0.005975  0.004961  0.000742  1
  O  O7  1  0.422249  0.175604  0.577513  1
  O  O8  1  0.583810  0.428066  0.183541  1
  O  O9  1  0.173891  0.585974  0.429607  1
  O  O10  1  0.571319  0.819669  0.415806  1
  O  O11  1  0.414412  0.576660  0.821524  1
  O  O12  1  0.821465  0.413058  0.568310  1
  O  O13  1  0.094726  0.319203  0.948088  1
  O  O14  1  0.681118  0.045827  0.925556  1
  O  O15  1  0.052099  0.923405  0.680552  1
  O  O16  1  0.927285  0.683521  0.056924  1
  O  O17  1  0.319547  0.944396  0.077271  1
  O  O18  1  0.946151  0.076768  0.319425  1
