# generated using pymatgen
data_Li3Eu3U2O12
_symmetry_space_group_name_H-M   'P 1'
_cell_length_a   11.10655233
_cell_length_b   11.10655230
_cell_length_c   11.10655300
_cell_angle_alpha   109.47122009
_cell_angle_beta   109.47122003
_cell_angle_gamma   109.47122130
_symmetry_Int_Tables_number   1
_chemical_formula_structural   Li3Eu3U2O12
_chemical_formula_sum   'Li12 Eu12 U8 O48'
_cell_volume   1054.66841150
_cell_formula_units_Z   4
loop_
 _symmetry_equiv_pos_site_id
 _symmetry_equiv_pos_as_xyz
  1  'x, y, z'
loop_
 _atom_site_type_symbol
 _atom_site_label
 _atom_site_symmetry_multiplicity
 _atom_site_fract_x
 _atom_site_fract_y
 _atom_site_fract_z
 _atom_site_occupancy
  Li  Li0  1  0.875000  0.750000  0.125000  1
  Li  Li1  1  0.750000  0.375000  0.125001  1
  Li  Li2  1  0.125000  0.375000  0.250000  1
  Li  Li3  1  0.625000  0.875000  0.250000  1
  Li  Li4  1  0.250000  0.125000  0.375000  1
  Li  Li5  1  0.625000  0.250000  0.375000  1
  Li  Li6  1  0.375000  0.750000  0.625000  1
  Li  Li7  1  0.750000  0.875000  0.625000  1
  Li  Li8  1  0.375000  0.125001  0.750000  1
  Li  Li9  1  0.875000  0.625000  0.750000  1
  Li  Li10  1  0.125000  0.250000  0.875000  1
  Li  Li11  1  0.250000  0.625000  0.875000  1
  Eu  Eu12  1  0.250000  0.875000  0.125000  1
  Eu  Eu13  1  0.375000  0.250000  0.125000  1
  Eu  Eu14  1  0.875000  0.125000  0.250000  1
  Eu  Eu15  1  0.375000  0.625000  0.250000  1
  Eu  Eu16  1  0.125001  0.750000  0.375000  1
  Eu  Eu17  1  0.750000  0.625000  0.375000  1
  Eu  Eu18  1  0.875000  0.250000  0.625000  1
  Eu  Eu19  1  0.250000  0.375000  0.625000  1
  Eu  Eu20  1  0.625000  0.375000  0.750000  1
  Eu  Eu21  1  0.125000  0.875000  0.750000  1
  Eu  Eu22  1  0.625000  0.750000  0.875000  1
  Eu  Eu23  1  0.750000  0.125000  0.875000  1
  U  U24  1  0.000000  0.000000  0.000000  1
  U  U25  1  0.500001  0.000000  0.000000  1
  U  U26  1  0.500000  0.500000  0.000000  1
  U  U27  1  0.000000  0.500001  0.000000  1
  U  U28  1  0.000000  0.500000  0.500000  1
  U  U29  1  0.500000  0.000000  0.500000  1
  U  U30  1  0.000000  0.000000  0.500001  1
  U  U31  1  0.500001  0.500001  0.500001  1
  O  O32  1  0.207118  0.623693  0.030978  1
  O  O33  1  0.323861  0.407285  0.030979  1
  O  O34  1  0.707118  0.176140  0.083424  1
  O  O35  1  0.876306  0.907285  0.083424  1
  O  O36  1  0.623692  0.916575  0.092715  1
  O  O37  1  0.969022  0.176140  0.092715  1
  O  O38  1  0.030978  0.707118  0.123693  1
  O  O39  1  0.592714  0.416575  0.123693  1
  O  O40  1  0.207118  0.083424  0.176139  1
  O  O41  1  0.469022  0.092715  0.176139  1
  O  O42  1  0.123693  0.530978  0.207117  1
  O  O43  1  0.583425  0.676140  0.207118  1
  O  O44  1  0.469022  0.876307  0.292882  1
  O  O45  1  0.323861  0.416575  0.292883  1
  O  O46  1  0.916575  0.792883  0.323861  1
  O  O47  1  0.907285  0.530979  0.323861  1
  O  O48  1  0.292882  0.969022  0.376307  1
  O  O49  1  0.583424  0.407285  0.376307  1
  O  O50  1  0.083424  0.376306  0.407285  1
  O  O51  1  0.823861  0.030978  0.407285  1
  O  O52  1  0.092715  0.123693  0.416575  1
  O  O53  1  0.823861  0.292882  0.416575  1
  O  O54  1  0.376306  0.792882  0.469021  1
  O  O55  1  0.592715  0.676140  0.469022  1
  O  O56  1  0.407285  0.323861  0.530978  1
  O  O57  1  0.623693  0.207118  0.530979  1
  O  O58  1  0.176139  0.707118  0.583424  1
  O  O59  1  0.907285  0.876307  0.583424  1
  O  O60  1  0.916575  0.623693  0.592714  1
  O  O61  1  0.176139  0.969022  0.592714  1
  O  O62  1  0.416575  0.592715  0.623693  1
  O  O63  1  0.707118  0.030979  0.623693  1
  O  O64  1  0.083424  0.207118  0.676140  1
  O  O65  1  0.092715  0.469022  0.676140  1
  O  O66  1  0.530979  0.123693  0.707118  1
  O  O67  1  0.676140  0.583424  0.707118  1
  O  O68  1  0.416575  0.323861  0.792882  1
  O  O69  1  0.876307  0.469022  0.792883  1
  O  O70  1  0.530978  0.907285  0.823861  1
  O  O71  1  0.792882  0.916575  0.823861  1
  O  O72  1  0.969022  0.292883  0.876307  1
  O  O73  1  0.407285  0.583425  0.876307  1
  O  O74  1  0.376307  0.083424  0.907285  1
  O  O75  1  0.030979  0.823861  0.907285  1
  O  O76  1  0.123693  0.092715  0.916575  1
  O  O77  1  0.292883  0.823861  0.916575  1
  O  O78  1  0.792883  0.376307  0.969022  1
  O  O79  1  0.676140  0.592714  0.969022  1
