# generated using pymatgen
data_Ho2Er3Os2
_symmetry_space_group_name_H-M   'P 1'
_cell_length_a   6.31864885
_cell_length_b   7.33196274
_cell_length_c   8.37605857
_cell_angle_alpha   96.99554901
_cell_angle_beta   112.15942599
_cell_angle_gamma   89.99999736
_symmetry_Int_Tables_number   1
_chemical_formula_structural   Ho2Er3Os2
_chemical_formula_sum   'Ho4 Er6 Os4'
_cell_volume   356.26381446
_cell_formula_units_Z   2
loop_
 _symmetry_equiv_pos_site_id
 _symmetry_equiv_pos_as_xyz
  1  'x, y, z'
loop_
 _atom_site_type_symbol
 _atom_site_label
 _atom_site_symmetry_multiplicity
 _atom_site_fract_x
 _atom_site_fract_y
 _atom_site_fract_z
 _atom_site_occupancy
  Ho  Ho0  1  0.791843  0.583951  0.815266  1
  Ho  Ho1  1  0.976577  0.916049  0.184734  1
  Ho  Ho2  1  0.208157  0.416049  0.184734  1
  Ho  Ho3  1  0.023423  0.083951  0.815266  1
  Er  Er4  1  0.204101  0.683825  0.564575  1
  Er  Er5  1  0.639527  0.816175  0.435425  1
  Er  Er6  1  0.795899  0.316175  0.435425  1
  Er  Er7  1  0.360473  0.183825  0.564575  1
  Er  Er8  1  0.420826  0.750000  0.000000  1
  Er  Er9  1  0.579174  0.250000  0.000000  1
  Os  Os10  1  0.601777  0.923297  0.779892  1
  Os  Os11  1  0.821885  0.576703  0.220108  1
  Os  Os12  1  0.398223  0.076703  0.220108  1
  Os  Os13  1  0.178115  0.423297  0.779892  1
