# generated using pymatgen
data_CsSm2CuS4
_symmetry_space_group_name_H-M   'P 1'
_cell_length_a   4.09575500
_cell_length_b   7.44379402
_cell_length_c   14.03351900
_cell_angle_alpha   90.00000000
_cell_angle_beta   90.00000000
_cell_angle_gamma   74.03130374
_symmetry_Int_Tables_number   1
_chemical_formula_structural   CsSm2CuS4
_chemical_formula_sum   'Cs2 Sm4 Cu2 S8'
_cell_volume   411.34337749
_cell_formula_units_Z   2
loop_
 _symmetry_equiv_pos_site_id
 _symmetry_equiv_pos_as_xyz
  1  'x, y, z'
loop_
 _atom_site_type_symbol
 _atom_site_label
 _atom_site_symmetry_multiplicity
 _atom_site_fract_x
 _atom_site_fract_y
 _atom_site_fract_z
 _atom_site_occupancy
  Cs  Cs0  1  0.894538  0.210925  0.250000  1
  Cs  Cs1  1  0.105464  0.789074  0.750000  1
  Sm  Sm2  1  0.633936  0.732130  0.060630  1
  Sm  Sm3  1  0.633936  0.732130  0.439370  1
  Sm  Sm4  1  0.366065  0.267871  0.560631  1
  Sm  Sm5  1  0.366065  0.267871  0.939370  1
  Cu  Cu6  1  0.166806  0.666388  0.250000  1
  Cu  Cu7  1  0.833195  0.333611  0.750000  1
  S  S8  1  0.000000  0.000000  0.000000  1
  S  S9  1  0.255371  0.489257  0.107924  1
  S  S10  1  0.582230  0.835543  0.250000  1
  S  S11  1  0.255371  0.489257  0.392076  1
  S  S12  1  0.000000  0.000000  0.500000  1
  S  S13  1  0.744630  0.510743  0.607924  1
  S  S14  1  0.417772  0.164456  0.750000  1
  S  S15  1  0.744630  0.510743  0.892075  1
