# generated using pymatgen
data_Ba4InTcO8
_symmetry_space_group_name_H-M   'P 1'
_cell_length_a   7.33901755
_cell_length_b   7.33901791
_cell_length_c   5.93872000
_cell_angle_alpha   90.00000000
_cell_angle_beta   90.00000000
_cell_angle_gamma   132.32930541
_symmetry_Int_Tables_number   1
_chemical_formula_structural   Ba4InTcO8
_chemical_formula_sum   'Ba4 In1 Tc1 O8'
_cell_volume   236.47305201
_cell_formula_units_Z   1
loop_
 _symmetry_equiv_pos_site_id
 _symmetry_equiv_pos_as_xyz
  1  'x, y, z'
loop_
 _atom_site_type_symbol
 _atom_site_label
 _atom_site_symmetry_multiplicity
 _atom_site_fract_x
 _atom_site_fract_y
 _atom_site_fract_z
 _atom_site_occupancy
  Ba  Ba0  1  0.354835  0.645165  0.000000  1
  Ba  Ba1  1  0.854807  0.145193  0.500000  1
  Ba  Ba2  1  0.145193  0.854807  0.500000  1
  Ba  Ba3  1  0.645165  0.354835  0.000000  1
  In  In4  1  0.000000  0.000000  0.000000  1
  Tc  Tc5  1  0.500000  0.500000  0.500000  1
  O  O6  1  0.262793  0.262793  0.733985  1
  O  O7  1  0.737207  0.737207  0.266015  1
  O  O8  1  0.737207  0.737207  0.733985  1
  O  O9  1  0.262793  0.262793  0.266015  1
  O  O10  1  0.160311  0.839689  0.000000  1
  O  O11  1  0.652116  0.347884  0.500000  1
  O  O12  1  0.347884  0.652116  0.500000  1
  O  O13  1  0.839689  0.160311  0.000000  1
