# generated using pymatgen
data_Sm5Bi2Os
_symmetry_space_group_name_H-M   'P 1'
_cell_length_a   8.22338200
_cell_length_b   9.11235500
_cell_length_c   12.72297800
_cell_angle_alpha   90.00000000
_cell_angle_beta   90.00000000
_cell_angle_gamma   90.00000000
_symmetry_Int_Tables_number   1
_chemical_formula_structural   Sm5Bi2Os
_chemical_formula_sum   'Sm20 Bi8 Os4'
_cell_volume   953.38841837
_cell_formula_units_Z   4
loop_
 _symmetry_equiv_pos_site_id
 _symmetry_equiv_pos_as_xyz
  1  'x, y, z'
loop_
 _atom_site_type_symbol
 _atom_site_label
 _atom_site_symmetry_multiplicity
 _atom_site_fract_x
 _atom_site_fract_y
 _atom_site_fract_z
 _atom_site_occupancy
  Sm  Sm0  1  0.658183  0.750000  0.707859  1
  Sm  Sm1  1  0.341817  0.250000  0.292141  1
  Sm  Sm2  1  0.158183  0.250000  0.792141  1
  Sm  Sm3  1  0.841817  0.750000  0.207859  1
  Sm  Sm4  1  0.126188  0.750000  0.809900  1
  Sm  Sm5  1  0.873812  0.250000  0.190100  1
  Sm  Sm6  1  0.626188  0.250000  0.690100  1
  Sm  Sm7  1  0.373812  0.750000  0.309900  1
  Sm  Sm8  1  0.559585  0.750000  0.997134  1
  Sm  Sm9  1  0.440415  0.250000  0.002866  1
  Sm  Sm10  1  0.059585  0.250000  0.502866  1
  Sm  Sm11  1  0.940415  0.750000  0.497134  1
  Sm  Sm12  1  0.825975  0.459217  0.931558  1
  Sm  Sm13  1  0.174025  0.540783  0.068442  1
  Sm  Sm14  1  0.325975  0.540783  0.568442  1
  Sm  Sm15  1  0.174025  0.959217  0.068442  1
  Sm  Sm16  1  0.674025  0.459217  0.431558  1
  Sm  Sm17  1  0.825975  0.040783  0.931558  1
  Sm  Sm18  1  0.674025  0.040783  0.431558  1
  Sm  Sm19  1  0.325975  0.959217  0.568442  1
  Bi  Bi20  1  0.932007  0.006606  0.671959  1
  Bi  Bi21  1  0.067993  0.993394  0.328041  1
  Bi  Bi22  1  0.432007  0.993394  0.828041  1
  Bi  Bi23  1  0.067993  0.506606  0.328041  1
  Bi  Bi24  1  0.567993  0.006606  0.171959  1
  Bi  Bi25  1  0.932007  0.493394  0.671959  1
  Bi  Bi26  1  0.567993  0.493394  0.171959  1
  Bi  Bi27  1  0.432007  0.506606  0.828041  1
  Os  Os28  1  0.921285  0.750000  0.990783  1
  Os  Os29  1  0.078715  0.250000  0.009217  1
  Os  Os30  1  0.421285  0.250000  0.509217  1
  Os  Os31  1  0.578715  0.750000  0.490783  1
