# generated using pymatgen
data_Li8CeHf3Br24
_symmetry_space_group_name_H-M   'P 1'
_cell_length_a   6.81908400
_cell_length_b   6.81908402
_cell_length_c   26.91268400
_cell_angle_alpha   90.00000000
_cell_angle_beta   90.00000000
_cell_angle_gamma   119.99999989
_symmetry_Int_Tables_number   1
_chemical_formula_structural   Li8CeHf3Br24
_chemical_formula_sum   'Li8 Ce1 Hf3 Br24'
_cell_volume   1083.77649107
_cell_formula_units_Z   1
loop_
 _symmetry_equiv_pos_site_id
 _symmetry_equiv_pos_as_xyz
  1  'x, y, z'
loop_
 _atom_site_type_symbol
 _atom_site_label
 _atom_site_symmetry_multiplicity
 _atom_site_fract_x
 _atom_site_fract_y
 _atom_site_fract_z
 _atom_site_occupancy
  Li  Li0  1  0.000000  0.000000  0.250037  1
  Li  Li1  1  0.000000  0.000000  0.749963  1
  Li  Li2  1  0.333333  0.666667  0.000866  1
  Li  Li3  1  0.333333  0.666667  0.499110  1
  Li  Li4  1  0.333333  0.666667  0.249990  1
  Li  Li5  1  0.666667  0.333333  0.750010  1
  Li  Li6  1  0.666667  0.333333  0.999134  1
  Li  Li7  1  0.666667  0.333333  0.500890  1
  Ce  Ce8  1  0.000000  0.000000  0.000000  1
  Hf  Hf9  1  0.000000  0.000000  0.500000  1
  Hf  Hf10  1  0.333333  0.666667  0.749932  1
  Hf  Hf11  1  0.666667  0.333333  0.250068  1
  Br  Br12  1  0.350640  0.017049  0.306118  1
  Br  Br13  1  0.333265  0.982563  0.806019  1
  Br  Br14  1  0.999616  0.337709  0.058775  1
  Br  Br15  1  0.000343  0.316065  0.556058  1
  Br  Br16  1  0.982951  0.333591  0.306118  1
  Br  Br17  1  0.017437  0.350701  0.806019  1
  Br  Br18  1  0.350701  0.333265  0.193981  1
  Br  Br19  1  0.333591  0.350640  0.693882  1
  Br  Br20  1  0.316065  0.315722  0.443942  1
  Br  Br21  1  0.337709  0.338094  0.941225  1
  Br  Br22  1  0.684278  0.000343  0.443942  1
  Br  Br23  1  0.338094  0.000384  0.058775  1
  Br  Br24  1  0.315722  0.999657  0.556058  1
  Br  Br25  1  0.662291  0.661906  0.058775  1
  Br  Br26  1  0.683935  0.684278  0.556058  1
  Br  Br27  1  0.666409  0.649360  0.306118  1
  Br  Br28  1  0.649299  0.666735  0.806019  1
  Br  Br29  1  0.982563  0.649299  0.193981  1
  Br  Br30  1  0.017049  0.666409  0.693882  1
  Br  Br31  1  0.999657  0.683935  0.443942  1
  Br  Br32  1  0.000384  0.662291  0.941225  1
  Br  Br33  1  0.661906  0.999616  0.941225  1
  Br  Br34  1  0.666735  0.017437  0.193981  1
  Br  Br35  1  0.649360  0.982951  0.693882  1
