# generated using pymatgen
data_Y2Co9Si3Tc3As4
_symmetry_space_group_name_H-M   'P 1'
_cell_length_a   3.78242700
_cell_length_b   9.28918180
_cell_length_c   9.28447969
_cell_angle_alpha   120.09838893
_cell_angle_beta   90.00000000
_cell_angle_gamma   90.00000000
_symmetry_Int_Tables_number   1
_chemical_formula_structural   Y2Co9Si3Tc3As4
_chemical_formula_sum   'Y2 Co9 Si3 Tc3 As4'
_cell_volume   282.23105025
_cell_formula_units_Z   1
loop_
 _symmetry_equiv_pos_site_id
 _symmetry_equiv_pos_as_xyz
  1  'x, y, z'
loop_
 _atom_site_type_symbol
 _atom_site_label
 _atom_site_symmetry_multiplicity
 _atom_site_fract_x
 _atom_site_fract_y
 _atom_site_fract_z
 _atom_site_occupancy
  Y  Y0  1  0.000000  0.662467  0.328347  1
  Y  Y1  1  0.500000  0.334984  0.667289  1
  Co  Co2  1  0.000000  0.573278  0.946706  1
  Co  Co3  1  0.000000  0.373609  0.426979  1
  Co  Co4  1  0.000000  0.058938  0.628354  1
  Co  Co5  1  0.000000  0.873643  0.155070  1
  Co  Co6  1  0.000000  0.280897  0.126300  1
  Co  Co7  1  0.000000  0.845331  0.722041  1
  Co  Co8  1  0.500000  0.946456  0.379844  1
  Co  Co9  1  0.500000  0.436912  0.055634  1
  Co  Co10  1  0.500000  0.615187  0.563467  1
  Si  Si11  1  0.000000  0.000369  0.001838  1
  Si  Si12  1  0.500000  0.708320  0.114639  1
  Si  Si13  1  0.500000  0.405796  0.290981  1
  Tc  Tc14  1  0.500000  0.787138  0.905075  1
  Tc  Tc15  1  0.500000  0.116175  0.212347  1
  Tc  Tc16  1  0.500000  0.096842  0.884728  1
  As  As17  1  0.500000  0.880961  0.588696  1
  As  As18  1  0.000000  0.589358  0.702696  1
  As  As19  1  0.000000  0.113203  0.409119  1
  As  As20  1  0.000000  0.300135  0.889849  1
