# generated using pymatgen
data_TmPuB6Mo
_symmetry_space_group_name_H-M   'P 1'
_cell_length_a   3.69052500
_cell_length_b   9.17948400
_cell_length_c   11.51898600
_cell_angle_alpha   90.00000000
_cell_angle_beta   90.00000000
_cell_angle_gamma   90.00000000
_symmetry_Int_Tables_number   1
_chemical_formula_structural   TmPuB6Mo
_chemical_formula_sum   'Tm4 Pu4 B24 Mo4'
_cell_volume   390.23001558
_cell_formula_units_Z   4
loop_
 _symmetry_equiv_pos_site_id
 _symmetry_equiv_pos_as_xyz
  1  'x, y, z'
loop_
 _atom_site_type_symbol
 _atom_site_label
 _atom_site_symmetry_multiplicity
 _atom_site_fract_x
 _atom_site_fract_y
 _atom_site_fract_z
 _atom_site_occupancy
  Tm  Tm0  1  0.000000  0.944012  0.371564  1
  Tm  Tm1  1  0.000000  0.055988  0.628437  1
  Tm  Tm2  1  0.000000  0.444012  0.128436  1
  Tm  Tm3  1  0.000000  0.555988  0.871563  1
  Pu  Pu4  1  0.000000  0.321205  0.413245  1
  Pu  Pu5  1  0.000000  0.678795  0.586755  1
  Pu  Pu6  1  0.000000  0.821205  0.086755  1
  Pu  Pu7  1  0.000000  0.178795  0.913245  1
  B  B8  1  0.500000  0.551949  0.434712  1
  B  B9  1  0.500000  0.448051  0.565288  1
  B  B10  1  0.500000  0.051949  0.065288  1
  B  B11  1  0.500000  0.948051  0.934712  1
  B  B12  1  0.500000  0.750261  0.421036  1
  B  B13  1  0.500000  0.249739  0.578964  1
  B  B14  1  0.500000  0.250261  0.078964  1
  B  B15  1  0.500000  0.749739  0.921036  1
  B  B16  1  0.500000  0.794494  0.263648  1
  B  B17  1  0.500000  0.205506  0.736352  1
  B  B18  1  0.500000  0.294493  0.236352  1
  B  B19  1  0.500000  0.705506  0.763648  1
  B  B20  1  0.500000  0.632443  0.183704  1
  B  B21  1  0.500000  0.367557  0.816296  1
  B  B22  1  0.500000  0.132443  0.316296  1
  B  B23  1  0.500000  0.867557  0.683704  1
  B  B24  1  0.500000  0.979883  0.211907  1
  B  B25  1  0.500000  0.020117  0.788093  1
  B  B26  1  0.500000  0.479883  0.288093  1
  B  B27  1  0.500000  0.520117  0.711907  1
  B  B28  1  0.500000  0.604928  0.029417  1
  B  B29  1  0.500000  0.395072  0.970583  1
  B  B30  1  0.500000  0.104928  0.470583  1
  B  B31  1  0.500000  0.895072  0.529417  1
  Mo  Mo32  1  0.000000  0.638810  0.321512  1
  Mo  Mo33  1  0.000000  0.361190  0.678488  1
  Mo  Mo34  1  0.000000  0.138810  0.178488  1
  Mo  Mo35  1  0.000000  0.861190  0.821512  1
