# generated using pymatgen
data_Th5Zr3(As3Rh4)4
_symmetry_space_group_name_H-M   'P 1'
_cell_length_a   13.39187200
_cell_length_b   13.39187169
_cell_length_c   4.10182800
_cell_angle_alpha   90.00000000
_cell_angle_beta   90.00000000
_cell_angle_gamma   120.00000076
_symmetry_Int_Tables_number   1
_chemical_formula_structural   Th5Zr3(As3Rh4)4
_chemical_formula_sum   'Th5 Zr3 As12 Rh16'
_cell_volume   637.07511756
_cell_formula_units_Z   1
loop_
 _symmetry_equiv_pos_site_id
 _symmetry_equiv_pos_as_xyz
  1  'x, y, z'
loop_
 _atom_site_type_symbol
 _atom_site_label
 _atom_site_symmetry_multiplicity
 _atom_site_fract_x
 _atom_site_fract_y
 _atom_site_fract_z
 _atom_site_occupancy
  Th  Th0  1  0.185979  0.185979  0.500000  1
  Th  Th1  1  0.814021  0.000000  0.500000  1
  Th  Th2  1  0.000000  0.814021  0.500000  1
  Th  Th3  1  0.333333  0.666667  0.000000  1
  Th  Th4  1  0.666667  0.333333  0.000000  1
  Zr  Zr5  1  0.556413  0.556413  0.000000  1
  Zr  Zr6  1  0.443587  0.000000  0.000000  1
  Zr  Zr7  1  0.000000  0.443587  0.000000  1
  As  As8  1  0.822641  0.822641  0.000000  1
  As  As9  1  0.177359  0.000000  0.000000  1
  As  As10  1  0.000000  0.177359  0.000000  1
  As  As11  1  0.166345  0.482424  0.500000  1
  As  As12  1  0.517576  0.683921  0.500000  1
  As  As13  1  0.316079  0.833655  0.500000  1
  As  As14  1  0.683921  0.517576  0.500000  1
  As  As15  1  0.833655  0.316079  0.500000  1
  As  As16  1  0.482424  0.166345  0.500000  1
  As  As17  1  0.358872  0.358872  0.000000  1
  As  As18  1  0.641128  0.000000  0.000000  1
  As  As19  1  0.000000  0.641128  0.000000  1
  Rh  Rh20  1  0.720250  0.720250  0.500000  1
  Rh  Rh21  1  0.279750  0.000000  0.500000  1
  Rh  Rh22  1  0.000000  0.279750  0.500000  1
  Rh  Rh23  1  0.176362  0.372214  0.000000  1
  Rh  Rh24  1  0.627786  0.804147  0.000000  1
  Rh  Rh25  1  0.195853  0.823638  0.000000  1
  Rh  Rh26  1  0.804147  0.627786  0.000000  1
  Rh  Rh27  1  0.823638  0.195853  0.000000  1
  Rh  Rh28  1  0.372214  0.176362  0.000000  1
  Rh  Rh29  1  0.353768  0.483024  0.500000  1
  Rh  Rh30  1  0.516976  0.870745  0.500000  1
  Rh  Rh31  1  0.129255  0.646232  0.500000  1
  Rh  Rh32  1  0.870745  0.516976  0.500000  1
  Rh  Rh33  1  0.646232  0.129255  0.500000  1
  Rh  Rh34  1  0.483024  0.353768  0.500000  1
  Rh  Rh35  1  0.000000  0.000000  0.000000  1
