# generated using pymatgen
data_LiCeB4Ir5
_symmetry_space_group_name_H-M   'P 1'
_cell_length_a   7.45669048
_cell_length_b   6.28730558
_cell_length_c   5.59452548
_cell_angle_alpha   77.49968391
_cell_angle_beta   55.40527842
_cell_angle_gamma   47.09504718
_symmetry_Int_Tables_number   1
_chemical_formula_structural   LiCeB4Ir5
_chemical_formula_sum   'Li1 Ce1 B4 Ir5'
_cell_volume   151.72879009
_cell_formula_units_Z   1
loop_
 _symmetry_equiv_pos_site_id
 _symmetry_equiv_pos_as_xyz
  1  'x, y, z'
loop_
 _atom_site_type_symbol
 _atom_site_label
 _atom_site_symmetry_multiplicity
 _atom_site_fract_x
 _atom_site_fract_y
 _atom_site_fract_z
 _atom_site_occupancy
  Li  Li0  1  0.838584  0.838583  0.161417  1
  Ce  Ce1  1  0.128011  0.128011  0.871989  1
  B  B2  1  0.480381  0.794658  0.205342  1
  B  B3  1  0.215828  0.526597  0.473403  1
  B  B4  1  0.794658  0.480381  0.519619  1
  B  B5  1  0.526598  0.215827  0.784173  1
  Ir  Ir6  1  0.500951  0.500951  0.999049  1
  Ir  Ir7  1  0.255412  0.255413  0.244587  1
  Ir  Ir8  1  0.000951  0.000951  0.499049  1
  Ir  Ir9  1  0.503211  0.503211  0.496789  1
  Ir  Ir10  1  0.755413  0.755413  0.744587  1
