# generated using pymatgen
data_Tb5Er5(SiBi2)2
_symmetry_space_group_name_H-M   'P 1'
_cell_length_a   12.07900201
_cell_length_b   9.14101209
_cell_length_c   8.05162808
_cell_angle_alpha   90.01578307
_cell_angle_beta   89.99624308
_cell_angle_gamma   89.99835854
_symmetry_Int_Tables_number   1
_chemical_formula_structural   Tb5Er5(SiBi2)2
_chemical_formula_sum   'Tb10 Er10 Si4 Bi8'
_cell_volume   889.01486943
_cell_formula_units_Z   2
loop_
 _symmetry_equiv_pos_site_id
 _symmetry_equiv_pos_as_xyz
  1  'x, y, z'
loop_
 _atom_site_type_symbol
 _atom_site_label
 _atom_site_symmetry_multiplicity
 _atom_site_fract_x
 _atom_site_fract_y
 _atom_site_fract_z
 _atom_site_occupancy
  Tb  Tb0  1  0.063561  0.948213  0.818880  1
  Tb  Tb1  1  0.563566  0.551800  0.681122  1
  Tb  Tb2  1  0.211778  0.749644  0.164182  1
  Tb  Tb3  1  0.711818  0.750377  0.335815  1
  Tb  Tb4  1  0.788437  0.249993  0.836300  1
  Tb  Tb5  1  0.288408  0.250011  0.663688  1
  Tb  Tb6  1  0.295080  0.750065  0.636320  1
  Tb  Tb7  1  0.795122  0.749943  0.863659  1
  Tb  Tb8  1  0.705058  0.249890  0.362979  1
  Tb  Tb9  1  0.205014  0.250117  0.137041  1
  Er  Er10  1  0.063398  0.552319  0.820392  1
  Er  Er11  1  0.563234  0.947545  0.679637  1
  Er  Er12  1  0.936541  0.053208  0.179473  1
  Er  Er13  1  0.436739  0.446699  0.320525  1
  Er  Er14  1  0.936707  0.447052  0.180018  1
  Er  Er15  1  0.436892  0.053069  0.319966  1
  Er  Er16  1  0.000698  0.750088  0.459463  1
  Er  Er17  1  0.500720  0.749912  0.040470  1
  Er  Er18  1  0.999222  0.250082  0.539750  1
  Er  Er19  1  0.499225  0.249941  0.960319  1
  Si  Si20  1  0.479066  0.751144  0.412283  1
  Si  Si21  1  0.979065  0.748862  0.087675  1
  Si  Si22  1  0.520062  0.247816  0.585825  1
  Si  Si23  1  0.020053  0.252172  0.914218  1
  Bi  Bi24  1  0.327294  0.510288  0.931951  1
  Bi  Bi25  1  0.827281  0.989719  0.568072  1
  Bi  Bi26  1  0.672383  0.010611  0.067986  1
  Bi  Bi27  1  0.172395  0.489396  0.431990  1
  Bi  Bi28  1  0.672678  0.489455  0.068519  1
  Bi  Bi29  1  0.172680  0.010557  0.431465  1
  Bi  Bi30  1  0.327913  0.989683  0.932490  1
  Bi  Bi31  1  0.827913  0.510331  0.567525  1
