# generated using pymatgen
data_NdEr2Lu17Bi12
_symmetry_space_group_name_H-M   'P 1'
_cell_length_a   8.17935910
_cell_length_b   9.41368000
_cell_length_c   11.86166597
_cell_angle_alpha   90.00000000
_cell_angle_beta   89.98568699
_cell_angle_gamma   90.00000000
_symmetry_Int_Tables_number   1
_chemical_formula_structural   NdEr2Lu17Bi12
_chemical_formula_sum   'Nd1 Er2 Lu17 Bi12'
_cell_volume   913.32297599
_cell_formula_units_Z   1
loop_
 _symmetry_equiv_pos_site_id
 _symmetry_equiv_pos_as_xyz
  1  'x, y, z'
loop_
 _atom_site_type_symbol
 _atom_site_label
 _atom_site_symmetry_multiplicity
 _atom_site_fract_x
 _atom_site_fract_y
 _atom_site_fract_z
 _atom_site_occupancy
  Nd  Nd0  1  0.685617  0.750000  0.781396  1
  Er  Er1  1  0.812453  0.250000  0.283373  1
  Er  Er2  1  0.186428  0.750000  0.717193  1
  Lu  Lu3  1  0.352218  0.750000  0.219174  1
  Lu  Lu4  1  0.852822  0.750000  0.281448  1
  Lu  Lu5  1  0.647471  0.250000  0.781804  1
  Lu  Lu6  1  0.148200  0.250000  0.718025  1
  Lu  Lu7  1  0.691594  0.567406  0.060182  1
  Lu  Lu8  1  0.192162  0.932570  0.440091  1
  Lu  Lu9  1  0.308800  0.067613  0.940672  1
  Lu  Lu10  1  0.808261  0.432385  0.559211  1
  Lu  Lu11  1  0.308800  0.432387  0.940672  1
  Lu  Lu12  1  0.808261  0.067615  0.559211  1
  Lu  Lu13  1  0.691594  0.932594  0.060182  1
  Lu  Lu14  1  0.192162  0.567430  0.440091  1
  Lu  Lu15  1  0.477272  0.250000  0.488680  1
  Lu  Lu16  1  0.978275  0.250000  0.011518  1
  Lu  Lu17  1  0.522193  0.750000  0.510069  1
  Lu  Lu18  1  0.022392  0.750000  0.990310  1
  Lu  Lu19  1  0.312504  0.250000  0.215904  1
  Bi  Bi20  1  0.398538  0.750000  0.961276  1
  Bi  Bi21  1  0.904461  0.750000  0.539869  1
  Bi  Bi22  1  0.597665  0.250000  0.042501  1
  Bi  Bi23  1  0.098124  0.250000  0.457768  1
  Bi  Bi24  1  0.564896  0.995665  0.325144  1
  Bi  Bi25  1  0.066033  0.503963  0.175188  1
  Bi  Bi26  1  0.431692  0.493147  0.673286  1
  Bi  Bi27  1  0.938248  0.007392  0.826071  1
  Bi  Bi28  1  0.431692  0.006853  0.673286  1
  Bi  Bi29  1  0.938248  0.492608  0.826071  1
  Bi  Bi30  1  0.564896  0.504335  0.325144  1
  Bi  Bi31  1  0.066033  0.996037  0.175188  1
