# generated using pymatgen
data_La(Al5Os)2
_symmetry_space_group_name_H-M   'P 1'
_cell_length_a   6.91290598
_cell_length_b   6.91290619
_cell_length_c   9.23775500
_cell_angle_alpha   90.00000000
_cell_angle_beta   90.00000000
_cell_angle_gamma   96.63939970
_symmetry_Int_Tables_number   1
_chemical_formula_structural   La(Al5Os)2
_chemical_formula_sum   'La2 Al20 Os4'
_cell_volume   438.49570513
_cell_formula_units_Z   2
loop_
 _symmetry_equiv_pos_site_id
 _symmetry_equiv_pos_as_xyz
  1  'x, y, z'
loop_
 _atom_site_type_symbol
 _atom_site_label
 _atom_site_symmetry_multiplicity
 _atom_site_fract_x
 _atom_site_fract_y
 _atom_site_fract_z
 _atom_site_occupancy
  La  La0  1  0.875409  0.124591  0.750000  1
  La  La1  1  0.124591  0.875409  0.250000  1
  Al  Al2  1  0.515963  0.782291  0.750000  1
  Al  Al3  1  0.782291  0.515963  0.250000  1
  Al  Al4  1  0.484037  0.217709  0.250000  1
  Al  Al5  1  0.217709  0.484037  0.750000  1
  Al  Al6  1  0.622349  0.377651  0.952286  1
  Al  Al7  1  0.377651  0.622349  0.047714  1
  Al  Al8  1  0.622349  0.377651  0.547714  1
  Al  Al9  1  0.377651  0.622349  0.452286  1
  Al  Al10  1  0.412163  0.144077  0.750000  1
  Al  Al11  1  0.144077  0.412163  0.250000  1
  Al  Al12  1  0.587837  0.855923  0.250000  1
  Al  Al13  1  0.855923  0.587837  0.750000  1
  Al  Al14  1  0.838533  0.161467  0.397087  1
  Al  Al15  1  0.161467  0.838533  0.602913  1
  Al  Al16  1  0.838533  0.161467  0.102913  1
  Al  Al17  1  0.161467  0.838533  0.897087  1
  Al  Al18  1  0.773275  0.773275  0.000000  1
  Al  Al19  1  0.773275  0.773275  0.500000  1
  Al  Al20  1  0.226725  0.226725  0.000000  1
  Al  Al21  1  0.226725  0.226725  0.500000  1
  Os  Os22  1  0.500000  0.000000  0.000000  1
  Os  Os23  1  0.000000  0.500000  0.000000  1
  Os  Os24  1  0.500000  0.000000  0.500000  1
  Os  Os25  1  0.000000  0.500000  0.500000  1
