# generated using pymatgen
data_Sb14MoOs2W3
_symmetry_space_group_name_H-M   'P 1'
_cell_length_a   8.31555361
_cell_length_b   8.30860479
_cell_length_c   8.31555323
_cell_angle_alpha   109.27252059
_cell_angle_beta   109.98322189
_cell_angle_gamma   109.19256233
_symmetry_Int_Tables_number   1
_chemical_formula_structural   Sb14MoOs2W3
_chemical_formula_sum   'Sb14 Mo1 Os2 W3'
_cell_volume   442.06270621
_cell_formula_units_Z   1
loop_
 _symmetry_equiv_pos_site_id
 _symmetry_equiv_pos_as_xyz
  1  'x, y, z'
loop_
 _atom_site_type_symbol
 _atom_site_label
 _atom_site_symmetry_multiplicity
 _atom_site_fract_x
 _atom_site_fract_y
 _atom_site_fract_z
 _atom_site_occupancy
  Sb  Sb0  1  0.749582  0.251339  0.501757  1
  Sb  Sb1  1  0.501815  0.251440  0.749625  1
  Sb  Sb2  1  0.502264  0.750831  0.248567  1
  Sb  Sb3  1  0.252233  0.503827  0.752012  1
  Sb  Sb4  1  0.751816  0.503827  0.251595  1
  Sb  Sb5  1  0.248911  0.751063  0.502152  1
  Sb  Sb6  1  0.327909  0.327414  0.328010  1
  Sb  Sb7  1  0.000094  0.999650  0.326723  1
  Sb  Sb8  1  0.327078  0.999953  0.000510  1
  Sb  Sb9  1  0.999404  0.327414  0.999505  1
  Sb  Sb10  1  0.672927  0.999650  0.999556  1
  Sb  Sb11  1  0.999604  0.674333  0.999930  1
  Sb  Sb12  1  0.999444  0.999953  0.672875  1
  Sb  Sb13  1  0.674403  0.674333  0.674730  1
  Mo  Mo14  1  0.655032  0.654556  0.999523  1
  Os  Os15  1  0.338321  0.338117  0.999796  1
  Os  Os16  1  0.999944  0.338563  0.338619  1
  W  W17  1  0.999688  0.654981  0.655293  1
  W  W18  1  0.659094  0.999376  0.658939  1
  W  W19  1  0.340437  0.999376  0.340282  1
