# generated using pymatgen
data_Ho9Er8Lu3Pb16
_symmetry_space_group_name_H-M   'P 1'
_cell_length_a   8.15538751
_cell_length_b   8.23247853
_cell_length_c   15.55503200
_cell_angle_alpha   89.99861501
_cell_angle_beta   90.02028968
_cell_angle_gamma   90.08718498
_symmetry_Int_Tables_number   1
_chemical_formula_structural   Ho9Er8Lu3Pb16
_chemical_formula_sum   'Ho9 Er8 Lu3 Pb16'
_cell_volume   1044.34883707
_cell_formula_units_Z   1
loop_
 _symmetry_equiv_pos_site_id
 _symmetry_equiv_pos_as_xyz
  1  'x, y, z'
loop_
 _atom_site_type_symbol
 _atom_site_label
 _atom_site_symmetry_multiplicity
 _atom_site_fract_x
 _atom_site_fract_y
 _atom_site_fract_z
 _atom_site_occupancy
  Ho  Ho0  1  0.876296  0.658747  0.878854  1
  Ho  Ho1  1  0.536874  0.323271  0.900681  1
  Ho  Ho2  1  0.036475  0.175926  0.599249  1
  Ho  Ho3  1  0.463413  0.676324  0.400609  1
  Ho  Ho4  1  0.963082  0.824228  0.099794  1
  Ho  Ho5  1  0.463702  0.676157  0.099582  1
  Ho  Ho6  1  0.963383  0.823830  0.400647  1
  Ho  Ho7  1  0.536446  0.323346  0.599297  1
  Ho  Ho8  1  0.036533  0.175766  0.900435  1
  Er  Er9  1  0.376356  0.842065  0.878425  1
  Er  Er10  1  0.875811  0.658078  0.621425  1
  Er  Er11  1  0.623989  0.157750  0.378789  1
  Er  Er12  1  0.123789  0.342281  0.121470  1
  Er  Er13  1  0.623619  0.157947  0.121614  1
  Er  Er14  1  0.123764  0.342072  0.378544  1
  Er  Er15  1  0.376569  0.842306  0.621226  1
  Er  Er16  1  0.208018  0.504453  0.749876  1
  Lu  Lu17  1  0.707688  0.995096  0.749809  1
  Lu  Lu18  1  0.792112  0.494773  0.250156  1
  Lu  Lu19  1  0.292077  0.004898  0.249966  1
  Pb  Pb20  1  0.281377  0.033559  0.043620  1
  Pb  Pb21  1  0.781545  0.467011  0.456288  1
  Pb  Pb22  1  0.718476  0.966375  0.543557  1
  Pb  Pb23  1  0.218347  0.533274  0.956575  1
  Pb  Pb24  1  0.718411  0.966626  0.956403  1
  Pb  Pb25  1  0.217974  0.533825  0.543326  1
  Pb  Pb26  1  0.281348  0.033488  0.456262  1
  Pb  Pb27  1  0.782062  0.466967  0.043772  1
  Pb  Pb28  1  0.570870  0.626034  0.749847  1
  Pb  Pb29  1  0.070033  0.874962  0.749722  1
  Pb  Pb30  1  0.429943  0.374457  0.250171  1
  Pb  Pb31  1  0.929723  0.125578  0.250046  1
  Pb  Pb32  1  0.348680  0.154667  0.749857  1
  Pb  Pb33  1  0.848334  0.343584  0.749801  1
  Pb  Pb34  1  0.651504  0.843993  0.250174  1
  Pb  Pb35  1  0.151376  0.656286  0.250128  1
