# generated using pymatgen
data_YbSm5(P2Rh3)6
_symmetry_space_group_name_H-M   'P 1'
_cell_length_a   3.95253700
_cell_length_b   11.24349119
_cell_length_c   12.86827300
_cell_angle_alpha   89.72007055
_cell_angle_beta   90.00000000
_cell_angle_gamma   90.00000000
_symmetry_Int_Tables_number   1
_chemical_formula_structural   YbSm5(P2Rh3)6
_chemical_formula_sum   'Yb1 Sm5 P12 Rh18'
_cell_volume   571.86327961
_cell_formula_units_Z   1
loop_
 _symmetry_equiv_pos_site_id
 _symmetry_equiv_pos_as_xyz
  1  'x, y, z'
loop_
 _atom_site_type_symbol
 _atom_site_label
 _atom_site_symmetry_multiplicity
 _atom_site_fract_x
 _atom_site_fract_y
 _atom_site_fract_z
 _atom_site_occupancy
  Yb  Yb0  1  0.000000  0.315883  0.795048  1
  Sm  Sm1  1  0.000000  0.500534  0.520669  1
  Sm  Sm2  1  0.500000  0.998472  0.480318  1
  Sm  Sm3  1  0.500000  0.814346  0.203904  1
  Sm  Sm4  1  0.500000  0.184919  0.205487  1
  Sm  Sm5  1  0.000000  0.685202  0.795072  1
  P  P6  1  0.500000  0.312912  0.620955  1
  P  P7  1  0.500000  0.686095  0.618006  1
  P  P8  1  0.000000  0.187203  0.383207  1
  P  P9  1  0.000000  0.814137  0.381761  1
  P  P10  1  0.500000  0.498752  0.878886  1
  P  P11  1  0.000000  0.000451  0.119272  1
  P  P12  1  0.500000  0.846657  0.893463  1
  P  P13  1  0.500000  0.155123  0.892437  1
  P  P14  1  0.000000  0.652445  0.105443  1
  P  P15  1  0.000000  0.347515  0.106062  1
  P  P16  1  0.500000  0.500058  0.349045  1
  P  P17  1  0.000000  0.000540  0.651777  1
  Rh  Rh18  1  0.000000  0.499203  0.979393  1
  Rh  Rh19  1  0.500000  0.000841  0.018227  1
  Rh  Rh20  1  0.500000  0.292702  0.431866  1
  Rh  Rh21  1  0.500000  0.705857  0.430181  1
  Rh  Rh22  1  0.000000  0.206471  0.571212  1
  Rh  Rh23  1  0.000000  0.792293  0.569153  1
  Rh  Rh24  1  0.500000  0.875186  0.710748  1
  Rh  Rh25  1  0.500000  0.126731  0.712349  1
  Rh  Rh26  1  0.000000  0.625175  0.288731  1
  Rh  Rh27  1  0.000000  0.374603  0.289485  1
  Rh  Rh28  1  0.500000  0.333872  0.993393  1
  Rh  Rh29  1  0.500000  0.664693  0.994480  1
  Rh  Rh30  1  0.000000  0.166765  0.004962  1
  Rh  Rh31  1  0.000000  0.834545  0.005026  1
  Rh  Rh32  1  0.500000  0.497481  0.168521  1
  Rh  Rh33  1  0.000000  0.001868  0.831498  1
  Rh  Rh34  1  0.500000  0.498768  0.701585  1
  Rh  Rh35  1  0.000000  0.001698  0.298379  1
