# generated using pymatgen
data_YbSm(Ga2Ag)2
_symmetry_space_group_name_H-M   'P 1'
_cell_length_a   4.39749800
_cell_length_b   7.01801327
_cell_length_c   10.42004701
_cell_angle_alpha   90.45608599
_cell_angle_beta   90.00000000
_cell_angle_gamma   90.00000000
_symmetry_Int_Tables_number   1
_chemical_formula_structural   YbSm(Ga2Ag)2
_chemical_formula_sum   'Yb2 Sm2 Ga8 Ag4'
_cell_volume   321.57016916
_cell_formula_units_Z   2
loop_
 _symmetry_equiv_pos_site_id
 _symmetry_equiv_pos_as_xyz
  1  'x, y, z'
loop_
 _atom_site_type_symbol
 _atom_site_label
 _atom_site_symmetry_multiplicity
 _atom_site_fract_x
 _atom_site_fract_y
 _atom_site_fract_z
 _atom_site_occupancy
  Yb  Yb0  1  0.750000  0.723453  0.329272  1
  Yb  Yb1  1  0.250000  0.276547  0.670728  1
  Sm  Sm2  1  0.250000  0.778396  0.827785  1
  Sm  Sm3  1  0.750000  0.221604  0.172215  1
  Ga  Ga4  1  0.250000  0.700683  0.534224  1
  Ga  Ga5  1  0.750000  0.299317  0.465776  1
  Ga  Ga6  1  0.750000  0.795327  0.037073  1
  Ga  Ga7  1  0.250000  0.204673  0.962927  1
  Ga  Ga8  1  0.250000  0.923854  0.150457  1
  Ga  Ga9  1  0.750000  0.076146  0.849543  1
  Ga  Ga10  1  0.750000  0.571882  0.650417  1
  Ga  Ga11  1  0.250000  0.428118  0.349583  1
  Ag  Ag12  1  0.250000  0.543049  0.099702  1
  Ag  Ag13  1  0.750000  0.456951  0.900298  1
  Ag  Ag14  1  0.750000  0.960319  0.598277  1
  Ag  Ag15  1  0.250000  0.039681  0.401723  1
