# generated using pymatgen
data_Er2Ga9TcPd2
_symmetry_space_group_name_H-M   'P 1'
_cell_length_a   7.65797304
_cell_length_b   7.65792508
_cell_length_c   9.61042583
_cell_angle_alpha   89.84257944
_cell_angle_beta   89.84219168
_cell_angle_gamma   120.49454737
_symmetry_Int_Tables_number   1
_chemical_formula_structural   Er2Ga9TcPd2
_chemical_formula_sum   'Er4 Ga18 Tc2 Pd4'
_cell_volume   485.63014395
_cell_formula_units_Z   2
loop_
 _symmetry_equiv_pos_site_id
 _symmetry_equiv_pos_as_xyz
  1  'x, y, z'
loop_
 _atom_site_type_symbol
 _atom_site_label
 _atom_site_symmetry_multiplicity
 _atom_site_fract_x
 _atom_site_fract_y
 _atom_site_fract_z
 _atom_site_occupancy
  Er  Er0  1  0.995571  0.665263  0.254215  1
  Er  Er1  1  0.004429  0.334737  0.745785  1
  Er  Er2  1  0.665262  0.995569  0.254215  1
  Er  Er3  1  0.334738  0.004431  0.745785  1
  Ga  Ga4  1  0.128864  0.128865  0.248736  1
  Ga  Ga5  1  0.871136  0.871135  0.751264  1
  Ga  Ga6  1  0.998315  0.332431  0.082506  1
  Ga  Ga7  1  0.001685  0.667569  0.917494  1
  Ga  Ga8  1  0.997805  0.664136  0.580464  1
  Ga  Ga9  1  0.335864  0.002197  0.419537  1
  Ga  Ga10  1  0.002195  0.335864  0.419536  1
  Ga  Ga11  1  0.664136  0.997803  0.580463  1
  Ga  Ga12  1  0.667565  0.001683  0.917492  1
  Ga  Ga13  1  0.332435  0.998317  0.082508  1
  Ga  Ga14  1  0.339510  0.339507  0.563996  1
  Ga  Ga15  1  0.660490  0.660493  0.436004  1
  Ga  Ga16  1  0.666603  0.666602  0.075925  1
  Ga  Ga17  1  0.333397  0.333398  0.924075  1
  Ga  Ga18  1  0.335720  0.546163  0.253421  1
  Ga  Ga19  1  0.664280  0.453837  0.746579  1
  Ga  Ga20  1  0.546166  0.335716  0.253421  1
  Ga  Ga21  1  0.453834  0.664284  0.746579  1
  Tc  Tc22  1  0.324946  0.675054  0.499999  1
  Tc  Tc23  1  0.675054  0.324946  0.500001  1
  Pd  Pd24  1  0.669866  0.330131  0.000000  1
  Pd  Pd25  1  0.330134  0.669869  0.000000  1
  Pd  Pd26  1  0.000000  0.000000  0.000000  1
  Pd  Pd27  1  0.000000  0.000000  0.500000  1
