# generated using pymatgen
data_Ta10BeB3As2
_symmetry_space_group_name_H-M   'P 1'
_cell_length_a   7.35048219
_cell_length_b   7.35048174
_cell_length_c   7.34767426
_cell_angle_alpha   129.20012519
_cell_angle_beta   129.20012143
_cell_angle_gamma   74.71747511
_symmetry_Int_Tables_number   1
_chemical_formula_structural   Ta10BeB3As2
_chemical_formula_sum   'Ta10 Be1 B3 As2'
_cell_volume   232.22491794
_cell_formula_units_Z   1
loop_
 _symmetry_equiv_pos_site_id
 _symmetry_equiv_pos_as_xyz
  1  'x, y, z'
loop_
 _atom_site_type_symbol
 _atom_site_label
 _atom_site_symmetry_multiplicity
 _atom_site_fract_x
 _atom_site_fract_y
 _atom_site_fract_z
 _atom_site_occupancy
  Ta  Ta0  1  0.523283  0.698874  0.500000  1
  Ta  Ta1  1  0.198252  0.027146  0.500000  1
  Ta  Ta2  1  0.029068  0.526620  0.833598  1
  Ta  Ta3  1  0.695471  0.193023  0.166402  1
  Ta  Ta4  1  0.472854  0.301748  0.500000  1
  Ta  Ta5  1  0.801126  0.976717  0.500000  1
  Ta  Ta6  1  0.973380  0.470932  0.166402  1
  Ta  Ta7  1  0.306977  0.804529  0.833598  1
  Ta  Ta8  1  0.497520  0.499411  0.996932  1
  Ta  Ta9  1  0.000589  0.002480  0.003068  1
  Be  Be10  1  0.880503  0.619497  0.500000  1
  B  B11  1  0.118872  0.381128  0.500000  1
  B  B12  1  0.378612  0.879001  0.257611  1
  B  B13  1  0.620999  0.121388  0.742389  1
  As  As14  1  0.251246  0.248754  0.000000  1
  As  As15  1  0.751246  0.748754  0.000000  1
