# generated using pymatgen
data_Y7Lu3In5Sn
_symmetry_space_group_name_H-M   'P 1'
_cell_length_a   6.55988991
_cell_length_b   9.01027903
_cell_length_c   8.99331799
_cell_angle_alpha   120.03790341
_cell_angle_beta   89.95547289
_cell_angle_gamma   90.05196685
_symmetry_Int_Tables_number   1
_chemical_formula_structural   Y7Lu3In5Sn
_chemical_formula_sum   'Y7 Lu3 In5 Sn1'
_cell_volume   460.17091211
_cell_formula_units_Z   1
loop_
 _symmetry_equiv_pos_site_id
 _symmetry_equiv_pos_as_xyz
  1  'x, y, z'
loop_
 _atom_site_type_symbol
 _atom_site_label
 _atom_site_symmetry_multiplicity
 _atom_site_fract_x
 _atom_site_fract_y
 _atom_site_fract_z
 _atom_site_occupancy
  Y  Y0  1  0.498958  0.333910  0.668263  1
  Y  Y1  1  0.751901  0.238709  0.000408  1
  Y  Y2  1  0.751816  0.760022  0.760868  1
  Y  Y3  1  0.751931  0.998494  0.238612  1
  Y  Y4  1  0.248646  0.760050  0.000545  1
  Y  Y5  1  0.248069  0.239511  0.236914  1
  Y  Y6  1  0.247820  0.001628  0.762558  1
  Lu  Lu7  1  0.498694  0.666033  0.331835  1
  Lu  Lu8  1  0.000838  0.665539  0.331201  1
  Lu  Lu9  1  0.000989  0.334485  0.668434  1
  In  In10  1  0.752310  0.404102  0.403203  1
  In  In11  1  0.752998  0.998088  0.595157  1
  In  In12  1  0.248216  0.400354  0.001528  1
  In  In13  1  0.247747  0.598017  0.596556  1
  In  In14  1  0.246954  0.998971  0.402445  1
  Sn  Sn15  1  0.752112  0.602092  0.001472  1
