# generated using pymatgen
data_YEr2(FeCo3)2
_symmetry_space_group_name_H-M   'P 1'
_cell_length_a   7.56650475
_cell_length_b   7.56648296
_cell_length_c   7.56648326
_cell_angle_alpha   109.44145936
_cell_angle_beta   109.48603841
_cell_angle_gamma   109.48604452
_symmetry_Int_Tables_number   1
_chemical_formula_structural   YEr2(FeCo3)2
_chemical_formula_sum   'Y2 Er4 Fe4 Co12'
_cell_volume   333.47411419
_cell_formula_units_Z   2
loop_
 _symmetry_equiv_pos_site_id
 _symmetry_equiv_pos_as_xyz
  1  'x, y, z'
loop_
 _atom_site_type_symbol
 _atom_site_label
 _atom_site_symmetry_multiplicity
 _atom_site_fract_x
 _atom_site_fract_y
 _atom_site_fract_z
 _atom_site_occupancy
  Y  Y0  1  0.718178  0.718734  0.999444  1
  Y  Y1  1  0.281822  0.000556  0.281266  1
  Er  Er2  1  0.000000  0.283698  0.283521  1
  Er  Er3  1  0.282711  0.283145  0.999566  1
  Er  Er4  1  0.717289  0.000434  0.716855  1
  Er  Er5  1  0.000000  0.716479  0.716302  1
  Fe  Fe6  1  0.000000  0.000332  0.500974  1
  Fe  Fe7  1  0.000000  0.499026  0.999668  1
  Fe  Fe8  1  0.500000  0.000072  0.999928  1
  Fe  Fe9  1  0.500000  0.500072  0.499928  1
  Co  Co10  1  0.334831  0.335357  0.671278  1
  Co  Co11  1  0.665169  0.000526  0.336449  1
  Co  Co12  1  0.000000  0.663491  0.336509  1
  Co  Co13  1  0.664286  0.334768  0.999976  1
  Co  Co14  1  0.335714  0.670479  0.335690  1
  Co  Co15  1  0.000000  0.335915  0.664085  1
  Co  Co16  1  0.334831  0.663551  0.999474  1
  Co  Co17  1  0.335714  0.000024  0.665232  1
  Co  Co18  1  0.672471  0.336392  0.336082  1
  Co  Co19  1  0.664286  0.664310  0.329521  1
  Co  Co20  1  0.665169  0.328722  0.664643  1
  Co  Co21  1  0.327529  0.663918  0.663608  1
