# generated using pymatgen
data_RbGeWO5
_symmetry_space_group_name_H-M   'P 1'
_cell_length_a   7.54124000
_cell_length_b   10.53036200
_cell_length_c   20.89603600
_cell_angle_alpha   90.00000000
_cell_angle_beta   90.00000000
_cell_angle_gamma   90.00000000
_symmetry_Int_Tables_number   1
_chemical_formula_structural   RbGeWO5
_chemical_formula_sum   'Rb12 Ge12 W12 O60'
_cell_volume   1659.39574188
_cell_formula_units_Z   12
loop_
 _symmetry_equiv_pos_site_id
 _symmetry_equiv_pos_as_xyz
  1  'x, y, z'
loop_
 _atom_site_type_symbol
 _atom_site_label
 _atom_site_symmetry_multiplicity
 _atom_site_fract_x
 _atom_site_fract_y
 _atom_site_fract_z
 _atom_site_occupancy
  Rb  Rb0  1  0.248407  0.374331  0.353310  1
  Rb  Rb1  1  0.251593  0.625669  0.853310  1
  Rb  Rb2  1  0.751593  0.874331  0.146690  1
  Rb  Rb3  1  0.748407  0.125669  0.646690  1
  Rb  Rb4  1  0.262368  0.682898  0.161617  1
  Rb  Rb5  1  0.237632  0.317102  0.661617  1
  Rb  Rb6  1  0.737632  0.182898  0.338383  1
  Rb  Rb7  1  0.762368  0.817102  0.838383  1
  Rb  Rb8  1  0.222359  0.394996  0.017083  1
  Rb  Rb9  1  0.277641  0.605004  0.517083  1
  Rb  Rb10  1  0.777641  0.894996  0.482917  1
  Rb  Rb11  1  0.722359  0.105004  0.982917  1
  Ge  Ge12  1  0.516855  0.247664  0.147975  1
  Ge  Ge13  1  0.983145  0.752336  0.647975  1
  Ge  Ge14  1  0.483145  0.747664  0.352025  1
  Ge  Ge15  1  0.016855  0.252336  0.852025  1
  Ge  Ge16  1  0.235380  0.114200  0.231861  1
  Ge  Ge17  1  0.264620  0.885800  0.731861  1
  Ge  Ge18  1  0.764620  0.614200  0.268139  1
  Ge  Ge19  1  0.735380  0.385800  0.768139  1
  Ge  Ge20  1  0.062826  0.729997  0.352849  1
  Ge  Ge21  1  0.437174  0.270003  0.852849  1
  Ge  Ge22  1  0.937174  0.229997  0.147151  1
  Ge  Ge23  1  0.562826  0.770003  0.647151  1
  W  W24  1  0.252054  0.015494  0.401435  1
  W  W25  1  0.247946  0.984506  0.901435  1
  W  W26  1  0.747946  0.515494  0.098565  1
  W  W27  1  0.752054  0.484506  0.598565  1
  W  W28  1  0.491697  0.258664  0.499477  1
  W  W29  1  0.008303  0.741336  0.999477  1
  W  W30  1  0.508303  0.758664  0.000523  1
  W  W31  1  0.991697  0.241336  0.500523  1
  W  W32  1  0.240139  0.014824  0.076890  1
  W  W33  1  0.259861  0.985176  0.576890  1
  W  W34  1  0.759861  0.514824  0.423110  1
  W  W35  1  0.740139  0.485176  0.923110  1
  O  O36  1  0.056640  0.103824  0.563952  1
  O  O37  1  0.443360  0.896176  0.063952  1
  O  O38  1  0.943360  0.603824  0.936048  1
  O  O39  1  0.556640  0.396176  0.436048  1
  O  O40  1  0.244985  0.084598  0.313386  1
  O  O41  1  0.255015  0.915402  0.813386  1
  O  O42  1  0.755015  0.584598  0.186614  1
  O  O43  1  0.744985  0.415402  0.686614  1
  O  O44  1  0.030827  0.139930  0.085659  1
  O  O45  1  0.469173  0.860070  0.585659  1
  O  O46  1  0.969173  0.639930  0.414341  1
  O  O47  1  0.530827  0.360070  0.914341  1
  O  O48  1  0.032640  0.202125  0.224678  1
  O  O49  1  0.467360  0.797875  0.724678  1
  O  O50  1  0.967360  0.702125  0.275322  1
  O  O51  1  0.532640  0.297875  0.775322  1
  O  O52  1  0.402797  0.166395  0.087121  1
  O  O53  1  0.097203  0.833605  0.587121  1
  O  O54  1  0.597203  0.666395  0.412879  1
  O  O55  1  0.902797  0.333605  0.912879  1
  O  O56  1  0.408781  0.230651  0.223694  1
  O  O57  1  0.091219  0.769349  0.723694  1
  O  O58  1  0.591219  0.730651  0.276306  1
  O  O59  1  0.908781  0.269349  0.776306  1
  O  O60  1  0.239948  0.311805  0.499802  1
  O  O61  1  0.260052  0.688195  0.999802  1
  O  O62  1  0.760052  0.811805  0.000198  1
  O  O63  1  0.739948  0.188195  0.500198  1
  O  O64  1  0.430855  0.145890  0.426758  1
  O  O65  1  0.069145  0.854110  0.926758  1
  O  O66  1  0.569145  0.645890  0.073242  1
  O  O67  1  0.930855  0.354110  0.573242  1
  O  O68  1  0.745466  0.438609  0.016589  1
  O  O69  1  0.754534  0.561391  0.516589  1
  O  O70  1  0.254534  0.938609  0.483411  1
  O  O71  1  0.245466  0.061391  0.983411  1
  O  O72  1  0.055663  0.134517  0.426829  1
  O  O73  1  0.444337  0.865483  0.926829  1
  O  O74  1  0.944337  0.634517  0.073171  1
  O  O75  1  0.555663  0.365483  0.573171  1
  O  O76  1  0.720402  0.163969  0.159335  1
  O  O77  1  0.779598  0.836031  0.659335  1
  O  O78  1  0.279598  0.663969  0.340665  1
  O  O79  1  0.220402  0.336031  0.840665  1
  O  O80  1  0.255655  0.988896  0.176563  1
  O  O81  1  0.244345  0.011104  0.676563  1
  O  O82  1  0.744345  0.488896  0.323437  1
  O  O83  1  0.755655  0.511104  0.823437  1
  O  O84  1  0.533274  0.407047  0.127653  1
  O  O85  1  0.966726  0.592953  0.627653  1
  O  O86  1  0.466726  0.907047  0.372347  1
  O  O87  1  0.033274  0.092953  0.872347  1
  O  O88  1  0.056015  0.890381  0.372734  1
  O  O89  1  0.443985  0.109619  0.872734  1
  O  O90  1  0.943985  0.390381  0.127266  1
  O  O91  1  0.556015  0.609619  0.627266  1
  O  O92  1  0.426385  0.117117  0.566356  1
  O  O93  1  0.073615  0.882883  0.066356  1
  O  O94  1  0.573615  0.617117  0.933644  1
  O  O95  1  0.926385  0.382883  0.433644  1
