# generated using pymatgen
data_La12In3Ge5Ir8
_symmetry_space_group_name_H-M   'P 1'
_cell_length_a   5.85978900
_cell_length_b   8.47586659
_cell_length_c   13.76120467
_cell_angle_alpha   89.74392398
_cell_angle_beta   90.00000000
_cell_angle_gamma   90.00000000
_symmetry_Int_Tables_number   1
_chemical_formula_structural   La12In3Ge5Ir8
_chemical_formula_sum   'La12 In3 Ge5 Ir8'
_cell_volume   683.46803383
_cell_formula_units_Z   1
loop_
 _symmetry_equiv_pos_site_id
 _symmetry_equiv_pos_as_xyz
  1  'x, y, z'
loop_
 _atom_site_type_symbol
 _atom_site_label
 _atom_site_symmetry_multiplicity
 _atom_site_fract_x
 _atom_site_fract_y
 _atom_site_fract_z
 _atom_site_occupancy
  La  La0  1  0.166881  0.899603  0.599280  1
  La  La1  1  0.842942  0.105370  0.096134  1
  La  La2  1  0.166881  0.600397  0.400720  1
  La  La3  1  0.842942  0.394630  0.903866  1
  La  La4  1  0.834022  0.101014  0.401272  1
  La  La5  1  0.164221  0.904381  0.902988  1
  La  La6  1  0.834022  0.398986  0.598728  1
  La  La7  1  0.164221  0.595619  0.097012  1
  La  La8  1  0.358861  0.262331  0.754415  1
  La  La9  1  0.641684  0.741319  0.248422  1
  La  La10  1  0.358861  0.237669  0.245585  1
  La  La11  1  0.641684  0.758681  0.751578  1
  In  In12  1  0.342483  0.250000  0.500000  1
  In  In13  1  0.655782  0.750000  0.000000  1
  In  In14  1  0.658232  0.750000  0.500000  1
  Ge  Ge15  1  0.857216  0.107483  0.752079  1
  Ge  Ge16  1  0.141072  0.888169  0.246270  1
  Ge  Ge17  1  0.857216  0.392517  0.247921  1
  Ge  Ge18  1  0.141072  0.611831  0.753730  1
  Ge  Ge19  1  0.356674  0.250000  0.000000  1
  Ir  Ir20  1  0.635535  0.039876  0.597885  1
  Ir  Ir21  1  0.366835  0.970769  0.093371  1
  Ir  Ir22  1  0.635535  0.460124  0.402115  1
  Ir  Ir23  1  0.366835  0.529231  0.906629  1
  Ir  Ir24  1  0.364054  0.960309  0.400836  1
  Ir  Ir25  1  0.620092  0.049703  0.906731  1
  Ir  Ir26  1  0.364054  0.539691  0.599164  1
  Ir  Ir27  1  0.620092  0.450297  0.093269  1
