# generated using pymatgen
data_Dy5Y15Cd3Ni2Au3
_symmetry_space_group_name_H-M   'P 1'
_cell_length_a   9.62942101
_cell_length_b   9.62942933
_cell_length_c   9.57552700
_cell_angle_alpha   90.00000000
_cell_angle_beta   90.00000000
_cell_angle_gamma   119.99871387
_symmetry_Int_Tables_number   1
_chemical_formula_structural   Dy5Y15Cd3Ni2Au3
_chemical_formula_sum   'Dy5 Y15 Cd3 Ni2 Au3'
_cell_volume   768.95277787
_cell_formula_units_Z   1
loop_
 _symmetry_equiv_pos_site_id
 _symmetry_equiv_pos_as_xyz
  1  'x, y, z'
loop_
 _atom_site_type_symbol
 _atom_site_label
 _atom_site_symmetry_multiplicity
 _atom_site_fract_x
 _atom_site_fract_y
 _atom_site_fract_z
 _atom_site_occupancy
  Dy  Dy0  1  0.000011  0.999989  0.457779  1
  Dy  Dy1  1  0.000011  0.999989  0.042221  1
  Dy  Dy2  1  0.541779  0.458167  0.250000  1
  Dy  Dy3  1  0.541836  0.083623  0.250000  1
  Dy  Dy4  1  0.916370  0.458216  0.250000  1
  Y  Y5  1  0.456936  0.543034  0.750000  1
  Y  Y6  1  0.456984  0.913924  0.750000  1
  Y  Y7  1  0.086065  0.543043  0.750000  1
  Y  Y8  1  0.209462  0.790568  0.437543  1
  Y  Y9  1  0.209415  0.418871  0.437525  1
  Y  Y10  1  0.581131  0.790552  0.437527  1
  Y  Y11  1  0.791106  0.208899  0.560557  1
  Y  Y12  1  0.791090  0.582204  0.560572  1
  Y  Y13  1  0.417799  0.208903  0.560574  1
  Y  Y14  1  0.791106  0.208899  0.939443  1
  Y  Y15  1  0.791090  0.582204  0.939428  1
  Y  Y16  1  0.417799  0.208903  0.939426  1
  Y  Y17  1  0.209462  0.790568  0.062457  1
  Y  Y18  1  0.209415  0.418871  0.062475  1
  Y  Y19  1  0.581131  0.790552  0.062473  1
  Cd  Cd20  1  0.109926  0.890088  0.750000  1
  Cd  Cd21  1  0.109911  0.219819  0.750000  1
  Cd  Cd22  1  0.780183  0.890078  0.750000  1
  Ni  Ni23  1  0.333325  0.666679  0.250000  1
  Ni  Ni24  1  0.666677  0.333337  0.750000  1
  Au  Au25  1  0.869063  0.130978  0.250000  1
  Au  Au26  1  0.868980  0.738070  0.250000  1
  Au  Au27  1  0.261939  0.130971  0.250000  1
