# generated using pymatgen
data_U4Mn4Fe2Si6Tc
_symmetry_space_group_name_H-M   'P 1'
_cell_length_a   6.89039438
_cell_length_b   6.89209346
_cell_length_c   6.89039366
_cell_angle_alpha   109.64014539
_cell_angle_beta   109.12383804
_cell_angle_gamma   109.64015375
_symmetry_Int_Tables_number   1
_chemical_formula_structural   U4Mn4Fe2Si6Tc
_chemical_formula_sum   'U4 Mn4 Fe2 Si6 Tc1'
_cell_volume   251.91824211
_cell_formula_units_Z   1
loop_
 _symmetry_equiv_pos_site_id
 _symmetry_equiv_pos_as_xyz
  1  'x, y, z'
loop_
 _atom_site_type_symbol
 _atom_site_label
 _atom_site_symmetry_multiplicity
 _atom_site_fract_x
 _atom_site_fract_y
 _atom_site_fract_z
 _atom_site_occupancy
  U  U0  1  0.497184  0.500000  0.502816  1
  U  U1  1  0.997184  0.500000  0.002816  1
  U  U2  1  0.497252  0.000000  0.991877  1
  U  U3  1  0.008123  0.000000  0.502748  1
  Mn  Mn4  1  0.249843  0.749162  0.499319  1
  Mn  Mn5  1  0.249269  0.500000  0.750731  1
  Mn  Mn6  1  0.500681  0.250838  0.750157  1
  Mn  Mn7  1  0.749269  0.500000  0.250731  1
  Fe  Fe8  1  0.500909  0.750703  0.249794  1
  Fe  Fe9  1  0.750206  0.249297  0.499091  1
  Si  Si10  1  0.677046  0.000000  0.671409  1
  Si  Si11  1  0.675624  0.678637  0.003013  1
  Si  Si12  1  0.324519  0.327235  0.002716  1
  Si  Si13  1  0.997284  0.672765  0.675481  1
  Si  Si14  1  0.996987  0.321363  0.324376  1
  Si  Si15  1  0.328591  0.000000  0.322954  1
  Tc  Tc16  1  0.000030  0.000000  0.999970  1
