# generated using pymatgen
data_Hf4Ti2BBr12
_symmetry_space_group_name_H-M   'P 1'
_cell_length_a   8.53747976
_cell_length_b   8.56430804
_cell_length_c   8.51689934
_cell_angle_alpha   106.86737056
_cell_angle_beta   107.00445858
_cell_angle_gamma   107.05460366
_symmetry_Int_Tables_number   1
_chemical_formula_structural   Hf4Ti2BBr12
_chemical_formula_sum   'Hf4 Ti2 B1 Br12'
_cell_volume   518.96530134
_cell_formula_units_Z   1
loop_
 _symmetry_equiv_pos_site_id
 _symmetry_equiv_pos_as_xyz
  1  'x, y, z'
loop_
 _atom_site_type_symbol
 _atom_site_label
 _atom_site_symmetry_multiplicity
 _atom_site_fract_x
 _atom_site_fract_y
 _atom_site_fract_z
 _atom_site_occupancy
  Hf  Hf0  1  0.097514  0.028659  0.288511  1
  Hf  Hf1  1  0.906112  0.968599  0.712562  1
  Hf  Hf2  1  0.707804  0.901913  0.969130  1
  Hf  Hf3  1  0.031472  0.289161  0.095351  1
  Ti  Ti4  1  0.975202  0.730226  0.910608  1
  Ti  Ti5  1  0.271339  0.087565  0.027413  1
  B  B6  1  0.995527  0.002124  0.001756  1
  Br  Br7  1  0.921759  0.304331  0.773045  1
  Br  Br8  1  0.694013  0.224640  0.078478  1
  Br  Br9  1  0.440463  0.140565  0.360035  1
  Br  Br10  1  0.862067  0.633891  0.566365  1
  Br  Br11  1  0.225163  0.077475  0.692694  1
  Br  Br12  1  0.641626  0.560556  0.858929  1
  Br  Br13  1  0.367310  0.431835  0.138389  1
  Br  Br14  1  0.776723  0.920746  0.311932  1
  Br  Br15  1  0.144166  0.367293  0.445105  1
  Br  Br16  1  0.555836  0.855923  0.629687  1
  Br  Br17  1  0.309704  0.785416  0.925277  1
  Br  Br18  1  0.076200  0.689080  0.214733  1
