# generated using pymatgen
data_Pa5Si4
_symmetry_space_group_name_H-M   'P 1'
_cell_length_a   8.66177800
_cell_length_b   8.66177955
_cell_length_c   5.95391500
_cell_angle_alpha   90.00000000
_cell_angle_beta   90.00000000
_cell_angle_gamma   120.00000173
_symmetry_Int_Tables_number   1
_chemical_formula_structural   Pa5Si4
_chemical_formula_sum   'Pa10 Si8'
_cell_volume   386.85430064
_cell_formula_units_Z   2
loop_
 _symmetry_equiv_pos_site_id
 _symmetry_equiv_pos_as_xyz
  1  'x, y, z'
loop_
 _atom_site_type_symbol
 _atom_site_label
 _atom_site_symmetry_multiplicity
 _atom_site_fract_x
 _atom_site_fract_y
 _atom_site_fract_z
 _atom_site_occupancy
  Pa  Pa0  1  0.333333  0.666667  0.000000  1
  Pa  Pa1  1  0.666667  0.333333  0.500000  1
  Pa  Pa2  1  0.666667  0.333333  0.000000  1
  Pa  Pa3  1  0.333333  0.666667  0.500000  1
  Pa  Pa4  1  0.282886  0.000000  0.250000  1
  Pa  Pa5  1  0.282886  0.282886  0.750000  1
  Pa  Pa6  1  0.000000  0.717114  0.750000  1
  Pa  Pa7  1  0.000000  0.282886  0.250000  1
  Pa  Pa8  1  0.717114  0.717114  0.250000  1
  Pa  Pa9  1  0.717114  0.000000  0.750000  1
  Si  Si10  1  0.624715  0.000000  0.250000  1
  Si  Si11  1  0.624715  0.624715  0.750000  1
  Si  Si12  1  0.000000  0.375285  0.750000  1
  Si  Si13  1  0.000000  0.624715  0.250000  1
  Si  Si14  1  0.375285  0.375285  0.250000  1
  Si  Si15  1  0.375285  0.000000  0.750000  1
  Si  Si16  1  0.000000  0.000000  0.000000  1
  Si  Si17  1  0.000000  0.000000  0.500000  1
