# generated using pymatgen
data_Sr2CePdO6
_symmetry_space_group_name_H-M   'P 1'
_cell_length_a   5.84108692
_cell_length_b   5.92587200
_cell_length_c   8.31011812
_cell_angle_alpha   90.00000000
_cell_angle_beta   90.54026857
_cell_angle_gamma   90.00000000
_symmetry_Int_Tables_number   1
_chemical_formula_structural   Sr2CePdO6
_chemical_formula_sum   'Sr4 Ce2 Pd2 O12'
_cell_volume   287.62976357
_cell_formula_units_Z   2
loop_
 _symmetry_equiv_pos_site_id
 _symmetry_equiv_pos_as_xyz
  1  'x, y, z'
loop_
 _atom_site_type_symbol
 _atom_site_label
 _atom_site_symmetry_multiplicity
 _atom_site_fract_x
 _atom_site_fract_y
 _atom_site_fract_z
 _atom_site_occupancy
  Sr  Sr0  1  0.011333  0.040036  0.249123  1
  Sr  Sr1  1  0.488666  0.540037  0.250877  1
  Sr  Sr2  1  0.511334  0.459964  0.749122  1
  Sr  Sr3  1  0.988666  0.959964  0.750878  1
  Ce  Ce4  1  0.500001  0.000000  0.000000  1
  Ce  Ce5  1  0.000000  0.500000  0.500000  1
  Pd  Pd6  1  0.000000  0.500000  0.000000  1
  Pd  Pd7  1  0.500001  0.000000  0.500000  1
  O  O8  1  0.275690  0.295540  0.039980  1
  O  O9  1  0.200968  0.776527  0.040805  1
  O  O10  1  0.925013  0.480728  0.238906  1
  O  O11  1  0.574986  0.980728  0.261095  1
  O  O12  1  0.299031  0.276527  0.459195  1
  O  O13  1  0.224309  0.795540  0.460020  1
  O  O14  1  0.775691  0.204459  0.539979  1
  O  O15  1  0.700969  0.723472  0.540804  1
  O  O16  1  0.425013  0.019272  0.738906  1
  O  O17  1  0.074987  0.519273  0.761094  1
  O  O18  1  0.799032  0.223473  0.959195  1
  O  O19  1  0.724310  0.704459  0.960021  1
