# generated using pymatgen
data_Tm4SiBiRh11
_symmetry_space_group_name_H-M   'P 1'
_cell_length_a   7.23092778
_cell_length_b   7.23092730
_cell_length_c   7.23092770
_cell_angle_alpha   107.99623692
_cell_angle_beta   107.99624073
_cell_angle_gamma   112.46325109
_symmetry_Int_Tables_number   1
_chemical_formula_structural   Tm4SiBiRh11
_chemical_formula_sum   'Tm4 Si1 Bi1 Rh11'
_cell_volume   290.44638554
_cell_formula_units_Z   1
loop_
 _symmetry_equiv_pos_site_id
 _symmetry_equiv_pos_as_xyz
  1  'x, y, z'
loop_
 _atom_site_type_symbol
 _atom_site_label
 _atom_site_symmetry_multiplicity
 _atom_site_fract_x
 _atom_site_fract_y
 _atom_site_fract_z
 _atom_site_occupancy
  Tm  Tm0  1  0.015090  0.984910  0.500000  1
  Tm  Tm1  1  0.015090  0.515090  0.030180  1
  Tm  Tm2  1  0.484910  0.984910  0.969820  1
  Tm  Tm3  1  0.484910  0.515090  0.500000  1
  Si  Si4  1  0.000000  0.000000  0.000000  1
  Bi  Bi5  1  0.750000  0.250000  0.500000  1
  Rh  Rh6  1  0.748219  0.496980  0.251239  1
  Rh  Rh7  1  0.503020  0.251781  0.748761  1
  Rh  Rh8  1  0.245742  0.496980  0.748761  1
  Rh  Rh9  1  0.250000  0.750000  0.500000  1
  Rh  Rh10  1  0.503020  0.754258  0.251239  1
  Rh  Rh11  1  0.714549  0.714549  0.000000  1
  Rh  Rh12  1  0.274943  0.005133  0.269810  1
  Rh  Rh13  1  0.994867  0.264677  0.269810  1
  Rh  Rh14  1  0.285451  0.285451  0.000000  1
  Rh  Rh15  1  0.735323  0.005133  0.730190  1
  Rh  Rh16  1  0.994867  0.725057  0.730190  1
