# generated using pymatgen
data_Hf18FeRe8Pt
_symmetry_space_group_name_H-M   'P 1'
_cell_length_a   8.54102000
_cell_length_b   8.60604775
_cell_length_c   8.60604700
_cell_angle_alpha   119.99996639
_cell_angle_beta   90.00000000
_cell_angle_gamma   90.00000000
_symmetry_Int_Tables_number   1
_chemical_formula_structural   Hf18FeRe8Pt
_chemical_formula_sum   'Hf18 Fe1 Re8 Pt1'
_cell_volume   547.83273908
_cell_formula_units_Z   1
loop_
 _symmetry_equiv_pos_site_id
 _symmetry_equiv_pos_as_xyz
  1  'x, y, z'
loop_
 _atom_site_type_symbol
 _atom_site_label
 _atom_site_symmetry_multiplicity
 _atom_site_fract_x
 _atom_site_fract_y
 _atom_site_fract_z
 _atom_site_occupancy
  Hf  Hf0  1  0.552555  0.806616  0.613229  1
  Hf  Hf1  1  0.552551  0.806613  0.193387  1
  Hf  Hf2  1  0.552555  0.386771  0.193384  1
  Hf  Hf3  1  0.440601  0.200753  0.401501  1
  Hf  Hf4  1  0.440607  0.200758  0.799242  1
  Hf  Hf5  1  0.440601  0.598499  0.799247  1
  Hf  Hf6  1  0.059399  0.200753  0.401501  1
  Hf  Hf7  1  0.059393  0.200758  0.799242  1
  Hf  Hf8  1  0.059399  0.598499  0.799247  1
  Hf  Hf9  1  0.947445  0.806616  0.613229  1
  Hf  Hf10  1  0.947449  0.806613  0.193387  1
  Hf  Hf11  1  0.947445  0.386771  0.193384  1
  Hf  Hf12  1  0.750000  0.457732  0.915475  1
  Hf  Hf13  1  0.750000  0.457724  0.542276  1
  Hf  Hf14  1  0.750000  0.084525  0.542267  1
  Hf  Hf15  1  0.250000  0.540816  0.081623  1
  Hf  Hf16  1  0.250000  0.540820  0.459180  1
  Hf  Hf17  1  0.250000  0.918377  0.459183  1
  Fe  Fe18  1  0.250000  0.333317  0.666683  1
  Re  Re19  1  0.750000  0.110939  0.221891  1
  Re  Re20  1  0.750000  0.110939  0.889061  1
  Re  Re21  1  0.750000  0.778109  0.889061  1
  Re  Re22  1  0.250000  0.890343  0.780686  1
  Re  Re23  1  0.250000  0.890351  0.109649  1
  Re  Re24  1  0.250000  0.219314  0.109657  1
  Re  Re25  1  0.500805  0.000003  0.999997  1
  Re  Re26  1  0.999195  0.000003  0.999997  1
  Pt  Pt27  1  0.750000  0.666665  0.333335  1
