# generated using pymatgen
data_NdHo(CoB)8
_symmetry_space_group_name_H-M   'P 1'
_cell_length_a   7.01591300
_cell_length_b   7.01591300
_cell_length_c   3.81264200
_cell_angle_alpha   90.00000000
_cell_angle_beta   90.00000000
_cell_angle_gamma   90.00000000
_symmetry_Int_Tables_number   1
_chemical_formula_structural   NdHo(CoB)8
_chemical_formula_sum   'Nd1 Ho1 Co8 B8'
_cell_volume   187.66981146
_cell_formula_units_Z   1
loop_
 _symmetry_equiv_pos_site_id
 _symmetry_equiv_pos_as_xyz
  1  'x, y, z'
loop_
 _atom_site_type_symbol
 _atom_site_label
 _atom_site_symmetry_multiplicity
 _atom_site_fract_x
 _atom_site_fract_y
 _atom_site_fract_z
 _atom_site_occupancy
  Nd  Nd0  1  0.500000  0.500000  0.500000  1
  Ho  Ho1  1  0.000000  0.000000  0.000000  1
  Co  Co2  1  0.355056  0.885175  0.391915  1
  Co  Co3  1  0.619093  0.860668  0.891426  1
  Co  Co4  1  0.644944  0.114825  0.391915  1
  Co  Co5  1  0.139332  0.619093  0.108574  1
  Co  Co6  1  0.885175  0.644944  0.608085  1
  Co  Co7  1  0.860668  0.380907  0.108574  1
  Co  Co8  1  0.380907  0.139332  0.891426  1
  Co  Co9  1  0.114825  0.355056  0.608085  1
  B  B10  1  0.839272  0.292523  0.606476  1
  B  B11  1  0.160728  0.707477  0.606476  1
  B  B12  1  0.803116  0.663985  0.103733  1
  B  B13  1  0.336015  0.803116  0.896267  1
  B  B14  1  0.663985  0.196884  0.896267  1
  B  B15  1  0.292523  0.160728  0.393524  1
  B  B16  1  0.707477  0.839272  0.393524  1
  B  B17  1  0.196884  0.336015  0.103733  1
