# generated using pymatgen
data_Ba2Sc3Nb4Fe(PO4)12
_symmetry_space_group_name_H-M   'P 1'
_cell_length_a   8.64747200
_cell_length_b   9.28317520
_cell_length_c   12.68978400
_cell_angle_alpha   84.82044600
_cell_angle_beta   90.00000000
_cell_angle_gamma   90.00000000
_symmetry_Int_Tables_number   1
_chemical_formula_structural   Ba2Sc3Nb4Fe(PO4)12
_chemical_formula_sum   'Ba2 Sc3 Nb4 Fe1 P12 O48'
_cell_volume   1014.52545023
_cell_formula_units_Z   1
loop_
 _symmetry_equiv_pos_site_id
 _symmetry_equiv_pos_as_xyz
  1  'x, y, z'
loop_
 _atom_site_type_symbol
 _atom_site_label
 _atom_site_symmetry_multiplicity
 _atom_site_fract_x
 _atom_site_fract_y
 _atom_site_fract_z
 _atom_site_occupancy
  Ba  Ba0  1  0.996377  0.998864  0.503632  1
  Ba  Ba1  1  0.494991  0.498908  0.499602  1
  Sc  Sc2  1  0.500429  0.806872  0.649677  1
  Sc  Sc3  1  0.000674  0.692246  0.350374  1
  Sc  Sc4  1  0.500757  0.193410  0.350873  1
  Nb  Nb5  1  0.499533  0.215537  0.852612  1
  Nb  Nb6  1  0.998957  0.286531  0.147066  1
  Nb  Nb7  1  0.500725  0.786786  0.146835  1
  Nb  Nb8  1  0.000819  0.715378  0.851988  1
  Fe  Fe9  1  0.999520  0.307017  0.651464  1
  P  P10  1  0.355394  0.850080  0.393003  1
  P  P11  1  0.279987  0.500171  0.743726  1
  P  P12  1  0.141908  0.349000  0.396315  1
  P  P13  1  0.858632  0.368812  0.890393  1
  P  P14  1  0.355859  0.132673  0.107393  1
  P  P15  1  0.786816  0.998951  0.255140  1
  P  P16  1  0.214815  0.006487  0.743659  1
  P  P17  1  0.643863  0.869372  0.891961  1
  P  P18  1  0.145373  0.632447  0.106616  1
  P  P19  1  0.854725  0.643036  0.608200  1
  P  P20  1  0.712936  0.498670  0.254025  1
  P  P21  1  0.650807  0.150183  0.608978  1
  O  O22  1  0.298533  0.924369  0.661524  1
  O  O23  1  0.183068  0.814900  0.399154  1
  O  O24  1  0.440968  0.780860  0.490409  1
  O  O25  1  0.427109  0.778230  0.295769  1
  O  O26  1  0.392475  0.603220  0.683639  1
  O  O27  1  0.132742  0.513550  0.384272  1
  O  O28  1  0.194899  0.415898  0.663324  1
  O  O29  1  0.373746  0.389869  0.820373  1
  O  O30  1  0.130532  0.465772  0.114144  1
  O  O31  1  0.823567  0.413907  0.185884  1
  O  O32  1  0.313298  0.307844  0.402370  1
  O  O33  1  0.054214  0.282032  0.493792  1
  O  O34  1  0.068317  0.280706  0.297798  1
  O  O35  1  0.683085  0.330153  0.888053  1
  O  O36  1  0.921680  0.307079  0.000183  1
  O  O37  1  0.948797  0.303069  0.805054  1
  O  O38  1  0.444162  0.198846  0.193033  1
  O  O39  1  0.420348  0.194944  0.998273  1
  O  O40  1  0.180586  0.170319  0.109398  1
  O  O41  1  0.874427  0.110416  0.175830  1
  O  O42  1  0.372558  0.013476  0.381335  1
  O  O43  1  0.101382  0.110755  0.685729  1
  O  O44  1  0.325432  0.084724  0.815565  1
  O  O45  1  0.631481  0.036058  0.884229  1
  O  O46  1  0.368791  0.965907  0.113927  1
  O  O47  1  0.673407  0.915948  0.187860  1
  O  O48  1  0.904031  0.898037  0.312261  1
  O  O49  1  0.633199  0.986007  0.615841  1
  O  O50  1  0.123228  0.892110  0.818898  1
  O  O51  1  0.818978  0.831194  0.889084  1
  O  O52  1  0.581446  0.809077  0.001795  1
  O  O53  1  0.554003  0.801867  0.807508  1
  O  O54  1  0.058567  0.699312  0.192687  1
  O  O55  1  0.080874  0.694732  0.997550  1
  O  O56  1  0.320986  0.669069  0.107445  1
  O  O57  1  0.932827  0.716920  0.702284  1
  O  O58  1  0.929069  0.716654  0.507902  1
  O  O59  1  0.681297  0.674184  0.610695  1
  O  O60  1  0.172520  0.582682  0.815004  1
  O  O61  1  0.868946  0.535715  0.884519  1
  O  O62  1  0.627689  0.612467  0.175384  1
  O  O63  1  0.797588  0.579066  0.336293  1
  O  O64  1  0.874638  0.479341  0.617749  1
  O  O65  1  0.592269  0.400519  0.310315  1
  O  O66  1  0.565850  0.219282  0.702207  1
  O  O67  1  0.579578  0.222998  0.507185  1
  O  O68  1  0.823605  0.181947  0.615859  1
  O  O69  1  0.705313  0.082538  0.337082  1
