# generated using pymatgen
data_La3PdPt2Pb3
_symmetry_space_group_name_H-M   'P 1'
_cell_length_a   7.94348800
_cell_length_b   7.94348679
_cell_length_c   4.19877000
_cell_angle_alpha   90.00000000
_cell_angle_beta   90.00000000
_cell_angle_gamma   120.00000506
_symmetry_Int_Tables_number   1
_chemical_formula_structural   La3PdPt2Pb3
_chemical_formula_sum   'La3 Pd1 Pt2 Pb3'
_cell_volume   229.44316050
_cell_formula_units_Z   1
loop_
 _symmetry_equiv_pos_site_id
 _symmetry_equiv_pos_as_xyz
  1  'x, y, z'
loop_
 _atom_site_type_symbol
 _atom_site_label
 _atom_site_symmetry_multiplicity
 _atom_site_fract_x
 _atom_site_fract_y
 _atom_site_fract_z
 _atom_site_occupancy
  La  La0  1  0.412096  0.412096  0.500000  1
  La  La1  1  0.587904  0.000000  0.500000  1
  La  La2  1  0.000000  0.587904  0.500000  1
  Pd  Pd3  1  0.000000  0.000000  0.500000  1
  Pt  Pt4  1  0.666667  0.333333  0.000000  1
  Pt  Pt5  1  0.333333  0.666667  0.000000  1
  Pb  Pb6  1  0.748349  0.748349  0.000000  1
  Pb  Pb7  1  0.251651  0.000000  0.000000  1
  Pb  Pb8  1  0.000000  0.251651  0.000000  1
