# generated using pymatgen
data_Yb2Cr3FeCo8As7
_symmetry_space_group_name_H-M   'P 1'
_cell_length_a   9.38711400
_cell_length_b   9.40923481
_cell_length_c   3.79224300
_cell_angle_alpha   90.00000000
_cell_angle_beta   90.00000000
_cell_angle_gamma   119.87520607
_symmetry_Int_Tables_number   1
_chemical_formula_structural   Yb2Cr3FeCo8As7
_chemical_formula_sum   'Yb2 Cr3 Fe1 Co8 As7'
_cell_volume   290.44101406
_cell_formula_units_Z   1
loop_
 _symmetry_equiv_pos_site_id
 _symmetry_equiv_pos_as_xyz
  1  'x, y, z'
loop_
 _atom_site_type_symbol
 _atom_site_label
 _atom_site_symmetry_multiplicity
 _atom_site_fract_x
 _atom_site_fract_y
 _atom_site_fract_z
 _atom_site_occupancy
  Yb  Yb0  1  0.333319  0.667139  0.000000  1
  Yb  Yb1  1  0.999196  0.999535  0.500000  1
  Cr  Cr2  1  0.770215  0.214344  0.500000  1
  Cr  Cr3  1  0.449208  0.233042  0.500000  1
  Cr  Cr4  1  0.780356  0.550230  0.500000  1
  Fe  Fe5  1  0.545581  0.490130  0.000000  1
  Co  Co6  1  0.722555  0.961524  0.000000  1
  Co  Co7  1  0.240773  0.278713  0.000000  1
  Co  Co8  1  0.039123  0.760674  0.000000  1
  Co  Co9  1  0.945747  0.453931  0.000000  1
  Co  Co10  1  0.508137  0.054305  0.000000  1
  Co  Co11  1  0.099481  0.382297  0.500000  1
  Co  Co12  1  0.281922  0.901124  0.500000  1
  Co  Co13  1  0.618353  0.718679  0.500000  1
  As  As14  1  0.966253  0.217358  0.000000  1
  As  As15  1  0.250982  0.034109  0.000000  1
  As  As16  1  0.781650  0.747523  0.000000  1
  As  As17  1  0.077363  0.624449  0.500000  1
  As  As18  1  0.546446  0.922104  0.500000  1
  As  As19  1  0.376374  0.456510  0.500000  1
  As  As20  1  0.666969  0.332277  0.000000  1
