# generated using pymatgen
data_DyY4Lu7Co5Bi
_symmetry_space_group_name_H-M   'P 1'
_cell_length_a   8.19748015
_cell_length_b   8.19950626
_cell_length_c   8.19950636
_cell_angle_alpha   110.53429732
_cell_angle_beta   111.03646665
_cell_angle_gamma   106.88372406
_symmetry_Int_Tables_number   1
_chemical_formula_structural   DyY4Lu7Co5Bi
_chemical_formula_sum   'Dy1 Y4 Lu7 Co5 Bi1'
_cell_volume   423.55527702
_cell_formula_units_Z   1
loop_
 _symmetry_equiv_pos_site_id
 _symmetry_equiv_pos_as_xyz
  1  'x, y, z'
loop_
 _atom_site_type_symbol
 _atom_site_label
 _atom_site_symmetry_multiplicity
 _atom_site_fract_x
 _atom_site_fract_y
 _atom_site_fract_z
 _atom_site_occupancy
  Dy  Dy0  1  0.015791  0.209460  0.806331  1
  Y  Y1  1  0.812725  0.712052  0.526341  1
  Y  Y2  1  0.185815  0.285270  0.469801  1
  Y  Y3  1  0.185815  0.716014  0.900544  1
  Y  Y4  1  0.812725  0.286385  0.100674  1
  Lu  Lu5  1  0.687278  0.377019  0.687910  1
  Lu  Lu6  1  0.312994  0.624723  0.313002  1
  Lu  Lu7  1  0.687278  0.999368  0.310259  1
  Lu  Lu8  1  0.312994  0.999992  0.688272  1
  Lu  Lu9  1  0.596048  0.790146  0.805902  1
  Lu  Lu10  1  0.405529  0.209685  0.195844  1
  Lu  Lu11  1  0.985385  0.790561  0.194824  1
  Co  Co12  1  0.623571  0.999189  0.624382  1
  Co  Co13  1  0.374705  0.000674  0.374032  1
  Co  Co14  1  0.113674  0.613106  0.500566  1
  Co  Co15  1  0.885396  0.387418  0.497978  1
  Co  Co16  1  0.000680  0.998116  0.002563  1
  Bi  Bi17  1  0.501596  0.500824  0.000773  1
