# generated using pymatgen
data_Eu3Ho(Al3Pt)6
_symmetry_space_group_name_H-M   'P 1'
_cell_length_a   7.68827745
_cell_length_b   7.68676352
_cell_length_c   9.58447400
_cell_angle_alpha   90.00000000
_cell_angle_beta   90.00000000
_cell_angle_gamma   119.77465818
_symmetry_Int_Tables_number   1
_chemical_formula_structural   Eu3Ho(Al3Pt)6
_chemical_formula_sum   'Eu3 Ho1 Al18 Pt6'
_cell_volume   491.64673661
_cell_formula_units_Z   1
loop_
 _symmetry_equiv_pos_site_id
 _symmetry_equiv_pos_as_xyz
  1  'x, y, z'
loop_
 _atom_site_type_symbol
 _atom_site_label
 _atom_site_symmetry_multiplicity
 _atom_site_fract_x
 _atom_site_fract_y
 _atom_site_fract_z
 _atom_site_occupancy
  Eu  Eu0  1  0.004690  0.331623  0.750000  1
  Eu  Eu1  1  0.995789  0.668832  0.250000  1
  Eu  Eu2  1  0.329850  0.003281  0.750000  1
  Ho  Ho3  1  0.669612  0.996366  0.250000  1
  Al  Al4  1  0.666075  0.000165  0.925629  1
  Al  Al5  1  0.129159  0.131561  0.250000  1
  Al  Al6  1  0.000461  0.334532  0.423617  1
  Al  Al7  1  0.332868  0.333238  0.555953  1
  Al  Al8  1  0.342622  0.546963  0.250000  1
  Al  Al9  1  0.455715  0.659800  0.750000  1
  Al  Al10  1  0.867498  0.868517  0.750000  1
  Al  Al11  1  0.666967  0.667091  0.059144  1
  Al  Al12  1  0.666967  0.667091  0.440856  1
  Al  Al13  1  0.999235  0.665249  0.574091  1
  Al  Al14  1  0.999235  0.665249  0.925909  1
  Al  Al15  1  0.334477  0.000410  0.423241  1
  Al  Al16  1  0.660873  0.453916  0.750000  1
  Al  Al17  1  0.544086  0.336960  0.250000  1
  Al  Al18  1  0.332868  0.333238  0.944047  1
  Al  Al19  1  0.334477  0.000410  0.076759  1
  Al  Al20  1  0.666075  0.000165  0.574371  1
  Al  Al21  1  0.000461  0.334532  0.076383  1
  Pt  Pt22  1  0.331391  0.672428  0.498028  1
  Pt  Pt23  1  0.331391  0.672428  0.001972  1
  Pt  Pt24  1  0.670931  0.328500  0.497964  1
  Pt  Pt25  1  0.997648  0.999479  0.002332  1
  Pt  Pt26  1  0.997648  0.999479  0.497668  1
  Pt  Pt27  1  0.670931  0.328500  0.002036  1
