# generated using pymatgen
data_Y2PaMnFe2(CoP)6
_symmetry_space_group_name_H-M   'P 1'
_cell_length_a   3.70538200
_cell_length_b   10.55713700
_cell_length_c   12.14655300
_cell_angle_alpha   90.00000000
_cell_angle_beta   90.00000000
_cell_angle_gamma   90.00000000
_symmetry_Int_Tables_number   1
_chemical_formula_structural   Y2PaMnFe2(CoP)6
_chemical_formula_sum   'Y4 Pa2 Mn2 Fe4 Co12 P12'
_cell_volume   475.15159822
_cell_formula_units_Z   2
loop_
 _symmetry_equiv_pos_site_id
 _symmetry_equiv_pos_as_xyz
  1  'x, y, z'
loop_
 _atom_site_type_symbol
 _atom_site_label
 _atom_site_symmetry_multiplicity
 _atom_site_fract_x
 _atom_site_fract_y
 _atom_site_fract_z
 _atom_site_occupancy
  Y  Y0  1  0.500000  0.817570  0.203848  1
  Y  Y1  1  0.500000  0.182430  0.203848  1
  Y  Y2  1  0.000000  0.682719  0.796639  1
  Y  Y3  1  0.000000  0.317281  0.796639  1
  Pa  Pa4  1  0.000000  0.500000  0.529064  1
  Pa  Pa5  1  0.500000  0.000000  0.471101  1
  Mn  Mn6  1  0.500000  0.500000  0.149994  1
  Mn  Mn7  1  0.000000  0.000000  0.844617  1
  Fe  Fe8  1  0.000000  0.500000  0.988192  1
  Fe  Fe9  1  0.500000  0.000000  0.012708  1
  Fe  Fe10  1  0.500000  0.332341  0.995200  1
  Fe  Fe11  1  0.500000  0.667659  0.995200  1
  Co  Co12  1  0.500000  0.500000  0.694725  1
  Co  Co13  1  0.000000  0.000000  0.305038  1
  Co  Co14  1  0.000000  0.165306  0.005196  1
  Co  Co15  1  0.000000  0.834694  0.005196  1
  Co  Co16  1  0.500000  0.300435  0.433010  1
  Co  Co17  1  0.500000  0.699565  0.433010  1
  Co  Co18  1  0.000000  0.199286  0.567548  1
  Co  Co19  1  0.000000  0.800714  0.567548  1
  Co  Co20  1  0.500000  0.880469  0.710017  1
  Co  Co21  1  0.500000  0.119531  0.710017  1
  Co  Co22  1  0.000000  0.620670  0.290661  1
  Co  Co23  1  0.000000  0.379330  0.290661  1
  P  P24  1  0.500000  0.500000  0.882566  1
  P  P25  1  0.000000  0.000000  0.117804  1
  P  P26  1  0.500000  0.500000  0.343710  1
  P  P27  1  0.000000  0.000000  0.657778  1
  P  P28  1  0.500000  0.305792  0.617933  1
  P  P29  1  0.500000  0.694208  0.617933  1
  P  P30  1  0.000000  0.193962  0.382910  1
  P  P31  1  0.000000  0.806038  0.382910  1
  P  P32  1  0.500000  0.846910  0.894656  1
  P  P33  1  0.500000  0.153090  0.894656  1
  P  P34  1  0.000000  0.655746  0.103737  1
  P  P35  1  0.000000  0.344254  0.103737  1
