# generated using pymatgen
data_TbZnCdCu3
_symmetry_space_group_name_H-M   'P 1'
_cell_length_a   5.17635259
_cell_length_b   5.17635181
_cell_length_c   5.13938505
_cell_angle_alpha   59.76176759
_cell_angle_beta   59.76177137
_cell_angle_gamma   60.00001158
_symmetry_Int_Tables_number   1
_chemical_formula_structural   TbZnCdCu3
_chemical_formula_sum   'Tb1 Zn1 Cd1 Cu3'
_cell_volume   97.02208008
_cell_formula_units_Z   1
loop_
 _symmetry_equiv_pos_site_id
 _symmetry_equiv_pos_as_xyz
  1  'x, y, z'
loop_
 _atom_site_type_symbol
 _atom_site_label
 _atom_site_symmetry_multiplicity
 _atom_site_fract_x
 _atom_site_fract_y
 _atom_site_fract_z
 _atom_site_occupancy
  Tb  Tb0  1  0.248918  0.248918  0.253247  1
  Zn  Zn1  1  0.626185  0.626185  0.121444  1
  Cd  Cd2  1  0.999732  0.999732  0.000805  1
  Cu  Cu3  1  0.626156  0.122853  0.624834  1
  Cu  Cu4  1  0.122853  0.626156  0.624834  1
  Cu  Cu5  1  0.626156  0.626156  0.624834  1
