# generated using pymatgen
data_PrLu5(Si3Ru)8
_symmetry_space_group_name_H-M   'P 1'
_cell_length_a   10.10424444
_cell_length_b   10.10424354
_cell_length_c   8.11267716
_cell_angle_alpha   89.82793311
_cell_angle_beta   90.17206645
_cell_angle_gamma   132.62370841
_symmetry_Int_Tables_number   1
_chemical_formula_structural   PrLu5(Si3Ru)8
_chemical_formula_sum   'Pr1 Lu5 Si24 Ru8'
_cell_volume   609.45169504
_cell_formula_units_Z   1
loop_
 _symmetry_equiv_pos_site_id
 _symmetry_equiv_pos_as_xyz
  1  'x, y, z'
loop_
 _atom_site_type_symbol
 _atom_site_label
 _atom_site_symmetry_multiplicity
 _atom_site_fract_x
 _atom_site_fract_y
 _atom_site_fract_z
 _atom_site_occupancy
  Pr  Pr0  1  0.002771  0.502771  0.750000  1
  Lu  Lu1  1  0.500191  0.500184  0.499656  1
  Lu  Lu2  1  0.000184  0.000191  0.000344  1
  Lu  Lu3  1  0.502731  0.002731  0.750000  1
  Lu  Lu4  1  0.997963  0.497963  0.250000  1
  Lu  Lu5  1  0.498361  0.998361  0.250000  1
  Si  Si6  1  0.793039  0.203061  0.497082  1
  Si  Si7  1  0.297336  0.707312  0.002813  1
  Si  Si8  1  0.207312  0.797336  0.497187  1
  Si  Si9  1  0.703061  0.293039  0.002918  1
  Si  Si10  1  0.331365  0.333057  0.832433  1
  Si  Si11  1  0.667680  0.668046  0.166865  1
  Si  Si12  1  0.168046  0.167680  0.333135  1
  Si  Si13  1  0.833057  0.831365  0.667567  1
  Si  Si14  1  0.124510  0.890018  0.730171  1
  Si  Si15  1  0.110115  0.876879  0.272125  1
  Si  Si16  1  0.613650  0.381126  0.227694  1
  Si  Si17  1  0.618711  0.384757  0.771263  1
  Si  Si18  1  0.881126  0.113650  0.272306  1
  Si  Si19  1  0.884757  0.118711  0.728737  1
  Si  Si20  1  0.390018  0.624510  0.769829  1
  Si  Si21  1  0.376879  0.610115  0.227875  1
  Si  Si22  1  0.342994  0.111383  0.505002  1
  Si  Si23  1  0.886366  0.651202  0.490650  1
  Si  Si24  1  0.389135  0.157633  0.003064  1
  Si  Si25  1  0.847116  0.613399  0.998829  1
  Si  Si26  1  0.657633  0.889135  0.496936  1
  Si  Si27  1  0.113399  0.347116  0.501171  1
  Si  Si28  1  0.611383  0.842994  0.994998  1
  Si  Si29  1  0.151202  0.386366  0.009350  1
  Ru  Ru30  1  0.663236  0.325079  0.497084  1
  Ru  Ru31  1  0.174697  0.836479  0.004077  1
  Ru  Ru32  1  0.336479  0.674697  0.495923  1
  Ru  Ru33  1  0.825079  0.163236  0.002916  1
  Ru  Ru34  1  0.125854  0.126466  0.627991  1
  Ru  Ru35  1  0.873464  0.872633  0.372972  1
  Ru  Ru36  1  0.372633  0.373464  0.127028  1
  Ru  Ru37  1  0.626466  0.625854  0.872009  1
