# generated using pymatgen
data_Er2Tm10GaCo4Ir
_symmetry_space_group_name_H-M   'P 1'
_cell_length_a   8.13384575
_cell_length_b   8.13132115
_cell_length_c   8.13244703
_cell_angle_alpha   111.14440808
_cell_angle_beta   110.80997560
_cell_angle_gamma   106.48230463
_symmetry_Int_Tables_number   1
_chemical_formula_structural   Er2Tm10GaCo4Ir
_chemical_formula_sum   'Er2 Tm10 Ga1 Co4 Ir1'
_cell_volume   413.30396307
_cell_formula_units_Z   1
loop_
 _symmetry_equiv_pos_site_id
 _symmetry_equiv_pos_as_xyz
  1  'x, y, z'
loop_
 _atom_site_type_symbol
 _atom_site_label
 _atom_site_symmetry_multiplicity
 _atom_site_fract_x
 _atom_site_fract_y
 _atom_site_fract_z
 _atom_site_occupancy
  Er  Er0  1  0.581475  0.274208  0.306948  1
  Er  Er1  1  0.182648  0.218604  0.401481  1
  Tm  Tm2  1  0.182239  0.780760  0.963264  1
  Tm  Tm3  1  0.682501  0.487288  0.805513  1
  Tm  Tm4  1  0.682002  0.876840  0.195026  1
  Tm  Tm5  1  0.967480  0.274409  0.693428  1
  Tm  Tm6  1  0.032623  0.725341  0.306990  1
  Tm  Tm7  1  0.317709  0.122684  0.804842  1
  Tm  Tm8  1  0.317682  0.513203  0.194847  1
  Tm  Tm9  1  0.817259  0.218715  0.035747  1
  Tm  Tm10  1  0.817559  0.781485  0.598821  1
  Tm  Tm11  1  0.418898  0.726002  0.693261  1
  Ga  Ga12  1  0.499977  0.999749  0.500150  1
  Co  Co13  1  0.886384  0.886466  0.999507  1
  Co  Co14  1  0.372091  0.500154  0.872402  1
  Co  Co15  1  0.627974  0.500139  0.127765  1
  Co  Co16  1  0.112752  0.113142  0.999200  1
  Ir  Ir17  1  0.000746  0.500810  0.500807  1
