# generated using pymatgen
data_Hf2Sc4Sn5
_symmetry_space_group_name_H-M   'P 1'
_cell_length_a   10.98761209
_cell_length_b   10.98761230
_cell_length_c   10.98761098
_cell_angle_alpha   148.31613388
_cell_angle_beta   132.27852947
_cell_angle_gamma   58.41961285
_symmetry_Int_Tables_number   1
_chemical_formula_structural   Hf2Sc4Sn5
_chemical_formula_sum   'Hf4 Sc8 Sn10'
_cell_volume   511.41826836
_cell_formula_units_Z   2
loop_
 _symmetry_equiv_pos_site_id
 _symmetry_equiv_pos_as_xyz
  1  'x, y, z'
loop_
 _atom_site_type_symbol
 _atom_site_label
 _atom_site_symmetry_multiplicity
 _atom_site_fract_x
 _atom_site_fract_y
 _atom_site_fract_z
 _atom_site_occupancy
  Hf  Hf0  1  0.308465  0.558465  0.250000  1
  Hf  Hf1  1  0.691535  0.441535  0.750000  1
  Hf  Hf2  1  0.691535  0.941535  0.250000  1
  Hf  Hf3  1  0.308465  0.058465  0.750000  1
  Sc  Sc4  1  0.676049  0.436341  0.239708  1
  Sc  Sc5  1  0.323951  0.563659  0.760292  1
  Sc  Sc6  1  0.196634  0.936341  0.260292  1
  Sc  Sc7  1  0.803366  0.063659  0.739708  1
  Sc  Sc8  1  0.258855  0.143406  0.115449  1
  Sc  Sc9  1  0.741145  0.856594  0.884551  1
  Sc  Sc10  1  0.027956  0.643406  0.384551  1
  Sc  Sc11  1  0.972044  0.356594  0.615449  1
  Sn  Sn12  1  0.593712  0.290746  0.302966  1
  Sn  Sn13  1  0.406288  0.709254  0.697034  1
  Sn  Sn14  1  0.987780  0.790746  0.197034  1
  Sn  Sn15  1  0.012220  0.209254  0.802966  1
  Sn  Sn16  1  0.000000  0.250000  0.250000  1
  Sn  Sn17  1  0.000000  0.750000  0.750000  1
  Sn  Sn18  1  0.469980  0.069828  0.400151  1
  Sn  Sn19  1  0.530020  0.930172  0.599849  1
  Sn  Sn20  1  0.669677  0.569828  0.099849  1
  Sn  Sn21  1  0.330323  0.430172  0.900151  1
