# generated using pymatgen
data_Y2HfScIr2
_symmetry_space_group_name_H-M   'P 1'
_cell_length_a   4.48309300
_cell_length_b   7.04951500
_cell_length_c   8.42865100
_cell_angle_alpha   90.00000000
_cell_angle_beta   90.00000000
_cell_angle_gamma   90.00000000
_symmetry_Int_Tables_number   1
_chemical_formula_structural   Y2HfScIr2
_chemical_formula_sum   'Y4 Hf2 Sc2 Ir4'
_cell_volume   266.37597898
_cell_formula_units_Z   2
loop_
 _symmetry_equiv_pos_site_id
 _symmetry_equiv_pos_as_xyz
  1  'x, y, z'
loop_
 _atom_site_type_symbol
 _atom_site_label
 _atom_site_symmetry_multiplicity
 _atom_site_fract_x
 _atom_site_fract_y
 _atom_site_fract_z
 _atom_site_occupancy
  Y  Y0  1  0.250000  0.015280  0.326503  1
  Y  Y1  1  0.250000  0.515280  0.173497  1
  Y  Y2  1  0.750000  0.983425  0.679490  1
  Y  Y3  1  0.750000  0.483425  0.820510  1
  Hf  Hf4  1  0.250000  0.139588  0.931328  1
  Hf  Hf5  1  0.250000  0.639588  0.568672  1
  Sc  Sc6  1  0.750000  0.857059  0.071218  1
  Sc  Sc7  1  0.750000  0.357059  0.428782  1
  Ir  Ir8  1  0.250000  0.267843  0.606754  1
  Ir  Ir9  1  0.250000  0.767843  0.893246  1
  Ir  Ir10  1  0.750000  0.736804  0.408716  1
  Ir  Ir11  1  0.750000  0.236804  0.091284  1
