# generated using pymatgen
data_Ho8Hf11Si16Pd
_symmetry_space_group_name_H-M   'P 1'
_cell_length_a   7.26434416
_cell_length_b   7.26434437
_cell_length_c   13.21989702
_cell_angle_alpha   89.80718768
_cell_angle_beta   90.19281120
_cell_angle_gamma   89.87464137
_symmetry_Int_Tables_number   1
_chemical_formula_structural   Ho8Hf11Si16Pd
_chemical_formula_sum   'Ho8 Hf11 Si16 Pd1'
_cell_volume   697.61360061
_cell_formula_units_Z   1
loop_
 _symmetry_equiv_pos_site_id
 _symmetry_equiv_pos_as_xyz
  1  'x, y, z'
loop_
 _atom_site_type_symbol
 _atom_site_label
 _atom_site_symmetry_multiplicity
 _atom_site_fract_x
 _atom_site_fract_y
 _atom_site_fract_z
 _atom_site_occupancy
  Ho  Ho0  1  0.998060  0.345531  0.210755  1
  Ho  Ho1  1  0.004986  0.653968  0.716922  1
  Ho  Ho2  1  0.155430  0.495095  0.464537  1
  Ho  Ho3  1  0.499549  0.848432  0.032978  1
  Ho  Ho4  1  0.848432  0.499549  0.967022  1
  Ho  Ho5  1  0.495095  0.155430  0.535463  1
  Ho  Ho6  1  0.345531  0.998060  0.789245  1
  Ho  Ho7  1  0.653968  0.004986  0.283078  1
  Hf  Hf8  1  0.824747  0.824747  0.500000  1
  Hf  Hf9  1  0.322543  0.676807  0.248643  1
  Hf  Hf10  1  0.676807  0.322543  0.751357  1
  Hf  Hf11  1  0.145765  0.996840  0.373321  1
  Hf  Hf12  1  0.855971  0.003178  0.878824  1
  Hf  Hf13  1  0.503228  0.646303  0.626216  1
  Hf  Hf14  1  0.354840  0.493795  0.877649  1
  Hf  Hf15  1  0.493795  0.354840  0.122351  1
  Hf  Hf16  1  0.646303  0.503228  0.373784  1
  Hf  Hf17  1  0.996840  0.145765  0.626679  1
  Hf  Hf18  1  0.003178  0.855971  0.121176  1
  Si  Si19  1  0.358545  0.295944  0.315951  1
  Si  Si20  1  0.640558  0.704860  0.819940  1
  Si  Si21  1  0.206991  0.860598  0.568847  1
  Si  Si22  1  0.134311  0.781308  0.928586  1
  Si  Si23  1  0.781308  0.134311  0.071414  1
  Si  Si24  1  0.860598  0.206991  0.431153  1
  Si  Si25  1  0.295944  0.358545  0.684049  1
  Si  Si26  1  0.704860  0.640558  0.180060  1
  Si  Si27  1  0.293284  0.055320  0.185052  1
  Si  Si28  1  0.704070  0.950180  0.686806  1
  Si  Si29  1  0.450296  0.796845  0.435111  1
  Si  Si30  1  0.208338  0.560057  0.063603  1
  Si  Si31  1  0.560057  0.208338  0.936397  1
  Si  Si32  1  0.796845  0.450296  0.564889  1
  Si  Si33  1  0.055320  0.293284  0.814948  1
  Si  Si34  1  0.950180  0.704070  0.313194  1
  Pd  Pd35  1  0.173427  0.173427  0.000000  1
