# generated using pymatgen
data_SmTh7RhS17
_symmetry_space_group_name_H-M   'P 1'
_cell_length_a   8.04874041
_cell_length_b   8.02355684
_cell_length_c   10.64987300
_cell_angle_alpha   80.61245040
_cell_angle_beta   80.59389039
_cell_angle_gamma   64.84094600
_symmetry_Int_Tables_number   1
_chemical_formula_structural   SmTh7RhS17
_chemical_formula_sum   'Sm1 Th7 Rh1 S17'
_cell_volume   610.76098377
_cell_formula_units_Z   1
loop_
 _symmetry_equiv_pos_site_id
 _symmetry_equiv_pos_as_xyz
  1  'x, y, z'
loop_
 _atom_site_type_symbol
 _atom_site_label
 _atom_site_symmetry_multiplicity
 _atom_site_fract_x
 _atom_site_fract_y
 _atom_site_fract_z
 _atom_site_occupancy
  Sm  Sm0  1  0.812963  0.303080  0.297665  1
  Th  Th1  1  0.300157  0.813857  0.293423  1
  Th  Th2  1  0.185690  0.698927  0.704402  1
  Th  Th3  1  0.699056  0.187486  0.703348  1
  Th  Th4  1  0.206044  0.205451  0.544081  1
  Th  Th5  1  0.793622  0.795844  0.451633  1
  Th  Th6  1  0.682111  0.676396  0.978839  1
  Th  Th7  1  0.318752  0.319464  0.025420  1
  Rh  Rh8  1  0.001282  0.999684  0.999585  1
  S  S9  1  0.824676  0.431050  0.533072  1
  S  S10  1  0.431142  0.821040  0.531369  1
  S  S11  1  0.176699  0.569094  0.468277  1
  S  S12  1  0.569994  0.175902  0.470729  1
  S  S13  1  0.948424  0.315379  0.025603  1
  S  S14  1  0.317249  0.948427  0.023628  1
  S  S15  1  0.051910  0.682691  0.974432  1
  S  S16  1  0.683519  0.052953  0.974050  1
  S  S17  1  0.211737  0.205902  0.279477  1
  S  S18  1  0.791384  0.790626  0.721415  1
  S  S19  1  0.056048  0.056402  0.776035  1
  S  S20  1  0.943856  0.946232  0.224030  1
  S  S21  1  0.304275  0.303961  0.756668  1
  S  S22  1  0.691898  0.699750  0.242530  1
  S  S23  1  0.519392  0.521807  0.832262  1
  S  S24  1  0.476644  0.482008  0.164821  1
  S  S25  1  0.001478  0.996587  0.503204  1
