# generated using pymatgen
data_K4SbRhCl12
_symmetry_space_group_name_H-M   'P 1'
_cell_length_a   7.10229000
_cell_length_b   7.10229000
_cell_length_c   10.39444400
_cell_angle_alpha   90.00000000
_cell_angle_beta   90.00000000
_cell_angle_gamma   90.00000000
_symmetry_Int_Tables_number   1
_chemical_formula_structural   K4SbRhCl12
_chemical_formula_sum   'K4 Sb1 Rh1 Cl12'
_cell_volume   524.32198308
_cell_formula_units_Z   1
loop_
 _symmetry_equiv_pos_site_id
 _symmetry_equiv_pos_as_xyz
  1  'x, y, z'
loop_
 _atom_site_type_symbol
 _atom_site_label
 _atom_site_symmetry_multiplicity
 _atom_site_fract_x
 _atom_site_fract_y
 _atom_site_fract_z
 _atom_site_occupancy
  K  K0  1  0.500000  0.000000  0.798805  1
  K  K1  1  0.000000  0.500000  0.201195  1
  K  K2  1  0.500000  0.000000  0.201195  1
  K  K3  1  0.000000  0.500000  0.798805  1
  Sb  Sb4  1  0.500000  0.500000  0.500000  1
  Rh  Rh5  1  0.000000  0.000000  0.000000  1
  Cl  Cl6  1  0.000000  0.000000  0.770737  1
  Cl  Cl7  1  0.500000  0.500000  0.265219  1
  Cl  Cl8  1  0.739267  0.739267  0.500000  1
  Cl  Cl9  1  0.236218  0.236218  0.000000  1
  Cl  Cl10  1  0.739267  0.260733  0.500000  1
  Cl  Cl11  1  0.236218  0.763782  0.000000  1
  Cl  Cl12  1  0.000000  0.000000  0.229263  1
  Cl  Cl13  1  0.500000  0.500000  0.734781  1
  Cl  Cl14  1  0.260733  0.260733  0.500000  1
  Cl  Cl15  1  0.763782  0.763782  0.000000  1
  Cl  Cl16  1  0.260733  0.739267  0.500000  1
  Cl  Cl17  1  0.763782  0.236218  0.000000  1
