# generated using pymatgen
data_Rb2TcN3
_symmetry_space_group_name_H-M   'P 1'
_cell_length_a   6.92593300
_cell_length_b   6.92593157
_cell_length_c   13.73798500
_cell_angle_alpha   90.00000000
_cell_angle_beta   90.00000000
_cell_angle_gamma   127.25598830
_symmetry_Int_Tables_number   1
_chemical_formula_structural   Rb2TcN3
_chemical_formula_sum   'Rb8 Tc4 N12'
_cell_volume   524.51650758
_cell_formula_units_Z   4
loop_
 _symmetry_equiv_pos_site_id
 _symmetry_equiv_pos_as_xyz
  1  'x, y, z'
loop_
 _atom_site_type_symbol
 _atom_site_label
 _atom_site_symmetry_multiplicity
 _atom_site_fract_x
 _atom_site_fract_y
 _atom_site_fract_z
 _atom_site_occupancy
  Rb  Rb0  1  0.863083  0.136917  0.425416  1
  Rb  Rb1  1  0.363083  0.636917  0.074584  1
  Rb  Rb2  1  0.636917  0.363083  0.925416  1
  Rb  Rb3  1  0.136917  0.863083  0.574584  1
  Rb  Rb4  1  0.444979  0.555021  0.638210  1
  Rb  Rb5  1  0.555021  0.444979  0.361790  1
  Rb  Rb6  1  0.055021  0.944979  0.138210  1
  Rb  Rb7  1  0.944979  0.055021  0.861790  1
  Tc  Tc8  1  0.757158  0.242842  0.674204  1
  Tc  Tc9  1  0.742842  0.257158  0.174204  1
  Tc  Tc10  1  0.242842  0.757158  0.325796  1
  Tc  Tc11  1  0.257158  0.742842  0.825796  1
  N  N12  1  0.973384  0.526616  0.750000  1
  N  N13  1  0.526616  0.973384  0.250000  1
  N  N14  1  0.026616  0.473384  0.250000  1
  N  N15  1  0.473384  0.026616  0.750000  1
  N  N16  1  0.394372  0.605628  0.858785  1
  N  N17  1  0.605628  0.394372  0.141215  1
  N  N18  1  0.105628  0.894372  0.358785  1
  N  N19  1  0.677291  0.322709  0.568155  1
  N  N20  1  0.177291  0.822709  0.931845  1
  N  N21  1  0.822709  0.177291  0.068155  1
  N  N22  1  0.322709  0.677291  0.431845  1
  N  N23  1  0.894372  0.105628  0.641215  1
