# generated using pymatgen
data_CePr3(B2Ir5)2
_symmetry_space_group_name_H-M   'P 1'
_cell_length_a   11.15790916
_cell_length_b   11.15790902
_cell_length_c   11.15791044
_cell_angle_alpha   28.74595873
_cell_angle_beta   28.74596091
_cell_angle_gamma   28.74596061
_symmetry_Int_Tables_number   1
_chemical_formula_structural   CePr3(B2Ir5)2
_chemical_formula_sum   'Ce1 Pr3 B4 Ir10'
_cell_volume   284.08092072
_cell_formula_units_Z   1
loop_
 _symmetry_equiv_pos_site_id
 _symmetry_equiv_pos_as_xyz
  1  'x, y, z'
loop_
 _atom_site_type_symbol
 _atom_site_label
 _atom_site_symmetry_multiplicity
 _atom_site_fract_x
 _atom_site_fract_y
 _atom_site_fract_z
 _atom_site_occupancy
  Ce  Ce0  1  0.050337  0.050337  0.050337  1
  Pr  Pr1  1  0.151978  0.151978  0.151978  1
  Pr  Pr2  1  0.950439  0.950439  0.950439  1
  Pr  Pr3  1  0.848528  0.848528  0.848528  1
  B  B4  1  0.618158  0.618158  0.618158  1
  B  B5  1  0.716402  0.716402  0.716402  1
  B  B6  1  0.381513  0.381513  0.381513  1
  B  B7  1  0.283421  0.283421  0.283421  1
  Ir  Ir8  1  0.408672  0.898129  0.408672  1
  Ir  Ir9  1  0.898129  0.408672  0.408672  1
  Ir  Ir10  1  0.500354  0.500354  0.000310  1
  Ir  Ir11  1  0.500354  0.000310  0.500354  1
  Ir  Ir12  1  0.000310  0.500354  0.500354  1
  Ir  Ir13  1  0.499716  0.499716  0.499716  1
  Ir  Ir14  1  0.590715  0.101586  0.590715  1
  Ir  Ir15  1  0.590715  0.590715  0.101586  1
  Ir  Ir16  1  0.101586  0.590715  0.590715  1
  Ir  Ir17  1  0.408672  0.408672  0.898129  1
