# generated using pymatgen
data_Tm8Sc11InGa16
_symmetry_space_group_name_H-M   'P 1'
_cell_length_a   7.18557422
_cell_length_b   7.52748644
_cell_length_c   14.40170400
_cell_angle_alpha   90.00000000
_cell_angle_beta   90.00000000
_cell_angle_gamma   89.84966516
_symmetry_Int_Tables_number   1
_chemical_formula_structural   Tm8Sc11InGa16
_chemical_formula_sum   'Tm8 Sc11 In1 Ga16'
_cell_volume   778.97558680
_cell_formula_units_Z   1
loop_
 _symmetry_equiv_pos_site_id
 _symmetry_equiv_pos_as_xyz
  1  'x, y, z'
loop_
 _atom_site_type_symbol
 _atom_site_label
 _atom_site_symmetry_multiplicity
 _atom_site_fract_x
 _atom_site_fract_y
 _atom_site_fract_z
 _atom_site_occupancy
  Tm  Tm0  1  0.008049  0.177459  0.093947  1
  Tm  Tm1  1  0.990689  0.820136  0.905443  1
  Tm  Tm2  1  0.491770  0.677790  0.905546  1
  Tm  Tm3  1  0.990689  0.820136  0.594557  1
  Tm  Tm4  1  0.510798  0.319322  0.093222  1
  Tm  Tm5  1  0.008049  0.177459  0.406053  1
  Tm  Tm6  1  0.510798  0.319322  0.406778  1
  Tm  Tm7  1  0.491770  0.677790  0.594454  1
  Sc  Sc8  1  0.838307  0.496081  0.250000  1
  Sc  Sc9  1  0.337019  0.003978  0.250000  1
  Sc  Sc10  1  0.660433  0.997545  0.750000  1
  Sc  Sc11  1  0.327686  0.174474  0.622884  1
  Sc  Sc12  1  0.670489  0.828006  0.375865  1
  Sc  Sc13  1  0.170716  0.675930  0.375312  1
  Sc  Sc14  1  0.670489  0.828006  0.124135  1
  Sc  Sc15  1  0.830828  0.329025  0.623400  1
  Sc  Sc16  1  0.327686  0.174474  0.877116  1
  Sc  Sc17  1  0.830828  0.329025  0.876600  1
  Sc  Sc18  1  0.170716  0.675930  0.124688  1
  In  In19  1  0.158940  0.504072  0.750000  1
  Ga  Ga20  1  0.026076  0.106150  0.750000  1
  Ga  Ga21  1  0.968668  0.883131  0.250000  1
  Ga  Ga22  1  0.469308  0.615421  0.250000  1
  Ga  Ga23  1  0.536215  0.380544  0.750000  1
  Ga  Ga24  1  0.291586  0.875038  0.750000  1
  Ga  Ga25  1  0.716228  0.130946  0.250000  1
  Ga  Ga26  1  0.216183  0.369860  0.250000  1
  Ga  Ga27  1  0.776000  0.638517  0.750000  1
  Ga  Ga28  1  0.163391  0.462651  0.535583  1
  Ga  Ga29  1  0.837150  0.535357  0.460365  1
  Ga  Ga30  1  0.338100  0.965556  0.459664  1
  Ga  Ga31  1  0.837150  0.535357  0.039635  1
  Ga  Ga32  1  0.662852  0.033651  0.540845  1
  Ga  Ga33  1  0.163391  0.462651  0.964417  1
  Ga  Ga34  1  0.662852  0.033651  0.959155  1
  Ga  Ga35  1  0.338100  0.965556  0.040336  1
