# generated using pymatgen
data_Tm4MgSc3Ir4
_symmetry_space_group_name_H-M   'P 1'
_cell_length_a   4.29671900
_cell_length_b   6.99983728
_cell_length_c   8.34077400
_cell_angle_alpha   88.12437968
_cell_angle_beta   90.00000000
_cell_angle_gamma   90.00000000
_symmetry_Int_Tables_number   1
_chemical_formula_structural   Tm4MgSc3Ir4
_chemical_formula_sum   'Tm4 Mg1 Sc3 Ir4'
_cell_volume   250.72550090
_cell_formula_units_Z   1
loop_
 _symmetry_equiv_pos_site_id
 _symmetry_equiv_pos_as_xyz
  1  'x, y, z'
loop_
 _atom_site_type_symbol
 _atom_site_label
 _atom_site_symmetry_multiplicity
 _atom_site_fract_x
 _atom_site_fract_y
 _atom_site_fract_z
 _atom_site_occupancy
  Tm  Tm0  1  0.250000  0.033143  0.666408  1
  Tm  Tm1  1  0.250000  0.522078  0.824171  1
  Tm  Tm2  1  0.750000  0.986530  0.332490  1
  Tm  Tm3  1  0.750000  0.465582  0.176718  1
  Mg  Mg4  1  0.750000  0.359172  0.565931  1
  Sc  Sc5  1  0.250000  0.134400  0.065266  1
  Sc  Sc6  1  0.250000  0.644094  0.437740  1
  Sc  Sc7  1  0.750000  0.855797  0.935591  1
  Ir  Ir8  1  0.250000  0.263728  0.373497  1
  Ir  Ir9  1  0.250000  0.747610  0.111486  1
  Ir  Ir10  1  0.750000  0.748648  0.619357  1
  Ir  Ir11  1  0.750000  0.239217  0.891347  1
