# generated using pymatgen
data_Tm2Mn3Co7Ni2As7
_symmetry_space_group_name_H-M   'P 1'
_cell_length_a   9.42184807
_cell_length_b   9.46335887
_cell_length_c   3.73557700
_cell_angle_alpha   90.00000000
_cell_angle_beta   90.00000000
_cell_angle_gamma   120.17958932
_symmetry_Int_Tables_number   1
_chemical_formula_structural   Tm2Mn3Co7Ni2As7
_chemical_formula_sum   'Tm2 Mn3 Co7 Ni2 As7'
_cell_volume   287.92604891
_cell_formula_units_Z   1
loop_
 _symmetry_equiv_pos_site_id
 _symmetry_equiv_pos_as_xyz
  1  'x, y, z'
loop_
 _atom_site_type_symbol
 _atom_site_label
 _atom_site_symmetry_multiplicity
 _atom_site_fract_x
 _atom_site_fract_y
 _atom_site_fract_z
 _atom_site_occupancy
  Tm  Tm0  1  0.000237  0.003313  0.000000  1
  Tm  Tm1  1  0.331823  0.664431  0.500000  1
  Mn  Mn2  1  0.886086  0.435713  0.500000  1
  Mn  Mn3  1  0.564969  0.450265  0.500000  1
  Mn  Mn4  1  0.549932  0.114726  0.500000  1
  Co  Co5  1  0.824966  0.613227  0.000000  1
  Co  Co6  1  0.386988  0.211451  0.000000  1
  Co  Co7  1  0.785968  0.175040  0.000000  1
  Co  Co8  1  0.054313  0.769019  0.500000  1
  Co  Co9  1  0.231561  0.283189  0.500000  1
  Co  Co10  1  0.718012  0.948126  0.500000  1
  Co  Co11  1  0.097014  0.394881  0.000000  1
  Ni  Ni12  1  0.604469  0.701967  0.000000  1
  Ni  Ni13  1  0.296116  0.900651  0.000000  1
  As  As14  1  0.667104  0.333937  0.000000  1
  As  As15  1  0.791743  0.746263  0.500000  1
  As  As16  1  0.254436  0.044530  0.500000  1
  As  As17  1  0.957526  0.214895  0.500000  1
  As  As18  1  0.078939  0.630086  0.000000  1
  As  As19  1  0.363564  0.444968  0.000000  1
  As  As20  1  0.554235  0.919321  0.000000  1
