# generated using pymatgen
data_Cd2Ir3Ru(PbO7)2
_symmetry_space_group_name_H-M   'P 1'
_cell_length_a   7.30528779
_cell_length_b   7.30528722
_cell_length_c   7.35492207
_cell_angle_alpha   59.68949825
_cell_angle_beta   59.68949676
_cell_angle_gamma   59.63056307
_symmetry_Int_Tables_number   1
_chemical_formula_structural   Cd2Ir3Ru(PbO7)2
_chemical_formula_sum   'Cd2 Ir3 Ru1 Pb2 O14'
_cell_volume   275.46575920
_cell_formula_units_Z   1
loop_
 _symmetry_equiv_pos_site_id
 _symmetry_equiv_pos_as_xyz
  1  'x, y, z'
loop_
 _atom_site_type_symbol
 _atom_site_label
 _atom_site_symmetry_multiplicity
 _atom_site_fract_x
 _atom_site_fract_y
 _atom_site_fract_z
 _atom_site_occupancy
  Cd  Cd0  1  0.625000  0.125000  0.125000  1
  Cd  Cd1  1  0.125000  0.625000  0.125000  1
  Ir  Ir2  1  0.125000  0.625000  0.625000  1
  Ir  Ir3  1  0.625000  0.125000  0.625000  1
  Ir  Ir4  1  0.625000  0.625000  0.125000  1
  Ru  Ru5  1  0.625000  0.625000  0.625000  1
  Pb  Pb6  1  0.125000  0.125000  0.625000  1
  Pb  Pb7  1  0.125000  0.125000  0.125000  1
  O  O8  1  0.689972  0.689972  0.310693  1
  O  O9  1  0.294565  0.294565  0.705583  1
  O  O10  1  0.707438  0.300747  0.687660  1
  O  O11  1  0.295820  0.708137  0.298828  1
  O  O12  1  0.300747  0.707438  0.687660  1
  O  O13  1  0.708137  0.295820  0.298828  1
  O  O14  1  0.560028  0.560028  0.939307  1
  O  O15  1  0.955435  0.955435  0.544417  1
  O  O16  1  0.542562  0.949253  0.562340  1
  O  O17  1  0.954180  0.541863  0.951172  1
  O  O18  1  0.949253  0.542562  0.562340  1
  O  O19  1  0.541863  0.954180  0.951172  1
  O  O20  1  0.263030  0.263030  0.235961  1
  O  O21  1  0.986970  0.986970  0.014039  1
