# generated using pymatgen
data_Dy3Er3Tm10Cd3AgIr4
_symmetry_space_group_name_H-M   'P 1'
_cell_length_a   9.53640544
_cell_length_b   9.53553866
_cell_length_c   9.54035400
_cell_angle_alpha   59.98638860
_cell_angle_beta   60.01670231
_cell_angle_gamma   60.02923119
_symmetry_Int_Tables_number   1
_chemical_formula_structural   Dy3Er3Tm10Cd3AgIr4
_chemical_formula_sum   'Dy3 Er3 Tm10 Cd3 Ag1 Ir4'
_cell_volume   613.60002445
_cell_formula_units_Z   1
loop_
 _symmetry_equiv_pos_site_id
 _symmetry_equiv_pos_as_xyz
  1  'x, y, z'
loop_
 _atom_site_type_symbol
 _atom_site_label
 _atom_site_symmetry_multiplicity
 _atom_site_fract_x
 _atom_site_fract_y
 _atom_site_fract_z
 _atom_site_occupancy
  Dy  Dy0  1  0.187036  0.811539  0.812091  1
  Dy  Dy1  1  0.812565  0.187012  0.188131  1
  Dy  Dy2  1  0.811421  0.186956  0.811457  1
  Er  Er3  1  0.188178  0.811588  0.188180  1
  Er  Er4  1  0.811224  0.810727  0.187748  1
  Er  Er5  1  0.188979  0.187838  0.811751  1
  Tm  Tm6  1  0.598745  0.598455  0.598865  1
  Tm  Tm7  1  0.599418  0.598863  0.202685  1
  Tm  Tm8  1  0.599131  0.203452  0.598929  1
  Tm  Tm9  1  0.202728  0.598984  0.599370  1
  Tm  Tm10  1  0.060754  0.439762  0.438277  1
  Tm  Tm11  1  0.438285  0.061088  0.060523  1
  Tm  Tm12  1  0.438855  0.061149  0.438914  1
  Tm  Tm13  1  0.060860  0.439146  0.060800  1
  Tm  Tm14  1  0.438117  0.439576  0.060841  1
  Tm  Tm15  1  0.060642  0.061342  0.438143  1
  Cd  Cd16  1  0.831191  0.830763  0.508352  1
  Cd  Cd17  1  0.831158  0.509320  0.830551  1
  Cd  Cd18  1  0.508344  0.831288  0.831173  1
  Ag  Ag19  1  0.831777  0.831522  0.832685  1
  Ir  Ir20  1  0.391542  0.391610  0.392296  1
  Ir  Ir21  1  0.391875  0.391294  0.824787  1
  Ir  Ir22  1  0.392305  0.824677  0.391581  1
  Ir  Ir23  1  0.824863  0.392049  0.391868  1
