# generated using pymatgen
data_Dy19Mg(Cd3Ru)2
_symmetry_space_group_name_H-M   'P 1'
_cell_length_a   9.56822800
_cell_length_b   9.56822755
_cell_length_c   9.74972100
_cell_angle_alpha   90.00000000
_cell_angle_beta   90.00000000
_cell_angle_gamma   120.00000155
_symmetry_Int_Tables_number   1
_chemical_formula_structural   Dy19Mg(Cd3Ru)2
_chemical_formula_sum   'Dy19 Mg1 Cd6 Ru2'
_cell_volume   773.01126632
_cell_formula_units_Z   1
loop_
 _symmetry_equiv_pos_site_id
 _symmetry_equiv_pos_as_xyz
  1  'x, y, z'
loop_
 _atom_site_type_symbol
 _atom_site_label
 _atom_site_symmetry_multiplicity
 _atom_site_fract_x
 _atom_site_fract_y
 _atom_site_fract_z
 _atom_site_occupancy
  Dy  Dy0  1  0.000000  0.000000  0.000000  1
  Dy  Dy1  1  0.207922  0.792078  0.439515  1
  Dy  Dy2  1  0.207922  0.415845  0.439515  1
  Dy  Dy3  1  0.584155  0.792078  0.439515  1
  Dy  Dy4  1  0.792078  0.207922  0.560485  1
  Dy  Dy5  1  0.792078  0.584155  0.560485  1
  Dy  Dy6  1  0.415845  0.207922  0.560485  1
  Dy  Dy7  1  0.789277  0.210723  0.941212  1
  Dy  Dy8  1  0.789277  0.578554  0.941212  1
  Dy  Dy9  1  0.421446  0.210723  0.941212  1
  Dy  Dy10  1  0.210723  0.789277  0.058788  1
  Dy  Dy11  1  0.210723  0.421446  0.058788  1
  Dy  Dy12  1  0.578554  0.789277  0.058788  1
  Dy  Dy13  1  0.541177  0.458823  0.251748  1
  Dy  Dy14  1  0.541177  0.082353  0.251748  1
  Dy  Dy15  1  0.917647  0.458823  0.251748  1
  Dy  Dy16  1  0.458823  0.541177  0.748252  1
  Dy  Dy17  1  0.458823  0.917647  0.748252  1
  Dy  Dy18  1  0.082353  0.541177  0.748252  1
  Mg  Mg19  1  0.000000  0.000000  0.500000  1
  Cd  Cd20  1  0.887154  0.112846  0.256294  1
  Cd  Cd21  1  0.887154  0.774309  0.256294  1
  Cd  Cd22  1  0.225691  0.112846  0.256294  1
  Cd  Cd23  1  0.112846  0.887154  0.743706  1
  Cd  Cd24  1  0.112846  0.225691  0.743706  1
  Cd  Cd25  1  0.774309  0.887154  0.743706  1
  Ru  Ru26  1  0.333333  0.666667  0.250516  1
  Ru  Ru27  1  0.666667  0.333333  0.749484  1
