# generated using pymatgen
data_Fe21(B3Mo)2
_symmetry_space_group_name_H-M   'P 1'
_cell_length_a   7.50859114
_cell_length_b   7.50859180
_cell_length_c   7.50859200
_cell_angle_alpha   60.00000795
_cell_angle_beta   60.00000501
_cell_angle_gamma   60.00000374
_symmetry_Int_Tables_number   1
_chemical_formula_structural   Fe21(B3Mo)2
_chemical_formula_sum   'Fe21 B6 Mo2'
_cell_volume   299.33707798
_cell_formula_units_Z   1
loop_
 _symmetry_equiv_pos_site_id
 _symmetry_equiv_pos_as_xyz
  1  'x, y, z'
loop_
 _atom_site_type_symbol
 _atom_site_label
 _atom_site_symmetry_multiplicity
 _atom_site_fract_x
 _atom_site_fract_y
 _atom_site_fract_z
 _atom_site_occupancy
  Fe  Fe0  1  0.000000  0.342040  0.657960  1
  Fe  Fe1  1  0.342040  0.657960  0.000000  1
  Fe  Fe2  1  0.342040  0.000000  0.000000  1
  Fe  Fe3  1  0.657960  0.342040  0.000000  1
  Fe  Fe4  1  0.342040  0.000000  0.657960  1
  Fe  Fe5  1  0.382012  0.382012  0.853966  1
  Fe  Fe6  1  0.617988  0.617988  0.617988  1
  Fe  Fe7  1  0.000000  0.000000  0.657960  1
  Fe  Fe8  1  0.146034  0.617988  0.617988  1
  Fe  Fe9  1  0.000000  0.342040  0.000000  1
  Fe  Fe10  1  0.000000  0.657960  0.342040  1
  Fe  Fe11  1  0.657960  0.000000  0.342040  1
  Fe  Fe12  1  0.617988  0.146034  0.617988  1
  Fe  Fe13  1  0.000000  0.000000  0.000000  1
  Fe  Fe14  1  0.000000  0.000000  0.342040  1
  Fe  Fe15  1  0.000000  0.657960  0.000000  1
  Fe  Fe16  1  0.657960  0.000000  0.000000  1
  Fe  Fe17  1  0.382012  0.853966  0.382012  1
  Fe  Fe18  1  0.382012  0.382012  0.382012  1
  Fe  Fe19  1  0.853966  0.382012  0.382012  1
  Fe  Fe20  1  0.617988  0.617988  0.146034  1
  B  B21  1  0.724532  0.275468  0.275468  1
  B  B22  1  0.724532  0.724532  0.275468  1
  B  B23  1  0.275468  0.724532  0.724532  1
  B  B24  1  0.724532  0.275468  0.724532  1
  B  B25  1  0.275468  0.275468  0.724532  1
  B  B26  1  0.275468  0.724532  0.275468  1
  Mo  Mo27  1  0.250000  0.250000  0.250000  1
  Mo  Mo28  1  0.750000  0.750000  0.750000  1
