# generated using pymatgen
data_Ac2ZrS5
_symmetry_space_group_name_H-M   'P 1'
_cell_length_a   11.80192200
_cell_length_b   8.45061500
_cell_length_c   7.59854700
_cell_angle_alpha   90.00000000
_cell_angle_beta   90.00000000
_cell_angle_gamma   90.00000000
_symmetry_Int_Tables_number   1
_chemical_formula_structural   Ac2ZrS5
_chemical_formula_sum   'Ac8 Zr4 S20'
_cell_volume   757.82968025
_cell_formula_units_Z   4
loop_
 _symmetry_equiv_pos_site_id
 _symmetry_equiv_pos_as_xyz
  1  'x, y, z'
loop_
 _atom_site_type_symbol
 _atom_site_label
 _atom_site_symmetry_multiplicity
 _atom_site_fract_x
 _atom_site_fract_y
 _atom_site_fract_z
 _atom_site_occupancy
  Ac  Ac0  1  0.828605  0.502535  0.059869  1
  Ac  Ac1  1  0.828605  0.997465  0.059869  1
  Ac  Ac2  1  0.328605  0.502535  0.440132  1
  Ac  Ac3  1  0.328605  0.997465  0.440132  1
  Ac  Ac4  1  0.671395  0.002535  0.559868  1
  Ac  Ac5  1  0.671395  0.497465  0.559868  1
  Ac  Ac6  1  0.171395  0.002535  0.940132  1
  Ac  Ac7  1  0.171395  0.497465  0.940132  1
  Zr  Zr8  1  0.509393  0.249999  0.072749  1
  Zr  Zr9  1  0.009393  0.249999  0.427250  1
  Zr  Zr10  1  0.990607  0.749999  0.572750  1
  Zr  Zr11  1  0.490607  0.749999  0.927251  1
  S  S12  1  0.005966  0.249999  0.064145  1
  S  S13  1  0.310535  0.749999  0.135054  1
  S  S14  1  0.295852  0.249999  0.155799  1
  S  S15  1  0.570610  0.531896  0.174537  1
  S  S16  1  0.570610  0.968104  0.174537  1
  S  S17  1  0.070610  0.531896  0.325463  1
  S  S18  1  0.070610  0.968104  0.325463  1
  S  S19  1  0.795852  0.249999  0.344202  1
  S  S20  1  0.810535  0.749999  0.364945  1
  S  S21  1  0.505966  0.249999  0.435854  1
  S  S22  1  0.494034  0.749999  0.564146  1
  S  S23  1  0.189465  0.249999  0.635054  1
  S  S24  1  0.204148  0.749999  0.655798  1
  S  S25  1  0.929390  0.031896  0.674537  1
  S  S26  1  0.929390  0.468104  0.674537  1
  S  S27  1  0.429390  0.031896  0.825463  1
  S  S28  1  0.429390  0.468104  0.825463  1
  S  S29  1  0.704147  0.749999  0.844202  1
  S  S30  1  0.689465  0.249999  0.864946  1
  S  S31  1  0.994034  0.749999  0.935855  1
