# generated using pymatgen
data_Dy4ReTc2B16W
_symmetry_space_group_name_H-M   'P 1'
_cell_length_a   5.99105500
_cell_length_b   11.59236237
_cell_length_c   3.60798200
_cell_angle_alpha   90.00000000
_cell_angle_beta   90.00000000
_cell_angle_gamma   89.91063946
_symmetry_Int_Tables_number   1
_chemical_formula_structural   Dy4ReTc2B16W
_chemical_formula_sum   'Dy4 Re1 Tc2 B16 W1'
_cell_volume   250.57577899
_cell_formula_units_Z   1
loop_
 _symmetry_equiv_pos_site_id
 _symmetry_equiv_pos_as_xyz
  1  'x, y, z'
loop_
 _atom_site_type_symbol
 _atom_site_label
 _atom_site_symmetry_multiplicity
 _atom_site_fract_x
 _atom_site_fract_y
 _atom_site_fract_z
 _atom_site_occupancy
  Dy  Dy0  1  0.627051  0.347117  0.000000  1
  Dy  Dy1  1  0.371790  0.653020  0.000000  1
  Dy  Dy2  1  0.126512  0.147981  0.000000  1
  Dy  Dy3  1  0.873251  0.852518  0.000000  1
  Re  Re4  1  0.129873  0.413913  0.000000  1
  Tc  Tc5  1  0.634867  0.088540  0.000000  1
  Tc  Tc6  1  0.365686  0.912916  0.000000  1
  B  B7  1  0.786617  0.184482  0.500000  1
  B  B8  1  0.214655  0.816008  0.500000  1
  B  B9  1  0.287089  0.314402  0.500000  1
  B  B10  1  0.710602  0.687049  0.500000  1
  B  B11  1  0.863510  0.031265  0.500000  1
  B  B12  1  0.136673  0.968941  0.500000  1
  B  B13  1  0.364690  0.466914  0.500000  1
  B  B14  1  0.633212  0.531112  0.500000  1
  B  B15  1  0.886738  0.451028  0.500000  1
  B  B16  1  0.116943  0.546281  0.500000  1
  B  B17  1  0.386645  0.047097  0.500000  1
  B  B18  1  0.613439  0.953366  0.500000  1
  B  B19  1  0.977570  0.306313  0.500000  1
  B  B20  1  0.025134  0.693880  0.500000  1
  B  B21  1  0.475701  0.191580  0.500000  1
  B  B22  1  0.522799  0.808937  0.500000  1
  W  W23  1  0.868954  0.585340  0.000000  1
