# generated using pymatgen
data_BaLa(Sn2Ir)2
_symmetry_space_group_name_H-M   'P 1'
_cell_length_a   9.11341415
_cell_length_b   9.11341328
_cell_length_c   9.76015800
_cell_angle_alpha   90.00000000
_cell_angle_beta   90.00000000
_cell_angle_gamma   148.94419787
_symmetry_Int_Tables_number   1
_chemical_formula_structural   BaLa(Sn2Ir)2
_chemical_formula_sum   'Ba2 La2 Sn8 Ir4'
_cell_volume   418.17833154
_cell_formula_units_Z   2
loop_
 _symmetry_equiv_pos_site_id
 _symmetry_equiv_pos_as_xyz
  1  'x, y, z'
loop_
 _atom_site_type_symbol
 _atom_site_label
 _atom_site_symmetry_multiplicity
 _atom_site_fract_x
 _atom_site_fract_y
 _atom_site_fract_z
 _atom_site_occupancy
  Ba  Ba0  1  0.500000  0.500000  0.500000  1
  Ba  Ba1  1  0.500000  0.500000  0.000000  1
  La  La2  1  0.295146  0.704854  0.250000  1
  La  La3  1  0.704854  0.295146  0.750000  1
  Sn  Sn4  1  0.906190  0.093810  0.750000  1
  Sn  Sn5  1  0.919069  0.080931  0.250000  1
  Sn  Sn6  1  0.093810  0.906190  0.250000  1
  Sn  Sn7  1  0.080931  0.919069  0.750000  1
  Sn  Sn8  1  0.698163  0.301837  0.409961  1
  Sn  Sn9  1  0.301837  0.698163  0.590039  1
  Sn  Sn10  1  0.301837  0.698163  0.909961  1
  Sn  Sn11  1  0.698163  0.301837  0.090039  1
  Ir  Ir12  1  0.153009  0.846991  0.502059  1
  Ir  Ir13  1  0.846991  0.153009  0.002059  1
  Ir  Ir14  1  0.153009  0.846991  0.997941  1
  Ir  Ir15  1  0.846991  0.153009  0.497941  1
