# generated using pymatgen
data_Li4La3PrSn6
_symmetry_space_group_name_H-M   'P 1'
_cell_length_a   10.40619963
_cell_length_b   10.40619992
_cell_length_c   7.47572100
_cell_angle_alpha   90.00000000
_cell_angle_beta   90.00000000
_cell_angle_gamma   153.31407516
_symmetry_Int_Tables_number   1
_chemical_formula_structural   Li4La3PrSn6
_chemical_formula_sum   'Li4 La3 Pr1 Sn6'
_cell_volume   363.56326496
_cell_formula_units_Z   1
loop_
 _symmetry_equiv_pos_site_id
 _symmetry_equiv_pos_as_xyz
  1  'x, y, z'
loop_
 _atom_site_type_symbol
 _atom_site_label
 _atom_site_symmetry_multiplicity
 _atom_site_fract_x
 _atom_site_fract_y
 _atom_site_fract_z
 _atom_site_occupancy
  Li  Li0  1  0.805558  0.194442  0.436941  1
  Li  Li1  1  0.194185  0.805815  0.562386  1
  Li  Li2  1  0.805558  0.194442  0.063059  1
  Li  Li3  1  0.194185  0.805815  0.937614  1
  La  La4  1  0.549725  0.450275  0.750000  1
  La  La5  1  0.450680  0.549320  0.250000  1
  La  La6  1  0.341897  0.658103  0.750000  1
  Pr  Pr7  1  0.658017  0.341983  0.250000  1
  Sn  Sn8  1  0.932689  0.067311  0.943383  1
  Sn  Sn9  1  0.067678  0.932322  0.057174  1
  Sn  Sn10  1  0.932689  0.067311  0.556617  1
  Sn  Sn11  1  0.067678  0.932322  0.442826  1
  Sn  Sn12  1  0.719791  0.280209  0.750000  1
  Sn  Sn13  1  0.279671  0.720329  0.250000  1
