# generated using pymatgen
data_Li3ErTm2Si3
_symmetry_space_group_name_H-M   'P 1'
_cell_length_a   6.90073900
_cell_length_b   6.90735080
_cell_length_c   4.20863100
_cell_angle_alpha   90.00000000
_cell_angle_beta   90.00000000
_cell_angle_gamma   119.96833593
_symmetry_Int_Tables_number   1
_chemical_formula_structural   Li3ErTm2Si3
_chemical_formula_sum   'Li3 Er1 Tm2 Si3'
_cell_volume   173.78691640
_cell_formula_units_Z   1
loop_
 _symmetry_equiv_pos_site_id
 _symmetry_equiv_pos_as_xyz
  1  'x, y, z'
loop_
 _atom_site_type_symbol
 _atom_site_label
 _atom_site_symmetry_multiplicity
 _atom_site_fract_x
 _atom_site_fract_y
 _atom_site_fract_z
 _atom_site_occupancy
  Li  Li0  1  0.767832  0.000000  0.500001  1
  Li  Li1  1  0.232192  0.232250  0.500001  1
  Li  Li2  1  0.999943  0.767750  0.500001  1
  Er  Er3  1  0.428845  0.000000  0.000000  1
  Tm  Tm4  1  0.999997  0.428714  0.000000  1
  Tm  Tm5  1  0.571283  0.571287  0.000000  1
  Si  Si6  1  0.999781  0.000000  0.000000  1
  Si  Si7  1  0.666906  0.333688  0.500001  1
  Si  Si8  1  0.333218  0.666312  0.500001  1
