# generated using pymatgen
data_Ca6Cu16N
_symmetry_space_group_name_H-M   'P 1'
_cell_length_a   7.75825598
_cell_length_b   7.75825632
_cell_length_c   7.75825600
_cell_angle_alpha   109.47121718
_cell_angle_beta   109.47121808
_cell_angle_gamma   109.47122230
_symmetry_Int_Tables_number   1
_chemical_formula_structural   Ca6Cu16N
_chemical_formula_sum   'Ca6 Cu16 N1'
_cell_volume   359.47646912
_cell_formula_units_Z   1
loop_
 _symmetry_equiv_pos_site_id
 _symmetry_equiv_pos_as_xyz
  1  'x, y, z'
loop_
 _atom_site_type_symbol
 _atom_site_label
 _atom_site_symmetry_multiplicity
 _atom_site_fract_x
 _atom_site_fract_y
 _atom_site_fract_z
 _atom_site_occupancy
  Ca  Ca0  1  0.000000  0.266070  0.266070  1
  Ca  Ca1  1  0.266070  0.000000  0.266070  1
  Ca  Ca2  1  0.733930  0.000000  0.733930  1
  Ca  Ca3  1  0.733930  0.733930  0.000000  1
  Ca  Ca4  1  0.266070  0.266070  0.000000  1
  Ca  Ca5  1  0.000000  0.733930  0.733930  1
  Cu  Cu6  1  0.500000  0.500000  0.500000  1
  Cu  Cu7  1  0.500000  0.000000  0.000000  1
  Cu  Cu8  1  0.000000  0.500000  0.000000  1
  Cu  Cu9  1  0.000000  0.000000  0.500000  1
  Cu  Cu10  1  0.677161  0.338581  0.338581  1
  Cu  Cu11  1  0.338581  0.000000  0.661419  1
  Cu  Cu12  1  0.338581  0.677161  0.338581  1
  Cu  Cu13  1  0.338581  0.338581  0.677161  1
  Cu  Cu14  1  0.338581  0.661419  0.000000  1
  Cu  Cu15  1  0.000000  0.338581  0.661419  1
  Cu  Cu16  1  0.000000  0.661419  0.338581  1
  Cu  Cu17  1  0.661419  0.661419  0.322839  1
  Cu  Cu18  1  0.661419  0.000000  0.338581  1
  Cu  Cu19  1  0.661419  0.338581  0.000000  1
  Cu  Cu20  1  0.661419  0.322839  0.661419  1
  Cu  Cu21  1  0.322839  0.661419  0.661419  1
  N  N22  1  0.000000  0.000000  0.000000  1
