# generated using pymatgen
data_ZrNb5(B2Ru5)2
_symmetry_space_group_name_H-M   'P 1'
_cell_length_a   9.49498499
_cell_length_b   9.49498499
_cell_length_c   3.04200500
_cell_angle_alpha   90.00000000
_cell_angle_beta   90.00000000
_cell_angle_gamma   90.09093721
_symmetry_Int_Tables_number   1
_chemical_formula_structural   ZrNb5(B2Ru5)2
_chemical_formula_sum   'Zr1 Nb5 B4 Ru10'
_cell_volume   274.25082429
_cell_formula_units_Z   1
loop_
 _symmetry_equiv_pos_site_id
 _symmetry_equiv_pos_as_xyz
  1  'x, y, z'
loop_
 _atom_site_type_symbol
 _atom_site_label
 _atom_site_symmetry_multiplicity
 _atom_site_fract_x
 _atom_site_fract_y
 _atom_site_fract_z
 _atom_site_occupancy
  Zr  Zr0  1  0.824473  0.675527  0.000000  1
  Nb  Nb1  1  0.176172  0.323828  0.000000  1
  Nb  Nb2  1  0.324129  0.823195  0.000000  1
  Nb  Nb3  1  0.676805  0.175871  0.000000  1
  Nb  Nb4  1  0.499578  0.499988  0.000000  1
  Nb  Nb5  1  0.000012  0.000422  0.000000  1
  B  B6  1  0.620616  0.879384  0.000000  1
  B  B7  1  0.378714  0.121286  0.000000  1
  B  B8  1  0.121280  0.621490  0.000000  1
  B  B9  1  0.878510  0.378720  0.000000  1
  Ru  Ru10  1  0.566284  0.720604  0.500000  1
  Ru  Ru11  1  0.428113  0.281256  0.500000  1
  Ru  Ru12  1  0.075479  0.782061  0.500000  1
  Ru  Ru13  1  0.929294  0.217955  0.500000  1
  Ru  Ru14  1  0.282045  0.570706  0.500000  1
  Ru  Ru15  1  0.717939  0.424521  0.500000  1
  Ru  Ru16  1  0.218744  0.071887  0.500000  1
  Ru  Ru17  1  0.779396  0.933716  0.500000  1
  Ru  Ru18  1  0.498827  0.001173  0.500000  1
  Ru  Ru19  1  0.003589  0.496411  0.500000  1
