# generated using pymatgen
data_Nd3Al(SiRh3)2
_symmetry_space_group_name_H-M   'P 1'
_cell_length_a   5.71338600
_cell_length_b   5.71338377
_cell_length_c   15.29584900
_cell_angle_alpha   90.00000000
_cell_angle_beta   90.00000000
_cell_angle_gamma   119.99998974
_symmetry_Int_Tables_number   1
_chemical_formula_structural   Nd3Al(SiRh3)2
_chemical_formula_sum   'Nd6 Al2 Si4 Rh12'
_cell_volume   432.40551799
_cell_formula_units_Z   2
loop_
 _symmetry_equiv_pos_site_id
 _symmetry_equiv_pos_as_xyz
  1  'x, y, z'
loop_
 _atom_site_type_symbol
 _atom_site_label
 _atom_site_symmetry_multiplicity
 _atom_site_fract_x
 _atom_site_fract_y
 _atom_site_fract_z
 _atom_site_occupancy
  Nd  Nd0  1  0.333333  0.666667  0.538838  1
  Nd  Nd1  1  0.666667  0.333333  0.461162  1
  Nd  Nd2  1  0.666667  0.333333  0.038838  1
  Nd  Nd3  1  0.333333  0.666667  0.961162  1
  Nd  Nd4  1  0.333333  0.666667  0.750000  1
  Nd  Nd5  1  0.666667  0.333333  0.250000  1
  Al  Al6  1  0.000000  0.000000  0.000000  1
  Al  Al7  1  0.000000  0.000000  0.500000  1
  Si  Si8  1  0.000000  0.000000  0.250000  1
  Si  Si9  1  0.000000  0.000000  0.750000  1
  Si  Si10  1  0.333333  0.666667  0.250000  1
  Si  Si11  1  0.666667  0.333333  0.750000  1
  Rh  Rh12  1  0.166874  0.333749  0.135370  1
  Rh  Rh13  1  0.833126  0.666251  0.864630  1
  Rh  Rh14  1  0.666251  0.833126  0.135370  1
  Rh  Rh15  1  0.833126  0.666251  0.635370  1
  Rh  Rh16  1  0.333749  0.166874  0.864630  1
  Rh  Rh17  1  0.166874  0.333749  0.364630  1
  Rh  Rh18  1  0.166874  0.833126  0.135370  1
  Rh  Rh19  1  0.333749  0.166874  0.635370  1
  Rh  Rh20  1  0.833126  0.166874  0.864630  1
  Rh  Rh21  1  0.666251  0.833126  0.364630  1
  Rh  Rh22  1  0.833126  0.166874  0.635370  1
  Rh  Rh23  1  0.166874  0.833126  0.364630  1
