# generated using pymatgen
data_Tb10AlBi2Pb3
_symmetry_space_group_name_H-M   'P 1'
_cell_length_a   9.11304297
_cell_length_b   9.09271501
_cell_length_c   6.62248700
_cell_angle_alpha   90.00000000
_cell_angle_beta   90.00000000
_cell_angle_gamma   119.94475048
_symmetry_Int_Tables_number   1
_chemical_formula_structural   Tb10AlBi2Pb3
_chemical_formula_sum   'Tb10 Al1 Bi2 Pb3'
_cell_volume   475.49971323
_cell_formula_units_Z   1
loop_
 _symmetry_equiv_pos_site_id
 _symmetry_equiv_pos_as_xyz
  1  'x, y, z'
loop_
 _atom_site_type_symbol
 _atom_site_label
 _atom_site_symmetry_multiplicity
 _atom_site_fract_x
 _atom_site_fract_y
 _atom_site_fract_z
 _atom_site_occupancy
  Tb  Tb0  1  0.655207  0.330996  0.996861  1
  Tb  Tb1  1  0.338250  0.662507  0.996840  1
  Tb  Tb2  1  0.338250  0.662507  0.503160  1
  Tb  Tb3  1  0.655207  0.330996  0.503139  1
  Tb  Tb4  1  0.754865  0.759517  0.750000  1
  Tb  Tb5  1  0.243036  0.014545  0.750000  1
  Tb  Tb6  1  0.011216  0.239999  0.750000  1
  Tb  Tb7  1  0.241524  0.237126  0.250000  1
  Tb  Tb8  1  0.760093  0.995903  0.250000  1
  Tb  Tb9  1  0.999788  0.763679  0.250000  1
  Al  Al10  1  0.397646  0.398891  0.750000  1
  Bi  Bi11  1  0.001539  0.609704  0.750000  1
  Bi  Bi12  1  0.996235  0.391539  0.250000  1
  Pb  Pb13  1  0.608605  0.003043  0.750000  1
  Pb  Pb14  1  0.605535  0.603969  0.250000  1
  Pb  Pb15  1  0.393006  0.995080  0.250000  1
