# generated using pymatgen
data_Dy3YSiI6
_symmetry_space_group_name_H-M   'P 1'
_cell_length_a   4.21057100
_cell_length_b   14.01662271
_cell_length_c   14.78981675
_cell_angle_alpha   89.96350595
_cell_angle_beta   90.00000000
_cell_angle_gamma   90.00000000
_symmetry_Int_Tables_number   1
_chemical_formula_structural   Dy3YSiI6
_chemical_formula_sum   'Dy6 Y2 Si2 I12'
_cell_volume   872.86500759
_cell_formula_units_Z   2
loop_
 _symmetry_equiv_pos_site_id
 _symmetry_equiv_pos_as_xyz
  1  'x, y, z'
loop_
 _atom_site_type_symbol
 _atom_site_label
 _atom_site_symmetry_multiplicity
 _atom_site_fract_x
 _atom_site_fract_y
 _atom_site_fract_z
 _atom_site_occupancy
  Dy  Dy0  1  0.500000  0.613985  0.152199  1
  Dy  Dy1  1  0.500000  0.386015  0.847801  1
  Dy  Dy2  1  0.000000  0.111282  0.574468  1
  Dy  Dy3  1  0.000000  0.888718  0.425532  1
  Dy  Dy4  1  0.000000  0.611215  0.925573  1
  Dy  Dy5  1  0.000000  0.388785  0.074427  1
  Y  Y6  1  0.500000  0.114031  0.347726  1
  Y  Y7  1  0.500000  0.885969  0.652274  1
  Si  Si8  1  0.500000  0.000000  0.500000  1
  Si  Si9  1  0.500000  0.500000  0.000000  1
  I  I10  1  0.500000  0.245121  0.161400  1
  I  I11  1  0.500000  0.754879  0.838600  1
  I  I12  1  0.500000  0.745102  0.338543  1
  I  I13  1  0.500000  0.254898  0.661457  1
  I  I14  1  0.000000  0.258656  0.414196  1
  I  I15  1  0.000000  0.741344  0.585804  1
  I  I16  1  0.000000  0.758460  0.085951  1
  I  I17  1  0.000000  0.241540  0.914049  1
  I  I18  1  0.000000  0.999076  0.240526  1
  I  I19  1  0.000000  0.000924  0.759474  1
  I  I20  1  0.000000  0.499298  0.259344  1
  I  I21  1  0.000000  0.500702  0.740656  1
