# generated using pymatgen
data_Ho3LuAl18Ir5Au
_symmetry_space_group_name_H-M   'P 1'
_cell_length_a   7.57477195
_cell_length_b   7.57609934
_cell_length_c   9.45421100
_cell_angle_alpha   89.95547753
_cell_angle_beta   89.99877379
_cell_angle_gamma   119.57858642
_symmetry_Int_Tables_number   1
_chemical_formula_structural   Ho3LuAl18Ir5Au
_chemical_formula_sum   'Ho3 Lu1 Al18 Ir5 Au1'
_cell_volume   471.84521514
_cell_formula_units_Z   1
loop_
 _symmetry_equiv_pos_site_id
 _symmetry_equiv_pos_as_xyz
  1  'x, y, z'
loop_
 _atom_site_type_symbol
 _atom_site_label
 _atom_site_symmetry_multiplicity
 _atom_site_fract_x
 _atom_site_fract_y
 _atom_site_fract_z
 _atom_site_occupancy
  Ho  Ho0  1  0.996049  0.673606  0.251263  1
  Ho  Ho1  1  0.004123  0.326427  0.748739  1
  Ho  Ho2  1  0.673363  0.995984  0.251241  1
  Lu  Lu3  1  0.326509  0.003966  0.748205  1
  Al  Al4  1  0.135271  0.135125  0.256095  1
  Al  Al5  1  0.865497  0.865060  0.744049  1
  Al  Al6  1  0.001432  0.344149  0.079312  1
  Al  Al7  1  0.999283  0.656715  0.920074  1
  Al  Al8  1  0.000742  0.665288  0.575007  1
  Al  Al9  1  0.335497  0.000047  0.426387  1
  Al  Al10  1  0.000011  0.335451  0.425686  1
  Al  Al11  1  0.663827  0.999983  0.574958  1
  Al  Al12  1  0.655100  0.998616  0.919961  1
  Al  Al13  1  0.343995  0.001439  0.078655  1
  Al  Al14  1  0.333312  0.332659  0.554039  1
  Al  Al15  1  0.666734  0.666707  0.446778  1
  Al  Al16  1  0.657867  0.657855  0.059738  1
  Al  Al17  1  0.342022  0.341361  0.939430  1
  Al  Al18  1  0.339028  0.550121  0.251210  1
  Al  Al19  1  0.660354  0.449035  0.748782  1
  Al  Al20  1  0.550050  0.338892  0.251198  1
  Al  Al21  1  0.449731  0.661458  0.748817  1
  Ir  Ir22  1  0.671711  0.327909  0.999687  1
  Ir  Ir23  1  0.328082  0.672087  0.999688  1
  Ir  Ir24  1  0.328022  0.672051  0.500283  1
  Ir  Ir25  1  0.671699  0.327865  0.500380  1
  Ir  Ir26  1  0.000563  0.000135  0.500423  1
  Au  Au27  1  0.000126  0.000010  0.999913  1
