# generated using pymatgen
data_Er2Tm3Lu5Bi6
_symmetry_space_group_name_H-M   'P 1'
_cell_length_a   8.16197000
_cell_length_b   9.41018402
_cell_length_c   11.85343003
_cell_angle_alpha   89.99181301
_cell_angle_beta   90.00000000
_cell_angle_gamma   90.00000000
_symmetry_Int_Tables_number   1
_chemical_formula_structural   Er2Tm3Lu5Bi6
_chemical_formula_sum   'Er4 Tm6 Lu10 Bi12'
_cell_volume   910.41026680
_cell_formula_units_Z   2
loop_
 _symmetry_equiv_pos_site_id
 _symmetry_equiv_pos_as_xyz
  1  'x, y, z'
loop_
 _atom_site_type_symbol
 _atom_site_label
 _atom_site_symmetry_multiplicity
 _atom_site_fract_x
 _atom_site_fract_y
 _atom_site_fract_z
 _atom_site_occupancy
  Er  Er0  1  0.313044  0.250005  0.217076  1
  Er  Er1  1  0.813044  0.249995  0.282924  1
  Er  Er2  1  0.686973  0.750030  0.782823  1
  Er  Er3  1  0.186973  0.749970  0.717177  1
  Tm  Tm4  1  0.352434  0.749958  0.217787  1
  Tm  Tm5  1  0.852434  0.750042  0.282213  1
  Tm  Tm6  1  0.647678  0.250040  0.782228  1
  Tm  Tm7  1  0.147678  0.249960  0.717772  1
  Tm  Tm8  1  0.691874  0.566748  0.059076  1
  Tm  Tm9  1  0.191874  0.933252  0.440924  1
  Lu  Lu10  1  0.308072  0.067126  0.940961  1
  Lu  Lu11  1  0.808072  0.432874  0.559039  1
  Lu  Lu12  1  0.308087  0.432826  0.940966  1
  Lu  Lu13  1  0.808087  0.067174  0.559034  1
  Lu  Lu14  1  0.691884  0.933003  0.059042  1
  Lu  Lu15  1  0.191884  0.566997  0.440958  1
  Lu  Lu16  1  0.477882  0.250086  0.489192  1
  Lu  Lu17  1  0.977882  0.249914  0.010808  1
  Lu  Lu18  1  0.522378  0.749889  0.510895  1
  Lu  Lu19  1  0.022378  0.750111  0.989105  1
  Bi  Bi20  1  0.402549  0.750152  0.957708  1
  Bi  Bi21  1  0.902549  0.749848  0.542292  1
  Bi  Bi22  1  0.597212  0.249573  0.042152  1
  Bi  Bi23  1  0.097212  0.250427  0.457848  1
  Bi  Bi24  1  0.565449  0.995549  0.325493  1
  Bi  Bi25  1  0.065449  0.504451  0.174507  1
  Bi  Bi26  1  0.434580  0.495522  0.674471  1
  Bi  Bi27  1  0.934580  0.004478  0.825529  1
  Bi  Bi28  1  0.434506  0.004452  0.674519  1
  Bi  Bi29  1  0.934506  0.495548  0.825481  1
  Bi  Bi30  1  0.565397  0.504427  0.325516  1
  Bi  Bi31  1  0.065397  0.995573  0.174484  1
