# generated using pymatgen
data_Cs4Zr(PS3)4
_symmetry_space_group_name_H-M   'P 1'
_cell_length_a   7.74681707
_cell_length_b   7.74681707
_cell_length_c   24.72086898
_cell_angle_alpha   79.90135559
_cell_angle_beta   79.90135559
_cell_angle_gamma   66.70472658
_symmetry_Int_Tables_number   1
_chemical_formula_structural   Cs4Zr(PS3)4
_chemical_formula_sum   'Cs8 Zr2 P8 S24'
_cell_volume   1332.27497630
_cell_formula_units_Z   2
loop_
 _symmetry_equiv_pos_site_id
 _symmetry_equiv_pos_as_xyz
  1  'x, y, z'
loop_
 _atom_site_type_symbol
 _atom_site_label
 _atom_site_symmetry_multiplicity
 _atom_site_fract_x
 _atom_site_fract_y
 _atom_site_fract_z
 _atom_site_occupancy
  Cs  Cs0  1  0.826424  0.787350  0.049749  1
  Cs  Cs1  1  0.212650  0.173576  0.450251  1
  Cs  Cs2  1  0.173576  0.212650  0.950251  1
  Cs  Cs3  1  0.787350  0.826424  0.549749  1
  Cs  Cs4  1  0.667776  0.535686  0.316347  1
  Cs  Cs5  1  0.464314  0.332224  0.183653  1
  Cs  Cs6  1  0.332224  0.464314  0.683653  1
  Cs  Cs7  1  0.535686  0.667776  0.816347  1
  Zr  Zr8  1  0.069003  0.930997  0.250000  1
  Zr  Zr9  1  0.930997  0.069003  0.750000  1
  P  P10  1  0.108373  0.770945  0.373104  1
  P  P11  1  0.229055  0.891627  0.126896  1
  P  P12  1  0.891627  0.229055  0.626896  1
  P  P13  1  0.770945  0.108373  0.873104  1
  P  P14  1  0.055726  0.207920  0.112845  1
  P  P15  1  0.792080  0.944274  0.387155  1
  P  P16  1  0.944274  0.792080  0.887155  1
  P  P17  1  0.207920  0.055726  0.612845  1
  S  S18  1  0.221228  0.641904  0.441372  1
  S  S19  1  0.358096  0.778772  0.058628  1
  S  S20  1  0.778772  0.358096  0.558628  1
  S  S21  1  0.641904  0.221228  0.941372  1
  S  S22  1  0.128407  0.604056  0.312803  1
  S  S23  1  0.395944  0.871593  0.187197  1
  S  S24  1  0.871593  0.395944  0.687197  1
  S  S25  1  0.604056  0.128407  0.812803  1
  S  S26  1  0.032584  0.778690  0.171299  1
  S  S27  1  0.221310  0.967416  0.328701  1
  S  S28  1  0.967416  0.221310  0.828701  1
  S  S29  1  0.778690  0.032584  0.671299  1
  S  S30  1  0.232809  0.333670  0.077702  1
  S  S31  1  0.666330  0.767191  0.422298  1
  S  S32  1  0.767191  0.666330  0.922298  1
  S  S33  1  0.333670  0.232809  0.577702  1
  S  S34  1  0.839550  0.248154  0.072574  1
  S  S35  1  0.751846  0.160450  0.427426  1
  S  S36  1  0.160450  0.751846  0.927426  1
  S  S37  1  0.248154  0.839550  0.572574  1
  S  S38  1  0.953801  0.261667  0.196805  1
  S  S39  1  0.738333  0.046199  0.303195  1
  S  S40  1  0.046199  0.738333  0.803195  1
  S  S41  1  0.261667  0.953801  0.696805  1
