# generated using pymatgen
data_Nb4SnB4SbRu10
_symmetry_space_group_name_H-M   'P 1'
_cell_length_a   9.53010900
_cell_length_b   9.53010900
_cell_length_c   3.00762800
_cell_angle_alpha   90.00000000
_cell_angle_beta   90.00000000
_cell_angle_gamma   90.00000000
_symmetry_Int_Tables_number   1
_chemical_formula_structural   Nb4SnB4SbRu10
_chemical_formula_sum   'Nb4 Sn1 B4 Sb1 Ru10'
_cell_volume   273.16173033
_cell_formula_units_Z   1
loop_
 _symmetry_equiv_pos_site_id
 _symmetry_equiv_pos_as_xyz
  1  'x, y, z'
loop_
 _atom_site_type_symbol
 _atom_site_label
 _atom_site_symmetry_multiplicity
 _atom_site_fract_x
 _atom_site_fract_y
 _atom_site_fract_z
 _atom_site_occupancy
  Nb  Nb0  1  0.824944  0.677719  0.000000  1
  Nb  Nb1  1  0.175056  0.322281  0.000000  1
  Nb  Nb2  1  0.322281  0.824944  0.000000  1
  Nb  Nb3  1  0.677719  0.175056  0.000000  1
  Sn  Sn4  1  0.000000  0.000000  0.000000  1
  B  B5  1  0.622241  0.879412  0.000000  1
  B  B6  1  0.377759  0.120588  0.000000  1
  B  B7  1  0.120588  0.622241  0.000000  1
  B  B8  1  0.879412  0.377759  0.000000  1
  Sb  Sb9  1  0.500000  0.500000  0.000000  1
  Ru  Ru10  1  0.568675  0.720256  0.500000  1
  Ru  Ru11  1  0.431325  0.279744  0.500000  1
  Ru  Ru12  1  0.070644  0.777617  0.500000  1
  Ru  Ru13  1  0.929356  0.222383  0.500000  1
  Ru  Ru14  1  0.279744  0.568675  0.500000  1
  Ru  Ru15  1  0.720256  0.431325  0.500000  1
  Ru  Ru16  1  0.222383  0.070644  0.500000  1
  Ru  Ru17  1  0.777617  0.929356  0.500000  1
  Ru  Ru18  1  0.500000  0.000000  0.500000  1
  Ru  Ru19  1  0.000000  0.500000  0.500000  1
