# generated using pymatgen
data_SrEu2Ga2Ge
_symmetry_space_group_name_H-M   'P 1'
_cell_length_a   5.08329500
_cell_length_b   5.08329646
_cell_length_c   15.29059300
_cell_angle_alpha   90.00000000
_cell_angle_beta   90.00000000
_cell_angle_gamma   119.99999702
_symmetry_Int_Tables_number   1
_chemical_formula_structural   SrEu2Ga2Ge
_chemical_formula_sum   'Sr2 Eu4 Ga4 Ge2'
_cell_volume   342.17299076
_cell_formula_units_Z   2
loop_
 _symmetry_equiv_pos_site_id
 _symmetry_equiv_pos_as_xyz
  1  'x, y, z'
loop_
 _atom_site_type_symbol
 _atom_site_label
 _atom_site_symmetry_multiplicity
 _atom_site_fract_x
 _atom_site_fract_y
 _atom_site_fract_z
 _atom_site_occupancy
  Sr  Sr0  1  0.333333  0.666667  0.361785  1
  Sr  Sr1  1  0.666667  0.333333  0.638215  1
  Eu  Eu2  1  0.000000  0.000000  0.500000  1
  Eu  Eu3  1  0.000000  0.000000  0.000000  1
  Eu  Eu4  1  0.000000  0.000000  0.238071  1
  Eu  Eu5  1  0.000000  0.000000  0.761929  1
  Ga  Ga6  1  0.666667  0.333333  0.397857  1
  Ga  Ga7  1  0.333333  0.666667  0.602143  1
  Ga  Ga8  1  0.333333  0.666667  0.844817  1
  Ga  Ga9  1  0.666667  0.333333  0.155183  1
  Ge  Ge10  1  0.666667  0.333333  0.867717  1
  Ge  Ge11  1  0.333333  0.666667  0.132283  1
