# generated using pymatgen
data_Tb2Ho2ReTcB12
_symmetry_space_group_name_H-M   'P 1'
_cell_length_a   3.68456300
_cell_length_b   9.16562215
_cell_length_c   11.55828003
_cell_angle_alpha   90.05043064
_cell_angle_beta   90.00000000
_cell_angle_gamma   90.00000000
_symmetry_Int_Tables_number   1
_chemical_formula_structural   Tb2Ho2ReTcB12
_chemical_formula_sum   'Tb4 Ho4 Re2 Tc2 B24'
_cell_volume   390.33813278
_cell_formula_units_Z   2
loop_
 _symmetry_equiv_pos_site_id
 _symmetry_equiv_pos_as_xyz
  1  'x, y, z'
loop_
 _atom_site_type_symbol
 _atom_site_label
 _atom_site_symmetry_multiplicity
 _atom_site_fract_x
 _atom_site_fract_y
 _atom_site_fract_z
 _atom_site_occupancy
  Tb  Tb0  1  0.000000  0.323879  0.413982  1
  Tb  Tb1  1  0.000000  0.676121  0.586018  1
  Tb  Tb2  1  0.000000  0.823530  0.086025  1
  Tb  Tb3  1  0.000000  0.176470  0.913975  1
  Ho  Ho4  1  0.000000  0.942268  0.369807  1
  Ho  Ho5  1  0.000000  0.057732  0.630193  1
  Ho  Ho6  1  0.000000  0.443738  0.130582  1
  Ho  Ho7  1  0.000000  0.556262  0.869418  1
  Re  Re8  1  0.000000  0.138896  0.179509  1
  Re  Re9  1  0.000000  0.861104  0.820491  1
  Tc  Tc10  1  0.000000  0.638987  0.320499  1
  Tc  Tc11  1  0.000000  0.361013  0.679501  1
  B  B12  1  0.500000  0.553712  0.432576  1
  B  B13  1  0.500000  0.446288  0.567424  1
  B  B14  1  0.500000  0.053616  0.067288  1
  B  B15  1  0.500000  0.946384  0.932712  1
  B  B16  1  0.500000  0.749015  0.418318  1
  B  B17  1  0.500000  0.250985  0.581682  1
  B  B18  1  0.500000  0.249486  0.081603  1
  B  B19  1  0.500000  0.750514  0.918397  1
  B  B20  1  0.500000  0.791873  0.265701  1
  B  B21  1  0.500000  0.208127  0.734299  1
  B  B22  1  0.500000  0.292202  0.234404  1
  B  B23  1  0.500000  0.707798  0.765596  1
  B  B24  1  0.500000  0.630961  0.185935  1
  B  B25  1  0.500000  0.369039  0.814065  1
  B  B26  1  0.500000  0.130685  0.314336  1
  B  B27  1  0.500000  0.869315  0.685664  1
  B  B28  1  0.500000  0.982545  0.212062  1
  B  B29  1  0.500000  0.017455  0.787938  1
  B  B30  1  0.500000  0.482914  0.288027  1
  B  B31  1  0.500000  0.517086  0.711973  1
  B  B32  1  0.500000  0.599893  0.027816  1
  B  B33  1  0.500000  0.400107  0.972184  1
  B  B34  1  0.500000  0.099730  0.472003  1
  B  B35  1  0.500000  0.900270  0.527997  1
