# generated using pymatgen
data_PrNd11Fe2Br17
_symmetry_space_group_name_H-M   'P 1'
_cell_length_a   9.49190264
_cell_length_b   11.49356897
_cell_length_c   11.52184733
_cell_angle_alpha   74.06062310
_cell_angle_beta   75.14425141
_cell_angle_gamma   65.41720620
_symmetry_Int_Tables_number   1
_chemical_formula_structural   PrNd11Fe2Br17
_chemical_formula_sum   'Pr1 Nd11 Fe2 Br17'
_cell_volume   1084.48696294
_cell_formula_units_Z   1
loop_
 _symmetry_equiv_pos_site_id
 _symmetry_equiv_pos_as_xyz
  1  'x, y, z'
loop_
 _atom_site_type_symbol
 _atom_site_label
 _atom_site_symmetry_multiplicity
 _atom_site_fract_x
 _atom_site_fract_y
 _atom_site_fract_z
 _atom_site_occupancy
  Pr  Pr0  1  0.134114  0.712454  0.148720  1
  Nd  Nd1  1  0.456669  0.478916  0.323373  1
  Nd  Nd2  1  0.561004  0.672195  0.001799  1
  Nd  Nd3  1  0.265081  0.996008  0.106834  1
  Nd  Nd4  1  0.869633  0.288880  0.850388  1
  Nd  Nd5  1  0.402299  0.238919  0.714182  1
  Nd  Nd6  1  0.733802  0.008138  0.892777  1
  Nd  Nd7  1  0.544527  0.516556  0.676955  1
  Nd  Nd8  1  0.443335  0.327945  0.995037  1
  Nd  Nd9  1  0.592757  0.760216  0.285416  1
  Nd  Nd10  1  0.828280  0.191421  0.576977  1
  Nd  Nd11  1  0.168135  0.809268  0.426435  1
  Fe  Fe12  1  0.364563  0.738272  0.213667  1
  Fe  Fe13  1  0.635582  0.261792  0.786329  1
  Br  Br14  1  0.055497  0.097572  0.326969  1
  Br  Br15  1  0.464372  0.950791  0.848920  1
  Br  Br16  1  0.421809  0.814646  0.533502  1
  Br  Br17  1  0.576436  0.183218  0.466794  1
  Br  Br18  1  0.836263  0.707907  0.049869  1
  Br  Br19  1  0.223662  0.421746  0.241851  1
  Br  Br20  1  0.683392  0.373747  0.098548  1
  Br  Br21  1  0.534107  0.048711  0.152250  1
  Br  Br22  1  0.733752  0.474865  0.419219  1
  Br  Br23  1  0.889820  0.784131  0.367793  1
  Br  Br24  1  0.945169  0.902009  0.674266  1
  Br  Br25  1  0.162287  0.294130  0.950932  1
  Br  Br26  1  0.320850  0.627411  0.900588  1
  Br  Br27  1  0.000261  0.001405  0.000861  1
  Br  Br28  1  0.109733  0.214981  0.633196  1
  Br  Br29  1  0.778505  0.577439  0.757049  1
  Br  Br30  1  0.264304  0.524311  0.578505  1
