# generated using pymatgen
data_Ho5Er3(Lu3Sn4)4
_symmetry_space_group_name_H-M   'P 1'
_cell_length_a   7.93618507
_cell_length_b   8.06554803
_cell_length_c   15.23795500
_cell_angle_alpha   90.00316828
_cell_angle_beta   90.00773937
_cell_angle_gamma   89.99622037
_symmetry_Int_Tables_number   1
_chemical_formula_structural   Ho5Er3(Lu3Sn4)4
_chemical_formula_sum   'Ho5 Er3 Lu12 Sn16'
_cell_volume   975.37663947
_cell_formula_units_Z   1
loop_
 _symmetry_equiv_pos_site_id
 _symmetry_equiv_pos_as_xyz
  1  'x, y, z'
loop_
 _atom_site_type_symbol
 _atom_site_label
 _atom_site_symmetry_multiplicity
 _atom_site_fract_x
 _atom_site_fract_y
 _atom_site_fract_z
 _atom_site_occupancy
  Ho  Ho0  1  0.522031  0.320944  0.903168  1
  Ho  Ho1  1  0.022025  0.178947  0.596669  1
  Ho  Ho2  1  0.477967  0.679027  0.403295  1
  Ho  Ho3  1  0.978025  0.821011  0.096605  1
  Ho  Ho4  1  0.477982  0.679050  0.096786  1
  Er  Er5  1  0.977918  0.821164  0.403428  1
  Er  Er6  1  0.522221  0.321088  0.597091  1
  Er  Er7  1  0.022155  0.178650  0.902900  1
  Lu  Lu8  1  0.367369  0.836878  0.876949  1
  Lu  Lu9  1  0.867394  0.663075  0.623003  1
  Lu  Lu10  1  0.632648  0.163077  0.377112  1
  Lu  Lu11  1  0.132625  0.336922  0.122889  1
  Lu  Lu12  1  0.632686  0.163118  0.122977  1
  Lu  Lu13  1  0.132701  0.337004  0.377082  1
  Lu  Lu14  1  0.367373  0.836841  0.622996  1
  Lu  Lu15  1  0.867346  0.663078  0.876998  1
  Lu  Lu16  1  0.197782  0.504521  0.750012  1
  Lu  Lu17  1  0.697743  0.995451  0.750054  1
  Lu  Lu18  1  0.802184  0.495461  0.249994  1
  Lu  Lu19  1  0.302191  0.004516  0.250013  1
  Sn  Sn20  1  0.294314  0.037662  0.041433  1
  Sn  Sn21  1  0.794311  0.462495  0.458533  1
  Sn  Sn22  1  0.705637  0.962548  0.541723  1
  Sn  Sn23  1  0.205560  0.537344  0.958270  1
  Sn  Sn24  1  0.705723  0.962864  0.958284  1
  Sn  Sn25  1  0.205743  0.537145  0.541788  1
  Sn  Sn26  1  0.294199  0.037210  0.458342  1
  Sn  Sn27  1  0.794382  0.462533  0.041565  1
  Sn  Sn28  1  0.564251  0.620634  0.749891  1
  Sn  Sn29  1  0.064070  0.879487  0.749925  1
  Sn  Sn30  1  0.435557  0.379206  0.250072  1
  Sn  Sn31  1  0.936039  0.120737  0.250176  1
  Sn  Sn32  1  0.331387  0.148566  0.749878  1
  Sn  Sn33  1  0.831695  0.351155  0.749959  1
  Sn  Sn34  1  0.668729  0.851720  0.250067  1
  Sn  Sn35  1  0.168037  0.648868  0.250075  1
