# generated using pymatgen
data_TbCe4U3(ZnRh)8
_symmetry_space_group_name_H-M   'P 1'
_cell_length_a   3.87714200
_cell_length_b   7.36074305
_cell_length_c   16.26755965
_cell_angle_alpha   89.75393322
_cell_angle_beta   90.00000000
_cell_angle_gamma   90.00000000
_symmetry_Int_Tables_number   1
_chemical_formula_structural   TbCe4U3(ZnRh)8
_chemical_formula_sum   'Tb1 Ce4 U3 Zn8 Rh8'
_cell_volume   464.24984557
_cell_formula_units_Z   1
loop_
 _symmetry_equiv_pos_site_id
 _symmetry_equiv_pos_as_xyz
  1  'x, y, z'
loop_
 _atom_site_type_symbol
 _atom_site_label
 _atom_site_symmetry_multiplicity
 _atom_site_fract_x
 _atom_site_fract_y
 _atom_site_fract_z
 _atom_site_occupancy
  Tb  Tb0  1  0.250000  0.676243  0.561099  1
  Ce  Ce1  1  0.750000  0.943574  0.285218  1
  Ce  Ce2  1  0.250000  0.559988  0.783705  1
  Ce  Ce3  1  0.750000  0.439265  0.215062  1
  Ce  Ce4  1  0.750000  0.330370  0.443011  1
  U  U5  1  0.750000  0.826439  0.061126  1
  U  U6  1  0.250000  0.057088  0.717977  1
  U  U7  1  0.250000  0.164645  0.937369  1
  Zn  Zn8  1  0.250000  0.113845  0.152578  1
  Zn  Zn9  1  0.750000  0.502588  0.937925  1
  Zn  Zn10  1  0.750000  0.998796  0.559779  1
  Zn  Zn11  1  0.750000  0.393033  0.653985  1
  Zn  Zn12  1  0.750000  0.881695  0.849636  1
  Zn  Zn13  1  0.250000  0.486291  0.059081  1
  Zn  Zn14  1  0.250000  0.612250  0.345327  1
  Zn  Zn15  1  0.250000  0.998411  0.442240  1
  Rh  Rh16  1  0.750000  0.753283  0.431124  1
  Rh  Rh17  1  0.750000  0.243787  0.814355  1
  Rh  Rh18  1  0.750000  0.784969  0.692076  1
  Rh  Rh19  1  0.250000  0.745853  0.175948  1
  Rh  Rh20  1  0.250000  0.764762  0.947287  1
  Rh  Rh21  1  0.250000  0.251004  0.567527  1
  Rh  Rh22  1  0.750000  0.226621  0.051870  1
  Rh  Rh23  1  0.250000  0.245200  0.314698  1
