# generated using pymatgen
data_EuSn4PdRh
_symmetry_space_group_name_H-M   'P 1'
_cell_length_a   4.58264100
_cell_length_b   7.26388700
_cell_length_c   18.95791200
_cell_angle_alpha   90.00000000
_cell_angle_beta   90.00000000
_cell_angle_gamma   90.00000000
_symmetry_Int_Tables_number   1
_chemical_formula_structural   EuSn4PdRh
_chemical_formula_sum   'Eu4 Sn16 Pd4 Rh4'
_cell_volume   631.06692497
_cell_formula_units_Z   4
loop_
 _symmetry_equiv_pos_site_id
 _symmetry_equiv_pos_as_xyz
  1  'x, y, z'
loop_
 _atom_site_type_symbol
 _atom_site_label
 _atom_site_symmetry_multiplicity
 _atom_site_fract_x
 _atom_site_fract_y
 _atom_site_fract_z
 _atom_site_occupancy
  Eu  Eu0  1  0.250000  0.995764  0.857468  1
  Eu  Eu1  1  0.250000  0.504236  0.357468  1
  Eu  Eu2  1  0.750000  0.004236  0.142532  1
  Eu  Eu3  1  0.750000  0.495764  0.642532  1
  Sn  Sn4  1  0.250000  0.302293  0.185069  1
  Sn  Sn5  1  0.250000  0.197707  0.685069  1
  Sn  Sn6  1  0.750000  0.697707  0.814931  1
  Sn  Sn7  1  0.750000  0.802293  0.314931  1
  Sn  Sn8  1  0.250000  0.722270  0.195893  1
  Sn  Sn9  1  0.250000  0.777730  0.695893  1
  Sn  Sn10  1  0.750000  0.277730  0.804107  1
  Sn  Sn11  1  0.750000  0.222270  0.304107  1
  Sn  Sn12  1  0.250000  0.863775  0.032468  1
  Sn  Sn13  1  0.250000  0.636225  0.532468  1
  Sn  Sn14  1  0.750000  0.136225  0.967532  1
  Sn  Sn15  1  0.750000  0.363775  0.467532  1
  Sn  Sn16  1  0.250000  0.518322  0.929091  1
  Sn  Sn17  1  0.250000  0.981678  0.429091  1
  Sn  Sn18  1  0.750000  0.481678  0.070909  1
  Sn  Sn19  1  0.750000  0.018322  0.570909  1
  Pd  Pd20  1  0.250000  0.252635  0.034862  1
  Pd  Pd21  1  0.250000  0.247365  0.534862  1
  Pd  Pd22  1  0.750000  0.747365  0.965138  1
  Pd  Pd23  1  0.750000  0.752635  0.465138  1
  Rh  Rh24  1  0.250000  0.017174  0.287051  1
  Rh  Rh25  1  0.250000  0.482826  0.787051  1
  Rh  Rh26  1  0.750000  0.982826  0.712949  1
  Rh  Rh27  1  0.750000  0.517174  0.212949  1
