# generated using pymatgen
data_Pr2NdHg5
_symmetry_space_group_name_H-M   'P 1'
_cell_length_a   6.55864923
_cell_length_b   6.55864969
_cell_length_c   10.64445800
_cell_angle_alpha   90.00000000
_cell_angle_beta   90.00000000
_cell_angle_gamma   105.84654904
_symmetry_Int_Tables_number   1
_chemical_formula_structural   Pr2NdHg5
_chemical_formula_sum   'Pr4 Nd2 Hg10'
_cell_volume   440.47967003
_cell_formula_units_Z   2
loop_
 _symmetry_equiv_pos_site_id
 _symmetry_equiv_pos_as_xyz
  1  'x, y, z'
loop_
 _atom_site_type_symbol
 _atom_site_label
 _atom_site_symmetry_multiplicity
 _atom_site_fract_x
 _atom_site_fract_y
 _atom_site_fract_z
 _atom_site_occupancy
  Pr  Pr0  1  0.203536  0.796464  0.500000  1
  Pr  Pr1  1  0.203536  0.796464  0.000000  1
  Pr  Pr2  1  0.796464  0.203536  0.500000  1
  Pr  Pr3  1  0.796464  0.203536  0.000000  1
  Nd  Nd4  1  0.590508  0.590508  0.250000  1
  Nd  Nd5  1  0.409492  0.409492  0.750000  1
  Hg  Hg6  1  0.997415  0.997414  0.250000  1
  Hg  Hg7  1  0.002586  0.002585  0.750000  1
  Hg  Hg8  1  0.303051  0.303051  0.034019  1
  Hg  Hg9  1  0.696949  0.696949  0.965981  1
  Hg  Hg10  1  0.303051  0.303051  0.465981  1
  Hg  Hg11  1  0.696949  0.696949  0.534019  1
  Hg  Hg12  1  0.487257  0.050248  0.250000  1
  Hg  Hg13  1  0.949752  0.512743  0.750000  1
  Hg  Hg14  1  0.512743  0.949752  0.750000  1
  Hg  Hg15  1  0.050248  0.487257  0.250000  1
