# generated using pymatgen
data_MgBeNi20GeB6
_symmetry_space_group_name_H-M   'P 1'
_cell_length_a   7.40788337
_cell_length_b   7.40788406
_cell_length_c   7.40788400
_cell_angle_alpha   60.00000027
_cell_angle_beta   59.99999717
_cell_angle_gamma   59.99999863
_symmetry_Int_Tables_number   1
_chemical_formula_structural   MgBeNi20GeB6
_chemical_formula_sum   'Mg1 Be1 Ni20 Ge1 B6'
_cell_volume   287.45341662
_cell_formula_units_Z   1
loop_
 _symmetry_equiv_pos_site_id
 _symmetry_equiv_pos_as_xyz
  1  'x, y, z'
loop_
 _atom_site_type_symbol
 _atom_site_label
 _atom_site_symmetry_multiplicity
 _atom_site_fract_x
 _atom_site_fract_y
 _atom_site_fract_z
 _atom_site_occupancy
  Mg  Mg0  1  0.250000  0.250000  0.250000  1
  Be  Be1  1  0.000000  0.000000  0.000000  1
  Ni  Ni2  1  0.333290  0.000826  0.000826  1
  Ni  Ni3  1  0.665057  0.000826  0.000826  1
  Ni  Ni4  1  0.000826  0.333290  0.665057  1
  Ni  Ni5  1  0.000826  0.665057  0.333290  1
  Ni  Ni6  1  0.000826  0.333290  0.000826  1
  Ni  Ni7  1  0.665057  0.000826  0.333290  1
  Ni  Ni8  1  0.000826  0.665057  0.000826  1
  Ni  Ni9  1  0.333290  0.000826  0.665057  1
  Ni  Ni10  1  0.000826  0.000826  0.333290  1
  Ni  Ni11  1  0.000826  0.000826  0.665057  1
  Ni  Ni12  1  0.665057  0.333290  0.000826  1
  Ni  Ni13  1  0.333290  0.665057  0.000826  1
  Ni  Ni14  1  0.388121  0.388121  0.388121  1
  Ni  Ni15  1  0.621658  0.621658  0.621658  1
  Ni  Ni16  1  0.388121  0.388121  0.835637  1
  Ni  Ni17  1  0.388121  0.835637  0.388121  1
  Ni  Ni18  1  0.621658  0.621658  0.135028  1
  Ni  Ni19  1  0.621658  0.135028  0.621658  1
  Ni  Ni20  1  0.835637  0.388121  0.388121  1
  Ni  Ni21  1  0.135028  0.621658  0.621658  1
  Ge  Ge22  1  0.750000  0.750000  0.750000  1
  B  B23  1  0.727017  0.272983  0.272983  1
  B  B24  1  0.272983  0.727017  0.727017  1
  B  B25  1  0.272983  0.727017  0.272983  1
  B  B26  1  0.727017  0.272983  0.727017  1
  B  B27  1  0.272983  0.272983  0.727017  1
  B  B28  1  0.727017  0.727017  0.272983  1
