# generated using pymatgen
data_Tb12Al5Si6Ni
_symmetry_space_group_name_H-M   'P 1'
_cell_length_a   3.99217000
_cell_length_b   5.85145145
_cell_length_c   24.23459218
_cell_angle_alpha   82.78618050
_cell_angle_beta   90.00000000
_cell_angle_gamma   90.00000000
_symmetry_Int_Tables_number   1
_chemical_formula_structural   Tb12Al5Si6Ni
_chemical_formula_sum   'Tb12 Al5 Si6 Ni1'
_cell_volume   561.63865182
_cell_formula_units_Z   1
loop_
 _symmetry_equiv_pos_site_id
 _symmetry_equiv_pos_as_xyz
  1  'x, y, z'
loop_
 _atom_site_type_symbol
 _atom_site_label
 _atom_site_symmetry_multiplicity
 _atom_site_fract_x
 _atom_site_fract_y
 _atom_site_fract_z
 _atom_site_occupancy
  Tb  Tb0  1  0.750000  0.360909  0.070425  1
  Tb  Tb1  1  0.250000  0.662162  0.942569  1
  Tb  Tb2  1  0.750000  0.517406  0.217216  1
  Tb  Tb3  1  0.250000  0.472853  0.774045  1
  Tb  Tb4  1  0.750000  0.160791  0.390454  1
  Tb  Tb5  1  0.250000  0.822851  0.606358  1
  Tb  Tb6  1  0.750000  0.359984  0.558542  1
  Tb  Tb7  1  0.250000  0.649539  0.438131  1
  Tb  Tb8  1  0.750000  0.987594  0.726507  1
  Tb  Tb9  1  0.250000  0.993721  0.269013  1
  Tb  Tb10  1  0.750000  0.174815  0.894664  1
  Tb  Tb11  1  0.250000  0.841788  0.109629  1
  Al  Al12  1  0.250000  0.144303  0.991972  1
  Al  Al13  1  0.250000  0.952153  0.822659  1
  Al  Al14  1  0.250000  0.291872  0.654606  1
  Al  Al15  1  0.250000  0.130426  0.486791  1
  Al  Al16  1  0.250000  0.466458  0.317906  1
  Si  Si17  1  0.750000  0.876427  0.014328  1
  Si  Si18  1  0.750000  0.050373  0.178354  1
  Si  Si19  1  0.750000  0.701311  0.342996  1
  Si  Si20  1  0.750000  0.867503  0.511252  1
  Si  Si21  1  0.750000  0.529971  0.679005  1
  Si  Si22  1  0.750000  0.688054  0.847106  1
  Ni  Ni23  1  0.250000  0.296734  0.155473  1
