# generated using pymatgen
data_Dy2MgSiAs5Rh12
_symmetry_space_group_name_H-M   'P 1'
_cell_length_a   9.91335973
_cell_length_b   9.98895605
_cell_length_c   3.96090973
_cell_angle_alpha   90.10875079
_cell_angle_beta   90.06693996
_cell_angle_gamma   119.98975984
_symmetry_Int_Tables_number   1
_chemical_formula_structural   Dy2MgSiAs5Rh12
_chemical_formula_sum   'Dy2 Mg1 Si1 As5 Rh12'
_cell_volume   339.71073320
_cell_formula_units_Z   1
loop_
 _symmetry_equiv_pos_site_id
 _symmetry_equiv_pos_as_xyz
  1  'x, y, z'
loop_
 _atom_site_type_symbol
 _atom_site_label
 _atom_site_symmetry_multiplicity
 _atom_site_fract_x
 _atom_site_fract_y
 _atom_site_fract_z
 _atom_site_occupancy
  Dy  Dy0  1  0.332308  0.667292  0.745821  1
  Dy  Dy1  1  0.671805  0.338525  0.244474  1
  Mg  Mg2  1  0.998157  0.999565  0.708761  1
  Si  Si3  1  0.887130  0.600057  0.744156  1
  As  As4  1  0.405124  0.286898  0.744033  1
  As  As5  1  0.715236  0.117250  0.743940  1
  As  As6  1  0.114865  0.404698  0.245355  1
  As  As7  1  0.598718  0.709673  0.245715  1
  As  As8  1  0.284411  0.883638  0.246215  1
  Rh  Rh9  1  0.624906  0.551897  0.744607  1
  Rh  Rh10  1  0.448917  0.066651  0.744967  1
  Rh  Rh11  1  0.931570  0.384499  0.744197  1
  Rh  Rh12  1  0.388256  0.447139  0.244840  1
  Rh  Rh13  1  0.549028  0.936272  0.244924  1
  Rh  Rh14  1  0.053232  0.610480  0.244883  1
  Rh  Rh15  1  0.126626  0.836582  0.745670  1
  Rh  Rh16  1  0.162189  0.291886  0.744560  1
  Rh  Rh17  1  0.704643  0.867965  0.746183  1
  Rh  Rh18  1  0.881449  0.147262  0.243503  1
  Rh  Rh19  1  0.858346  0.732749  0.244375  1
  Rh  Rh20  1  0.263086  0.119023  0.243097  1
