# generated using pymatgen
data_CsGa5(HgTe3)4
_symmetry_space_group_name_H-M   'P 1'
_cell_length_a   9.82292033
_cell_length_b   9.81136056
_cell_length_c   9.88240597
_cell_angle_alpha   107.28491658
_cell_angle_beta   108.00626756
_cell_angle_gamma   107.34675666
_symmetry_Int_Tables_number   1
_chemical_formula_structural   CsGa5(HgTe3)4
_chemical_formula_sum   'Cs1 Ga5 Hg4 Te12'
_cell_volume   781.04793302
_cell_formula_units_Z   1
loop_
 _symmetry_equiv_pos_site_id
 _symmetry_equiv_pos_as_xyz
  1  'x, y, z'
loop_
 _atom_site_type_symbol
 _atom_site_label
 _atom_site_symmetry_multiplicity
 _atom_site_fract_x
 _atom_site_fract_y
 _atom_site_fract_z
 _atom_site_occupancy
  Cs  Cs0  1  0.996729  0.995969  0.995630  1
  Ga  Ga1  1  0.483734  0.335138  0.941223  1
  Ga  Ga2  1  0.938116  0.488430  0.341329  1
  Ga  Ga3  1  0.330805  0.933364  0.480594  1
  Ga  Ga4  1  0.017957  0.187097  0.555404  1
  Ga  Ga5  1  0.561158  0.026237  0.188515  1
  Hg  Hg6  1  0.631415  0.707995  0.396907  1
  Hg  Hg7  1  0.401087  0.636640  0.715358  1
  Hg  Hg8  1  0.709709  0.393932  0.630864  1
  Hg  Hg9  1  0.191068  0.563413  0.019359  1
  Te  Te10  1  0.785593  0.932258  0.290714  1
  Te  Te11  1  0.303074  0.806047  0.930474  1
  Te  Te12  1  0.922939  0.276290  0.772513  1
  Te  Te13  1  0.064614  0.697246  0.238427  1
  Te  Te14  1  0.230374  0.078479  0.687845  1
  Te  Te15  1  0.697380  0.231858  0.079258  1
  Te  Te16  1  0.376092  0.421195  0.150496  1
  Te  Te17  1  0.145179  0.370883  0.434429  1
  Te  Te18  1  0.427204  0.140484  0.364746  1
  Te  Te19  1  0.879622  0.639618  0.567788  1
  Te  Te20  1  0.560679  0.875574  0.636046  1
  Te  Te21  1  0.640112  0.556494  0.876719  1
