# generated using pymatgen
data_AcLa3(Hg2O)4
_symmetry_space_group_name_H-M   'P 1'
_cell_length_a   5.95307193
_cell_length_b   5.88734052
_cell_length_c   11.02778700
_cell_angle_alpha   90.12431706
_cell_angle_beta   96.84351916
_cell_angle_gamma   90.03923973
_symmetry_Int_Tables_number   1
_chemical_formula_structural   AcLa3(Hg2O)4
_chemical_formula_sum   'Ac1 La3 Hg8 O4'
_cell_volume   383.74447657
_cell_formula_units_Z   1
loop_
 _symmetry_equiv_pos_site_id
 _symmetry_equiv_pos_as_xyz
  1  'x, y, z'
loop_
 _atom_site_type_symbol
 _atom_site_label
 _atom_site_symmetry_multiplicity
 _atom_site_fract_x
 _atom_site_fract_y
 _atom_site_fract_z
 _atom_site_occupancy
  Ac  Ac0  1  0.524410  0.180887  0.114526  1
  La  La1  1  0.022044  0.681378  0.103410  1
  La  La2  1  0.976409  0.180514  0.890585  1
  La  La3  1  0.476417  0.680178  0.890394  1
  Hg  Hg4  1  0.528914  0.167415  0.429246  1
  Hg  Hg5  1  0.027014  0.662733  0.421632  1
  Hg  Hg6  1  0.974911  0.161337  0.578641  1
  Hg  Hg7  1  0.470512  0.668086  0.578283  1
  Hg  Hg8  1  0.550539  0.676704  0.298687  1
  Hg  Hg9  1  0.055812  0.171586  0.298363  1
  Hg  Hg10  1  0.947241  0.670505  0.704299  1
  Hg  Hg11  1  0.449744  0.175320  0.705764  1
  O  O12  1  0.751401  0.927423  0.996513  1
  O  O13  1  0.246592  0.929426  0.996088  1
  O  O14  1  0.751302  0.434181  0.996755  1
  O  O15  1  0.246749  0.432287  0.996811  1
