# generated using pymatgen
data_Er2Tm6B24MoRh3
_symmetry_space_group_name_H-M   'P 1'
_cell_length_a   3.63197700
_cell_length_b   9.11884033
_cell_length_c   11.48487435
_cell_angle_alpha   90.22220301
_cell_angle_beta   89.99999489
_cell_angle_gamma   90.00012593
_symmetry_Int_Tables_number   1
_chemical_formula_structural   Er2Tm6B24MoRh3
_chemical_formula_sum   'Er2 Tm6 B24 Mo1 Rh3'
_cell_volume   380.36949808
_cell_formula_units_Z   1
loop_
 _symmetry_equiv_pos_site_id
 _symmetry_equiv_pos_as_xyz
  1  'x, y, z'
loop_
 _atom_site_type_symbol
 _atom_site_label
 _atom_site_symmetry_multiplicity
 _atom_site_fract_x
 _atom_site_fract_y
 _atom_site_fract_z
 _atom_site_occupancy
  Er  Er0  1  0.500012  0.318766  0.410727  1
  Er  Er1  1  0.500004  0.677112  0.585157  1
  Tm  Tm2  1  0.499998  0.178697  0.916903  1
  Tm  Tm3  1  0.500000  0.823679  0.086804  1
  Tm  Tm4  1  0.500002  0.444877  0.125536  1
  Tm  Tm5  1  0.499997  0.557106  0.872116  1
  Tm  Tm6  1  0.499999  0.055889  0.628916  1
  Tm  Tm7  1  0.500003  0.945120  0.373951  1
  B  B8  1  0.000002  0.106353  0.472903  1
  B  B9  1  0.999998  0.892546  0.530388  1
  B  B10  1  0.000001  0.395155  0.969107  1
  B  B11  1  0.000001  0.608764  0.028547  1
  B  B12  1  0.000001  0.132043  0.317182  1
  B  B13  1  0.000001  0.866771  0.683741  1
  B  B14  1  0.999995  0.368261  0.816494  1
  B  B15  1  0.000002  0.633097  0.183378  1
  B  B16  1  0.999993  0.051571  0.064223  1
  B  B17  1  0.999996  0.946562  0.933370  1
  B  B18  1  0.000000  0.445163  0.565373  1
  B  B19  1  0.000003  0.553125  0.433920  1
  B  B20  1  0.000004  0.483221  0.286958  1
  B  B21  1  0.999994  0.517443  0.712293  1
  B  B22  1  0.999999  0.017708  0.787630  1
  B  B23  1  0.999999  0.979405  0.213875  1
  B  B24  1  0.000000  0.251290  0.077954  1
  B  B25  1  0.000002  0.751091  0.920062  1
  B  B26  1  0.999999  0.249774  0.579447  1
  B  B27  1  0.000001  0.749170  0.421087  1
  B  B28  1  0.000005  0.295700  0.235841  1
  B  B29  1  0.000000  0.705863  0.763687  1
  B  B30  1  0.999995  0.207211  0.736532  1
  B  B31  1  0.000000  0.792469  0.265755  1
  Mo  Mo32  1  0.499998  0.138070  0.178933  1
  Rh  Rh33  1  0.500002  0.860863  0.820769  1
  Rh  Rh34  1  0.499993  0.360947  0.679411  1
  Rh  Rh35  1  0.500002  0.639117  0.321029  1
