# generated using pymatgen
data_KLi3(BrO3)4
_symmetry_space_group_name_H-M   'P 1'
_cell_length_a   6.98641027
_cell_length_b   6.98641044
_cell_length_c   6.96822900
_cell_angle_alpha   70.97083471
_cell_angle_beta   70.97083425
_cell_angle_gamma   88.15095107
_symmetry_Int_Tables_number   1
_chemical_formula_structural   KLi3(BrO3)4
_chemical_formula_sum   'K1 Li3 Br4 O12'
_cell_volume   302.91635123
_cell_formula_units_Z   1
loop_
 _symmetry_equiv_pos_site_id
 _symmetry_equiv_pos_as_xyz
  1  'x, y, z'
loop_
 _atom_site_type_symbol
 _atom_site_label
 _atom_site_symmetry_multiplicity
 _atom_site_fract_x
 _atom_site_fract_y
 _atom_site_fract_z
 _atom_site_occupancy
  K  K0  1  0.735831  0.264169  0.000000  1
  Li  Li1  1  0.916740  0.083260  0.500000  1
  Li  Li2  1  0.112091  0.887909  0.000000  1
  Li  Li3  1  0.255463  0.744537  0.500000  1
  Br  Br4  1  0.830695  0.582604  0.472090  1
  Br  Br5  1  0.417396  0.169305  0.527910  1
  Br  Br6  1  0.201082  0.427840  0.985181  1
  Br  Br7  1  0.572160  0.798918  0.014819  1
  O  O8  1  0.931989  0.359035  0.542965  1
  O  O9  1  0.640965  0.068011  0.457035  1
  O  O10  1  0.035781  0.597925  0.049995  1
  O  O11  1  0.402075  0.964219  0.950005  1
  O  O12  1  0.529500  0.772730  0.273830  1
  O  O13  1  0.227270  0.470500  0.726170  1
  O  O14  1  0.405242  0.324520  0.291512  1
  O  O15  1  0.675480  0.594758  0.708488  1
  O  O16  1  0.019627  0.772275  0.388228  1
  O  O17  1  0.227725  0.980373  0.611772  1
  O  O18  1  0.064131  0.201241  0.118647  1
  O  O19  1  0.798759  0.935869  0.881353  1
