# generated using pymatgen
data_LuZn3P6N13
_symmetry_space_group_name_H-M   'P 1'
_cell_length_a   7.07077737
_cell_length_b   7.12763098
_cell_length_c   7.07077760
_cell_angle_alpha   109.63416893
_cell_angle_beta   109.30776377
_cell_angle_gamma   109.63418211
_symmetry_Int_Tables_number   1
_chemical_formula_structural   LuZn3P6N13
_chemical_formula_sum   'Lu1 Zn3 P6 N13'
_cell_volume   273.76653685
_cell_formula_units_Z   1
loop_
 _symmetry_equiv_pos_site_id
 _symmetry_equiv_pos_as_xyz
  1  'x, y, z'
loop_
 _atom_site_type_symbol
 _atom_site_label
 _atom_site_symmetry_multiplicity
 _atom_site_fract_x
 _atom_site_fract_y
 _atom_site_fract_z
 _atom_site_occupancy
  Lu  Lu0  1  0.000000  0.711433  0.000000  1
  Zn  Zn1  1  0.714038  0.009593  0.000000  1
  Zn  Zn2  1  0.000000  0.009593  0.714038  1
  Zn  Zn3  1  0.285962  0.295555  0.285962  1
  P  P4  1  0.494849  0.243075  0.747171  1
  P  P5  1  0.505151  0.748227  0.252322  1
  P  P6  1  0.747678  0.495905  0.252829  1
  P  P7  1  0.252322  0.748227  0.505151  1
  P  P8  1  0.747171  0.243075  0.494849  1
  P  P9  1  0.252829  0.495905  0.747678  1
  N  N10  1  0.000000  0.732538  0.450050  1
  N  N11  1  0.281389  0.544867  0.546084  1
  N  N12  1  0.724209  0.448052  0.000000  1
  N  N13  1  0.275791  0.723844  0.275791  1
  N  N14  1  0.453916  0.998784  0.735306  1
  N  N15  1  0.718611  0.263477  0.264694  1
  N  N16  1  0.549950  0.282486  0.549950  1
  N  N17  1  0.735306  0.998784  0.453916  1
  N  N18  1  0.264694  0.263477  0.718611  1
  N  N19  1  0.450050  0.732538  0.000000  1
  N  N20  1  0.546084  0.544867  0.281389  1
  N  N21  1  0.000000  0.448052  0.724209  1
  N  N22  1  0.000000  0.017647  0.000000  1
