# generated using pymatgen
data_YbTm3(SiPt2)4
_symmetry_space_group_name_H-M   'P 1'
_cell_length_a   5.50687819
_cell_length_b   6.95507800
_cell_length_c   7.26130625
_cell_angle_alpha   90.00000000
_cell_angle_beta   89.97010415
_cell_angle_gamma   90.00000000
_symmetry_Int_Tables_number   1
_chemical_formula_structural   YbTm3(SiPt2)4
_chemical_formula_sum   'Yb1 Tm3 Si4 Pt8'
_cell_volume   278.11356322
_cell_formula_units_Z   1
loop_
 _symmetry_equiv_pos_site_id
 _symmetry_equiv_pos_as_xyz
  1  'x, y, z'
loop_
 _atom_site_type_symbol
 _atom_site_label
 _atom_site_symmetry_multiplicity
 _atom_site_fract_x
 _atom_site_fract_y
 _atom_site_fract_z
 _atom_site_occupancy
  Yb  Yb0  1  0.364690  0.750000  0.024552  1
  Tm  Tm1  1  0.137133  0.750000  0.525427  1
  Tm  Tm2  1  0.636410  0.250000  0.974307  1
  Tm  Tm3  1  0.864023  0.250000  0.475028  1
  Si  Si4  1  0.636215  0.750000  0.379498  1
  Si  Si5  1  0.865352  0.750000  0.881201  1
  Si  Si6  1  0.364169  0.250000  0.620301  1
  Si  Si7  1  0.135385  0.250000  0.119568  1
  Pt  Pt8  1  0.906846  0.549393  0.181730  1
  Pt  Pt9  1  0.595130  0.949755  0.680694  1
  Pt  Pt10  1  0.089135  0.050581  0.816498  1
  Pt  Pt11  1  0.407201  0.448568  0.321136  1
  Pt  Pt12  1  0.089135  0.449419  0.816498  1
  Pt  Pt13  1  0.407201  0.051432  0.321136  1
  Pt  Pt14  1  0.906846  0.950607  0.181730  1
  Pt  Pt15  1  0.595130  0.550245  0.680694  1
