# generated using pymatgen
data_Zr8Ti11Si16Tc
_symmetry_space_group_name_H-M   'P 1'
_cell_length_a   6.82604637
_cell_length_b   6.82045344
_cell_length_c   12.54847203
_cell_angle_alpha   90.11392559
_cell_angle_beta   90.18672503
_cell_angle_gamma   90.00851905
_symmetry_Int_Tables_number   1
_chemical_formula_structural   Zr8Ti11Si16Tc
_chemical_formula_sum   'Zr8 Ti11 Si16 Tc1'
_cell_volume   584.21157859
_cell_formula_units_Z   1
loop_
 _symmetry_equiv_pos_site_id
 _symmetry_equiv_pos_as_xyz
  1  'x, y, z'
loop_
 _atom_site_type_symbol
 _atom_site_label
 _atom_site_symmetry_multiplicity
 _atom_site_fract_x
 _atom_site_fract_y
 _atom_site_fract_z
 _atom_site_occupancy
  Zr  Zr0  1  0.002454  0.656386  0.033433  1
  Zr  Zr1  1  0.997126  0.343262  0.530894  1
  Zr  Zr2  1  0.657139  0.000796  0.968010  1
  Zr  Zr3  1  0.156870  0.497610  0.781899  1
  Zr  Zr4  1  0.842418  0.500077  0.282018  1
  Zr  Zr5  1  0.498036  0.156412  0.219088  1
  Zr  Zr6  1  0.500509  0.841938  0.716496  1
  Zr  Zr7  1  0.342733  0.998443  0.467743  1
  Ti  Ti8  1  0.846624  0.996779  0.373228  1
  Ti  Ti9  1  0.006472  0.155534  0.129042  1
  Ti  Ti10  1  0.997305  0.844353  0.625678  1
  Ti  Ti11  1  0.503931  0.345203  0.623323  1
  Ti  Ti12  1  0.153552  0.002744  0.871665  1
  Ti  Ti13  1  0.669151  0.669673  0.499363  1
  Ti  Ti14  1  0.828717  0.170474  0.750050  1
  Ti  Ti15  1  0.171836  0.830075  0.250599  1
  Ti  Ti16  1  0.330916  0.329515  0.000925  1
  Ti  Ti17  1  0.498395  0.652933  0.122480  1
  Ti  Ti18  1  0.653675  0.496251  0.877177  1
  Si  Si19  1  0.045945  0.707987  0.436257  1
  Si  Si20  1  0.956302  0.293066  0.936914  1
  Si  Si21  1  0.707258  0.046444  0.563654  1
  Si  Si22  1  0.208161  0.455875  0.187255  1
  Si  Si23  1  0.792656  0.544031  0.686258  1
  Si  Si24  1  0.455221  0.206062  0.813698  1
  Si  Si25  1  0.544907  0.791818  0.312776  1
  Si  Si26  1  0.293616  0.954854  0.063273  1
  Si  Si27  1  0.794258  0.866968  0.177687  1
  Si  Si28  1  0.293783  0.632780  0.571284  1
  Si  Si29  1  0.706291  0.364337  0.072274  1
  Si  Si30  1  0.629929  0.296032  0.428146  1
  Si  Si31  1  0.365120  0.705206  0.928080  1
  Si  Si32  1  0.134365  0.208890  0.323217  1
  Si  Si33  1  0.203971  0.135257  0.677560  1
  Si  Si34  1  0.864935  0.793839  0.821801  1
  Tc  Tc35  1  0.345425  0.508097  0.376757  1
