# generated using pymatgen
data_Na5Ni2P12Ir17
_symmetry_space_group_name_H-M   'P 1'
_cell_length_a   12.66154500
_cell_length_b   12.55804309
_cell_length_c   3.94416900
_cell_angle_alpha   90.00000000
_cell_angle_beta   90.00000000
_cell_angle_gamma   120.27301847
_symmetry_Int_Tables_number   1
_chemical_formula_structural   Na5Ni2P12Ir17
_chemical_formula_sum   'Na5 Ni2 P12 Ir17'
_cell_volume   541.61843588
_cell_formula_units_Z   1
loop_
 _symmetry_equiv_pos_site_id
 _symmetry_equiv_pos_as_xyz
  1  'x, y, z'
loop_
 _atom_site_type_symbol
 _atom_site_label
 _atom_site_symmetry_multiplicity
 _atom_site_fract_x
 _atom_site_fract_y
 _atom_site_fract_z
 _atom_site_occupancy
  Na  Na0  1  0.333835  0.666554  0.500000  1
  Na  Na1  1  0.667281  0.333446  0.500000  1
  Na  Na2  1  0.000636  0.820181  0.000000  1
  Na  Na3  1  0.180455  0.179819  0.000000  1
  Na  Na4  1  0.820212  0.000000  0.000000  1
  Ni  Ni5  1  0.999536  0.459850  0.500000  1
  Ni  Ni6  1  0.539686  0.540150  0.500000  1
  P  P7  1  0.998799  0.633133  0.500000  1
  P  P8  1  0.365665  0.366867  0.500000  1
  P  P9  1  0.637194  0.000000  0.500000  1
  P  P10  1  0.514561  0.687628  0.000000  1
  P  P11  1  0.310844  0.824334  0.000000  1
  P  P12  1  0.175869  0.485212  0.000000  1
  P  P13  1  0.486510  0.175666  0.000000  1
  P  P14  1  0.690656  0.514788  0.000000  1
  P  P15  1  0.826933  0.312372  0.000000  1
  P  P16  1  0.998435  0.180296  0.500000  1
  P  P17  1  0.818139  0.819704  0.500000  1
  P  P18  1  0.179099  0.000000  0.500000  1
  Ir  Ir19  1  0.509484  0.870519  0.000000  1
  Ir  Ir20  1  0.129468  0.636186  0.000000  1
  Ir  Ir21  1  0.361858  0.486684  0.000000  1
  Ir  Ir22  1  0.493283  0.363814  0.000000  1
  Ir  Ir23  1  0.875175  0.513316  0.000000  1
  Ir  Ir24  1  0.638966  0.129481  0.000000  1
  Ir  Ir25  1  0.456080  0.000000  0.500000  1
  Ir  Ir26  1  0.999451  0.287422  0.000000  1
  Ir  Ir27  1  0.712029  0.712578  0.000000  1
  Ir  Ir28  1  0.291010  0.000000  0.000000  1
  Ir  Ir29  1  0.619544  0.801384  0.500000  1
  Ir  Ir30  1  0.194307  0.816467  0.500000  1
  Ir  Ir31  1  0.180410  0.380697  0.500000  1
  Ir  Ir32  1  0.377840  0.183533  0.500000  1
  Ir  Ir33  1  0.799713  0.619303  0.500000  1
  Ir  Ir34  1  0.818159  0.198616  0.500000  1
  Ir  Ir35  1  0.998877  0.000000  0.500000  1
