# generated using pymatgen
data_Y9ErRu3Rh
_symmetry_space_group_name_H-M   'P 1'
_cell_length_a   6.38132765
_cell_length_b   7.33131043
_cell_length_c   8.52816241
_cell_angle_alpha   96.74446285
_cell_angle_beta   111.87645725
_cell_angle_gamma   90.06375359
_symmetry_Int_Tables_number   1
_chemical_formula_structural   Y9ErRu3Rh
_chemical_formula_sum   'Y9 Er1 Ru3 Rh1'
_cell_volume   367.24836579
_cell_formula_units_Z   1
loop_
 _symmetry_equiv_pos_site_id
 _symmetry_equiv_pos_as_xyz
  1  'x, y, z'
loop_
 _atom_site_type_symbol
 _atom_site_label
 _atom_site_symmetry_multiplicity
 _atom_site_fract_x
 _atom_site_fract_y
 _atom_site_fract_z
 _atom_site_occupancy
  Y  Y0  1  0.793494  0.582213  0.814438  1
  Y  Y1  1  0.980063  0.915352  0.188157  1
  Y  Y2  1  0.207242  0.414755  0.186033  1
  Y  Y3  1  0.023017  0.086444  0.814390  1
  Y  Y4  1  0.204207  0.683293  0.564253  1
  Y  Y5  1  0.642291  0.815120  0.432589  1
  Y  Y6  1  0.792908  0.314755  0.433580  1
  Y  Y7  1  0.357846  0.186516  0.565079  1
  Y  Y8  1  0.419751  0.749339  0.000778  1
  Er  Er9  1  0.577845  0.251693  0.001100  1
  Ru  Ru10  1  0.821960  0.575056  0.217979  1
  Ru  Ru11  1  0.397651  0.076383  0.219642  1
  Ru  Ru12  1  0.179681  0.423167  0.780714  1
  Rh  Rh13  1  0.602043  0.925914  0.781268  1
