# generated using pymatgen
data_Dy4Ta3Ti(NbSi4)2
_symmetry_space_group_name_H-M   'P 1'
_cell_length_a   7.04829057
_cell_length_b   7.04831513
_cell_length_c   12.98777025
_cell_angle_alpha   89.92178427
_cell_angle_beta   90.05939228
_cell_angle_gamma   90.01694332
_symmetry_Int_Tables_number   1
_chemical_formula_structural   Dy4Ta3Ti(NbSi4)2
_chemical_formula_sum   'Dy8 Ta6 Ti2 Nb4 Si16'
_cell_volume   645.21291785
_cell_formula_units_Z   2
loop_
 _symmetry_equiv_pos_site_id
 _symmetry_equiv_pos_as_xyz
  1  'x, y, z'
loop_
 _atom_site_type_symbol
 _atom_site_label
 _atom_site_symmetry_multiplicity
 _atom_site_fract_x
 _atom_site_fract_y
 _atom_site_fract_z
 _atom_site_occupancy
  Dy  Dy0  1  0.998519  0.657692  0.032634  1
  Dy  Dy1  1  0.002089  0.341494  0.532071  1
  Dy  Dy2  1  0.657854  0.998545  0.967369  1
  Dy  Dy3  1  0.159456  0.503160  0.782412  1
  Dy  Dy4  1  0.841506  0.498034  0.282089  1
  Dy  Dy5  1  0.502892  0.159530  0.217602  1
  Dy  Dy6  1  0.498028  0.841307  0.717918  1
  Dy  Dy7  1  0.341391  0.001766  0.467972  1
  Ta  Ta8  1  0.508873  0.346402  0.624035  1
  Ta  Ta9  1  0.153262  0.008611  0.873617  1
  Ta  Ta10  1  0.672009  0.671758  0.500252  1
  Ta  Ta11  1  0.829197  0.170741  0.750318  1
  Ta  Ta12  1  0.170550  0.829324  0.249720  1
  Ta  Ta13  1  0.326468  0.326341  0.999737  1
  Ti  Ti14  1  0.492550  0.653048  0.123885  1
  Ti  Ti15  1  0.653108  0.492694  0.876023  1
  Nb  Nb16  1  0.346287  0.508345  0.376045  1
  Nb  Nb17  1  0.847182  0.992222  0.374509  1
  Nb  Nb18  1  0.008265  0.152940  0.126204  1
  Nb  Nb19  1  0.992458  0.846985  0.625576  1
  Si  Si20  1  0.045356  0.705858  0.436093  1
  Si  Si21  1  0.952648  0.295000  0.935672  1
  Si  Si22  1  0.705767  0.045701  0.564000  1
  Si  Si23  1  0.208187  0.455434  0.185309  1
  Si  Si24  1  0.793497  0.544941  0.687399  1
  Si  Si25  1  0.455212  0.208159  0.814615  1
  Si  Si26  1  0.545164  0.793364  0.312522  1
  Si  Si27  1  0.294826  0.952620  0.064077  1
  Si  Si28  1  0.794823  0.865162  0.181913  1
  Si  Si29  1  0.297102  0.633281  0.568263  1
  Si  Si30  1  0.700545  0.368707  0.066023  1
  Si  Si31  1  0.633355  0.297023  0.432109  1
  Si  Si32  1  0.368446  0.701100  0.933772  1
  Si  Si33  1  0.133697  0.203858  0.317477  1
  Si  Si34  1  0.204141  0.133801  0.682481  1
  Si  Si35  1  0.865295  0.795058  0.818287  1
