# generated using pymatgen
data_NaGd(IO3)4
_symmetry_space_group_name_H-M   'P 1'
_cell_length_a   5.25339200
_cell_length_b   7.33587845
_cell_length_c   16.21035486
_cell_angle_alpha   78.81245055
_cell_angle_beta   90.00000000
_cell_angle_gamma   90.00000000
_symmetry_Int_Tables_number   1
_chemical_formula_structural   NaGd(IO3)4
_chemical_formula_sum   'Na2 Gd2 I8 O24'
_cell_volume   612.84731379
_cell_formula_units_Z   2
loop_
 _symmetry_equiv_pos_site_id
 _symmetry_equiv_pos_as_xyz
  1  'x, y, z'
loop_
 _atom_site_type_symbol
 _atom_site_label
 _atom_site_symmetry_multiplicity
 _atom_site_fract_x
 _atom_site_fract_y
 _atom_site_fract_z
 _atom_site_occupancy
  Na  Na0  1  0.500000  0.500000  0.000000  1
  Na  Na1  1  0.000000  0.500000  0.500000  1
  Gd  Gd2  1  0.500000  0.000000  0.000000  1
  Gd  Gd3  1  0.000000  0.000000  0.500000  1
  I  I4  1  0.905694  0.663078  0.166568  1
  I  I5  1  0.405694  0.336922  0.333432  1
  I  I6  1  0.094306  0.336922  0.833432  1
  I  I7  1  0.594306  0.663078  0.666568  1
  I  I8  1  0.992480  0.187682  0.140548  1
  I  I9  1  0.492480  0.812318  0.359452  1
  I  I10  1  0.007520  0.812318  0.859452  1
  I  I11  1  0.507520  0.187682  0.640548  1
  O  O12  1  0.685790  0.736551  0.076007  1
  O  O13  1  0.185790  0.263449  0.423993  1
  O  O14  1  0.314210  0.263449  0.923993  1
  O  O15  1  0.814210  0.736551  0.576007  1
  O  O16  1  0.794620  0.826699  0.230895  1
  O  O17  1  0.294620  0.173301  0.269105  1
  O  O18  1  0.205380  0.173301  0.769105  1
  O  O19  1  0.705380  0.826699  0.730895  1
  O  O20  1  0.738942  0.446134  0.210648  1
  O  O21  1  0.238942  0.553866  0.289352  1
  O  O22  1  0.261058  0.553866  0.789352  1
  O  O23  1  0.761058  0.446134  0.710648  1
  O  O24  1  0.741653  0.201709  0.058176  1
  O  O25  1  0.241653  0.798291  0.441824  1
  O  O26  1  0.258347  0.798291  0.941824  1
  O  O27  1  0.758347  0.201709  0.558176  1
  O  O28  1  0.195740  0.011311  0.104546  1
  O  O29  1  0.695740  0.988689  0.395454  1
  O  O30  1  0.804260  0.988689  0.895454  1
  O  O31  1  0.304260  0.011311  0.604546  1
  O  O32  1  0.157170  0.400811  0.095501  1
  O  O33  1  0.657170  0.599189  0.404499  1
  O  O34  1  0.842830  0.599189  0.904499  1
  O  O35  1  0.342830  0.400811  0.595501  1
