# generated using pymatgen
data_Th6BI12
_symmetry_space_group_name_H-M   'P 1'
_cell_length_a   9.82794366
_cell_length_b   9.82794430
_cell_length_c   9.82794416
_cell_angle_alpha   106.76868685
_cell_angle_beta   106.76869138
_cell_angle_gamma   106.76867737
_symmetry_Int_Tables_number   1
_chemical_formula_structural   Th6BI12
_chemical_formula_sum   'Th6 B1 I12'
_cell_volume   795.49370237
_cell_formula_units_Z   1
loop_
 _symmetry_equiv_pos_site_id
 _symmetry_equiv_pos_as_xyz
  1  'x, y, z'
loop_
 _atom_site_type_symbol
 _atom_site_label
 _atom_site_symmetry_multiplicity
 _atom_site_fract_x
 _atom_site_fract_y
 _atom_site_fract_z
 _atom_site_occupancy
  Th  Th0  1  0.974780  0.710325  0.904940  1
  Th  Th1  1  0.289675  0.095060  0.025220  1
  Th  Th2  1  0.095060  0.025220  0.289675  1
  Th  Th3  1  0.904940  0.974780  0.710325  1
  Th  Th4  1  0.710325  0.904940  0.974780  1
  Th  Th5  1  0.025220  0.289675  0.095060  1
  B  B6  1  0.000000  0.000000  0.000000  1
  I  I7  1  0.919874  0.318911  0.766962  1
  I  I8  1  0.681089  0.233038  0.080126  1
  I  I9  1  0.452286  0.145310  0.371378  1
  I  I10  1  0.854690  0.628622  0.547714  1
  I  I11  1  0.233038  0.080126  0.681089  1
  I  I12  1  0.628622  0.547714  0.854690  1
  I  I13  1  0.371378  0.452286  0.145310  1
  I  I14  1  0.766962  0.919874  0.318911  1
  I  I15  1  0.145310  0.371378  0.452286  1
  I  I16  1  0.547714  0.854690  0.628622  1
  I  I17  1  0.318911  0.766962  0.919874  1
  I  I18  1  0.080126  0.681089  0.233038  1
