# generated using pymatgen
data_Yb2Pa2S3O4
_symmetry_space_group_name_H-M   'P 1'
_cell_length_a   3.85019400
_cell_length_b   6.72129000
_cell_length_c   14.16718100
_cell_angle_alpha   90.00000000
_cell_angle_beta   90.00000000
_cell_angle_gamma   90.00000000
_symmetry_Int_Tables_number   1
_chemical_formula_structural   Yb2Pa2S3O4
_chemical_formula_sum   'Yb4 Pa4 S6 O8'
_cell_volume   366.62214115
_cell_formula_units_Z   2
loop_
 _symmetry_equiv_pos_site_id
 _symmetry_equiv_pos_as_xyz
  1  'x, y, z'
loop_
 _atom_site_type_symbol
 _atom_site_label
 _atom_site_symmetry_multiplicity
 _atom_site_fract_x
 _atom_site_fract_y
 _atom_site_fract_z
 _atom_site_occupancy
  Yb  Yb0  1  0.500000  0.277397  0.660955  1
  Yb  Yb1  1  0.500000  0.722603  0.339045  1
  Yb  Yb2  1  0.500000  0.777397  0.839045  1
  Yb  Yb3  1  0.500000  0.222603  0.160955  1
  Pa  Pa4  1  0.000000  0.215225  0.920018  1
  Pa  Pa5  1  0.000000  0.784775  0.079982  1
  Pa  Pa6  1  0.000000  0.715225  0.579982  1
  Pa  Pa7  1  0.000000  0.284775  0.420018  1
  S  S8  1  0.000000  0.014976  0.279952  1
  S  S9  1  0.000000  0.985024  0.720048  1
  S  S10  1  0.000000  0.514976  0.220048  1
  S  S11  1  0.000000  0.485024  0.779952  1
  S  S12  1  0.500000  0.000000  0.500000  1
  S  S13  1  0.500000  0.500000  0.000000  1
  O  O14  1  0.500000  0.119812  0.879115  1
  O  O15  1  0.500000  0.880188  0.120885  1
  O  O16  1  0.500000  0.619812  0.620885  1
  O  O17  1  0.500000  0.380188  0.379115  1
  O  O18  1  0.000000  0.362531  0.564765  1
  O  O19  1  0.000000  0.637469  0.435235  1
  O  O20  1  0.000000  0.862531  0.935235  1
  O  O21  1  0.000000  0.137469  0.064765  1
