# generated using pymatgen
data_Zr10Zn2SnBi3Pb2
_symmetry_space_group_name_H-M   'P 1'
_cell_length_a   8.84359794
_cell_length_b   8.83344681
_cell_length_c   5.92589600
_cell_angle_alpha   90.00000000
_cell_angle_beta   90.00000000
_cell_angle_gamma   119.96203876
_symmetry_Int_Tables_number   1
_chemical_formula_structural   Zr10Zn2SnBi3Pb2
_chemical_formula_sum   'Zr10 Zn2 Sn1 Bi3 Pb2'
_cell_volume   401.06045833
_cell_formula_units_Z   1
loop_
 _symmetry_equiv_pos_site_id
 _symmetry_equiv_pos_as_xyz
  1  'x, y, z'
loop_
 _atom_site_type_symbol
 _atom_site_label
 _atom_site_symmetry_multiplicity
 _atom_site_fract_x
 _atom_site_fract_y
 _atom_site_fract_z
 _atom_site_occupancy
  Zr  Zr0  1  0.669992  0.333844  0.002296  1
  Zr  Zr1  1  0.330008  0.663853  0.002296  1
  Zr  Zr2  1  0.330008  0.663853  0.497704  1
  Zr  Zr3  1  0.669992  0.333844  0.497704  1
  Zr  Zr4  1  0.737780  0.737132  0.750000  1
  Zr  Zr5  1  0.262220  0.999352  0.750000  1
  Zr  Zr6  1  0.000000  0.264948  0.750000  1
  Zr  Zr7  1  0.265201  0.269873  0.250000  1
  Zr  Zr8  1  0.734799  0.004672  0.250000  1
  Zr  Zr9  1  0.000000  0.728722  0.250000  1
  Zn  Zn10  1  0.000000  0.999697  0.007011  1
  Zn  Zn11  1  0.000000  0.999697  0.492989  1
  Sn  Sn12  1  0.000000  0.383519  0.250000  1
  Bi  Bi13  1  0.387918  0.386693  0.750000  1
  Bi  Bi14  1  0.612082  0.998775  0.750000  1
  Bi  Bi15  1  0.000000  0.612323  0.750000  1
  Pb  Pb16  1  0.617420  0.618311  0.250000  1
  Pb  Pb17  1  0.382580  0.000890  0.250000  1
