# generated using pymatgen
data_Ca12Dy8Si15Ge
_symmetry_space_group_name_H-M   'P 1'
_cell_length_a   7.41533406
_cell_length_b   7.81381054
_cell_length_c   15.14217800
_cell_angle_alpha   90.05011853
_cell_angle_beta   89.92676668
_cell_angle_gamma   90.02153398
_symmetry_Int_Tables_number   1
_chemical_formula_structural   Ca12Dy8Si15Ge
_chemical_formula_sum   'Ca12 Dy8 Si15 Ge1'
_cell_volume   877.36719691
_cell_formula_units_Z   1
loop_
 _symmetry_equiv_pos_site_id
 _symmetry_equiv_pos_as_xyz
  1  'x, y, z'
loop_
 _atom_site_type_symbol
 _atom_site_label
 _atom_site_symmetry_multiplicity
 _atom_site_fract_x
 _atom_site_fract_y
 _atom_site_fract_z
 _atom_site_occupancy
  Ca  Ca0  1  0.650568  0.980496  0.250160  1
  Ca  Ca1  1  0.150864  0.519237  0.250109  1
  Ca  Ca2  1  0.849353  0.480741  0.749247  1
  Ca  Ca3  1  0.349251  0.019521  0.749629  1
  Ca  Ca4  1  0.976734  0.817407  0.095675  1
  Ca  Ca5  1  0.475917  0.682746  0.404744  1
  Ca  Ca6  1  0.521765  0.316066  0.904725  1
  Ca  Ca7  1  0.024134  0.182749  0.595069  1
  Ca  Ca8  1  0.024415  0.182304  0.904794  1
  Ca  Ca9  1  0.524063  0.317271  0.595147  1
  Ca  Ca10  1  0.476123  0.683318  0.095599  1
  Ca  Ca11  1  0.975806  0.817115  0.404774  1
  Dy  Dy12  1  0.682328  0.825006  0.877924  1
  Dy  Dy13  1  0.183475  0.677237  0.621209  1
  Dy  Dy14  1  0.817689  0.322355  0.121573  1
  Dy  Dy15  1  0.316674  0.177200  0.378844  1
  Dy  Dy16  1  0.317405  0.176595  0.121743  1
  Dy  Dy17  1  0.816684  0.322800  0.378825  1
  Dy  Dy18  1  0.183896  0.676980  0.878803  1
  Dy  Dy19  1  0.683430  0.823041  0.621096  1
  Si  Si20  1  0.755560  0.604491  0.250123  1
  Si  Si21  1  0.255361  0.895202  0.250307  1
  Si  Si22  1  0.744843  0.105135  0.749647  1
  Si  Si23  1  0.244546  0.395527  0.749890  1
  Si  Si24  1  0.026255  0.116657  0.250325  1
  Si  Si25  1  0.526499  0.382910  0.250258  1
  Si  Si26  1  0.473867  0.617208  0.749750  1
  Si  Si27  1  0.973876  0.883022  0.749806  1
  Si  Si28  1  0.357626  0.964805  0.537562  1
  Si  Si29  1  0.642696  0.035170  0.037631  1
  Si  Si30  1  0.142381  0.464797  0.462416  1
  Si  Si31  1  0.146639  0.464113  0.038309  1
  Si  Si32  1  0.642350  0.035192  0.462360  1
  Si  Si33  1  0.357509  0.964588  0.962634  1
  Si  Si34  1  0.857665  0.535286  0.537577  1
  Ge  Ge35  1  0.851754  0.535714  0.961722  1
