# generated using pymatgen
data_Dy10Al(ZnRu2)3
_symmetry_space_group_name_H-M   'P 1'
_cell_length_a   8.28590347
_cell_length_b   8.34514612
_cell_length_c   8.28590307
_cell_angle_alpha   109.61612130
_cell_angle_beta   109.32593027
_cell_angle_gamma   109.61612926
_symmetry_Int_Tables_number   1
_chemical_formula_structural   Dy10Al(ZnRu2)3
_chemical_formula_sum   'Dy10 Al1 Zn3 Ru6'
_cell_volume   440.26278611
_cell_formula_units_Z   1
loop_
 _symmetry_equiv_pos_site_id
 _symmetry_equiv_pos_as_xyz
  1  'x, y, z'
loop_
 _atom_site_type_symbol
 _atom_site_label
 _atom_site_symmetry_multiplicity
 _atom_site_fract_x
 _atom_site_fract_y
 _atom_site_fract_z
 _atom_site_occupancy
  Dy  Dy0  1  0.250670  0.680833  0.433437  1
  Dy  Dy1  1  0.749455  0.819069  0.066146  1
  Dy  Dy2  1  0.433855  0.252922  0.683309  1
  Dy  Dy3  1  0.682766  0.430164  0.249330  1
  Dy  Dy4  1  0.066564  0.747397  0.817234  1
  Dy  Dy5  1  0.816691  0.069614  0.750545  1
  Dy  Dy6  1  0.219116  0.219545  0.220076  1
  Dy  Dy7  1  0.500961  0.000427  0.280884  1
  Dy  Dy8  1  0.279924  0.499469  0.999040  1
  Dy  Dy9  1  0.000000  0.280396  0.500001  1
  Al  Al10  1  0.000000  0.906958  0.500001  1
  Zn  Zn11  1  0.498101  0.000136  0.909820  1
  Zn  Zn12  1  0.590180  0.590315  0.588280  1
  Zn  Zn13  1  0.911720  0.502036  0.001900  1
  Ru  Ru14  1  0.241552  0.123480  0.870849  1
  Ru  Ru15  1  0.748566  0.369965  0.618651  1
  Ru  Ru16  1  0.881348  0.251316  0.129914  1
  Ru  Ru17  1  0.129298  0.881929  0.258450  1
  Ru  Ru18  1  0.629150  0.752631  0.370701  1
  Ru  Ru19  1  0.370085  0.621399  0.751434  1
