# generated using pymatgen
data_Ho3Tm7(In2Te)2
_symmetry_space_group_name_H-M   'P 1'
_cell_length_a   8.90447800
_cell_length_b   8.90236658
_cell_length_c   6.47494500
_cell_angle_alpha   90.00000000
_cell_angle_beta   90.00000000
_cell_angle_gamma   120.00784600
_symmetry_Int_Tables_number   1
_chemical_formula_structural   Ho3Tm7(In2Te)2
_chemical_formula_sum   'Ho3 Tm7 In4 Te2'
_cell_volume   444.47395018
_cell_formula_units_Z   1
loop_
 _symmetry_equiv_pos_site_id
 _symmetry_equiv_pos_as_xyz
  1  'x, y, z'
loop_
 _atom_site_type_symbol
 _atom_site_label
 _atom_site_symmetry_multiplicity
 _atom_site_fract_x
 _atom_site_fract_y
 _atom_site_fract_z
 _atom_site_occupancy
  Ho  Ho0  1  0.760930  0.000000  0.750000  1
  Ho  Ho1  1  0.240722  0.233914  0.750000  1
  Ho  Ho2  1  0.006807  0.766086  0.750000  1
  Tm  Tm3  1  0.331685  0.667332  0.004045  1
  Tm  Tm4  1  0.664353  0.332668  0.495955  1
  Tm  Tm5  1  0.664353  0.332668  0.004045  1
  Tm  Tm6  1  0.331685  0.667332  0.495955  1
  Tm  Tm7  1  0.237503  0.000000  0.250000  1
  Tm  Tm8  1  0.998046  0.236832  0.250000  1
  Tm  Tm9  1  0.761214  0.763168  0.250000  1
  In  In10  1  0.604197  0.000000  0.250000  1
  In  In11  1  0.401656  0.000000  0.750000  1
  In  In12  1  0.997951  0.605374  0.250000  1
  In  In13  1  0.392578  0.394626  0.250000  1
  Te  Te14  1  0.606595  0.606868  0.750000  1
  Te  Te15  1  0.999727  0.393132  0.750000  1
