# generated using pymatgen
data_Ba4B4Pd7Pt9
_symmetry_space_group_name_H-M   'P 1'
_cell_length_a   6.21573002
_cell_length_b   5.69216700
_cell_length_c   12.17744899
_cell_angle_alpha   90.00000000
_cell_angle_beta   89.74902837
_cell_angle_gamma   90.00000000
_symmetry_Int_Tables_number   1
_chemical_formula_structural   Ba4B4Pd7Pt9
_chemical_formula_sum   'Ba4 B4 Pd7 Pt9'
_cell_volume   430.84586413
_cell_formula_units_Z   1
loop_
 _symmetry_equiv_pos_site_id
 _symmetry_equiv_pos_as_xyz
  1  'x, y, z'
loop_
 _atom_site_type_symbol
 _atom_site_label
 _atom_site_symmetry_multiplicity
 _atom_site_fract_x
 _atom_site_fract_y
 _atom_site_fract_z
 _atom_site_occupancy
  Ba  Ba0  1  0.182874  0.250000  0.334364  1
  Ba  Ba1  1  0.683617  0.250000  0.165519  1
  Ba  Ba2  1  0.818792  0.750000  0.666220  1
  Ba  Ba3  1  0.318524  0.750000  0.834998  1
  B  B4  1  0.094765  0.250000  0.948426  1
  B  B5  1  0.590979  0.250000  0.546608  1
  B  B6  1  0.908937  0.750000  0.047221  1
  B  B7  1  0.407445  0.750000  0.453584  1
  Pd  Pd8  1  0.608374  0.250000  0.733591  1
  Pd  Pd9  1  0.891812  0.750000  0.234148  1
  Pd  Pd10  1  0.390660  0.750000  0.266112  1
  Pd  Pd11  1  0.438044  0.250000  0.941380  1
  Pd  Pd12  1  0.932929  0.250000  0.559990  1
  Pd  Pd13  1  0.565097  0.750000  0.059139  1
  Pd  Pd14  1  0.064514  0.750000  0.441093  1
  Pt  Pt15  1  0.107292  0.250000  0.766187  1
  Pt  Pt16  1  0.330135  0.007606  0.583822  1
  Pt  Pt17  1  0.831372  0.494266  0.917139  1
  Pt  Pt18  1  0.667520  0.507332  0.417576  1
  Pt  Pt19  1  0.168646  0.993654  0.082172  1
  Pt  Pt20  1  0.667520  0.992668  0.417576  1
  Pt  Pt21  1  0.168646  0.506346  0.082172  1
  Pt  Pt22  1  0.330135  0.492394  0.583822  1
  Pt  Pt23  1  0.831372  0.005734  0.917139  1
