# generated using pymatgen
data_DyHo5LuScO12
_symmetry_space_group_name_H-M   'P 1'
_cell_length_a   6.62244299
_cell_length_b   6.62004406
_cell_length_c   6.61893154
_cell_angle_alpha   92.35852321
_cell_angle_beta   92.35806216
_cell_angle_gamma   92.37917374
_symmetry_Int_Tables_number   1
_chemical_formula_structural   DyHo5LuScO12
_chemical_formula_sum   'Dy1 Ho5 Lu1 Sc1 O12'
_cell_volume   289.41692130
_cell_formula_units_Z   1
loop_
 _symmetry_equiv_pos_site_id
 _symmetry_equiv_pos_as_xyz
  1  'x, y, z'
loop_
 _atom_site_type_symbol
 _atom_site_label
 _atom_site_symmetry_multiplicity
 _atom_site_fract_x
 _atom_site_fract_y
 _atom_site_fract_z
 _atom_site_occupancy
  Dy  Dy0  1  0.744426  0.930602  0.439307  1
  Ho  Ho1  1  0.930621  0.439383  0.744575  1
  Ho  Ho2  1  0.439296  0.744495  0.930487  1
  Ho  Ho3  1  0.255490  0.069559  0.560690  1
  Ho  Ho4  1  0.069589  0.560504  0.255476  1
  Ho  Ho5  1  0.560528  0.255566  0.069363  1
  Lu  Lu6  1  0.000149  0.000042  0.999930  1
  Sc  Sc7  1  0.499860  0.499852  0.500049  1
  O  O8  1  0.593479  0.464223  0.806776  1
  O  O9  1  0.463148  0.806274  0.594050  1
  O  O10  1  0.806937  0.592160  0.464285  1
  O  O11  1  0.406568  0.535826  0.193220  1
  O  O12  1  0.534805  0.194170  0.406354  1
  O  O13  1  0.193193  0.406530  0.535766  1
  O  O14  1  0.070430  0.909092  0.313387  1
  O  O15  1  0.909179  0.313714  0.069519  1
  O  O16  1  0.686173  0.930665  0.089605  1
  O  O17  1  0.090742  0.686277  0.930566  1
  O  O18  1  0.931585  0.091618  0.687362  1
  O  O19  1  0.313802  0.069450  0.909234  1
