# generated using pymatgen
data_K7La(US5)2
_symmetry_space_group_name_H-M   'P 1'
_cell_length_a   7.62956506
_cell_length_b   11.41738449
_cell_length_c   7.38316400
_cell_angle_alpha   102.01473126
_cell_angle_beta   100.47554692
_cell_angle_gamma   109.93379542
_symmetry_Int_Tables_number   1
_chemical_formula_structural   K7La(US5)2
_chemical_formula_sum   'K7 La1 U2 S10'
_cell_volume   568.58098857
_cell_formula_units_Z   1
loop_
 _symmetry_equiv_pos_site_id
 _symmetry_equiv_pos_as_xyz
  1  'x, y, z'
loop_
 _atom_site_type_symbol
 _atom_site_label
 _atom_site_symmetry_multiplicity
 _atom_site_fract_x
 _atom_site_fract_y
 _atom_site_fract_z
 _atom_site_occupancy
  K  K0  1  0.000072  0.499943  0.000115  1
  K  K1  1  0.415104  0.904161  0.202451  1
  K  K2  1  0.594383  0.593281  0.294067  1
  K  K3  1  0.792303  0.303543  0.419880  1
  K  K4  1  0.207770  0.696397  0.579918  1
  K  K5  1  0.405379  0.406543  0.705903  1
  K  K6  1  0.585109  0.096145  0.797633  1
  La  La7  1  0.000103  0.000105  0.500003  1
  U  U8  1  0.193085  0.198833  0.101591  1
  U  U9  1  0.806828  0.801075  0.898337  1
  S  S10  1  0.525188  0.314338  0.060795  1
  S  S11  1  0.843796  0.037747  0.136731  1
  S  S12  1  0.985502  0.774286  0.221478  1
  S  S13  1  0.179295  0.402586  0.307651  1
  S  S14  1  0.347547  0.145039  0.410560  1
  S  S15  1  0.652634  0.855084  0.589526  1
  S  S16  1  0.820650  0.597219  0.692419  1
  S  S17  1  0.014481  0.225816  0.778525  1
  S  S18  1  0.156124  0.962229  0.863193  1
  S  S19  1  0.474650  0.685628  0.939227  1
