# generated using pymatgen
data_NaAlPtO4
_symmetry_space_group_name_H-M   'P 1'
_cell_length_a   6.39139800
_cell_length_b   5.84308100
_cell_length_c   8.66579400
_cell_angle_alpha   90.00000000
_cell_angle_beta   90.00000000
_cell_angle_gamma   90.00000000
_symmetry_Int_Tables_number   1
_chemical_formula_structural   NaAlPtO4
_chemical_formula_sum   'Na4 Al4 Pt4 O16'
_cell_volume   323.62803041
_cell_formula_units_Z   4
loop_
 _symmetry_equiv_pos_site_id
 _symmetry_equiv_pos_as_xyz
  1  'x, y, z'
loop_
 _atom_site_type_symbol
 _atom_site_label
 _atom_site_symmetry_multiplicity
 _atom_site_fract_x
 _atom_site_fract_y
 _atom_site_fract_z
 _atom_site_occupancy
  Na  Na0  1  0.500690  0.500000  0.104805  1
  Na  Na1  1  0.000690  0.500000  0.395195  1
  Na  Na2  1  0.999310  0.000000  0.604804  1
  Na  Na3  1  0.499310  0.000000  0.895195  1
  Al  Al4  1  0.000000  0.250000  0.000000  1
  Al  Al5  1  0.000000  0.750000  0.000000  1
  Al  Al6  1  0.500001  0.250000  0.500000  1
  Al  Al7  1  0.500001  0.750000  0.500000  1
  Pt  Pt8  1  0.749143  0.000000  0.249517  1
  Pt  Pt9  1  0.249142  0.000000  0.250481  1
  Pt  Pt10  1  0.750858  0.500000  0.749517  1
  Pt  Pt11  1  0.250858  0.500000  0.750481  1
  O  O12  1  0.801049  0.000000  0.012769  1
  O  O13  1  0.198428  0.000000  0.013663  1
  O  O14  1  0.998838  0.221104  0.225284  1
  O  O15  1  0.998838  0.778896  0.225284  1
  O  O16  1  0.498838  0.221104  0.274716  1
  O  O17  1  0.498838  0.778896  0.274716  1
  O  O18  1  0.698429  0.000000  0.486335  1
  O  O19  1  0.301050  0.000000  0.487230  1
  O  O20  1  0.698952  0.500000  0.512768  1
  O  O21  1  0.301571  0.500000  0.513663  1
  O  O22  1  0.501161  0.278896  0.725284  1
  O  O23  1  0.501161  0.721104  0.725284  1
  O  O24  1  0.001162  0.278896  0.774714  1
  O  O25  1  0.001162  0.721104  0.774714  1
  O  O26  1  0.801572  0.500000  0.986336  1
  O  O27  1  0.198951  0.500000  0.987230  1
