# generated using pymatgen
data_Zr10AgSnBiPb5
_symmetry_space_group_name_H-M   'P 1'
_cell_length_a   8.93244009
_cell_length_b   8.93244038
_cell_length_c   6.00498465
_cell_angle_alpha   90.02675185
_cell_angle_beta   90.02675462
_cell_angle_gamma   119.94994780
_symmetry_Int_Tables_number   1
_chemical_formula_structural   Zr10AgSnBiPb5
_chemical_formula_sum   'Zr10 Ag1 Sn1 Bi1 Pb5'
_cell_volume   415.14652078
_cell_formula_units_Z   1
loop_
 _symmetry_equiv_pos_site_id
 _symmetry_equiv_pos_as_xyz
  1  'x, y, z'
loop_
 _atom_site_type_symbol
 _atom_site_label
 _atom_site_symmetry_multiplicity
 _atom_site_fract_x
 _atom_site_fract_y
 _atom_site_fract_z
 _atom_site_occupancy
  Zr  Zr0  1  0.667093  0.333449  0.000551  1
  Zr  Zr1  1  0.333449  0.667093  0.000551  1
  Zr  Zr2  1  0.333386  0.666875  0.499455  1
  Zr  Zr3  1  0.666875  0.333386  0.499455  1
  Zr  Zr4  1  0.722400  0.722400  0.751357  1
  Zr  Zr5  1  0.277337  0.999323  0.751597  1
  Zr  Zr6  1  0.999323  0.277337  0.751597  1
  Zr  Zr7  1  0.277506  0.277506  0.248522  1
  Zr  Zr8  1  0.722259  0.999851  0.248402  1
  Zr  Zr9  1  0.999851  0.722259  0.248402  1
  Ag  Ag10  1  0.999649  0.999649  0.499623  1
  Sn  Sn11  1  0.999735  0.999735  0.000251  1
  Bi  Bi12  1  0.382966  0.382966  0.748319  1
  Pb  Pb13  1  0.617881  0.000006  0.748288  1
  Pb  Pb14  1  0.000006  0.617881  0.748288  1
  Pb  Pb15  1  0.618242  0.618242  0.251644  1
  Pb  Pb16  1  0.382216  0.999826  0.251848  1
  Pb  Pb17  1  0.999826  0.382216  0.251848  1
