# generated using pymatgen
data_TaNb3Si2(B2Ru5)2
_symmetry_space_group_name_H-M   'P 1'
_cell_length_a   9.28332162
_cell_length_b   9.28332162
_cell_length_c   2.96676700
_cell_angle_alpha   90.00000000
_cell_angle_beta   90.00000000
_cell_angle_gamma   90.04195661
_symmetry_Int_Tables_number   1
_chemical_formula_structural   TaNb3Si2(B2Ru5)2
_chemical_formula_sum   'Ta1 Nb3 Si2 B4 Ru10'
_cell_volume   255.67609053
_cell_formula_units_Z   1
loop_
 _symmetry_equiv_pos_site_id
 _symmetry_equiv_pos_as_xyz
  1  'x, y, z'
loop_
 _atom_site_type_symbol
 _atom_site_label
 _atom_site_symmetry_multiplicity
 _atom_site_fract_x
 _atom_site_fract_y
 _atom_site_fract_z
 _atom_site_occupancy
  Ta  Ta0  1  0.677307  0.177307  0.000000  1
  Nb  Nb1  1  0.822460  0.677454  0.000000  1
  Nb  Nb2  1  0.177454  0.322460  0.000000  1
  Nb  Nb3  1  0.322901  0.822901  0.000000  1
  Si  Si4  1  0.499837  0.500147  0.000000  1
  Si  Si5  1  0.000147  0.999837  0.000000  1
  B  B6  1  0.624933  0.875066  0.000000  1
  B  B7  1  0.375066  0.124933  0.000000  1
  B  B8  1  0.124764  0.624764  0.000000  1
  B  B9  1  0.875314  0.375314  0.000000  1
  Ru  Ru10  1  0.566702  0.711440  0.500000  1
  Ru  Ru11  1  0.433996  0.288306  0.500000  1
  Ru  Ru12  1  0.066522  0.788521  0.500000  1
  Ru  Ru13  1  0.932367  0.211373  0.500000  1
  Ru  Ru14  1  0.288521  0.566522  0.500000  1
  Ru  Ru15  1  0.711373  0.432367  0.500000  1
  Ru  Ru16  1  0.211440  0.066702  0.500000  1
  Ru  Ru17  1  0.788306  0.933996  0.500000  1
  Ru  Ru18  1  0.500599  0.000599  0.500000  1
  Ru  Ru19  1  0.999991  0.499991  0.500000  1
