# generated using pymatgen
data_La5Pr(FeBr3)2
_symmetry_space_group_name_H-M   'P 1'
_cell_length_a   4.22969400
_cell_length_b   9.38752929
_cell_length_c   11.78477299
_cell_angle_alpha   87.55464949
_cell_angle_beta   90.00000000
_cell_angle_gamma   90.00000000
_symmetry_Int_Tables_number   1
_chemical_formula_structural   La5Pr(FeBr3)2
_chemical_formula_sum   'La5 Pr1 Fe2 Br6'
_cell_volume   467.50452055
_cell_formula_units_Z   1
loop_
 _symmetry_equiv_pos_site_id
 _symmetry_equiv_pos_as_xyz
  1  'x, y, z'
loop_
 _atom_site_type_symbol
 _atom_site_label
 _atom_site_symmetry_multiplicity
 _atom_site_fract_x
 _atom_site_fract_y
 _atom_site_fract_z
 _atom_site_occupancy
  La  La0  1  0.750000  0.671690  0.128255  1
  La  La1  1  0.250000  0.327134  0.873807  1
  La  La2  1  0.250000  0.881745  0.332051  1
  La  La3  1  0.750000  0.120405  0.666953  1
  La  La4  1  0.250000  0.900880  0.893419  1
  Pr  Pr5  1  0.750000  0.096610  0.106516  1
  Fe  Fe6  1  0.250000  0.878353  0.140929  1
  Fe  Fe7  1  0.750000  0.119295  0.856680  1
  Br  Br8  1  0.250000  0.882020  0.619525  1
  Br  Br9  1  0.750000  0.120281  0.378521  1
  Br  Br10  1  0.750000  0.646458  0.382462  1
  Br  Br11  1  0.250000  0.357301  0.619823  1
  Br  Br12  1  0.250000  0.389118  0.130127  1
  Br  Br13  1  0.750000  0.608708  0.870937  1
