# generated using pymatgen
data_Ca7NbGe2N9
_symmetry_space_group_name_H-M   'P 1'
_cell_length_a   10.15637200
_cell_length_b   6.10651407
_cell_length_c   9.14458958
_cell_angle_alpha   87.24335827
_cell_angle_beta   90.00000000
_cell_angle_gamma   90.00000000
_symmetry_Int_Tables_number   1
_chemical_formula_structural   Ca7NbGe2N9
_chemical_formula_sum   'Ca14 Nb2 Ge4 N18'
_cell_volume   566.49141407
_cell_formula_units_Z   2
loop_
 _symmetry_equiv_pos_site_id
 _symmetry_equiv_pos_as_xyz
  1  'x, y, z'
loop_
 _atom_site_type_symbol
 _atom_site_label
 _atom_site_symmetry_multiplicity
 _atom_site_fract_x
 _atom_site_fract_y
 _atom_site_fract_z
 _atom_site_occupancy
  Ca  Ca0  1  0.940940  0.429768  0.166252  1
  Ca  Ca1  1  0.076443  0.247844  0.493584  1
  Ca  Ca2  1  0.250000  0.087438  0.799402  1
  Ca  Ca3  1  0.440940  0.570232  0.833748  1
  Ca  Ca4  1  0.576443  0.752156  0.506416  1
  Ca  Ca5  1  0.576925  0.068828  0.830558  1
  Ca  Ca6  1  0.923075  0.068828  0.830558  1
  Ca  Ca7  1  0.423075  0.931172  0.169442  1
  Ca  Ca8  1  0.423557  0.247844  0.493584  1
  Ca  Ca9  1  0.076925  0.931172  0.169442  1
  Ca  Ca10  1  0.923557  0.752156  0.506416  1
  Ca  Ca11  1  0.059060  0.570232  0.833748  1
  Ca  Ca12  1  0.750000  0.912562  0.200598  1
  Ca  Ca13  1  0.559060  0.429768  0.166252  1
  Nb  Nb14  1  0.750000  0.277708  0.434360  1
  Nb  Nb15  1  0.250000  0.722292  0.565640  1
  Ge  Ge16  1  0.250000  0.321166  0.055157  1
  Ge  Ge17  1  0.750000  0.455784  0.719573  1
  Ge  Ge18  1  0.750000  0.678834  0.944843  1
  Ge  Ge19  1  0.250000  0.544216  0.280427  1
  N  N20  1  0.407934  0.227917  0.975196  1
  N  N21  1  0.250000  0.228504  0.264460  1
  N  N22  1  0.899534  0.116669  0.341209  1
  N  N23  1  0.603373  0.359779  0.624792  1
  N  N24  1  0.750000  0.557176  0.330536  1
  N  N25  1  0.250000  0.638813  0.074142  1
  N  N26  1  0.896627  0.359779  0.624792  1
  N  N27  1  0.396627  0.640221  0.375208  1
  N  N28  1  0.750000  0.361187  0.925858  1
  N  N29  1  0.100466  0.883331  0.658791  1
  N  N30  1  0.750000  0.771496  0.735540  1
  N  N31  1  0.103373  0.640221  0.375208  1
  N  N32  1  0.592066  0.772083  0.024804  1
  N  N33  1  0.250000  0.442824  0.669464  1
  N  N34  1  0.399534  0.883331  0.658791  1
  N  N35  1  0.600466  0.116669  0.341209  1
  N  N36  1  0.092066  0.227917  0.975196  1
  N  N37  1  0.907934  0.772083  0.024804  1
