# generated using pymatgen
data_Tb9Y15Ru14
_symmetry_space_group_name_H-M   'P 1'
_cell_length_a   11.39053042
_cell_length_b   8.43258094
_cell_length_c   11.30953759
_cell_angle_alpha   56.27730548
_cell_angle_beta   89.96169153
_cell_angle_gamma   90.01422801
_symmetry_Int_Tables_number   1
_chemical_formula_structural   Tb9Y15Ru14
_chemical_formula_sum   'Tb9 Y15 Ru14'
_cell_volume   903.51153751
_cell_formula_units_Z   1
loop_
 _symmetry_equiv_pos_site_id
 _symmetry_equiv_pos_as_xyz
  1  'x, y, z'
loop_
 _atom_site_type_symbol
 _atom_site_label
 _atom_site_symmetry_multiplicity
 _atom_site_fract_x
 _atom_site_fract_y
 _atom_site_fract_z
 _atom_site_occupancy
  Tb  Tb0  1  0.568523  0.778119  0.589381  1
  Tb  Tb1  1  0.301331  0.241373  0.676039  1
  Tb  Tb2  1  0.801454  0.759007  0.823803  1
  Tb  Tb3  1  0.698604  0.758624  0.323610  1
  Tb  Tb4  1  0.198739  0.241227  0.176295  1
  Tb  Tb5  1  0.924961  0.281739  0.292788  1
  Tb  Tb6  1  0.425172  0.718129  0.207248  1
  Tb  Tb7  1  0.074951  0.718410  0.707190  1
  Tb  Tb8  1  0.574979  0.281254  0.793055  1
  Y  Y9  1  0.705369  0.243148  0.531154  1
  Y  Y10  1  0.205390  0.756779  0.968968  1
  Y  Y11  1  0.845788  0.507555  0.655089  1
  Y  Y12  1  0.345626  0.492337  0.844778  1
  Y  Y13  1  0.154325  0.492162  0.345006  1
  Y  Y14  1  0.654250  0.507619  0.155072  1
  Y  Y15  1  0.006452  0.854157  0.360167  1
  Y  Y16  1  0.506470  0.146119  0.139670  1
  Y  Y17  1  0.993517  0.145878  0.639969  1
  Y  Y18  1  0.493554  0.854308  0.860139  1
  Y  Y19  1  0.794631  0.243025  0.031114  1
  Y  Y20  1  0.294653  0.756805  0.469040  1
  Y  Y21  1  0.931533  0.778393  0.089187  1
  Y  Y22  1  0.431677  0.221874  0.410584  1
  Y  Y23  1  0.068254  0.221826  0.910622  1
  Ru  Ru24  1  0.500175  0.500379  0.500206  1
  Ru  Ru25  1  0.999955  0.500048  0.999963  1
  Ru  Ru26  1  0.647196  0.926320  0.033362  1
  Ru  Ru27  1  0.147142  0.073546  0.466902  1
  Ru  Ru28  1  0.352628  0.073362  0.966925  1
  Ru  Ru29  1  0.852900  0.926407  0.533413  1
  Ru  Ru30  1  0.397866  0.483799  0.103166  1
  Ru  Ru31  1  0.897804  0.516279  0.396844  1
  Ru  Ru32  1  0.602212  0.517002  0.895633  1
  Ru  Ru33  1  0.102139  0.483807  0.603089  1
  Ru  Ru34  1  0.817531  0.096440  0.851549  1
  Ru  Ru35  1  0.317600  0.903854  0.648032  1
  Ru  Ru36  1  0.182741  0.903916  0.148177  1
  Ru  Ru37  1  0.681906  0.094980  0.352775  1
