# generated using pymatgen
data_YZnInPt3
_symmetry_space_group_name_H-M   'P 1'
_cell_length_a   5.24638323
_cell_length_b   5.24638290
_cell_length_c   5.24638333
_cell_angle_alpha   63.29766451
_cell_angle_beta   63.29766701
_cell_angle_gamma   63.29766617
_symmetry_Int_Tables_number   1
_chemical_formula_structural   YZnInPt3
_chemical_formula_sum   'Y1 Zn1 In1 Pt3'
_cell_volume   109.56726315
_cell_formula_units_Z   1
loop_
 _symmetry_equiv_pos_site_id
 _symmetry_equiv_pos_as_xyz
  1  'x, y, z'
loop_
 _atom_site_type_symbol
 _atom_site_label
 _atom_site_symmetry_multiplicity
 _atom_site_fract_x
 _atom_site_fract_y
 _atom_site_fract_z
 _atom_site_occupancy
  Y  Y0  1  0.003526  0.003526  0.003526  1
  Zn  Zn1  1  0.623080  0.623080  0.623080  1
  In  In2  1  0.253780  0.253780  0.253780  1
  Pt  Pt3  1  0.622995  0.622995  0.123623  1
  Pt  Pt4  1  0.622995  0.123623  0.622995  1
  Pt  Pt5  1  0.123623  0.622995  0.622995  1
