# generated using pymatgen
data_NdW2F11
_symmetry_space_group_name_H-M   'P 1'
_cell_length_a   8.43467906
_cell_length_b   8.43467928
_cell_length_c   8.43467947
_cell_angle_alpha   125.13738435
_cell_angle_beta   107.12496981
_cell_angle_gamma   97.46983532
_symmetry_Int_Tables_number   1
_chemical_formula_structural   NdW2F11
_chemical_formula_sum   'Nd2 W4 F22'
_cell_volume   433.17163126
_cell_formula_units_Z   2
loop_
 _symmetry_equiv_pos_site_id
 _symmetry_equiv_pos_as_xyz
  1  'x, y, z'
loop_
 _atom_site_type_symbol
 _atom_site_label
 _atom_site_symmetry_multiplicity
 _atom_site_fract_x
 _atom_site_fract_y
 _atom_site_fract_z
 _atom_site_occupancy
  Nd  Nd0  1  0.750000  0.250000  0.500000  1
  Nd  Nd1  1  0.250000  0.750000  0.500000  1
  W  W2  1  0.680689  0.639581  0.320269  1
  W  W3  1  0.319311  0.360419  0.679731  1
  W  W4  1  0.180689  0.860419  0.041108  1
  W  W5  1  0.819311  0.139581  0.958892  1
  F  F6  1  0.702276  0.892782  0.335452  1
  F  F7  1  0.297724  0.107218  0.664548  1
  F  F8  1  0.557330  0.366824  0.664548  1
  F  F9  1  0.942670  0.607218  0.809493  1
  F  F10  1  0.442670  0.633176  0.335452  1
  F  F11  1  0.057330  0.392782  0.190507  1
  F  F12  1  0.797724  0.133176  0.190507  1
  F  F13  1  0.202276  0.866824  0.809493  1
  F  F14  1  0.500000  0.500000  0.000000  1
  F  F15  1  0.000000  0.000000  0.000000  1
  F  F16  1  0.782130  0.869384  0.651513  1
  F  F17  1  0.217870  0.130616  0.348487  1
  F  F18  1  0.282130  0.630616  0.912746  1
  F  F19  1  0.717870  0.369384  0.087254  1
  F  F20  1  0.950850  0.732916  0.411722  1
  F  F21  1  0.049150  0.267084  0.588278  1
  F  F22  1  0.321193  0.539129  0.588278  1
  F  F23  1  0.178807  0.767084  0.217935  1
  F  F24  1  0.678807  0.460871  0.411722  1
  F  F25  1  0.821193  0.232916  0.782065  1
  F  F26  1  0.549150  0.960871  0.782065  1
  F  F27  1  0.450850  0.039129  0.217935  1
