# generated using pymatgen
data_Tl3PCO7
_symmetry_space_group_name_H-M   'P 1'
_cell_length_a   7.16282300
_cell_length_b   5.62946564
_cell_length_c   10.45842710
_cell_angle_alpha   90.91936433
_cell_angle_beta   90.00000000
_cell_angle_gamma   90.00000000
_symmetry_Int_Tables_number   1
_chemical_formula_structural   Tl3PCO7
_chemical_formula_sum   'Tl6 P2 C2 O14'
_cell_volume   421.65946537
_cell_formula_units_Z   2
loop_
 _symmetry_equiv_pos_site_id
 _symmetry_equiv_pos_as_xyz
  1  'x, y, z'
loop_
 _atom_site_type_symbol
 _atom_site_label
 _atom_site_symmetry_multiplicity
 _atom_site_fract_x
 _atom_site_fract_y
 _atom_site_fract_z
 _atom_site_occupancy
  Tl  Tl0  1  0.982097  0.768683  0.808096  1
  Tl  Tl1  1  0.517903  0.768683  0.808096  1
  Tl  Tl2  1  0.482097  0.231317  0.191904  1
  Tl  Tl3  1  0.017903  0.231317  0.191904  1
  Tl  Tl4  1  0.250000  0.216373  0.605451  1
  Tl  Tl5  1  0.750000  0.783627  0.394549  1
  P  P6  1  0.750000  0.271776  0.568149  1
  P  P7  1  0.250000  0.728224  0.431851  1
  C  C8  1  0.250000  0.301656  0.892837  1
  C  C9  1  0.750000  0.698344  0.107163  1
  O  O10  1  0.750000  0.573389  0.005209  1
  O  O11  1  0.250000  0.073792  0.884777  1
  O  O12  1  0.250000  0.428283  0.782851  1
  O  O13  1  0.925470  0.186190  0.640863  1
  O  O14  1  0.574530  0.186190  0.640863  1
  O  O15  1  0.250000  0.827998  0.574411  1
  O  O16  1  0.750000  0.550631  0.561635  1
  O  O17  1  0.250000  0.449369  0.438365  1
  O  O18  1  0.750000  0.172002  0.425589  1
  O  O19  1  0.425470  0.813810  0.359137  1
  O  O20  1  0.074530  0.813810  0.359137  1
  O  O21  1  0.750000  0.571717  0.217149  1
  O  O22  1  0.750000  0.926208  0.115223  1
  O  O23  1  0.250000  0.426611  0.994791  1
