# generated using pymatgen
data_Th6Ni16As13Pd4
_symmetry_space_group_name_H-M   'P 1'
_cell_length_a   13.35815500
_cell_length_b   13.35815562
_cell_length_c   4.03529000
_cell_angle_alpha   90.00000000
_cell_angle_beta   90.00000000
_cell_angle_gamma   120.00000095
_symmetry_Int_Tables_number   1
_chemical_formula_structural   Th6Ni16As13Pd4
_chemical_formula_sum   'Th6 Ni16 As13 Pd4'
_cell_volume   623.58887065
_cell_formula_units_Z   1
loop_
 _symmetry_equiv_pos_site_id
 _symmetry_equiv_pos_as_xyz
  1  'x, y, z'
loop_
 _atom_site_type_symbol
 _atom_site_label
 _atom_site_symmetry_multiplicity
 _atom_site_fract_x
 _atom_site_fract_y
 _atom_site_fract_z
 _atom_site_occupancy
  Th  Th0  1  0.182381  0.467153  0.000000  1
  Th  Th1  1  0.532847  0.715229  0.000000  1
  Th  Th2  1  0.284771  0.817619  0.000000  1
  Th  Th3  1  0.718840  0.184124  0.500000  1
  Th  Th4  1  0.815876  0.534716  0.500000  1
  Th  Th5  1  0.465284  0.281160  0.500000  1
  Ni  Ni6  1  0.084301  0.200778  0.000000  1
  Ni  Ni7  1  0.799222  0.883522  0.000000  1
  Ni  Ni8  1  0.116478  0.915699  0.000000  1
  Ni  Ni9  1  0.666667  0.333333  0.000000  1
  Ni  Ni10  1  0.417782  0.439846  0.000000  1
  Ni  Ni11  1  0.560154  0.977935  0.000000  1
  Ni  Ni12  1  0.022065  0.582218  0.000000  1
  Ni  Ni13  1  0.238761  0.316181  0.500000  1
  Ni  Ni14  1  0.683819  0.922580  0.500000  1
  Ni  Ni15  1  0.077420  0.761239  0.500000  1
  Ni  Ni16  1  0.440510  0.029091  0.500000  1
  Ni  Ni17  1  0.970909  0.411419  0.500000  1
  Ni  Ni18  1  0.588581  0.559490  0.500000  1
  Ni  Ni19  1  0.915339  0.237801  0.000000  1
  Ni  Ni20  1  0.762199  0.677538  0.000000  1
  Ni  Ni21  1  0.322462  0.084661  0.000000  1
  As  As22  1  0.387979  0.512440  0.500000  1
  As  As23  1  0.487560  0.875539  0.500000  1
  As  As24  1  0.124461  0.612021  0.500000  1
  As  As25  1  0.040454  0.279363  0.500000  1
  As  As26  1  0.720637  0.761090  0.500000  1
  As  As27  1  0.238910  0.959546  0.500000  1
  As  As28  1  0.521680  0.136469  0.000000  1
  As  As29  1  0.863531  0.385212  0.000000  1
  As  As30  1  0.614788  0.478320  0.000000  1
  As  As31  1  0.760977  0.037551  0.000000  1
  As  As32  1  0.962449  0.723426  0.000000  1
  As  As33  1  0.276574  0.239023  0.000000  1
  As  As34  1  0.000000  0.000000  0.000000  1
  Pd  Pd35  1  0.333333  0.666667  0.500000  1
  Pd  Pd36  1  0.913789  0.065295  0.500000  1
  Pd  Pd37  1  0.934705  0.848494  0.500000  1
  Pd  Pd38  1  0.151506  0.086211  0.500000  1
