# generated using pymatgen
data_Zr3TiNb4(Co4P3)4
_symmetry_space_group_name_H-M   'P 1'
_cell_length_a   11.92993700
_cell_length_b   11.94189948
_cell_length_c   3.63760700
_cell_angle_alpha   90.00000000
_cell_angle_beta   90.00000000
_cell_angle_gamma   119.96687155
_symmetry_Int_Tables_number   1
_chemical_formula_structural   Zr3TiNb4(Co4P3)4
_chemical_formula_sum   'Zr3 Ti1 Nb4 Co16 P12'
_cell_volume   448.95504014
_cell_formula_units_Z   1
loop_
 _symmetry_equiv_pos_site_id
 _symmetry_equiv_pos_as_xyz
  1  'x, y, z'
loop_
 _atom_site_type_symbol
 _atom_site_label
 _atom_site_symmetry_multiplicity
 _atom_site_fract_x
 _atom_site_fract_y
 _atom_site_fract_z
 _atom_site_occupancy
  Zr  Zr0  1  0.821553  0.000000  0.500000  1
  Zr  Zr1  1  0.333554  0.667630  0.000000  1
  Zr  Zr2  1  0.665924  0.332370  0.000000  1
  Ti  Ti3  1  0.442411  0.000000  0.000000  1
  Nb  Nb4  1  0.000655  0.821462  0.500000  1
  Nb  Nb5  1  0.179193  0.178538  0.500000  1
  Nb  Nb6  1  0.000168  0.447431  0.000000  1
  Nb  Nb7  1  0.552737  0.552569  0.000000  1
  Co  Co8  1  0.276219  0.000000  0.500000  1
  Co  Co9  1  0.001756  0.276410  0.500000  1
  Co  Co10  1  0.725346  0.723590  0.500000  1
  Co  Co11  1  0.627742  0.806831  0.000000  1
  Co  Co12  1  0.193100  0.822063  0.000000  1
  Co  Co13  1  0.179454  0.370577  0.000000  1
  Co  Co14  1  0.371037  0.177937  0.000000  1
  Co  Co15  1  0.808877  0.629423  0.000000  1
  Co  Co16  1  0.820910  0.193169  0.000000  1
  Co  Co17  1  0.516366  0.873999  0.500000  1
  Co  Co18  1  0.128496  0.646726  0.500000  1
  Co  Co19  1  0.354820  0.483239  0.500000  1
  Co  Co20  1  0.481770  0.353274  0.500000  1
  Co  Co21  1  0.871581  0.516761  0.500000  1
  Co  Co22  1  0.642366  0.126001  0.500000  1
  Co  Co23  1  0.002283  0.000000  0.000000  1
  P  P24  1  0.175994  0.000000  0.000000  1
  P  P25  1  0.001693  0.175402  0.000000  1
  P  P26  1  0.826291  0.824598  0.000000  1
  P  P27  1  0.520471  0.690392  0.500000  1
  P  P28  1  0.312141  0.832581  0.500000  1
  P  P29  1  0.170004  0.481381  0.500000  1
  P  P30  1  0.479560  0.167419  0.500000  1
  P  P31  1  0.688623  0.518619  0.500000  1
  P  P32  1  0.830079  0.309608  0.500000  1
  P  P33  1  0.644954  0.000000  0.000000  1
  P  P34  1  0.000716  0.649557  0.000000  1
  P  P35  1  0.351159  0.350443  0.000000  1
