# generated using pymatgen
data_Ca2B4Ir3Os
_symmetry_space_group_name_H-M   'P 1'
_cell_length_a   6.98774507
_cell_length_b   6.09212012
_cell_length_c   5.54720690
_cell_angle_alpha   73.62313344
_cell_angle_beta   56.76789240
_cell_angle_gamma   49.70964616
_symmetry_Int_Tables_number   1
_chemical_formula_structural   Ca2B4Ir3Os
_chemical_formula_sum   'Ca2 B4 Ir3 Os1'
_cell_volume   149.69394997
_cell_formula_units_Z   1
loop_
 _symmetry_equiv_pos_site_id
 _symmetry_equiv_pos_as_xyz
  1  'x, y, z'
loop_
 _atom_site_type_symbol
 _atom_site_label
 _atom_site_symmetry_multiplicity
 _atom_site_fract_x
 _atom_site_fract_y
 _atom_site_fract_z
 _atom_site_occupancy
  Ca  Ca0  1  0.998838  0.998838  0.001162  1
  Ca  Ca1  1  0.250840  0.250840  0.249160  1
  B  B2  1  0.318639  0.688823  0.324914  1
  B  B3  1  0.561248  0.933670  0.571872  1
  B  B4  1  0.688823  0.318639  0.667624  1
  B  B5  1  0.933670  0.561248  0.933210  1
  Ir  Ir6  1  0.880955  0.880955  0.619045  1
  Ir  Ir7  1  0.616751  0.616751  0.883249  1
  Ir  Ir8  1  0.367569  0.367569  0.632431  1
  Os  Os9  1  0.632665  0.632665  0.367335  1
