# generated using pymatgen
data_PrTh3(SnPt2)2
_symmetry_space_group_name_H-M   'P 1'
_cell_length_a   7.98082273
_cell_length_b   7.98082273
_cell_length_c   3.82478100
_cell_angle_alpha   90.00000000
_cell_angle_beta   90.00000000
_cell_angle_gamma   90.69487729
_symmetry_Int_Tables_number   1
_chemical_formula_structural   PrTh3(SnPt2)2
_chemical_formula_sum   'Pr1 Th3 Sn2 Pt4'
_cell_volume   243.59589322
_cell_formula_units_Z   1
loop_
 _symmetry_equiv_pos_site_id
 _symmetry_equiv_pos_as_xyz
  1  'x, y, z'
loop_
 _atom_site_type_symbol
 _atom_site_label
 _atom_site_symmetry_multiplicity
 _atom_site_fract_x
 _atom_site_fract_y
 _atom_site_fract_z
 _atom_site_occupancy
  Pr  Pr0  1  0.675614  0.824387  0.499999  1
  Th  Th1  1  0.328225  0.171776  0.499999  1
  Th  Th2  1  0.825990  0.326534  0.499999  1
  Th  Th3  1  0.173467  0.674011  0.499999  1
  Sn  Sn4  1  0.996847  0.998753  0.000000  1
  Sn  Sn5  1  0.501247  0.503153  0.000000  1
  Pt  Pt6  1  0.623279  0.137247  0.000000  1
  Pt  Pt7  1  0.132342  0.367658  0.000000  1
  Pt  Pt8  1  0.880239  0.619762  0.000000  1
  Pt  Pt9  1  0.362753  0.876722  0.000000  1
