# generated using pymatgen
data_Y4Ho3LuC10
_symmetry_space_group_name_H-M   'P 1'
_cell_length_a   3.66143400
_cell_length_b   6.56752640
_cell_length_c   11.90952000
_cell_angle_alpha   89.84382091
_cell_angle_beta   90.00000000
_cell_angle_gamma   90.00000000
_symmetry_Int_Tables_number   1
_chemical_formula_structural   Y4Ho3LuC10
_chemical_formula_sum   'Y4 Ho3 Lu1 C10'
_cell_volume   286.38197635
_cell_formula_units_Z   1
loop_
 _symmetry_equiv_pos_site_id
 _symmetry_equiv_pos_as_xyz
  1  'x, y, z'
loop_
 _atom_site_type_symbol
 _atom_site_label
 _atom_site_symmetry_multiplicity
 _atom_site_fract_x
 _atom_site_fract_y
 _atom_site_fract_z
 _atom_site_occupancy
  Y  Y0  1  0.000000  0.751865  0.456766  1
  Y  Y1  1  0.000000  0.747592  0.954851  1
  Y  Y2  1  0.000000  0.237296  0.042236  1
  Y  Y3  1  0.500000  0.391037  0.304687  1
  Ho  Ho4  1  0.500000  0.107913  0.803428  1
  Ho  Ho5  1  0.500000  0.893832  0.195828  1
  Ho  Ho6  1  0.500000  0.604368  0.696898  1
  Lu  Lu7  1  0.000000  0.267276  0.542536  1
  C  C8  1  0.500000  0.507384  0.503148  1
  C  C9  1  0.500000  0.987084  0.000501  1
  C  C10  1  0.000000  0.362881  0.732717  1
  C  C11  1  0.000000  0.646019  0.261516  1
  C  C12  1  0.000000  0.857663  0.759391  1
  C  C13  1  0.000000  0.132812  0.238571  1
  C  C14  1  0.000000  0.383538  0.844504  1
  C  C15  1  0.000000  0.575162  0.156967  1
  C  C16  1  0.000000  0.115929  0.350613  1
  C  C17  1  0.000000  0.930347  0.654841  1
