# generated using pymatgen
data_AcYb11(CuSi)12
_symmetry_space_group_name_H-M   'P 1'
_cell_length_a   4.28006600
_cell_length_b   7.26581045
_cell_length_c   20.92557200
_cell_angle_alpha   89.90757203
_cell_angle_beta   90.00000000
_cell_angle_gamma   90.00000000
_symmetry_Int_Tables_number   1
_chemical_formula_structural   AcYb11(CuSi)12
_chemical_formula_sum   'Ac1 Yb11 Cu12 Si12'
_cell_volume   650.74569431
_cell_formula_units_Z   1
loop_
 _symmetry_equiv_pos_site_id
 _symmetry_equiv_pos_as_xyz
  1  'x, y, z'
loop_
 _atom_site_type_symbol
 _atom_site_label
 _atom_site_symmetry_multiplicity
 _atom_site_fract_x
 _atom_site_fract_y
 _atom_site_fract_z
 _atom_site_occupancy
  Ac  Ac0  1  0.250000  0.801787  0.833297  1
  Yb  Yb1  1  0.250000  0.710645  0.006837  1
  Yb  Yb2  1  0.750000  0.291546  0.001177  1
  Yb  Yb3  1  0.750000  0.210284  0.495767  1
  Yb  Yb4  1  0.250000  0.790831  0.500737  1
  Yb  Yb5  1  0.250000  0.797697  0.168000  1
  Yb  Yb6  1  0.750000  0.208982  0.833603  1
  Yb  Yb7  1  0.750000  0.297993  0.333636  1
  Yb  Yb8  1  0.250000  0.702249  0.662102  1
  Yb  Yb9  1  0.250000  0.702194  0.333146  1
  Yb  Yb10  1  0.750000  0.295322  0.662972  1
  Yb  Yb11  1  0.750000  0.202934  0.168779  1
  Cu  Cu12  1  0.250000  0.415011  0.098248  1
  Cu  Cu13  1  0.750000  0.577103  0.909836  1
  Cu  Cu14  1  0.750000  0.913456  0.403047  1
  Cu  Cu15  1  0.250000  0.087313  0.594238  1
  Cu  Cu16  1  0.250000  0.412265  0.236894  1
  Cu  Cu17  1  0.750000  0.575671  0.757049  1
  Cu  Cu18  1  0.750000  0.912990  0.264544  1
  Cu  Cu19  1  0.250000  0.093046  0.730364  1
  Cu  Cu20  1  0.250000  0.418139  0.436675  1
  Cu  Cu21  1  0.750000  0.582854  0.561347  1
  Cu  Cu22  1  0.750000  0.919529  0.065265  1
  Cu  Cu23  1  0.250000  0.088952  0.945509  1
  Si  Si24  1  0.250000  0.091999  0.069526  1
  Si  Si25  1  0.750000  0.914164  0.937120  1
  Si  Si26  1  0.750000  0.588984  0.433261  1
  Si  Si27  1  0.250000  0.411535  0.564438  1
  Si  Si28  1  0.250000  0.081443  0.273476  1
  Si  Si29  1  0.750000  0.918571  0.721171  1
  Si  Si30  1  0.750000  0.580689  0.227641  1
  Si  Si31  1  0.250000  0.410848  0.769966  1
  Si  Si32  1  0.250000  0.082899  0.394220  1
  Si  Si33  1  0.750000  0.916833  0.601205  1
  Si  Si34  1  0.750000  0.585353  0.107130  1
  Si  Si35  1  0.250000  0.407889  0.897773  1
