# generated using pymatgen
data_Y2Tm2Ga16Ir3
_symmetry_space_group_name_H-M   'P 1'
_cell_length_a   6.15695100
_cell_length_b   6.15695100
_cell_length_c   11.16573700
_cell_angle_alpha   90.00000000
_cell_angle_beta   90.00000000
_cell_angle_gamma   90.00000000
_symmetry_Int_Tables_number   1
_chemical_formula_structural   Y2Tm2Ga16Ir3
_chemical_formula_sum   'Y2 Tm2 Ga16 Ir3'
_cell_volume   423.27126754
_cell_formula_units_Z   1
loop_
 _symmetry_equiv_pos_site_id
 _symmetry_equiv_pos_as_xyz
  1  'x, y, z'
loop_
 _atom_site_type_symbol
 _atom_site_label
 _atom_site_symmetry_multiplicity
 _atom_site_fract_x
 _atom_site_fract_y
 _atom_site_fract_z
 _atom_site_occupancy
  Y  Y0  1  0.500000  0.000000  0.193508  1
  Y  Y1  1  0.000000  0.500000  0.193508  1
  Tm  Tm2  1  0.500000  0.000000  0.804579  1
  Tm  Tm3  1  0.000000  0.500000  0.804579  1
  Ga  Ga4  1  0.248615  0.248615  0.622452  1
  Ga  Ga5  1  0.751385  0.751385  0.622452  1
  Ga  Ga6  1  0.751385  0.248615  0.622452  1
  Ga  Ga7  1  0.248615  0.751385  0.622452  1
  Ga  Ga8  1  0.751489  0.751489  0.380107  1
  Ga  Ga9  1  0.248511  0.248511  0.380107  1
  Ga  Ga10  1  0.248511  0.751489  0.380107  1
  Ga  Ga11  1  0.751489  0.248511  0.380107  1
  Ga  Ga12  1  0.287890  0.287890  0.997542  1
  Ga  Ga13  1  0.712110  0.712110  0.997542  1
  Ga  Ga14  1  0.712110  0.287890  0.997542  1
  Ga  Ga15  1  0.287890  0.712110  0.997542  1
  Ga  Ga16  1  0.500000  0.500000  0.803736  1
  Ga  Ga17  1  0.500000  0.500000  0.193853  1
  Ga  Ga18  1  0.000000  0.000000  0.776278  1
  Ga  Ga19  1  0.000000  0.000000  0.225808  1
  Ir  Ir20  1  0.500000  0.000000  0.501433  1
  Ir  Ir21  1  0.000000  0.500000  0.501433  1
  Ir  Ir22  1  0.000000  0.000000  0.000885  1
