# generated using pymatgen
data_Dy8CdInOs2
_symmetry_space_group_name_H-M   'P 1'
_cell_length_a   9.64498257
_cell_length_b   9.68791805
_cell_length_c   9.64498230
_cell_angle_alpha   59.85263048
_cell_angle_beta   59.76792731
_cell_angle_gamma   59.85263110
_symmetry_Int_Tables_number   1
_chemical_formula_structural   Dy8CdInOs2
_chemical_formula_sum   'Dy16 Cd2 In2 Os4'
_cell_volume   634.72156902
_cell_formula_units_Z   2
loop_
 _symmetry_equiv_pos_site_id
 _symmetry_equiv_pos_as_xyz
  1  'x, y, z'
loop_
 _atom_site_type_symbol
 _atom_site_label
 _atom_site_symmetry_multiplicity
 _atom_site_fract_x
 _atom_site_fract_y
 _atom_site_fract_z
 _atom_site_occupancy
  Dy  Dy0  1  0.691328  0.308566  0.309551  1
  Dy  Dy1  1  0.691328  0.690555  0.309551  1
  Dy  Dy2  1  0.310670  0.689330  0.310670  1
  Dy  Dy3  1  0.942661  0.943447  0.556519  1
  Dy  Dy4  1  0.150527  0.153698  0.542074  1
  Dy  Dy5  1  0.555736  0.944264  0.555736  1
  Dy  Dy6  1  0.152038  0.154058  0.152038  1
  Dy  Dy7  1  0.309551  0.308566  0.691328  1
  Dy  Dy8  1  0.942661  0.557373  0.556519  1
  Dy  Dy9  1  0.556519  0.557373  0.942661  1
  Dy  Dy10  1  0.556519  0.943447  0.942661  1
  Dy  Dy11  1  0.942604  0.557396  0.942604  1
  Dy  Dy12  1  0.152038  0.541864  0.152038  1
  Dy  Dy13  1  0.309551  0.690555  0.691328  1
  Dy  Dy14  1  0.692221  0.307779  0.692221  1
  Dy  Dy15  1  0.542074  0.153698  0.150527  1
  Cd  Cd16  1  0.921252  0.918099  0.242549  1
  Cd  Cd17  1  0.242549  0.918099  0.921252  1
  In  In18  1  0.919885  0.243610  0.919885  1
  In  In19  1  0.919885  0.916619  0.919885  1
  Os  Os20  1  0.360408  0.361342  0.360408  1
  Os  Os21  1  0.918394  0.361208  0.359190  1
  Os  Os22  1  0.359190  0.361208  0.918394  1
  Os  Os23  1  0.360408  0.917842  0.360408  1
