# generated using pymatgen
data_Th(Fe5Re)2
_symmetry_space_group_name_H-M   'P 1'
_cell_length_a   4.68858258
_cell_length_b   6.56656388
_cell_length_c   6.56656402
_cell_angle_alpha   96.36454707
_cell_angle_beta   110.91632443
_cell_angle_gamma   69.08366913
_symmetry_Int_Tables_number   1
_chemical_formula_structural   Th(Fe5Re)2
_chemical_formula_sum   'Th1 Fe10 Re2'
_cell_volume   176.37160298
_cell_formula_units_Z   1
loop_
 _symmetry_equiv_pos_site_id
 _symmetry_equiv_pos_as_xyz
  1  'x, y, z'
loop_
 _atom_site_type_symbol
 _atom_site_label
 _atom_site_symmetry_multiplicity
 _atom_site_fract_x
 _atom_site_fract_y
 _atom_site_fract_z
 _atom_site_occupancy
  Th  Th0  1  0.000000  0.000000  0.000000  1
  Fe  Fe1  1  0.722171  0.777829  0.222171  1
  Fe  Fe2  1  0.277829  0.222171  0.777829  1
  Fe  Fe3  1  0.500000  0.765428  0.765428  1
  Fe  Fe4  1  0.500000  0.234572  0.234572  1
  Fe  Fe5  1  0.500000  0.000000  0.500000  1
  Fe  Fe6  1  0.000000  0.000000  0.500000  1
  Fe  Fe7  1  0.500000  0.500000  0.000000  1
  Fe  Fe8  1  0.000000  0.500000  0.000000  1
  Fe  Fe9  1  0.640454  0.359546  0.640454  1
  Fe  Fe10  1  0.359546  0.640454  0.359546  1
  Re  Re11  1  0.000000  0.359403  0.359403  1
  Re  Re12  1  0.000000  0.640597  0.640597  1
