# generated using pymatgen
data_PrNdGa2PdRh
_symmetry_space_group_name_H-M   'P 1'
_cell_length_a   4.52593700
_cell_length_b   7.14098600
_cell_length_c   7.79050100
_cell_angle_alpha   90.00000000
_cell_angle_beta   90.00000000
_cell_angle_gamma   90.00000000
_symmetry_Int_Tables_number   1
_chemical_formula_structural   PrNdGa2PdRh
_chemical_formula_sum   'Pr2 Nd2 Ga4 Pd2 Rh2'
_cell_volume   251.78628710
_cell_formula_units_Z   2
loop_
 _symmetry_equiv_pos_site_id
 _symmetry_equiv_pos_as_xyz
  1  'x, y, z'
loop_
 _atom_site_type_symbol
 _atom_site_label
 _atom_site_symmetry_multiplicity
 _atom_site_fract_x
 _atom_site_fract_y
 _atom_site_fract_z
 _atom_site_occupancy
  Pr  Pr0  1  0.250000  0.030273  0.687986  1
  Pr  Pr1  1  0.250000  0.530273  0.812014  1
  Nd  Nd2  1  0.750000  0.978131  0.302513  1
  Nd  Nd3  1  0.750000  0.478131  0.197487  1
  Ga  Ga4  1  0.250000  0.162620  0.077807  1
  Ga  Ga5  1  0.250000  0.662620  0.422193  1
  Ga  Ga6  1  0.750000  0.832021  0.928639  1
  Ga  Ga7  1  0.750000  0.332021  0.571361  1
  Pd  Pd8  1  0.750000  0.714019  0.600954  1
  Pd  Pd9  1  0.750000  0.214019  0.899046  1
  Rh  Rh10  1  0.250000  0.282935  0.399095  1
  Rh  Rh11  1  0.250000  0.782935  0.100905  1
