# generated using pymatgen
data_Li3Al2AsPd10
_symmetry_space_group_name_H-M   'P 1'
_cell_length_a   4.09055800
_cell_length_b   5.38165907
_cell_length_c   10.43631995
_cell_angle_alpha   90.74313195
_cell_angle_beta   90.00000000
_cell_angle_gamma   90.00000000
_symmetry_Int_Tables_number   1
_chemical_formula_structural   Li3Al2AsPd10
_chemical_formula_sum   'Li3 Al2 As1 Pd10'
_cell_volume   229.72570408
_cell_formula_units_Z   1
loop_
 _symmetry_equiv_pos_site_id
 _symmetry_equiv_pos_as_xyz
  1  'x, y, z'
loop_
 _atom_site_type_symbol
 _atom_site_label
 _atom_site_symmetry_multiplicity
 _atom_site_fract_x
 _atom_site_fract_y
 _atom_site_fract_z
 _atom_site_occupancy
  Li  Li0  1  0.000000  0.000000  0.000000  1
  Li  Li1  1  0.500000  0.159343  0.361129  1
  Li  Li2  1  0.500000  0.840657  0.638871  1
  Al  Al3  1  0.500000  0.665549  0.136468  1
  Al  Al4  1  0.500000  0.334451  0.863532  1
  As  As5  1  0.000000  0.500000  0.500000  1
  Pd  Pd6  1  0.500000  0.183583  0.106744  1
  Pd  Pd7  1  0.500000  0.816417  0.893256  1
  Pd  Pd8  1  0.500000  0.679422  0.388225  1
  Pd  Pd9  1  0.500000  0.320578  0.611775  1
  Pd  Pd10  1  0.000000  0.000000  0.500000  1
  Pd  Pd11  1  0.000000  0.500000  0.000000  1
  Pd  Pd12  1  0.000000  0.894715  0.230261  1
  Pd  Pd13  1  0.000000  0.105285  0.769739  1
  Pd  Pd14  1  0.000000  0.398013  0.263853  1
  Pd  Pd15  1  0.000000  0.601987  0.736147  1
