# generated using pymatgen
data_Yb11Sc(CuSi)12
_symmetry_space_group_name_H-M   'P 1'
_cell_length_a   4.24687900
_cell_length_b   7.23837347
_cell_length_c   20.72683304
_cell_angle_alpha   90.15579697
_cell_angle_beta   90.00000000
_cell_angle_gamma   90.00000000
_symmetry_Int_Tables_number   1
_chemical_formula_structural   Yb11Sc(CuSi)12
_chemical_formula_sum   'Yb11 Sc1 Cu12 Si12'
_cell_volume   637.15077875
_cell_formula_units_Z   1
loop_
 _symmetry_equiv_pos_site_id
 _symmetry_equiv_pos_as_xyz
  1  'x, y, z'
loop_
 _atom_site_type_symbol
 _atom_site_label
 _atom_site_symmetry_multiplicity
 _atom_site_fract_x
 _atom_site_fract_y
 _atom_site_fract_z
 _atom_site_occupancy
  Yb  Yb0  1  0.250000  0.713104  0.003087  1
  Yb  Yb1  1  0.750000  0.288094  0.997394  1
  Yb  Yb2  1  0.750000  0.210075  0.497211  1
  Yb  Yb3  1  0.250000  0.790365  0.502839  1
  Yb  Yb4  1  0.250000  0.798259  0.166353  1
  Yb  Yb5  1  0.750000  0.205135  0.832831  1
  Yb  Yb6  1  0.750000  0.297707  0.333238  1
  Yb  Yb7  1  0.250000  0.704480  0.666820  1
  Yb  Yb8  1  0.250000  0.703153  0.332850  1
  Yb  Yb9  1  0.750000  0.294032  0.666981  1
  Yb  Yb10  1  0.750000  0.202969  0.166663  1
  Sc  Sc11  1  0.250000  0.788302  0.834169  1
  Cu  Cu12  1  0.250000  0.413310  0.095573  1
  Cu  Cu13  1  0.750000  0.587245  0.900947  1
  Cu  Cu14  1  0.750000  0.913948  0.404342  1
  Cu  Cu15  1  0.250000  0.086252  0.596124  1
  Cu  Cu16  1  0.250000  0.412997  0.236814  1
  Cu  Cu17  1  0.750000  0.593859  0.766884  1
  Cu  Cu18  1  0.750000  0.914210  0.263437  1
  Cu  Cu19  1  0.250000  0.081442  0.739204  1
  Cu  Cu20  1  0.250000  0.418441  0.436339  1
  Cu  Cu21  1  0.750000  0.581712  0.563257  1
  Cu  Cu22  1  0.750000  0.917521  0.064638  1
  Cu  Cu23  1  0.250000  0.075287  0.936124  1
  Si  Si24  1  0.250000  0.087742  0.065720  1
  Si  Si25  1  0.750000  0.905874  0.923952  1
  Si  Si26  1  0.750000  0.588414  0.433322  1
  Si  Si27  1  0.250000  0.411077  0.566955  1
  Si  Si28  1  0.250000  0.080261  0.272651  1
  Si  Si29  1  0.750000  0.917398  0.732018  1
  Si  Si30  1  0.750000  0.580695  0.227278  1
  Si  Si31  1  0.250000  0.428544  0.773753  1
  Si  Si32  1  0.250000  0.082159  0.395206  1
  Si  Si33  1  0.750000  0.917058  0.606120  1
  Si  Si34  1  0.750000  0.582967  0.104804  1
  Si  Si35  1  0.250000  0.425911  0.894100  1
