# generated using pymatgen
data_Li6Ni6Ir
_symmetry_space_group_name_H-M   'P 1'
_cell_length_a   4.79894659
_cell_length_b   4.79894650
_cell_length_c   8.88567992
_cell_angle_alpha   74.33346647
_cell_angle_beta   74.33345574
_cell_angle_gamma   59.99998748
_symmetry_Int_Tables_number   1
_chemical_formula_structural   Li6Ni6Ir
_chemical_formula_sum   'Li6 Ni6 Ir1'
_cell_volume   168.38454685
_cell_formula_units_Z   1
loop_
 _symmetry_equiv_pos_site_id
 _symmetry_equiv_pos_as_xyz
  1  'x, y, z'
loop_
 _atom_site_type_symbol
 _atom_site_label
 _atom_site_symmetry_multiplicity
 _atom_site_fract_x
 _atom_site_fract_y
 _atom_site_fract_z
 _atom_site_occupancy
  Li  Li0  1  0.164055  0.164055  0.507835  1
  Li  Li1  1  0.835945  0.835945  0.492165  1
  Li  Li2  1  0.347690  0.347690  0.956928  1
  Li  Li3  1  0.652310  0.652310  0.043072  1
  Li  Li4  1  0.447485  0.447485  0.657546  1
  Li  Li5  1  0.552515  0.552515  0.342454  1
  Ni  Ni6  1  0.581400  0.092867  0.232865  1
  Ni  Ni7  1  0.092867  0.092867  0.232865  1
  Ni  Ni8  1  0.092867  0.581400  0.232865  1
  Ni  Ni9  1  0.418600  0.907133  0.767135  1
  Ni  Ni10  1  0.907133  0.907133  0.767135  1
  Ni  Ni11  1  0.907133  0.418600  0.767135  1
  Ir  Ir12  1  0.000000  0.000000  0.000000  1
