# generated using pymatgen
data_DyHo3TcB12Ru
_symmetry_space_group_name_H-M   'P 1'
_cell_length_a   3.66539300
_cell_length_b   9.14323609
_cell_length_c   11.52949401
_cell_angle_alpha   89.85126932
_cell_angle_beta   90.00000000
_cell_angle_gamma   90.00000000
_symmetry_Int_Tables_number   1
_chemical_formula_structural   DyHo3TcB12Ru
_chemical_formula_sum   'Dy2 Ho6 Tc2 B24 Ru2'
_cell_volume   386.39301292
_cell_formula_units_Z   2
loop_
 _symmetry_equiv_pos_site_id
 _symmetry_equiv_pos_as_xyz
  1  'x, y, z'
loop_
 _atom_site_type_symbol
 _atom_site_label
 _atom_site_symmetry_multiplicity
 _atom_site_fract_x
 _atom_site_fract_y
 _atom_site_fract_z
 _atom_site_occupancy
  Dy  Dy0  1  0.000000  0.324987  0.415501  1
  Dy  Dy1  1  0.000000  0.675013  0.584499  1
  Ho  Ho2  1  0.000000  0.821321  0.087363  1
  Ho  Ho3  1  0.000000  0.178679  0.912637  1
  Ho  Ho4  1  0.000000  0.942265  0.370508  1
  Ho  Ho5  1  0.000000  0.057735  0.629492  1
  Ho  Ho6  1  0.000000  0.443115  0.129884  1
  Ho  Ho7  1  0.000000  0.556885  0.870116  1
  Tc  Tc8  1  0.000000  0.638591  0.320005  1
  Tc  Tc9  1  0.000000  0.361409  0.679995  1
  B  B10  1  0.500000  0.553211  0.432822  1
  B  B11  1  0.500000  0.446789  0.567178  1
  B  B12  1  0.500000  0.053729  0.066903  1
  B  B13  1  0.500000  0.946271  0.933097  1
  B  B14  1  0.500000  0.748539  0.418787  1
  B  B15  1  0.500000  0.251461  0.581213  1
  B  B16  1  0.500000  0.248475  0.080984  1
  B  B17  1  0.500000  0.751525  0.919016  1
  B  B18  1  0.500000  0.791683  0.265118  1
  B  B19  1  0.500000  0.208317  0.734882  1
  B  B20  1  0.500000  0.290624  0.234044  1
  B  B21  1  0.500000  0.709376  0.765956  1
  B  B22  1  0.500000  0.631344  0.185028  1
  B  B23  1  0.500000  0.368656  0.814972  1
  B  B24  1  0.500000  0.130826  0.313989  1
  B  B25  1  0.500000  0.869174  0.686011  1
  B  B26  1  0.500000  0.982982  0.211806  1
  B  B27  1  0.500000  0.017018  0.788194  1
  B  B28  1  0.500000  0.482707  0.287495  1
  B  B29  1  0.500000  0.517293  0.712505  1
  B  B30  1  0.500000  0.603901  0.028565  1
  B  B31  1  0.500000  0.396099  0.971435  1
  B  B32  1  0.500000  0.103500  0.471157  1
  B  B33  1  0.500000  0.896500  0.528843  1
  Ru  Ru34  1  0.000000  0.137579  0.178357  1
  Ru  Ru35  1  0.000000  0.862421  0.821643  1
