# generated using pymatgen
data_Tb5GdReO12
_symmetry_space_group_name_H-M   'P 1'
_cell_length_a   6.52222870
_cell_length_b   6.52915627
_cell_length_c   6.52618900
_cell_angle_alpha   98.60179611
_cell_angle_beta   98.51440921
_cell_angle_gamma   98.48638213
_symmetry_Int_Tables_number   1
_chemical_formula_structural   Tb5GdReO12
_chemical_formula_sum   'Tb5 Gd1 Re1 O12'
_cell_volume   267.63629710
_cell_formula_units_Z   1
loop_
 _symmetry_equiv_pos_site_id
 _symmetry_equiv_pos_as_xyz
  1  'x, y, z'
loop_
 _atom_site_type_symbol
 _atom_site_label
 _atom_site_symmetry_multiplicity
 _atom_site_fract_x
 _atom_site_fract_y
 _atom_site_fract_z
 _atom_site_occupancy
  Tb  Tb0  1  0.855457  0.388396  0.686160  1
  Tb  Tb1  1  0.610543  0.312959  0.143712  1
  Tb  Tb2  1  0.315022  0.144235  0.612339  1
  Tb  Tb3  1  0.686120  0.856219  0.388614  1
  Tb  Tb4  1  0.389896  0.686198  0.856141  1
  Gd  Gd5  1  0.143757  0.610105  0.313526  1
  Re  Re6  1  0.999629  0.999768  0.999385  1
  O  O7  1  0.927227  0.035404  0.705753  1
  O  O8  1  0.961235  0.293381  0.070112  1
  O  O9  1  0.591455  0.177317  0.434571  1
  O  O10  1  0.821404  0.565123  0.409879  1
  O  O11  1  0.294943  0.073262  0.963663  1
  O  O12  1  0.565420  0.407834  0.822615  1
  O  O13  1  0.436288  0.592319  0.177376  1
  O  O14  1  0.704981  0.926474  0.036302  1
  O  O15  1  0.177462  0.433840  0.593963  1
  O  O16  1  0.410678  0.823264  0.566784  1
  O  O17  1  0.036082  0.706663  0.925814  1
  O  O18  1  0.072399  0.967238  0.293291  1
