# generated using pymatgen
data_ErTm4Pa3(ReB6)4
_symmetry_space_group_name_H-M   'P 1'
_cell_length_a   3.68809100
_cell_length_b   9.12672531
_cell_length_c   11.48330900
_cell_angle_alpha   90.12940012
_cell_angle_beta   90.00000000
_cell_angle_gamma   90.00000000
_symmetry_Int_Tables_number   1
_chemical_formula_structural   ErTm4Pa3(ReB6)4
_chemical_formula_sum   'Er1 Tm4 Pa3 Re4 B24'
_cell_volume   386.52941706
_cell_formula_units_Z   1
loop_
 _symmetry_equiv_pos_site_id
 _symmetry_equiv_pos_as_xyz
  1  'x, y, z'
loop_
 _atom_site_type_symbol
 _atom_site_label
 _atom_site_symmetry_multiplicity
 _atom_site_fract_x
 _atom_site_fract_y
 _atom_site_fract_z
 _atom_site_occupancy
  Er  Er0  1  0.000000  0.179647  0.913103  1
  Tm  Tm1  1  0.000000  0.945516  0.374509  1
  Tm  Tm2  1  0.000000  0.055500  0.627394  1
  Tm  Tm3  1  0.000000  0.443452  0.124802  1
  Tm  Tm4  1  0.000000  0.553637  0.874107  1
  Pa  Pa5  1  0.000000  0.321115  0.413306  1
  Pa  Pa6  1  0.000000  0.678263  0.587367  1
  Pa  Pa7  1  0.000000  0.823162  0.085925  1
  Re  Re8  1  0.000000  0.638588  0.321398  1
  Re  Re9  1  0.000000  0.363521  0.675937  1
  Re  Re10  1  0.000000  0.138159  0.180916  1
  Re  Re11  1  0.000000  0.859564  0.821236  1
  B  B12  1  0.500000  0.553764  0.432490  1
  B  B13  1  0.500000  0.446703  0.566613  1
  B  B14  1  0.500000  0.053313  0.067589  1
  B  B15  1  0.500000  0.945891  0.933108  1
  B  B16  1  0.500000  0.749629  0.420193  1
  B  B17  1  0.500000  0.250819  0.580623  1
  B  B18  1  0.500000  0.248677  0.079227  1
  B  B19  1  0.500000  0.751243  0.920233  1
  B  B20  1  0.500000  0.792994  0.265502  1
  B  B21  1  0.500000  0.207379  0.734469  1
  B  B22  1  0.500000  0.292813  0.233334  1
  B  B23  1  0.500000  0.706909  0.765974  1
  B  B24  1  0.500000  0.632115  0.184289  1
  B  B25  1  0.500000  0.367785  0.815034  1
  B  B26  1  0.500000  0.132322  0.315374  1
  B  B27  1  0.500000  0.868140  0.685803  1
  B  B28  1  0.500000  0.982561  0.213233  1
  B  B29  1  0.500000  0.018288  0.786925  1
  B  B30  1  0.500000  0.482570  0.285499  1
  B  B31  1  0.500000  0.516896  0.714175  1
  B  B32  1  0.500000  0.607484  0.029764  1
  B  B33  1  0.500000  0.391386  0.969687  1
  B  B34  1  0.500000  0.108241  0.470548  1
  B  B35  1  0.500000  0.891951  0.530317  1
