# generated using pymatgen
data_Lu8Sc4TlCo4Tc
_symmetry_space_group_name_H-M   'P 1'
_cell_length_a   7.98466878
_cell_length_b   7.98466898
_cell_length_c   7.98466941
_cell_angle_alpha   111.14658558
_cell_angle_beta   111.34019708
_cell_angle_gamma   105.98227618
_symmetry_Int_Tables_number   1
_chemical_formula_structural   Lu8Sc4TlCo4Tc
_chemical_formula_sum   'Lu8 Sc4 Tl1 Co4 Tc1'
_cell_volume   390.79370319
_cell_formula_units_Z   1
loop_
 _symmetry_equiv_pos_site_id
 _symmetry_equiv_pos_as_xyz
  1  'x, y, z'
loop_
 _atom_site_type_symbol
 _atom_site_label
 _atom_site_symmetry_multiplicity
 _atom_site_fract_x
 _atom_site_fract_y
 _atom_site_fract_z
 _atom_site_occupancy
  Lu  Lu0  1  0.185404  0.277316  0.462721  1
  Lu  Lu1  1  0.814596  0.722684  0.537279  1
  Lu  Lu2  1  0.185404  0.722684  0.908089  1
  Lu  Lu3  1  0.814596  0.277316  0.091911  1
  Lu  Lu4  1  0.311874  0.614748  0.302874  1
  Lu  Lu5  1  0.688126  0.385252  0.697126  1
  Lu  Lu6  1  0.311874  0.009000  0.697126  1
  Lu  Lu7  1  0.688126  0.991000  0.302874  1
  Sc  Sc8  1  0.415525  0.220978  0.194547  1
  Sc  Sc9  1  0.584475  0.779022  0.805453  1
  Sc  Sc10  1  0.026431  0.220978  0.805453  1
  Sc  Sc11  1  0.973569  0.779022  0.194547  1
  Tl  Tl12  1  0.500000  0.500000  0.000000  1
  Co  Co13  1  0.369318  0.000000  0.369318  1
  Co  Co14  1  0.630682  0.000000  0.630682  1
  Co  Co15  1  0.113477  0.613477  0.500000  1
  Co  Co16  1  0.886523  0.386523  0.500000  1
  Tc  Tc17  1  0.000000  0.000000  0.000000  1
