# generated using pymatgen
data_Nb4Al2V3Ga2Cu
_symmetry_space_group_name_H-M   'P 1'
_cell_length_a   4.97214097
_cell_length_b   5.08056013
_cell_length_c   8.46424600
_cell_angle_alpha   90.00000000
_cell_angle_beta   90.00000000
_cell_angle_gamma   120.67846884
_symmetry_Int_Tables_number   1
_chemical_formula_structural   Nb4Al2V3Ga2Cu
_chemical_formula_sum   'Nb4 Al2 V3 Ga2 Cu1'
_cell_volume   183.89249719
_cell_formula_units_Z   1
loop_
 _symmetry_equiv_pos_site_id
 _symmetry_equiv_pos_as_xyz
  1  'x, y, z'
loop_
 _atom_site_type_symbol
 _atom_site_label
 _atom_site_symmetry_multiplicity
 _atom_site_fract_x
 _atom_site_fract_y
 _atom_site_fract_z
 _atom_site_occupancy
  Nb  Nb0  1  0.669911  0.334903  0.558351  1
  Nb  Nb1  1  0.326458  0.663221  0.437541  1
  Nb  Nb2  1  0.326458  0.663221  0.062459  1
  Nb  Nb3  1  0.669911  0.334903  0.941649  1
  Al  Al4  1  0.185735  0.349788  0.750000  1
  Al  Al5  1  0.185685  0.835939  0.750000  1
  V  V6  1  0.822581  0.651204  0.250000  1
  V  V7  1  0.822573  0.171265  0.250000  1
  V  V8  1  0.341021  0.170448  0.250000  1
  Ga  Ga9  1  0.988914  0.994575  0.500431  1
  Ga  Ga10  1  0.988914  0.994575  0.999569  1
  Cu  Cu11  1  0.671838  0.835958  0.750000  1
