# generated using pymatgen
data_GaFe(SbBr6)2
_symmetry_space_group_name_H-M   'P 1'
_cell_length_a   10.23189820
_cell_length_b   10.23189962
_cell_length_c   7.38641665
_cell_angle_alpha   71.03372424
_cell_angle_beta   71.03372597
_cell_angle_gamma   79.24377161
_symmetry_Int_Tables_number   1
_chemical_formula_structural   GaFe(SbBr6)2
_chemical_formula_sum   'Ga1 Fe1 Sb2 Br12'
_cell_volume   688.76948906
_cell_formula_units_Z   1
loop_
 _symmetry_equiv_pos_site_id
 _symmetry_equiv_pos_as_xyz
  1  'x, y, z'
loop_
 _atom_site_type_symbol
 _atom_site_label
 _atom_site_symmetry_multiplicity
 _atom_site_fract_x
 _atom_site_fract_y
 _atom_site_fract_z
 _atom_site_occupancy
  Ga  Ga0  1  0.198693  0.198693  0.648669  1
  Fe  Fe1  1  0.802368  0.802368  0.353546  1
  Sb  Sb2  1  0.806759  0.190891  0.002487  1
  Sb  Sb3  1  0.190891  0.806759  0.002487  1
  Br  Br4  1  0.217690  0.578583  0.924248  1
  Br  Br5  1  0.421296  0.782707  0.074266  1
  Br  Br6  1  0.782707  0.421296  0.074266  1
  Br  Br7  1  0.578583  0.217690  0.924248  1
  Br  Br8  1  0.023709  0.720725  0.420869  1
  Br  Br9  1  0.277036  0.978111  0.575526  1
  Br  Br10  1  0.978111  0.277036  0.575526  1
  Br  Br11  1  0.720725  0.023709  0.420869  1
  Br  Br12  1  0.853722  0.853722  0.002758  1
  Br  Br13  1  0.146531  0.146531  0.001940  1
  Br  Br14  1  0.643235  0.643235  0.527107  1
  Br  Br15  1  0.357942  0.357942  0.471188  1
