# generated using pymatgen
data_LaPr2PtBr3
_symmetry_space_group_name_H-M   'P 1'
_cell_length_a   10.65647303
_cell_length_b   10.66769928
_cell_length_c   10.65596790
_cell_angle_alpha   109.28900477
_cell_angle_beta   109.45918428
_cell_angle_gamma   109.65375794
_symmetry_Int_Tables_number   1
_chemical_formula_structural   LaPr2PtBr3
_chemical_formula_sum   'La4 Pr8 Pt4 Br12'
_cell_volume   932.64149761
_cell_formula_units_Z   4
loop_
 _symmetry_equiv_pos_site_id
 _symmetry_equiv_pos_as_xyz
  1  'x, y, z'
loop_
 _atom_site_type_symbol
 _atom_site_label
 _atom_site_symmetry_multiplicity
 _atom_site_fract_x
 _atom_site_fract_y
 _atom_site_fract_z
 _atom_site_occupancy
  La  La0  1  0.469911  0.485287  0.234077  1
  La  La1  1  0.749438  0.235391  0.263433  1
  La  La2  1  0.751902  0.015395  0.487413  1
  La  La3  1  0.235064  0.470341  0.486118  1
  Pr  Pr4  1  0.264369  0.750756  0.234536  1
  Pr  Pr5  1  0.028060  0.263789  0.013654  1
  Pr  Pr6  1  0.015375  0.027807  0.263211  1
  Pr  Pr7  1  0.484874  0.750445  0.014870  1
  Pr  Pr8  1  0.484705  0.234014  0.469884  1
  Pr  Pr9  1  0.016702  0.486888  0.753327  1
  Pr  Pr10  1  0.263758  0.014530  0.029497  1
  Pr  Pr11  1  0.235027  0.264696  0.749648  1
  Pt  Pt12  1  0.249597  0.250459  0.249644  1
  Pt  Pt13  1  0.501395  0.000580  0.250545  1
  Pt  Pt14  1  0.998888  0.249242  0.498895  1
  Pt  Pt15  1  0.250165  0.499639  0.000716  1
  Br  Br16  1  0.249992  0.754806  0.747018  1
  Br  Br17  1  0.508218  0.503278  0.754412  1
  Br  Br18  1  0.992097  0.746056  0.996101  1
  Br  Br19  1  0.746347  0.251178  0.754570  1
  Br  Br20  1  0.996939  0.992153  0.746921  1
  Br  Br21  1  0.250025  0.996009  0.503812  1
  Br  Br22  1  0.754585  0.508123  0.505692  1
  Br  Br23  1  0.502409  0.248866  0.994128  1
  Br  Br24  1  0.754688  0.746486  0.248896  1
  Br  Br25  1  0.746175  0.995071  0.991738  1
  Br  Br26  1  0.995891  0.504177  0.248937  1
  Br  Br27  1  0.503406  0.754540  0.508308  1
