# generated using pymatgen
data_Y4ErTm5Ru4
_symmetry_space_group_name_H-M   'P 1'
_cell_length_a   6.28904135
_cell_length_b   7.26942872
_cell_length_c   8.43581491
_cell_angle_alpha   96.93681061
_cell_angle_beta   111.89817973
_cell_angle_gamma   89.89284050
_symmetry_Int_Tables_number   1
_chemical_formula_structural   Y4ErTm5Ru4
_chemical_formula_sum   'Y4 Er1 Tm5 Ru4'
_cell_volume   354.82995443
_cell_formula_units_Z   1
loop_
 _symmetry_equiv_pos_site_id
 _symmetry_equiv_pos_as_xyz
  1  'x, y, z'
loop_
 _atom_site_type_symbol
 _atom_site_label
 _atom_site_symmetry_multiplicity
 _atom_site_fract_x
 _atom_site_fract_y
 _atom_site_fract_z
 _atom_site_occupancy
  Y  Y0  1  0.788935  0.082397  0.810587  1
  Y  Y1  1  0.977747  0.417274  0.189322  1
  Y  Y2  1  0.211353  0.917335  0.189374  1
  Y  Y3  1  0.021989  0.582978  0.810699  1
  Er  Er4  1  0.203004  0.184962  0.565823  1
  Tm  Tm5  1  0.637487  0.315528  0.434207  1
  Tm  Tm6  1  0.796742  0.815132  0.433906  1
  Tm  Tm7  1  0.362624  0.684536  0.565643  1
  Tm  Tm8  1  0.420766  0.249775  0.000108  1
  Tm  Tm9  1  0.579468  0.750284  0.000206  1
  Ru  Ru10  1  0.594974  0.425263  0.777581  1
  Ru  Ru11  1  0.816756  0.075655  0.222147  1
  Ru  Ru12  1  0.405388  0.574993  0.222624  1
  Ru  Ru13  1  0.182768  0.923888  0.777774  1
