# generated using pymatgen
data_Sc5Nb(SiOs)6
_symmetry_space_group_name_H-M   'P 1'
_cell_length_a   7.63657606
_cell_length_b   7.63444004
_cell_length_c   7.63657673
_cell_angle_alpha   127.05955180
_cell_angle_beta   125.49748255
_cell_angle_gamma   79.44410248
_symmetry_Int_Tables_number   1
_chemical_formula_structural   Sc5Nb(SiOs)6
_chemical_formula_sum   'Sc5 Nb1 Si6 Os6'
_cell_volume   279.56743015
_cell_formula_units_Z   1
loop_
 _symmetry_equiv_pos_site_id
 _symmetry_equiv_pos_as_xyz
  1  'x, y, z'
loop_
 _atom_site_type_symbol
 _atom_site_label
 _atom_site_symmetry_multiplicity
 _atom_site_fract_x
 _atom_site_fract_y
 _atom_site_fract_z
 _atom_site_occupancy
  Sc  Sc0  1  0.452232  0.412642  0.460410  1
  Sc  Sc1  1  0.547364  0.002332  0.954969  1
  Sc  Sc2  1  0.047008  0.008206  0.461198  1
  Sc  Sc3  1  0.953527  0.409299  0.955773  1
  Sc  Sc4  1  0.249692  0.594596  0.844905  1
  Nb  Nb5  1  0.750378  0.593548  0.343170  1
  Si  Si6  1  0.249009  0.003983  0.254974  1
  Si  Si7  1  0.751587  0.999083  0.747496  1
  Si  Si8  1  0.162029  0.671209  0.500701  1
  Si  Si9  1  0.828729  0.338353  0.499958  1
  Si  Si10  1  0.670508  0.671209  0.009180  1
  Si  Si11  1  0.338396  0.338353  0.009624  1
  Os  Os12  1  0.995714  0.255992  0.251817  1
  Os  Os13  1  0.504175  0.255992  0.760277  1
  Os  Os14  1  0.373446  0.750926  0.374504  1
  Os  Os15  1  0.619666  0.000675  0.370556  1
  Os  Os16  1  0.876422  0.750926  0.877480  1
  Os  Os17  1  0.130119  0.000675  0.881009  1
