# generated using pymatgen
data_Zr3Zn3Cu2Rh
_symmetry_space_group_name_H-M   'P 1'
_cell_length_a   7.11749200
_cell_length_b   7.11749310
_cell_length_c   3.45325600
_cell_angle_alpha   90.00000000
_cell_angle_beta   90.00000000
_cell_angle_gamma   120.00000542
_symmetry_Int_Tables_number   1
_chemical_formula_structural   Zr3Zn3Cu2Rh
_chemical_formula_sum   'Zr3 Zn3 Cu2 Rh1'
_cell_volume   151.50027654
_cell_formula_units_Z   1
loop_
 _symmetry_equiv_pos_site_id
 _symmetry_equiv_pos_as_xyz
  1  'x, y, z'
loop_
 _atom_site_type_symbol
 _atom_site_label
 _atom_site_symmetry_multiplicity
 _atom_site_fract_x
 _atom_site_fract_y
 _atom_site_fract_z
 _atom_site_occupancy
  Zr  Zr0  1  0.403642  0.993003  0.500000  1
  Zr  Zr1  1  0.006997  0.410639  0.500000  1
  Zr  Zr2  1  0.589362  0.596358  0.500000  1
  Zn  Zn3  1  0.744531  0.007648  0.000000  1
  Zn  Zn4  1  0.263117  0.255469  0.000000  1
  Zn  Zn5  1  0.992352  0.736884  0.000000  1
  Cu  Cu6  1  0.666666  0.333333  0.000000  1
  Cu  Cu7  1  0.000000  0.000000  0.500000  1
  Rh  Rh8  1  0.333333  0.666666  0.000000  1
