# generated using pymatgen
data_Y3PaIn2Rh3
_symmetry_space_group_name_H-M   'P 1'
_cell_length_a   7.48067699
_cell_length_b   7.39958338
_cell_length_c   4.21332600
_cell_angle_alpha   90.00000000
_cell_angle_beta   90.00000000
_cell_angle_gamma   119.64204914
_symmetry_Int_Tables_number   1
_chemical_formula_structural   Y3PaIn2Rh3
_chemical_formula_sum   'Y3 Pa1 In2 Rh3'
_cell_volume   202.70248400
_cell_formula_units_Z   1
loop_
 _symmetry_equiv_pos_site_id
 _symmetry_equiv_pos_as_xyz
  1  'x, y, z'
loop_
 _atom_site_type_symbol
 _atom_site_label
 _atom_site_symmetry_multiplicity
 _atom_site_fract_x
 _atom_site_fract_y
 _atom_site_fract_z
 _atom_site_occupancy
  Y  Y0  1  0.000000  0.628703  0.500000  1
  Y  Y1  1  0.435239  0.406751  0.500000  1
  Y  Y2  1  0.564761  0.971512  0.500000  1
  Pa  Pa3  1  0.000000  0.268081  0.000000  1
  In  In4  1  0.258613  0.004769  0.000000  1
  In  In5  1  0.741387  0.746156  0.000000  1
  Rh  Rh6  1  0.306394  0.628798  0.000000  1
  Rh  Rh7  1  0.000000  0.022828  0.500000  1
  Rh  Rh8  1  0.693606  0.322403  0.000000  1
