# generated using pymatgen
data_Pu2HfZr3F22
_symmetry_space_group_name_H-M   'P 1'
_cell_length_a   8.50962741
_cell_length_b   8.50962752
_cell_length_c   8.50756700
_cell_angle_alpha   124.81186658
_cell_angle_beta   106.37106020
_cell_angle_gamma   98.48010431
_symmetry_Int_Tables_number   1
_chemical_formula_structural   Pu2HfZr3F22
_chemical_formula_sum   'Pu2 Hf1 Zr3 F22'
_cell_volume   446.57084135
_cell_formula_units_Z   1
loop_
 _symmetry_equiv_pos_site_id
 _symmetry_equiv_pos_as_xyz
  1  'x, y, z'
loop_
 _atom_site_type_symbol
 _atom_site_label
 _atom_site_symmetry_multiplicity
 _atom_site_fract_x
 _atom_site_fract_y
 _atom_site_fract_z
 _atom_site_occupancy
  Pu  Pu0  1  0.750207  0.245664  0.496644  1
  Pu  Pu1  1  0.249842  0.747527  0.496488  1
  Hf  Hf2  1  0.817138  0.133917  0.951442  1
  Zr  Zr3  1  0.682854  0.633251  0.316823  1
  Zr  Zr4  1  0.320244  0.366411  0.685913  1
  Zr  Zr5  1  0.178942  0.866546  0.045231  1
  F  F6  1  0.709602  0.894891  0.343358  1
  F  F7  1  0.292691  0.104345  0.657768  1
  F  F8  1  0.552924  0.363873  0.656265  1
  F  F9  1  0.946144  0.604413  0.812120  1
  F  F10  1  0.448495  0.634475  0.344310  1
  F  F11  1  0.048935  0.392161  0.183295  1
  F  F12  1  0.790741  0.135244  0.183786  1
  F  F13  1  0.208003  0.865675  0.811923  1
  F  F14  1  0.501808  0.500559  0.001960  1
  F  F15  1  0.996480  0.002164  0.999211  1
  F  F16  1  0.780895  0.873599  0.654186  1
  F  F17  1  0.217404  0.129970  0.347051  1
  F  F18  1  0.280851  0.629161  0.911063  1
  F  F19  1  0.721162  0.369946  0.090449  1
  F  F20  1  0.954689  0.740351  0.422819  1
  F  F21  1  0.047357  0.260894  0.581168  1
  F  F22  1  0.321373  0.535519  0.582903  1
  F  F23  1  0.179978  0.762338  0.214149  1
  F  F24  1  0.682049  0.466895  0.421841  1
  F  F25  1  0.817722  0.237459  0.787003  1
  F  F26  1  0.549471  0.968794  0.787096  1
  F  F27  1  0.451999  0.033960  0.213736  1
