# generated using pymatgen
data_Ca10Si4GeAsF
_symmetry_space_group_name_H-M   'P 1'
_cell_length_a   9.09493160
_cell_length_b   9.09493147
_cell_length_c   9.09493103
_cell_angle_alpha   130.03707525
_cell_angle_beta   130.41105537
_cell_angle_gamma   73.04922342
_symmetry_Int_Tables_number   1
_chemical_formula_structural   Ca10Si4GeAsF
_chemical_formula_sum   'Ca10 Si4 Ge1 As1 F1'
_cell_volume   428.28942900
_cell_formula_units_Z   1
loop_
 _symmetry_equiv_pos_site_id
 _symmetry_equiv_pos_as_xyz
  1  'x, y, z'
loop_
 _atom_site_type_symbol
 _atom_site_label
 _atom_site_symmetry_multiplicity
 _atom_site_fract_x
 _atom_site_fract_y
 _atom_site_fract_z
 _atom_site_occupancy
  Ca  Ca0  1  0.770243  0.434322  0.996503  1
  Ca  Ca1  1  0.437819  0.773741  0.003497  1
  Ca  Ca2  1  0.932310  0.934512  0.645118  1
  Ca  Ca3  1  0.289393  0.287192  0.354882  1
  Ca  Ca4  1  0.710607  0.065488  0.997799  1
  Ca  Ca5  1  0.067690  0.712808  0.002201  1
  Ca  Ca6  1  0.562181  0.565678  0.335921  1
  Ca  Ca7  1  0.229756  0.226259  0.664079  1
  Ca  Ca8  1  0.251681  0.751681  0.500000  1
  Ca  Ca9  1  0.748319  0.248319  0.500000  1
  Si  Si10  1  0.133130  0.361842  0.999793  1
  Si  Si11  1  0.362049  0.133338  0.000207  1
  Si  Si12  1  0.866870  0.866662  0.228711  1
  Si  Si13  1  0.637951  0.638158  0.771289  1
  Ge  Ge14  1  0.500000  0.000000  0.500000  1
  As  As15  1  0.000000  0.500000  0.500000  1
  F  F16  1  0.500000  0.500000  0.000000  1
