# generated using pymatgen
data_Tb11Er9CoBi8Ru3
_symmetry_space_group_name_H-M   'P 1'
_cell_length_a   7.97406344
_cell_length_b   8.99980500
_cell_length_c   12.47881038
_cell_angle_alpha   90.00000000
_cell_angle_beta   90.13546276
_cell_angle_gamma   90.00000000
_symmetry_Int_Tables_number   1
_chemical_formula_structural   Tb11Er9CoBi8Ru3
_chemical_formula_sum   'Tb11 Er9 Co1 Bi8 Ru3'
_cell_volume   895.53952384
_cell_formula_units_Z   1
loop_
 _symmetry_equiv_pos_site_id
 _symmetry_equiv_pos_as_xyz
  1  'x, y, z'
loop_
 _atom_site_type_symbol
 _atom_site_label
 _atom_site_symmetry_multiplicity
 _atom_site_fract_x
 _atom_site_fract_y
 _atom_site_fract_z
 _atom_site_occupancy
  Tb  Tb0  1  0.846941  0.750000  0.799720  1
  Tb  Tb1  1  0.344634  0.250000  0.707011  1
  Tb  Tb2  1  0.654067  0.750000  0.294536  1
  Tb  Tb3  1  0.377583  0.750000  0.693278  1
  Tb  Tb4  1  0.620924  0.250000  0.307404  1
  Tb  Tb5  1  0.877655  0.250000  0.808305  1
  Tb  Tb6  1  0.118990  0.750000  0.187560  1
  Tb  Tb7  1  0.946157  0.750000  0.504615  1
  Tb  Tb8  1  0.054048  0.250000  0.495556  1
  Tb  Tb9  1  0.447705  0.250000  0.996555  1
  Tb  Tb10  1  0.552084  0.750000  0.003879  1
  Er  Er11  1  0.154507  0.250000  0.204997  1
  Er  Er12  1  0.674199  0.042103  0.564180  1
  Er  Er13  1  0.324980  0.957261  0.435633  1
  Er  Er14  1  0.174355  0.957445  0.936245  1
  Er  Er15  1  0.324980  0.542739  0.435633  1
  Er  Er16  1  0.827000  0.038077  0.063130  1
  Er  Er17  1  0.674199  0.457897  0.564180  1
  Er  Er18  1  0.827000  0.461923  0.063130  1
  Er  Er19  1  0.174355  0.542555  0.936245  1
  Co  Co20  1  0.933310  0.750000  0.008640  1
  Bi  Bi21  1  0.571267  0.492775  0.827390  1
  Bi  Bi22  1  0.428864  0.506810  0.172687  1
  Bi  Bi23  1  0.069624  0.507539  0.673127  1
  Bi  Bi24  1  0.428864  0.993190  0.172687  1
  Bi  Bi25  1  0.930640  0.492328  0.326021  1
  Bi  Bi26  1  0.571267  0.007225  0.827390  1
  Bi  Bi27  1  0.930640  0.007672  0.326021  1
  Bi  Bi28  1  0.069624  0.992461  0.673127  1
  Ru  Ru29  1  0.571632  0.750000  0.510818  1
  Ru  Ru30  1  0.427087  0.250000  0.489629  1
  Ru  Ru31  1  0.070819  0.250000  0.990666  1
