# generated using pymatgen
data_Yb3(Sn2Pd)2
_symmetry_space_group_name_H-M   'P 1'
_cell_length_a   7.66098800
_cell_length_b   7.66098830
_cell_length_c   4.22018400
_cell_angle_alpha   90.00000000
_cell_angle_beta   90.00000000
_cell_angle_gamma   120.00000732
_symmetry_Int_Tables_number   1
_chemical_formula_structural   Yb3(Sn2Pd)2
_chemical_formula_sum   'Yb3 Sn4 Pd2'
_cell_volume   214.50210954
_cell_formula_units_Z   1
loop_
 _symmetry_equiv_pos_site_id
 _symmetry_equiv_pos_as_xyz
  1  'x, y, z'
loop_
 _atom_site_type_symbol
 _atom_site_label
 _atom_site_symmetry_multiplicity
 _atom_site_fract_x
 _atom_site_fract_y
 _atom_site_fract_z
 _atom_site_occupancy
  Yb  Yb0  1  0.985443  0.584942  0.000000  1
  Yb  Yb1  1  0.415058  0.400501  0.000000  1
  Yb  Yb2  1  0.599499  0.014557  0.000000  1
  Sn  Sn3  1  0.763349  0.741828  0.500000  1
  Sn  Sn4  1  0.978479  0.236651  0.500000  1
  Sn  Sn5  1  0.258172  0.021521  0.500000  1
  Sn  Sn6  1  0.333333  0.666667  0.500000  1
  Pd  Pd7  1  0.000000  0.000000  0.000000  1
  Pd  Pd8  1  0.666667  0.333333  0.500000  1
