# generated using pymatgen
data_TbY5(Tm2Pb3)2
_symmetry_space_group_name_H-M   'P 1'
_cell_length_a   6.57463300
_cell_length_b   9.04647771
_cell_length_c   9.04843400
_cell_angle_alpha   119.99284891
_cell_angle_beta   90.00000000
_cell_angle_gamma   90.00000000
_symmetry_Int_Tables_number   1
_chemical_formula_structural   TbY5(Tm2Pb3)2
_chemical_formula_sum   'Tb1 Y5 Tm4 Pb6'
_cell_volume   466.10780786
_cell_formula_units_Z   1
loop_
 _symmetry_equiv_pos_site_id
 _symmetry_equiv_pos_as_xyz
  1  'x, y, z'
loop_
 _atom_site_type_symbol
 _atom_site_label
 _atom_site_symmetry_multiplicity
 _atom_site_fract_x
 _atom_site_fract_y
 _atom_site_fract_z
 _atom_site_occupancy
  Tb  Tb0  1  0.750004  0.238814  0.000000  1
  Y  Y1  1  0.749998  0.760989  0.761084  1
  Y  Y2  1  0.749998  0.999904  0.238916  1
  Y  Y3  1  0.250004  0.761186  0.000000  1
  Y  Y4  1  0.249998  0.239011  0.238916  1
  Y  Y5  1  0.249998  0.000096  0.761084  1
  Tm  Tm6  1  0.499998  0.333281  0.666604  1
  Tm  Tm7  1  0.499998  0.666677  0.333396  1
  Tm  Tm8  1  0.999998  0.666719  0.333396  1
  Tm  Tm9  1  0.999998  0.333323  0.666604  1
  Pb  Pb10  1  0.749996  0.605120  0.000000  1
  Pb  Pb11  1  0.750004  0.394988  0.395043  1
  Pb  Pb12  1  0.750004  0.999945  0.604957  1
  Pb  Pb13  1  0.249996  0.394880  0.000000  1
  Pb  Pb14  1  0.250004  0.605012  0.604957  1
  Pb  Pb15  1  0.250004  0.000055  0.395043  1
