# generated using pymatgen
data_Li4La4GaPt3
_symmetry_space_group_name_H-M   'P 1'
_cell_length_a   4.18611400
_cell_length_b   7.44961508
_cell_length_c   8.54649218
_cell_angle_alpha   92.23525849
_cell_angle_beta   90.00000000
_cell_angle_gamma   90.00000000
_symmetry_Int_Tables_number   1
_chemical_formula_structural   Li4La4GaPt3
_chemical_formula_sum   'Li4 La4 Ga1 Pt3'
_cell_volume   266.31903344
_cell_formula_units_Z   1
loop_
 _symmetry_equiv_pos_site_id
 _symmetry_equiv_pos_as_xyz
  1  'x, y, z'
loop_
 _atom_site_type_symbol
 _atom_site_label
 _atom_site_symmetry_multiplicity
 _atom_site_fract_x
 _atom_site_fract_y
 _atom_site_fract_z
 _atom_site_occupancy
  Li  Li0  1  0.250000  0.135494  0.942357  1
  Li  Li1  1  0.250000  0.631016  0.556253  1
  Li  Li2  1  0.750000  0.865622  0.061481  1
  Li  Li3  1  0.750000  0.363778  0.437612  1
  La  La4  1  0.250000  0.032114  0.324471  1
  La  La5  1  0.250000  0.547896  0.183510  1
  La  La6  1  0.750000  0.961708  0.699952  1
  La  La7  1  0.750000  0.466966  0.798605  1
  Ga  Ga8  1  0.750000  0.241114  0.108283  1
  Pt  Pt9  1  0.250000  0.248573  0.619221  1
  Pt  Pt10  1  0.250000  0.756100  0.883091  1
  Pt  Pt11  1  0.750000  0.749619  0.385164  1
