# generated using pymatgen
data_SrSm6CoBr12
_symmetry_space_group_name_H-M   'P 1'
_cell_length_a   9.41216865
_cell_length_b   9.41216764
_cell_length_c   9.41216957
_cell_angle_alpha   106.26748207
_cell_angle_beta   106.26747603
_cell_angle_gamma   106.26747391
_symmetry_Int_Tables_number   1
_chemical_formula_structural   SrSm6CoBr12
_chemical_formula_sum   'Sr1 Sm6 Co1 Br12'
_cell_volume   707.82588620
_cell_formula_units_Z   1
loop_
 _symmetry_equiv_pos_site_id
 _symmetry_equiv_pos_as_xyz
  1  'x, y, z'
loop_
 _atom_site_type_symbol
 _atom_site_label
 _atom_site_symmetry_multiplicity
 _atom_site_fract_x
 _atom_site_fract_y
 _atom_site_fract_z
 _atom_site_occupancy
  Sr  Sr0  1  0.500000  0.500000  0.500000  1
  Sm  Sm1  1  0.984217  0.903746  0.696818  1
  Sm  Sm2  1  0.015783  0.096254  0.303182  1
  Sm  Sm3  1  0.096254  0.303182  0.015783  1
  Sm  Sm4  1  0.303182  0.015783  0.096254  1
  Sm  Sm5  1  0.903746  0.696818  0.984217  1
  Sm  Sm6  1  0.696818  0.984217  0.903746  1
  Co  Co7  1  0.000000  0.000000  0.000000  1
  Br  Br8  1  0.556366  0.637006  0.856074  1
  Br  Br9  1  0.443634  0.362994  0.143926  1
  Br  Br10  1  0.321728  0.927804  0.778574  1
  Br  Br11  1  0.362994  0.143926  0.443634  1
  Br  Br12  1  0.927804  0.778574  0.321728  1
  Br  Br13  1  0.678272  0.072196  0.221426  1
  Br  Br14  1  0.072196  0.221426  0.678272  1
  Br  Br15  1  0.778574  0.321728  0.927804  1
  Br  Br16  1  0.221426  0.678272  0.072196  1
  Br  Br17  1  0.856074  0.556366  0.637006  1
  Br  Br18  1  0.143926  0.443634  0.362994  1
  Br  Br19  1  0.637006  0.856074  0.556366  1
