# generated using pymatgen
data_KMn2Cl9
_symmetry_space_group_name_H-M   'P 1'
_cell_length_a   6.53004600
_cell_length_b   9.43766406
_cell_length_c   11.78862551
_cell_angle_alpha   65.04277823
_cell_angle_beta   90.00000000
_cell_angle_gamma   90.00000000
_symmetry_Int_Tables_number   1
_chemical_formula_structural   KMn2Cl9
_chemical_formula_sum   'K2 Mn4 Cl18'
_cell_volume   658.67426093
_cell_formula_units_Z   2
loop_
 _symmetry_equiv_pos_site_id
 _symmetry_equiv_pos_as_xyz
  1  'x, y, z'
loop_
 _atom_site_type_symbol
 _atom_site_label
 _atom_site_symmetry_multiplicity
 _atom_site_fract_x
 _atom_site_fract_y
 _atom_site_fract_z
 _atom_site_occupancy
  K  K0  1  0.585669  0.500000  0.750000  1
  K  K1  1  0.414331  0.500000  0.250000  1
  Mn  Mn2  1  0.258687  0.831628  0.859374  1
  Mn  Mn3  1  0.741313  0.168372  0.140626  1
  Mn  Mn4  1  0.258687  0.168372  0.640626  1
  Mn  Mn5  1  0.741313  0.831628  0.359374  1
  Cl  Cl6  1  0.117720  0.780014  0.041328  1
  Cl  Cl7  1  0.882280  0.219986  0.958672  1
  Cl  Cl8  1  0.117720  0.219986  0.458672  1
  Cl  Cl9  1  0.882280  0.780014  0.541328  1
  Cl  Cl10  1  0.124036  0.628735  0.840153  1
  Cl  Cl11  1  0.875964  0.371265  0.159847  1
  Cl  Cl12  1  0.124036  0.371265  0.659847  1
  Cl  Cl13  1  0.875964  0.628735  0.340153  1
  Cl  Cl14  1  0.986439  0.000000  0.750000  1
  Cl  Cl15  1  0.013561  0.000000  0.250000  1
  Cl  Cl16  1  0.395349  0.071999  0.845991  1
  Cl  Cl17  1  0.604651  0.928001  0.154009  1
  Cl  Cl18  1  0.395349  0.928001  0.654009  1
  Cl  Cl19  1  0.604651  0.071999  0.345991  1
  Cl  Cl20  1  0.549251  0.709256  0.939767  1
  Cl  Cl21  1  0.450749  0.290744  0.060233  1
  Cl  Cl22  1  0.549251  0.290744  0.560233  1
  Cl  Cl23  1  0.450749  0.709256  0.439767  1
