# generated using pymatgen
data_Ba3NaPaS6
_symmetry_space_group_name_H-M   'P 1'
_cell_length_a   8.61432011
_cell_length_b   8.61432010
_cell_length_c   8.61432000
_cell_angle_alpha   91.10262829
_cell_angle_beta   91.10262829
_cell_angle_gamma   91.10262020
_symmetry_Int_Tables_number   1
_chemical_formula_structural   Ba3NaPaS6
_chemical_formula_sum   'Ba6 Na2 Pa2 S12'
_cell_volume   638.87890669
_cell_formula_units_Z   2
loop_
 _symmetry_equiv_pos_site_id
 _symmetry_equiv_pos_as_xyz
  1  'x, y, z'
loop_
 _atom_site_type_symbol
 _atom_site_label
 _atom_site_symmetry_multiplicity
 _atom_site_fract_x
 _atom_site_fract_y
 _atom_site_fract_z
 _atom_site_occupancy
  Ba  Ba0  1  0.250000  0.881131  0.618869  1
  Ba  Ba1  1  0.618869  0.250000  0.881131  1
  Ba  Ba2  1  0.881131  0.618869  0.250000  1
  Ba  Ba3  1  0.750000  0.118869  0.381131  1
  Ba  Ba4  1  0.381131  0.750000  0.118869  1
  Ba  Ba5  1  0.118869  0.381131  0.750000  1
  Na  Na6  1  0.750000  0.750000  0.750000  1
  Na  Na7  1  0.250000  0.250000  0.250000  1
  Pa  Pa8  1  0.500000  0.500000  0.500000  1
  Pa  Pa9  1  0.000000  0.000000  0.000000  1
  S  S10  1  0.055860  0.708597  0.917810  1
  S  S11  1  0.917810  0.055860  0.708597  1
  S  S12  1  0.708597  0.917810  0.055860  1
  S  S13  1  0.444140  0.582190  0.791403  1
  S  S14  1  0.791403  0.444140  0.582190  1
  S  S15  1  0.582190  0.791403  0.444140  1
  S  S16  1  0.944140  0.291403  0.082190  1
  S  S17  1  0.082190  0.944140  0.291403  1
  S  S18  1  0.291403  0.082190  0.944140  1
  S  S19  1  0.555860  0.417810  0.208597  1
  S  S20  1  0.417810  0.208597  0.555860  1
  S  S21  1  0.208597  0.555860  0.417810  1
