# generated using pymatgen
data_Hf18Ti2FeMo6Se
_symmetry_space_group_name_H-M   'P 1'
_cell_length_a   8.44423500
_cell_length_b   8.74651485
_cell_length_c   8.74738100
_cell_angle_alpha   120.00410782
_cell_angle_beta   90.00000000
_cell_angle_gamma   90.00000000
_symmetry_Int_Tables_number   1
_chemical_formula_structural   Hf18Ti2FeMo6Se
_chemical_formula_sum   'Hf18 Ti2 Fe1 Mo6 Se1'
_cell_volume   559.48190590
_cell_formula_units_Z   1
loop_
 _symmetry_equiv_pos_site_id
 _symmetry_equiv_pos_as_xyz
  1  'x, y, z'
loop_
 _atom_site_type_symbol
 _atom_site_label
 _atom_site_symmetry_multiplicity
 _atom_site_fract_x
 _atom_site_fract_y
 _atom_site_fract_z
 _atom_site_occupancy
  Hf  Hf0  1  0.547880  0.806416  0.612839  1
  Hf  Hf1  1  0.547914  0.806426  0.193556  1
  Hf  Hf2  1  0.547916  0.387162  0.193576  1
  Hf  Hf3  1  0.440716  0.203142  0.406324  1
  Hf  Hf4  1  0.440684  0.203161  0.796810  1
  Hf  Hf5  1  0.440699  0.593677  0.796843  1
  Hf  Hf6  1  0.059284  0.203142  0.406324  1
  Hf  Hf7  1  0.059316  0.203161  0.796810  1
  Hf  Hf8  1  0.059301  0.593677  0.796843  1
  Hf  Hf9  1  0.952120  0.806416  0.612839  1
  Hf  Hf10  1  0.952086  0.806426  0.193556  1
  Hf  Hf11  1  0.952084  0.387162  0.193576  1
  Hf  Hf12  1  0.750000  0.453710  0.907467  1
  Hf  Hf13  1  0.750000  0.453733  0.546291  1
  Hf  Hf14  1  0.750000  0.092603  0.546336  1
  Hf  Hf15  1  0.250000  0.540438  0.080850  1
  Hf  Hf16  1  0.250000  0.540403  0.459598  1
  Hf  Hf17  1  0.250000  0.919163  0.459568  1
  Ti  Ti18  1  0.492907  0.999942  0.999971  1
  Ti  Ti19  1  0.007093  0.999942  0.999971  1
  Fe  Fe20  1  0.250000  0.333383  0.666653  1
  Mo  Mo21  1  0.750000  0.112074  0.224176  1
  Mo  Mo22  1  0.750000  0.112101  0.887923  1
  Mo  Mo23  1  0.750000  0.775891  0.887971  1
  Mo  Mo24  1  0.250000  0.884856  0.769662  1
  Mo  Mo25  1  0.250000  0.884860  0.115163  1
  Mo  Mo26  1  0.250000  0.230303  0.115138  1
  Se  Se27  1  0.750000  0.666629  0.333367  1
