# generated using pymatgen
data_PrSm3(CCl)2
_symmetry_space_group_name_H-M   'P 1'
_cell_length_a   3.74112200
_cell_length_b   3.74112140
_cell_length_c   14.21677300
_cell_angle_alpha   90.00000000
_cell_angle_beta   90.00000000
_cell_angle_gamma   120.00000529
_symmetry_Int_Tables_number   1
_chemical_formula_structural   PrSm3(CCl)2
_chemical_formula_sum   'Pr1 Sm3 C2 Cl2'
_cell_volume   172.31985091
_cell_formula_units_Z   1
loop_
 _symmetry_equiv_pos_site_id
 _symmetry_equiv_pos_as_xyz
  1  'x, y, z'
loop_
 _atom_site_type_symbol
 _atom_site_label
 _atom_site_symmetry_multiplicity
 _atom_site_fract_x
 _atom_site_fract_y
 _atom_site_fract_z
 _atom_site_occupancy
  Pr  Pr0  1  0.333333  0.666667  0.903893  1
  Sm  Sm1  1  0.333333  0.666667  0.593849  1
  Sm  Sm2  1  0.666667  0.333333  0.405606  1
  Sm  Sm3  1  0.666667  0.333333  0.096641  1
  C  C4  1  0.000000  0.000000  0.005686  1
  C  C5  1  0.000000  0.000000  0.499696  1
  Cl  Cl6  1  0.333333  0.666667  0.251640  1
  Cl  Cl7  1  0.666667  0.333333  0.742989  1
