# generated using pymatgen
data_GdEr(BiO4)2
_symmetry_space_group_name_H-M   'P 1'
_cell_length_a   5.52800836
_cell_length_b   7.87246111
_cell_length_c   7.83350700
_cell_angle_alpha   82.88519794
_cell_angle_beta   90.40095911
_cell_angle_gamma   92.49303098
_symmetry_Int_Tables_number   1
_chemical_formula_structural   GdEr(BiO4)2
_chemical_formula_sum   'Gd2 Er2 Bi4 O16'
_cell_volume   337.96101954
_cell_formula_units_Z   2
loop_
 _symmetry_equiv_pos_site_id
 _symmetry_equiv_pos_as_xyz
  1  'x, y, z'
loop_
 _atom_site_type_symbol
 _atom_site_label
 _atom_site_symmetry_multiplicity
 _atom_site_fract_x
 _atom_site_fract_y
 _atom_site_fract_z
 _atom_site_occupancy
  Gd  Gd0  1  0.254113  0.125141  0.621076  1
  Gd  Gd1  1  0.745887  0.874859  0.378924  1
  Er  Er2  1  0.215997  0.153098  0.116332  1
  Er  Er3  1  0.784003  0.846902  0.883668  1
  Bi  Bi4  1  0.240674  0.663953  0.181859  1
  Bi  Bi5  1  0.759326  0.336047  0.818141  1
  Bi  Bi6  1  0.724307  0.337987  0.318507  1
  Bi  Bi7  1  0.275693  0.662013  0.681493  1
  O  O8  1  0.089932  0.419272  0.676988  1
  O  O9  1  0.910068  0.580728  0.323012  1
  O  O10  1  0.585693  0.321718  0.571654  1
  O  O11  1  0.414307  0.678282  0.428346  1
  O  O12  1  0.900084  0.327974  0.073187  1
  O  O13  1  0.099916  0.672026  0.926813  1
  O  O14  1  0.393123  0.418234  0.186048  1
  O  O15  1  0.606877  0.581766  0.813952  1
  O  O16  1  0.039574  0.894976  0.166401  1
  O  O17  1  0.960426  0.105024  0.833599  1
  O  O18  1  0.499090  0.104630  0.321641  1
  O  O19  1  0.500910  0.895370  0.678359  1
  O  O20  1  0.451565  0.182427  0.888648  1
  O  O21  1  0.548435  0.817573  0.111352  1
  O  O22  1  0.994363  0.158100  0.384798  1
  O  O23  1  0.005637  0.841900  0.615202  1
