# generated using pymatgen
data_Cd4Rh3IO14
_symmetry_space_group_name_H-M   'P 1'
_cell_length_a   7.29892124
_cell_length_b   7.24317630
_cell_length_c   7.24317500
_cell_angle_alpha   59.99999223
_cell_angle_beta   60.25231621
_cell_angle_gamma   60.25231875
_symmetry_Int_Tables_number   1
_chemical_formula_structural   Cd4Rh3IO14
_chemical_formula_sum   'Cd4 Rh3 I1 O14'
_cell_volume   271.79878115
_cell_formula_units_Z   1
loop_
 _symmetry_equiv_pos_site_id
 _symmetry_equiv_pos_as_xyz
  1  'x, y, z'
loop_
 _atom_site_type_symbol
 _atom_site_label
 _atom_site_symmetry_multiplicity
 _atom_site_fract_x
 _atom_site_fract_y
 _atom_site_fract_z
 _atom_site_occupancy
  Cd  Cd0  1  0.125000  0.625000  0.125000  1
  Cd  Cd1  1  0.125000  0.125000  0.625000  1
  Cd  Cd2  1  0.625000  0.125000  0.125000  1
  Cd  Cd3  1  0.125000  0.125000  0.125000  1
  Rh  Rh4  1  0.625000  0.125000  0.625000  1
  Rh  Rh5  1  0.625000  0.625000  0.125000  1
  Rh  Rh6  1  0.625000  0.625000  0.625000  1
  I  I7  1  0.125000  0.625000  0.625000  1
  O  O8  1  0.707124  0.697149  0.297864  1
  O  O9  1  0.956688  0.549489  0.549489  1
  O  O10  1  0.542876  0.952136  0.952136  1
  O  O11  1  0.956688  0.944335  0.549489  1
  O  O12  1  0.956688  0.549489  0.944335  1
  O  O13  1  0.542876  0.952136  0.552851  1
  O  O14  1  0.293312  0.700511  0.305665  1
  O  O15  1  0.293312  0.700511  0.700511  1
  O  O16  1  0.707124  0.297864  0.297864  1
  O  O17  1  0.707124  0.297864  0.697149  1
  O  O18  1  0.542876  0.552851  0.952136  1
  O  O19  1  0.293312  0.305665  0.700511  1
  O  O20  1  0.250975  0.249675  0.249675  1
  O  O21  1  0.999025  0.000325  0.000325  1
