# generated using pymatgen
data_Lu4Al4TcOs3
_symmetry_space_group_name_H-M   'P 1'
_cell_length_a   5.34891197
_cell_length_b   5.39581142
_cell_length_c   8.67202700
_cell_angle_alpha   90.00000000
_cell_angle_beta   90.00000000
_cell_angle_gamma   120.04840336
_symmetry_Int_Tables_number   1
_chemical_formula_structural   Lu4Al4TcOs3
_chemical_formula_sum   'Lu4 Al4 Tc1 Os3'
_cell_volume   216.65136782
_cell_formula_units_Z   1
loop_
 _symmetry_equiv_pos_site_id
 _symmetry_equiv_pos_as_xyz
  1  'x, y, z'
loop_
 _atom_site_type_symbol
 _atom_site_label
 _atom_site_symmetry_multiplicity
 _atom_site_fract_x
 _atom_site_fract_y
 _atom_site_fract_z
 _atom_site_occupancy
  Lu  Lu0  1  0.342755  0.667704  0.433377  1
  Lu  Lu1  1  0.674138  0.335827  0.564521  1
  Lu  Lu2  1  0.674138  0.335827  0.935479  1
  Lu  Lu3  1  0.342755  0.667704  0.066623  1
  Al  Al4  1  0.170422  0.834305  0.750000  1
  Al  Al5  1  0.331172  0.162335  0.250000  1
  Al  Al6  1  0.981090  0.998896  0.002580  1
  Al  Al7  1  0.981090  0.998896  0.497420  1
  Tc  Tc8  1  0.177883  0.343793  0.750000  1
  Os  Os9  1  0.834577  0.653952  0.250000  1
  Os  Os10  1  0.652745  0.812399  0.750000  1
  Os  Os11  1  0.837235  0.188361  0.250000  1
