# generated using pymatgen
data_Dy2SnAs4(PRh6)2
_symmetry_space_group_name_H-M   'P 1'
_cell_length_a   9.98817058
_cell_length_b   10.03335459
_cell_length_c   3.93758154
_cell_angle_alpha   89.44798707
_cell_angle_beta   90.55965326
_cell_angle_gamma   120.52554957
_symmetry_Int_Tables_number   1
_chemical_formula_structural   Dy2SnAs4(PRh6)2
_chemical_formula_sum   'Dy2 Sn1 As4 P2 Rh12'
_cell_volume   339.89190166
_cell_formula_units_Z   1
loop_
 _symmetry_equiv_pos_site_id
 _symmetry_equiv_pos_as_xyz
  1  'x, y, z'
loop_
 _atom_site_type_symbol
 _atom_site_label
 _atom_site_symmetry_multiplicity
 _atom_site_fract_x
 _atom_site_fract_y
 _atom_site_fract_z
 _atom_site_occupancy
  Dy  Dy0  1  0.330104  0.667000  0.755059  1
  Dy  Dy1  1  0.664390  0.330362  0.243870  1
  Sn  Sn2  1  0.000547  0.000111  0.519480  1
  As  As3  1  0.400887  0.284794  0.743013  1
  As  As4  1  0.714555  0.121012  0.747840  1
  As  As5  1  0.881329  0.592970  0.744669  1
  As  As6  1  0.590907  0.709532  0.255669  1
  P  P7  1  0.289527  0.882252  0.250647  1
  P  P8  1  0.118724  0.408433  0.254778  1
  Rh  Rh9  1  0.447077  0.060255  0.742372  1
  Rh  Rh10  1  0.943372  0.390899  0.745600  1
  Rh  Rh11  1  0.612916  0.549263  0.747867  1
  Rh  Rh12  1  0.542833  0.932756  0.252292  1
  Rh  Rh13  1  0.077965  0.618576  0.249537  1
  Rh  Rh14  1  0.373553  0.445933  0.252397  1
  Rh  Rh15  1  0.151217  0.287271  0.762378  1
  Rh  Rh16  1  0.716118  0.878171  0.762773  1
  Rh  Rh17  1  0.132537  0.841099  0.751738  1
  Rh  Rh18  1  0.845393  0.719846  0.237693  1
  Rh  Rh19  1  0.278612  0.110586  0.234186  1
  Rh  Rh20  1  0.887436  0.168880  0.246142  1
