# generated using pymatgen
data_Hf2B(PdRh2)2
_symmetry_space_group_name_H-M   'P 1'
_cell_length_a   5.73686741
_cell_length_b   5.73686704
_cell_length_c   5.72177000
_cell_angle_alpha   60.08701392
_cell_angle_beta   60.08701604
_cell_angle_gamma   59.74619534
_symmetry_Int_Tables_number   1
_chemical_formula_structural   Hf2B(PdRh2)2
_chemical_formula_sum   'Hf2 B1 Pd2 Rh4'
_cell_volume   133.07387637
_cell_formula_units_Z   1
loop_
 _symmetry_equiv_pos_site_id
 _symmetry_equiv_pos_as_xyz
  1  'x, y, z'
loop_
 _atom_site_type_symbol
 _atom_site_label
 _atom_site_symmetry_multiplicity
 _atom_site_fract_x
 _atom_site_fract_y
 _atom_site_fract_z
 _atom_site_occupancy
  Hf  Hf0  1  0.250418  0.250418  0.248131  1
  Hf  Hf1  1  0.749583  0.749583  0.748964  1
  B  B2  1  0.500000  0.500000  0.509993  1
  Pd  Pd3  1  0.756804  0.243196  0.242318  1
  Pd  Pd4  1  0.243196  0.756804  0.242318  1
  Rh  Rh5  1  0.753968  0.753968  0.243693  1
  Rh  Rh6  1  0.246032  0.246032  0.751629  1
  Rh  Rh7  1  0.757881  0.242119  0.756478  1
  Rh  Rh8  1  0.242119  0.757881  0.756478  1
