# generated using pymatgen
data_Y4Zn4Ni3Pd
_symmetry_space_group_name_H-M   'P 1'
_cell_length_a   4.09681800
_cell_length_b   6.82392958
_cell_length_c   7.88341826
_cell_angle_alpha   89.86741676
_cell_angle_beta   90.00000000
_cell_angle_gamma   90.00000000
_symmetry_Int_Tables_number   1
_chemical_formula_structural   Y4Zn4Ni3Pd
_chemical_formula_sum   'Y4 Zn4 Ni3 Pd1'
_cell_volume   220.39138480
_cell_formula_units_Z   1
loop_
 _symmetry_equiv_pos_site_id
 _symmetry_equiv_pos_as_xyz
  1  'x, y, z'
loop_
 _atom_site_type_symbol
 _atom_site_label
 _atom_site_symmetry_multiplicity
 _atom_site_fract_x
 _atom_site_fract_y
 _atom_site_fract_z
 _atom_site_occupancy
  Y  Y0  1  0.250000  0.033017  0.319236  1
  Y  Y1  1  0.250000  0.542631  0.189859  1
  Y  Y2  1  0.750000  0.962877  0.685994  1
  Y  Y3  1  0.750000  0.469042  0.809945  1
  Zn  Zn4  1  0.250000  0.647371  0.563033  1
  Zn  Zn5  1  0.250000  0.141460  0.925951  1
  Zn  Zn6  1  0.750000  0.358348  0.443711  1
  Zn  Zn7  1  0.750000  0.844139  0.062674  1
  Ni  Ni8  1  0.250000  0.265121  0.618407  1
  Ni  Ni9  1  0.250000  0.762551  0.880356  1
  Ni  Ni10  1  0.750000  0.736262  0.382821  1
  Pd  Pd11  1  0.750000  0.237181  0.118013  1
