# generated using pymatgen
data_Li4LaSb2
_symmetry_space_group_name_H-M   'P 1'
_cell_length_a   8.73501672
_cell_length_b   8.73501694
_cell_length_c   8.73501731
_cell_angle_alpha   30.64221865
_cell_angle_beta   30.64221649
_cell_angle_gamma   30.64221799
_symmetry_Int_Tables_number   1
_chemical_formula_structural   Li4LaSb2
_chemical_formula_sum   'Li4 La1 Sb2'
_cell_volume   153.50524606
_cell_formula_units_Z   1
loop_
 _symmetry_equiv_pos_site_id
 _symmetry_equiv_pos_as_xyz
  1  'x, y, z'
loop_
 _atom_site_type_symbol
 _atom_site_label
 _atom_site_symmetry_multiplicity
 _atom_site_fract_x
 _atom_site_fract_y
 _atom_site_fract_z
 _atom_site_occupancy
  Li  Li0  1  0.860954  0.860954  0.860954  1
  Li  Li1  1  0.139046  0.139046  0.139046  1
  Li  Li2  1  0.567135  0.567135  0.567135  1
  Li  Li3  1  0.432865  0.432865  0.432865  1
  La  La4  1  0.000000  0.000000  0.000000  1
  Sb  Sb5  1  0.748393  0.748393  0.748393  1
  Sb  Sb6  1  0.251607  0.251607  0.251607  1
