# generated using pymatgen
data_Y4TmBi2Sb
_symmetry_space_group_name_H-M   'P 1'
_cell_length_a   8.18439100
_cell_length_b   9.46518100
_cell_length_c   12.02362000
_cell_angle_alpha   90.00000000
_cell_angle_beta   90.00000000
_cell_angle_gamma   90.00000000
_symmetry_Int_Tables_number   1
_chemical_formula_structural   Y4TmBi2Sb
_chemical_formula_sum   'Y16 Tm4 Bi8 Sb4'
_cell_volume   931.43067073
_cell_formula_units_Z   4
loop_
 _symmetry_equiv_pos_site_id
 _symmetry_equiv_pos_as_xyz
  1  'x, y, z'
loop_
 _atom_site_type_symbol
 _atom_site_label
 _atom_site_symmetry_multiplicity
 _atom_site_fract_x
 _atom_site_fract_y
 _atom_site_fract_z
 _atom_site_occupancy
  Y  Y0  1  0.183491  0.750000  0.718298  1
  Y  Y1  1  0.683491  0.750000  0.781702  1
  Y  Y2  1  0.816509  0.250000  0.281702  1
  Y  Y3  1  0.316509  0.250000  0.218298  1
  Y  Y4  1  0.309366  0.438745  0.941256  1
  Y  Y5  1  0.809366  0.061255  0.558744  1
  Y  Y6  1  0.690634  0.938745  0.058744  1
  Y  Y7  1  0.190634  0.561255  0.441256  1
  Y  Y8  1  0.690634  0.561255  0.058744  1
  Y  Y9  1  0.190634  0.938745  0.441256  1
  Y  Y10  1  0.309366  0.061255  0.941256  1
  Y  Y11  1  0.809366  0.438745  0.558744  1
  Y  Y12  1  0.354204  0.750000  0.212782  1
  Y  Y13  1  0.854204  0.750000  0.287218  1
  Y  Y14  1  0.645796  0.250000  0.787218  1
  Y  Y15  1  0.145796  0.250000  0.712782  1
  Tm  Tm16  1  0.029105  0.750000  0.988508  1
  Tm  Tm17  1  0.529105  0.750000  0.511492  1
  Tm  Tm18  1  0.970895  0.250000  0.011492  1
  Tm  Tm19  1  0.470895  0.250000  0.488508  1
  Bi  Bi20  1  0.433886  0.003706  0.673154  1
  Bi  Bi21  1  0.933886  0.496294  0.826846  1
  Bi  Bi22  1  0.566114  0.503706  0.326846  1
  Bi  Bi23  1  0.066114  0.996294  0.173154  1
  Bi  Bi24  1  0.566114  0.996294  0.326846  1
  Bi  Bi25  1  0.066114  0.503706  0.173154  1
  Bi  Bi26  1  0.433886  0.496294  0.673154  1
  Bi  Bi27  1  0.933886  0.003706  0.826846  1
  Sb  Sb28  1  0.409578  0.750000  0.959289  1
  Sb  Sb29  1  0.909578  0.750000  0.540711  1
  Sb  Sb30  1  0.590422  0.250000  0.040711  1
  Sb  Sb31  1  0.090422  0.250000  0.459289  1
