# generated using pymatgen
data_Li2Ce4SmThAu10
_symmetry_space_group_name_H-M   'P 1'
_cell_length_a   8.42909100
_cell_length_b   8.42909109
_cell_length_c   13.68254800
_cell_angle_alpha   90.00000000
_cell_angle_beta   90.00000000
_cell_angle_gamma   127.30700367
_symmetry_Int_Tables_number   1
_chemical_formula_structural   Li2Ce4SmThAu10
_chemical_formula_sum   'Li4 Ce8 Sm2 Th2 Au20'
_cell_volume   773.23896227
_cell_formula_units_Z   2
loop_
 _symmetry_equiv_pos_site_id
 _symmetry_equiv_pos_as_xyz
  1  'x, y, z'
loop_
 _atom_site_type_symbol
 _atom_site_label
 _atom_site_symmetry_multiplicity
 _atom_site_fract_x
 _atom_site_fract_y
 _atom_site_fract_z
 _atom_site_occupancy
  Li  Li0  1  0.723813  0.276187  0.250000  1
  Li  Li1  1  0.276187  0.723813  0.750000  1
  Li  Li2  1  0.533365  0.466635  0.250000  1
  Li  Li3  1  0.466635  0.533365  0.750000  1
  Ce  Ce4  1  0.629576  0.370424  0.462612  1
  Ce  Ce5  1  0.370424  0.629576  0.537388  1
  Ce  Ce6  1  0.629576  0.370424  0.037388  1
  Ce  Ce7  1  0.370424  0.629576  0.962612  1
  Ce  Ce8  1  0.882324  0.117676  0.948617  1
  Ce  Ce9  1  0.117676  0.882324  0.051383  1
  Ce  Ce10  1  0.882324  0.117676  0.551383  1
  Ce  Ce11  1  0.117676  0.882324  0.448617  1
  Sm  Sm12  1  0.930688  0.069312  0.250000  1
  Sm  Sm13  1  0.069312  0.930688  0.750000  1
  Th  Th14  1  0.318789  0.681211  0.250000  1
  Th  Th15  1  0.681211  0.318789  0.750000  1
  Au  Au16  1  0.325643  0.069080  0.250000  1
  Au  Au17  1  0.069080  0.325643  0.750000  1
  Au  Au18  1  0.674357  0.930920  0.750000  1
  Au  Au19  1  0.930920  0.674357  0.250000  1
  Au  Au20  1  0.570270  0.005666  0.394966  1
  Au  Au21  1  0.005666  0.570270  0.605034  1
  Au  Au22  1  0.570270  0.005666  0.105034  1
  Au  Au23  1  0.005666  0.570270  0.894966  1
  Au  Au24  1  0.429730  0.994334  0.605034  1
  Au  Au25  1  0.994334  0.429730  0.394966  1
  Au  Au26  1  0.429730  0.994334  0.894966  1
  Au  Au27  1  0.994334  0.429730  0.105034  1
  Au  Au28  1  0.684540  0.738595  0.391807  1
  Au  Au29  1  0.738595  0.684540  0.608193  1
  Au  Au30  1  0.684540  0.738595  0.108193  1
  Au  Au31  1  0.738595  0.684540  0.891807  1
  Au  Au32  1  0.315460  0.261405  0.608193  1
  Au  Au33  1  0.261405  0.315460  0.391807  1
  Au  Au34  1  0.315460  0.261405  0.891807  1
  Au  Au35  1  0.261405  0.315460  0.108193  1
