# generated using pymatgen
data_Zr6Ta6Sn9Au
_symmetry_space_group_name_H-M   'P 1'
_cell_length_a   9.62145500
_cell_length_b   9.62145623
_cell_length_c   5.85578200
_cell_angle_alpha   90.00000000
_cell_angle_beta   90.00000000
_cell_angle_gamma   120.00000610
_symmetry_Int_Tables_number   1
_chemical_formula_structural   Zr6Ta6Sn9Au
_chemical_formula_sum   'Zr6 Ta6 Sn9 Au1'
_cell_volume   469.45834849
_cell_formula_units_Z   1
loop_
 _symmetry_equiv_pos_site_id
 _symmetry_equiv_pos_as_xyz
  1  'x, y, z'
loop_
 _atom_site_type_symbol
 _atom_site_label
 _atom_site_symmetry_multiplicity
 _atom_site_fract_x
 _atom_site_fract_y
 _atom_site_fract_z
 _atom_site_occupancy
  Zr  Zr0  1  0.845758  0.691516  0.750956  1
  Zr  Zr1  1  0.154242  0.845758  0.249044  1
  Zr  Zr2  1  0.691516  0.845758  0.249044  1
  Zr  Zr3  1  0.308484  0.154242  0.750956  1
  Zr  Zr4  1  0.845758  0.154242  0.750956  1
  Zr  Zr5  1  0.154242  0.308484  0.249044  1
  Ta  Ta6  1  0.500000  0.000000  0.500000  1
  Ta  Ta7  1  0.500000  0.500000  0.000000  1
  Ta  Ta8  1  0.000000  0.500000  0.000000  1
  Ta  Ta9  1  0.000000  0.500000  0.500000  1
  Ta  Ta10  1  0.500000  0.000000  0.000000  1
  Ta  Ta11  1  0.500000  0.500000  0.500000  1
  Sn  Sn12  1  0.207464  0.414930  0.748886  1
  Sn  Sn13  1  0.792536  0.207464  0.251114  1
  Sn  Sn14  1  0.414930  0.207464  0.251114  1
  Sn  Sn15  1  0.585070  0.792536  0.748886  1
  Sn  Sn16  1  0.207464  0.792536  0.748886  1
  Sn  Sn17  1  0.792536  0.585070  0.251114  1
  Sn  Sn18  1  0.666667  0.333333  0.754451  1
  Sn  Sn19  1  0.333333  0.666667  0.245549  1
  Sn  Sn20  1  0.000000  0.000000  0.000000  1
  Au  Au21  1  0.000000  0.000000  0.500000  1
