# generated using pymatgen
data_La8In3Rh
_symmetry_space_group_name_H-M   'P 1'
_cell_length_a   11.07611800
_cell_length_b   11.07611651
_cell_length_c   7.25341100
_cell_angle_alpha   90.00000000
_cell_angle_beta   90.00000000
_cell_angle_gamma   119.99999250
_symmetry_Int_Tables_number   1
_chemical_formula_structural   La8In3Rh
_chemical_formula_sum   'La16 In6 Rh2'
_cell_volume   770.63377743
_cell_formula_units_Z   2
loop_
 _symmetry_equiv_pos_site_id
 _symmetry_equiv_pos_as_xyz
  1  'x, y, z'
loop_
 _atom_site_type_symbol
 _atom_site_label
 _atom_site_symmetry_multiplicity
 _atom_site_fract_x
 _atom_site_fract_y
 _atom_site_fract_z
 _atom_site_occupancy
  La  La0  1  0.535048  0.070095  0.788630  1
  La  La1  1  0.929905  0.464952  0.788630  1
  La  La2  1  0.535048  0.464952  0.788630  1
  La  La3  1  0.464952  0.929905  0.288630  1
  La  La4  1  0.070095  0.535048  0.288630  1
  La  La5  1  0.464952  0.535048  0.288630  1
  La  La6  1  0.823777  0.647555  0.506528  1
  La  La7  1  0.352445  0.176223  0.506528  1
  La  La8  1  0.823777  0.176223  0.506528  1
  La  La9  1  0.176223  0.352445  0.006528  1
  La  La10  1  0.647555  0.823777  0.006528  1
  La  La11  1  0.176223  0.823777  0.006528  1
  La  La12  1  0.666667  0.333333  0.170038  1
  La  La13  1  0.333333  0.666667  0.670038  1
  La  La14  1  0.000000  0.000000  0.784922  1
  La  La15  1  0.000000  0.000000  0.284922  1
  In  In16  1  0.836596  0.673192  0.036243  1
  In  In17  1  0.326808  0.163404  0.036243  1
  In  In18  1  0.836596  0.163404  0.036243  1
  In  In19  1  0.163404  0.326808  0.536243  1
  In  In20  1  0.673192  0.836596  0.536243  1
  In  In21  1  0.163404  0.836596  0.536243  1
  Rh  Rh22  1  0.666667  0.333333  0.568790  1
  Rh  Rh23  1  0.333333  0.666667  0.068790  1
