# generated using pymatgen
data_PrSm5Al4Pd13
_symmetry_space_group_name_H-M   'P 1'
_cell_length_a   8.36009795
_cell_length_b   8.36009842
_cell_length_c   8.36009900
_cell_angle_alpha   109.47183507
_cell_angle_beta   109.47183621
_cell_angle_gamma   109.46998712
_symmetry_Int_Tables_number   1
_chemical_formula_structural   PrSm5Al4Pd13
_chemical_formula_sum   'Pr1 Sm5 Al4 Pd13'
_cell_volume   449.79259849
_cell_formula_units_Z   1
loop_
 _symmetry_equiv_pos_site_id
 _symmetry_equiv_pos_as_xyz
  1  'x, y, z'
loop_
 _atom_site_type_symbol
 _atom_site_label
 _atom_site_symmetry_multiplicity
 _atom_site_fract_x
 _atom_site_fract_y
 _atom_site_fract_z
 _atom_site_occupancy
  Pr  Pr0  1  0.700612  0.700611  0.999999  1
  Sm  Sm1  1  0.301714  0.999762  0.301953  1
  Sm  Sm2  1  0.999764  0.301716  0.301953  1
  Sm  Sm3  1  0.304474  0.304473  0.000000  1
  Sm  Sm4  1  0.697810  0.999762  0.698048  1
  Sm  Sm5  1  0.999763  0.697811  0.698047  1
  Al  Al6  1  0.000264  0.000264  0.502038  1
  Al  Al7  1  0.000265  0.498226  0.000000  1
  Al  Al8  1  0.498227  0.000264  0.000000  1
  Al  Al9  1  0.498226  0.498226  0.497962  1
  Pd  Pd10  1  0.320452  0.320453  0.641897  1
  Pd  Pd11  1  0.676406  0.000741  0.324336  1
  Pd  Pd12  1  0.000742  0.676406  0.324336  1
  Pd  Pd13  1  0.678556  0.320453  0.000001  1
  Pd  Pd14  1  0.322316  0.644635  0.322317  1
  Pd  Pd15  1  0.999997  0.322316  0.677682  1
  Pd  Pd16  1  0.320453  0.678556  0.999999  1
  Pd  Pd17  1  0.322316  0.999999  0.677682  1
  Pd  Pd18  1  0.644636  0.322316  0.322319  1
  Pd  Pd19  1  0.678556  0.678556  0.358102  1
  Pd  Pd20  1  0.676406  0.352069  0.675664  1
  Pd  Pd21  1  0.352068  0.676406  0.675664  1
  Pd  Pd22  1  0.005976  0.005976  0.000000  1
