# generated using pymatgen
data_Dy4Tm(OsO6)2
_symmetry_space_group_name_H-M   'P 1'
_cell_length_a   6.86314881
_cell_length_b   6.86314938
_cell_length_c   7.45653201
_cell_angle_alpha   73.97362194
_cell_angle_beta   73.97362174
_cell_angle_gamma   48.65983946
_symmetry_Int_Tables_number   1
_chemical_formula_structural   Dy4Tm(OsO6)2
_chemical_formula_sum   'Dy4 Tm1 Os2 O12'
_cell_volume   251.30376872
_cell_formula_units_Z   1
loop_
 _symmetry_equiv_pos_site_id
 _symmetry_equiv_pos_as_xyz
  1  'x, y, z'
loop_
 _atom_site_type_symbol
 _atom_site_label
 _atom_site_symmetry_multiplicity
 _atom_site_fract_x
 _atom_site_fract_y
 _atom_site_fract_z
 _atom_site_occupancy
  Dy  Dy0  1  0.800820  0.800820  0.358175  1
  Dy  Dy1  1  0.199180  0.199180  0.641825  1
  Dy  Dy2  1  0.187214  0.187214  0.172389  1
  Dy  Dy3  1  0.812786  0.812786  0.827611  1
  Tm  Tm4  1  0.500000  0.500000  0.500000  1
  Os  Os5  1  0.280476  0.719524  0.000000  1
  Os  Os6  1  0.719524  0.280476  0.000000  1
  O  O7  1  0.413915  0.919567  0.913254  1
  O  O8  1  0.080433  0.586085  0.086746  1
  O  O9  1  0.586085  0.080433  0.086746  1
  O  O10  1  0.919567  0.413915  0.913254  1
  O  O11  1  0.598953  0.099654  0.570905  1
  O  O12  1  0.900346  0.401047  0.429095  1
  O  O13  1  0.401047  0.900346  0.429095  1
  O  O14  1  0.001086  0.001086  0.825252  1
  O  O15  1  0.998914  0.998914  0.174748  1
  O  O16  1  0.498328  0.498328  0.795663  1
  O  O17  1  0.501672  0.501672  0.204337  1
  O  O18  1  0.099654  0.598953  0.570905  1
