# generated using pymatgen
data_PrMn4Bi3F28
_symmetry_space_group_name_H-M   'P 1'
_cell_length_a   5.54855024
_cell_length_b   9.01663268
_cell_length_c   11.97404003
_cell_angle_alpha   61.75764498
_cell_angle_beta   90.12193731
_cell_angle_gamma   89.96931975
_symmetry_Int_Tables_number   1
_chemical_formula_structural   PrMn4Bi3F28
_chemical_formula_sum   'Pr1 Mn4 Bi3 F28'
_cell_volume   527.73528439
_cell_formula_units_Z   1
loop_
 _symmetry_equiv_pos_site_id
 _symmetry_equiv_pos_as_xyz
  1  'x, y, z'
loop_
 _atom_site_type_symbol
 _atom_site_label
 _atom_site_symmetry_multiplicity
 _atom_site_fract_x
 _atom_site_fract_y
 _atom_site_fract_z
 _atom_site_occupancy
  Pr  Pr0  1  0.740487  0.806066  0.263936  1
  Mn  Mn1  1  0.759025  0.273801  0.957330  1
  Mn  Mn2  1  0.257663  0.726832  0.543151  1
  Mn  Mn3  1  0.243016  0.726866  0.040086  1
  Mn  Mn4  1  0.741978  0.271132  0.459472  1
  Bi  Bi5  1  0.763756  0.812191  0.761973  1
  Bi  Bi6  1  0.262753  0.187547  0.738850  1
  Bi  Bi7  1  0.234416  0.185842  0.237929  1
  F  F8  1  0.423053  0.709698  0.918504  1
  F  F9  1  0.924215  0.289453  0.581033  1
  F  F10  1  0.577299  0.291003  0.078433  1
  F  F11  1  0.075371  0.709839  0.420779  1
  F  F12  1  0.457878  0.277731  0.540039  1
  F  F13  1  0.956839  0.722070  0.960378  1
  F  F14  1  0.539610  0.720011  0.463001  1
  F  F15  1  0.044243  0.279349  0.038184  1
  F  F16  1  0.770299  0.505008  0.864140  1
  F  F17  1  0.267676  0.496387  0.636039  1
  F  F18  1  0.231098  0.497657  0.133131  1
  F  F19  1  0.729741  0.503230  0.366203  1
  F  F20  1  0.759701  0.041803  0.047388  1
  F  F21  1  0.259505  0.960395  0.452099  1
  F  F22  1  0.241452  0.961277  0.950281  1
  F  F23  1  0.741420  0.038068  0.549260  1
  F  F24  1  0.979506  0.730866  0.626313  1
  F  F25  1  0.481610  0.271162  0.871959  1
  F  F26  1  0.018996  0.270030  0.375141  1
  F  F27  1  0.520060  0.729767  0.124573  1
  F  F28  1  0.065596  0.741857  0.165754  1
  F  F29  1  0.563256  0.257091  0.334320  1
  F  F30  1  0.938661  0.258500  0.831684  1
  F  F31  1  0.435701  0.742472  0.668295  1
  F  F32  1  0.389962  0.969835  0.225597  1
  F  F33  1  0.901310  0.036406  0.274013  1
  F  F34  1  0.601619  0.030472  0.774467  1
  F  F35  1  0.101230  0.968283  0.726263  1
