# generated using pymatgen
data_Ce2IrPbAu
_symmetry_space_group_name_H-M   'P 1'
_cell_length_a   8.06918900
_cell_length_b   8.07610600
_cell_length_c   3.72361400
_cell_angle_alpha   90.00000000
_cell_angle_beta   90.00000000
_cell_angle_gamma   90.00000000
_symmetry_Int_Tables_number   1
_chemical_formula_structural   Ce2IrPbAu
_chemical_formula_sum   'Ce4 Ir2 Pb2 Au2'
_cell_volume   242.65908340
_cell_formula_units_Z   2
loop_
 _symmetry_equiv_pos_site_id
 _symmetry_equiv_pos_as_xyz
  1  'x, y, z'
loop_
 _atom_site_type_symbol
 _atom_site_label
 _atom_site_symmetry_multiplicity
 _atom_site_fract_x
 _atom_site_fract_y
 _atom_site_fract_z
 _atom_site_occupancy
  Ce  Ce0  1  0.647164  0.173591  0.500000  1
  Ce  Ce1  1  0.191089  0.328102  0.500000  1
  Ce  Ce2  1  0.852836  0.673591  0.500000  1
  Ce  Ce3  1  0.308911  0.828102  0.500000  1
  Ir  Ir4  1  0.374174  0.126729  0.000000  1
  Ir  Ir5  1  0.125826  0.626729  0.000000  1
  Pb  Pb6  1  0.002055  0.003807  0.000000  1
  Pb  Pb7  1  0.497945  0.503807  0.000000  1
  Au  Au8  1  0.625041  0.867770  0.000000  1
  Au  Au9  1  0.874959  0.367770  0.000000  1
