# generated using pymatgen
data_AlVGa(Ni10B3)2
_symmetry_space_group_name_H-M   'P 1'
_cell_length_a   7.40544347
_cell_length_b   7.40634126
_cell_length_c   7.40544409
_cell_angle_alpha   60.00279034
_cell_angle_beta   60.01664847
_cell_angle_gamma   60.00278836
_symmetry_Int_Tables_number   1
_chemical_formula_structural   AlVGa(Ni10B3)2
_chemical_formula_sum   'Al1 V1 Ga1 Ni20 B6'
_cell_volume   287.25250628
_cell_formula_units_Z   1
loop_
 _symmetry_equiv_pos_site_id
 _symmetry_equiv_pos_as_xyz
  1  'x, y, z'
loop_
 _atom_site_type_symbol
 _atom_site_label
 _atom_site_symmetry_multiplicity
 _atom_site_fract_x
 _atom_site_fract_y
 _atom_site_fract_z
 _atom_site_occupancy
  Al  Al0  1  0.750079  0.750025  0.750079  1
  V  V1  1  0.999998  0.999997  0.999998  1
  Ga  Ga2  1  0.249928  0.249990  0.249928  1
  Ni  Ni3  1  0.617506  0.617495  0.147577  1
  Ni  Ni4  1  0.617507  0.147590  0.617507  1
  Ni  Ni5  1  0.147577  0.617495  0.617506  1
  Ni  Ni6  1  0.617467  0.617431  0.617467  1
  Ni  Ni7  1  0.382269  0.382271  0.853130  1
  Ni  Ni8  1  0.382267  0.853113  0.382267  1
  Ni  Ni9  1  0.853130  0.382271  0.382269  1
  Ni  Ni10  1  0.382301  0.382330  0.382301  1
  Ni  Ni11  1  0.999275  0.999259  0.337861  1
  Ni  Ni12  1  0.663921  0.999262  0.337540  1
  Ni  Ni13  1  0.999275  0.663802  0.337653  1
  Ni  Ni14  1  0.663797  0.337648  0.999250  1
  Ni  Ni15  1  0.999271  0.337881  0.999271  1
  Ni  Ni16  1  0.999250  0.337648  0.663797  1
  Ni  Ni17  1  0.337653  0.663802  0.999275  1
  Ni  Ni18  1  0.337540  0.999262  0.663921  1
  Ni  Ni19  1  0.337861  0.999259  0.999275  1
  Ni  Ni20  1  0.999276  0.999314  0.663565  1
  Ni  Ni21  1  0.999293  0.663545  0.999293  1
  Ni  Ni22  1  0.663565  0.999314  0.999276  1
  B  B23  1  0.727086  0.727041  0.272840  1
  B  B24  1  0.272929  0.727140  0.272929  1
  B  B25  1  0.727157  0.272959  0.272914  1
  B  B26  1  0.272914  0.272959  0.727157  1
  B  B27  1  0.727069  0.272857  0.727069  1
  B  B28  1  0.272840  0.727041  0.727086  1
