# generated using pymatgen
data_Sm2Ho2PdPb2Au3
_symmetry_space_group_name_H-M   'P 1'
_cell_length_a   8.20603882
_cell_length_b   8.20603865
_cell_length_c   3.64820500
_cell_angle_alpha   90.00000000
_cell_angle_beta   90.00000000
_cell_angle_gamma   91.12927390
_symmetry_Int_Tables_number   1
_chemical_formula_structural   Sm2Ho2PdPb2Au3
_chemical_formula_sum   'Sm2 Ho2 Pd1 Pb2 Au3'
_cell_volume   245.61902293
_cell_formula_units_Z   1
loop_
 _symmetry_equiv_pos_site_id
 _symmetry_equiv_pos_as_xyz
  1  'x, y, z'
loop_
 _atom_site_type_symbol
 _atom_site_label
 _atom_site_symmetry_multiplicity
 _atom_site_fract_x
 _atom_site_fract_y
 _atom_site_fract_z
 _atom_site_occupancy
  Sm  Sm0  1  0.823003  0.676997  0.500000  1
  Sm  Sm1  1  0.170489  0.329511  0.500000  1
  Ho  Ho2  1  0.340795  0.830038  0.500000  1
  Ho  Ho3  1  0.669962  0.159205  0.500000  1
  Pd  Pd4  1  0.623139  0.876861  0.000000  1
  Pb  Pb5  1  0.995610  0.998518  0.000000  1
  Pb  Pb6  1  0.501482  0.504390  0.000000  1
  Au  Au7  1  0.125834  0.629547  0.000000  1
  Au  Au8  1  0.379232  0.120768  0.000000  1
  Au  Au9  1  0.870453  0.374166  0.000000  1
