# generated using pymatgen
data_Er3Tm7Sn5Bi
_symmetry_space_group_name_H-M   'P 1'
_cell_length_a   8.89414107
_cell_length_b   8.88450525
_cell_length_c   6.42873000
_cell_angle_alpha   90.00000000
_cell_angle_beta   90.00000000
_cell_angle_gamma   120.05033360
_symmetry_Int_Tables_number   1
_chemical_formula_structural   Er3Tm7Sn5Bi
_chemical_formula_sum   'Er3 Tm7 Sn5 Bi1'
_cell_volume   439.71631971
_cell_formula_units_Z   1
loop_
 _symmetry_equiv_pos_site_id
 _symmetry_equiv_pos_as_xyz
  1  'x, y, z'
loop_
 _atom_site_type_symbol
 _atom_site_label
 _atom_site_symmetry_multiplicity
 _atom_site_fract_x
 _atom_site_fract_y
 _atom_site_fract_z
 _atom_site_occupancy
  Er  Er0  1  0.764963  0.999959  0.750000  1
  Er  Er1  1  0.236099  0.242586  0.750000  1
  Er  Er2  1  0.237859  0.999972  0.250000  1
  Tm  Tm3  1  0.993461  0.757375  0.750000  1
  Tm  Tm4  1  0.000673  0.239189  0.250000  1
  Tm  Tm5  1  0.761536  0.760835  0.250000  1
  Tm  Tm6  1  0.332665  0.662013  0.498211  1
  Tm  Tm7  1  0.670679  0.338009  0.001789  1
  Tm  Tm8  1  0.670679  0.338009  0.498211  1
  Tm  Tm9  1  0.332665  0.662013  0.001789  1
  Sn  Sn10  1  0.395950  0.393622  0.250000  1
  Sn  Sn11  1  0.002328  0.606368  0.250000  1
  Sn  Sn12  1  0.999155  0.396283  0.750000  1
  Sn  Sn13  1  0.603078  0.603847  0.750000  1
  Sn  Sn14  1  0.605278  0.999995  0.250000  1
  Bi  Bi15  1  0.392930  0.999925  0.750000  1
