# generated using pymatgen
data_ErTm3(ZrRh)4
_symmetry_space_group_name_H-M   'P 1'
_cell_length_a   4.59507200
_cell_length_b   7.01327740
_cell_length_c   8.21196368
_cell_angle_alpha   89.97583247
_cell_angle_beta   90.00000000
_cell_angle_gamma   90.00000000
_symmetry_Int_Tables_number   1
_chemical_formula_structural   ErTm3(ZrRh)4
_chemical_formula_sum   'Er1 Tm3 Zr4 Rh4'
_cell_volume   264.64294385
_cell_formula_units_Z   1
loop_
 _symmetry_equiv_pos_site_id
 _symmetry_equiv_pos_as_xyz
  1  'x, y, z'
loop_
 _atom_site_type_symbol
 _atom_site_label
 _atom_site_symmetry_multiplicity
 _atom_site_fract_x
 _atom_site_fract_y
 _atom_site_fract_z
 _atom_site_occupancy
  Er  Er0  1  0.250000  0.982955  0.323853  1
  Tm  Tm1  1  0.750000  0.517494  0.824098  1
  Tm  Tm2  1  0.250000  0.482314  0.175634  1
  Tm  Tm3  1  0.750000  0.017611  0.676238  1
  Zr  Zr4  1  0.750000  0.643738  0.423473  1
  Zr  Zr5  1  0.750000  0.144065  0.076029  1
  Zr  Zr6  1  0.250000  0.356301  0.576854  1
  Zr  Zr7  1  0.250000  0.855763  0.923314  1
  Rh  Rh8  1  0.750000  0.764971  0.091473  1
  Rh  Rh9  1  0.750000  0.265718  0.408586  1
  Rh  Rh10  1  0.250000  0.234562  0.908286  1
  Rh  Rh11  1  0.250000  0.734508  0.592162  1
