# generated using pymatgen
data_Tm16In4IrPd3
_symmetry_space_group_name_H-M   'P 1'
_cell_length_a   9.58280346
_cell_length_b   9.58280298
_cell_length_c   9.58280500
_cell_angle_alpha   59.96107111
_cell_angle_beta   59.96107276
_cell_angle_gamma   59.96107361
_symmetry_Int_Tables_number   1
_chemical_formula_structural   Tm16In4IrPd3
_chemical_formula_sum   'Tm16 In4 Ir1 Pd3'
_cell_volume   621.69765436
_cell_formula_units_Z   1
loop_
 _symmetry_equiv_pos_site_id
 _symmetry_equiv_pos_as_xyz
  1  'x, y, z'
loop_
 _atom_site_type_symbol
 _atom_site_label
 _atom_site_symmetry_multiplicity
 _atom_site_fract_x
 _atom_site_fract_y
 _atom_site_fract_z
 _atom_site_occupancy
  Tm  Tm0  1  0.809400  0.191144  0.809400  1
  Tm  Tm1  1  0.936253  0.563084  0.563084  1
  Tm  Tm2  1  0.563084  0.936253  0.563084  1
  Tm  Tm3  1  0.814311  0.189626  0.189626  1
  Tm  Tm4  1  0.189626  0.814311  0.189626  1
  Tm  Tm5  1  0.348709  0.947794  0.348709  1
  Tm  Tm6  1  0.938663  0.938663  0.559055  1
  Tm  Tm7  1  0.559055  0.938663  0.938663  1
  Tm  Tm8  1  0.191144  0.809400  0.809400  1
  Tm  Tm9  1  0.348709  0.348709  0.947794  1
  Tm  Tm10  1  0.563084  0.563084  0.936253  1
  Tm  Tm11  1  0.351255  0.351255  0.351255  1
  Tm  Tm12  1  0.189626  0.189626  0.814311  1
  Tm  Tm13  1  0.809400  0.809400  0.191144  1
  Tm  Tm14  1  0.938663  0.559055  0.938663  1
  Tm  Tm15  1  0.947794  0.348709  0.348709  1
  In  In16  1  0.583896  0.583896  0.583896  1
  In  In17  1  0.583252  0.250308  0.583252  1
  In  In18  1  0.583252  0.583252  0.250308  1
  In  In19  1  0.250308  0.583252  0.583252  1
  Ir  Ir20  1  0.143238  0.143238  0.143238  1
  Pd  Pd21  1  0.142854  0.142854  0.571573  1
  Pd  Pd22  1  0.571573  0.142854  0.142854  1
  Pd  Pd23  1  0.142854  0.571573  0.142854  1
