# generated using pymatgen
data_NbMo7W8
_symmetry_space_group_name_H-M   'P 1'
_cell_length_a   6.37028373
_cell_length_b   6.37028373
_cell_length_c   6.37028373
_cell_angle_alpha   89.96119234
_cell_angle_beta   89.96119234
_cell_angle_gamma   89.96119234
_symmetry_Int_Tables_number   1
_chemical_formula_structural   NbMo7W8
_chemical_formula_sum   'Nb1 Mo7 W8'
_cell_volume   258.50921542
_cell_formula_units_Z   1
loop_
 _symmetry_equiv_pos_site_id
 _symmetry_equiv_pos_as_xyz
  1  'x, y, z'
loop_
 _atom_site_type_symbol
 _atom_site_label
 _atom_site_symmetry_multiplicity
 _atom_site_fract_x
 _atom_site_fract_y
 _atom_site_fract_z
 _atom_site_occupancy
  Nb  Nb0  1  0.750388  0.750388  0.750388  1
  Mo  Mo1  1  0.000886  0.000886  0.000886  1
  Mo  Mo2  1  0.499065  0.000889  0.000889  1
  Mo  Mo3  1  0.000889  0.499065  0.000889  1
  Mo  Mo4  1  0.499151  0.499151  0.000748  1
  Mo  Mo5  1  0.000889  0.000889  0.499065  1
  Mo  Mo6  1  0.499151  0.000748  0.499151  1
  Mo  Mo7  1  0.000748  0.499151  0.499151  1
  W  W8  1  0.249756  0.249756  0.249756  1
  W  W9  1  0.750259  0.249800  0.249800  1
  W  W10  1  0.249800  0.750259  0.249800  1
  W  W11  1  0.750154  0.750154  0.249990  1
  W  W12  1  0.498921  0.498921  0.498921  1
  W  W13  1  0.249800  0.249800  0.750259  1
  W  W14  1  0.750154  0.249990  0.750154  1
  W  W15  1  0.249990  0.750154  0.750154  1
