# generated using pymatgen
data_Ho16Er4FeCo3Sb8
_symmetry_space_group_name_H-M   'P 1'
_cell_length_a   7.84754118
_cell_length_b   8.75346200
_cell_length_c   12.14076300
_cell_angle_alpha   90.00164590
_cell_angle_beta   90.11944330
_cell_angle_gamma   90.00311124
_symmetry_Int_Tables_number   1
_chemical_formula_structural   Ho16Er4FeCo3Sb8
_chemical_formula_sum   'Ho16 Er4 Fe1 Co3 Sb8'
_cell_volume   833.98548360
_cell_formula_units_Z   1
loop_
 _symmetry_equiv_pos_site_id
 _symmetry_equiv_pos_as_xyz
  1  'x, y, z'
loop_
 _atom_site_type_symbol
 _atom_site_label
 _atom_site_symmetry_multiplicity
 _atom_site_fract_x
 _atom_site_fract_y
 _atom_site_fract_z
 _atom_site_occupancy
  Ho  Ho0  1  0.158214  0.750014  0.205670  1
  Ho  Ho1  1  0.655112  0.249989  0.296269  1
  Ho  Ho2  1  0.844761  0.250011  0.797736  1
  Ho  Ho3  1  0.344474  0.749989  0.702776  1
  Ho  Ho4  1  0.453584  0.749987  0.997514  1
  Ho  Ho5  1  0.949863  0.250010  0.502932  1
  Ho  Ho6  1  0.545493  0.249996  0.002084  1
  Ho  Ho7  1  0.046696  0.750013  0.496940  1
  Ho  Ho8  1  0.622246  0.750001  0.305957  1
  Ho  Ho9  1  0.123289  0.250007  0.191930  1
  Ho  Ho10  1  0.377719  0.249988  0.692861  1
  Ho  Ho11  1  0.877580  0.750004  0.807336  1
  Ho  Ho12  1  0.177413  0.035544  0.934918  1
  Ho  Ho13  1  0.678560  0.960532  0.564997  1
  Ho  Ho14  1  0.821944  0.536247  0.065478  1
  Ho  Ho15  1  0.324817  0.467795  0.436673  1
  Er  Er16  1  0.821996  0.963738  0.065481  1
  Er  Er17  1  0.324865  0.032256  0.436662  1
  Er  Er18  1  0.177350  0.464431  0.934922  1
  Er  Er19  1  0.678533  0.539494  0.565007  1
  Fe  Fe20  1  0.427216  0.749952  0.487387  1
  Co  Co21  1  0.934569  0.250008  0.009745  1
  Co  Co22  1  0.567734  0.249996  0.509562  1
  Co  Co23  1  0.066605  0.750009  0.991309  1
  Sb  Sb24  1  0.929566  0.992891  0.326727  1
  Sb  Sb25  1  0.429354  0.008551  0.172282  1
  Sb  Sb26  1  0.069931  0.491474  0.672793  1
  Sb  Sb27  1  0.570826  0.507955  0.827124  1
  Sb  Sb28  1  0.069955  0.008525  0.672781  1
  Sb  Sb29  1  0.570850  0.992043  0.827132  1
  Sb  Sb30  1  0.929552  0.507108  0.326742  1
  Sb  Sb31  1  0.429333  0.491443  0.172272  1
