# generated using pymatgen
data_Er7Co4Sn23Os2
_symmetry_space_group_name_H-M   'P 1'
_cell_length_a   9.70678541
_cell_length_b   9.70678534
_cell_length_c   9.99051985
_cell_angle_alpha   90.45403957
_cell_angle_beta   89.54595325
_cell_angle_gamma   119.92620170
_symmetry_Int_Tables_number   1
_chemical_formula_structural   Er7Co4Sn23Os2
_chemical_formula_sum   'Er7 Co4 Sn23 Os2'
_cell_volume   815.78150656
_cell_formula_units_Z   1
loop_
 _symmetry_equiv_pos_site_id
 _symmetry_equiv_pos_as_xyz
  1  'x, y, z'
loop_
 _atom_site_type_symbol
 _atom_site_label
 _atom_site_symmetry_multiplicity
 _atom_site_fract_x
 _atom_site_fract_y
 _atom_site_fract_z
 _atom_site_occupancy
  Er  Er0  1  0.480196  0.519804  0.307169  1
  Er  Er1  1  0.519804  0.480196  0.692831  1
  Er  Er2  1  0.481924  0.960388  0.305456  1
  Er  Er3  1  0.518076  0.039612  0.694544  1
  Er  Er4  1  0.039612  0.518076  0.305456  1
  Er  Er5  1  0.960388  0.481924  0.694544  1
  Er  Er6  1  0.000000  0.000000  0.000000  1
  Co  Co7  1  0.830208  0.662678  0.198229  1
  Co  Co8  1  0.169792  0.337322  0.801771  1
  Co  Co9  1  0.337322  0.169792  0.198229  1
  Co  Co10  1  0.662678  0.830208  0.801771  1
  Sn  Sn11  1  0.117290  0.882710  0.271926  1
  Sn  Sn12  1  0.882710  0.117290  0.728074  1
  Sn  Sn13  1  0.124177  0.237586  0.276534  1
  Sn  Sn14  1  0.875823  0.762414  0.723466  1
  Sn  Sn15  1  0.762414  0.875823  0.276534  1
  Sn  Sn16  1  0.237586  0.124177  0.723466  1
  Sn  Sn17  1  0.779647  0.220353  0.458380  1
  Sn  Sn18  1  0.220353  0.779647  0.541620  1
  Sn  Sn19  1  0.781375  0.562522  0.451290  1
  Sn  Sn20  1  0.218625  0.437478  0.548710  1
  Sn  Sn21  1  0.437478  0.218625  0.451290  1
  Sn  Sn22  1  0.562522  0.781375  0.548710  1
  Sn  Sn23  1  0.349952  0.003616  0.004727  1
  Sn  Sn24  1  0.650048  0.996384  0.995273  1
  Sn  Sn25  1  0.003616  0.349952  0.995273  1
  Sn  Sn26  1  0.996384  0.650048  0.004727  1
  Sn  Sn27  1  0.653868  0.653868  0.000000  1
  Sn  Sn28  1  0.346132  0.346132  0.000000  1
  Sn  Sn29  1  0.333744  0.666256  0.120817  1
  Sn  Sn30  1  0.666256  0.333744  0.879183  1
  Sn  Sn31  1  0.334952  0.665048  0.819327  1
  Sn  Sn32  1  0.665048  0.334952  0.180673  1
  Sn  Sn33  1  0.000000  0.000000  0.500000  1
  Os  Os34  1  0.832043  0.167957  0.198774  1
  Os  Os35  1  0.167957  0.832043  0.801226  1
