# generated using pymatgen
data_SmBi9(SeO8)3
_symmetry_space_group_name_H-M   'P 1'
_cell_length_a   12.30196837
_cell_length_b   12.32715270
_cell_length_c   8.63351026
_cell_angle_alpha   83.16054010
_cell_angle_beta   83.46546118
_cell_angle_gamma   27.17532760
_symmetry_Int_Tables_number   1
_chemical_formula_structural   SmBi9(SeO8)3
_chemical_formula_sum   'Sm1 Bi9 Se3 O24'
_cell_volume   593.61258954
_cell_formula_units_Z   1
loop_
 _symmetry_equiv_pos_site_id
 _symmetry_equiv_pos_as_xyz
  1  'x, y, z'
loop_
 _atom_site_type_symbol
 _atom_site_label
 _atom_site_symmetry_multiplicity
 _atom_site_fract_x
 _atom_site_fract_y
 _atom_site_fract_z
 _atom_site_occupancy
  Sm  Sm0  1  0.452361  0.480015  0.297001  1
  Bi  Bi1  1  0.607945  0.780795  0.457044  1
  Bi  Bi2  1  0.527579  0.540674  0.670523  1
  Bi  Bi3  1  0.216073  0.262700  0.187850  1
  Bi  Bi4  1  0.061621  0.090657  0.413281  1
  Bi  Bi5  1  0.215659  0.399364  0.544831  1
  Bi  Bi6  1  0.134255  0.160573  0.756976  1
  Bi  Bi7  1  0.915820  0.932686  0.575682  1
  Bi  Bi8  1  0.835779  0.870309  0.241184  1
  Bi  Bi9  1  0.743035  0.777521  0.815730  1
  Se  Se10  1  0.327676  0.413891  0.922711  1
  Se  Se11  1  0.977287  0.021451  0.001598  1
  Se  Se12  1  0.584488  0.672804  0.084085  1
  O  O13  1  0.887035  0.763341  0.636474  1
  O  O14  1  0.390638  0.946479  0.026107  1
  O  O15  1  0.239410  0.111067  0.366837  1
  O  O16  1  0.178749  0.933137  0.922224  1
  O  O17  1  0.710708  0.294296  0.491915  1
  O  O18  1  0.015444  0.537588  0.343664  1
  O  O19  1  0.227571  0.773425  0.490419  1
  O  O20  1  0.804741  0.225206  0.137229  1
  O  O21  1  0.705936  0.523478  0.923458  1
  O  O22  1  0.471026  0.308307  0.085905  1
  O  O23  1  0.461851  0.192992  0.840262  1
  O  O24  1  0.301228  0.543563  0.784674  1
  O  O25  1  0.663061  0.135758  0.387781  1
  O  O26  1  0.795649  0.544864  0.183335  1
  O  O27  1  0.455589  0.691867  0.214341  1
  O  O28  1  0.863173  0.343734  0.600032  1
  O  O29  1  0.124593  0.785306  0.100607  1
  O  O30  1  0.354745  0.859018  0.586365  1
  O  O31  1  0.986366  0.463362  0.691684  1
  O  O32  1  0.137665  0.644063  0.406803  1
  O  O33  1  0.535751  0.016844  0.311639  1
  O  O34  1  0.814969  0.126958  0.858238  1
  O  O35  1  0.055172  0.606161  0.981625  1
  O  O36  1  0.463930  0.981166  0.659886  1
