# generated using pymatgen
data_Y8Sc2Ir5Pt
_symmetry_space_group_name_H-M   'P 1'
_cell_length_a   10.86019552
_cell_length_b   10.86103500
_cell_length_c   6.28269930
_cell_angle_alpha   90.00000000
_cell_angle_beta   90.03543397
_cell_angle_gamma   90.00000000
_symmetry_Int_Tables_number   1
_chemical_formula_structural   Y8Sc2Ir5Pt
_chemical_formula_sum   'Y16 Sc4 Ir10 Pt2'
_cell_volume   741.06286043
_cell_formula_units_Z   2
loop_
 _symmetry_equiv_pos_site_id
 _symmetry_equiv_pos_as_xyz
  1  'x, y, z'
loop_
 _atom_site_type_symbol
 _atom_site_label
 _atom_site_symmetry_multiplicity
 _atom_site_fract_x
 _atom_site_fract_y
 _atom_site_fract_z
 _atom_site_occupancy
  Y  Y0  1  0.287632  0.086574  0.377450  1
  Y  Y1  1  0.287632  0.913426  0.877450  1
  Y  Y2  1  0.709467  0.088336  0.875618  1
  Y  Y3  1  0.709467  0.911664  0.375618  1
  Y  Y4  1  0.583561  0.786328  0.878838  1
  Y  Y5  1  0.583561  0.213672  0.378838  1
  Y  Y6  1  0.413173  0.786913  0.378168  1
  Y  Y7  1  0.413173  0.213087  0.878168  1
  Y  Y8  1  0.213059  0.413731  0.621502  1
  Y  Y9  1  0.213059  0.586269  0.121502  1
  Y  Y10  1  0.786407  0.415991  0.121265  1
  Y  Y11  1  0.786407  0.584009  0.621265  1
  Y  Y12  1  0.914527  0.711055  0.125488  1
  Y  Y13  1  0.914527  0.288945  0.625488  1
  Y  Y14  1  0.089357  0.711059  0.621684  1
  Y  Y15  1  0.089357  0.288941  0.121684  1
  Sc  Sc16  1  0.003990  0.999696  0.500141  1
  Sc  Sc17  1  0.003990  0.000304  0.000141  1
  Sc  Sc18  1  0.499753  0.499915  0.999924  1
  Sc  Sc19  1  0.499753  0.500085  0.499924  1
  Ir  Ir20  1  0.145065  0.145944  0.749945  1
  Ir  Ir21  1  0.145065  0.854056  0.249945  1
  Ir  Ir22  1  0.647417  0.352439  0.750084  1
  Ir  Ir23  1  0.647417  0.647561  0.250084  1
  Ir  Ir24  1  0.353081  0.353222  0.249809  1
  Ir  Ir25  1  0.353081  0.646778  0.749809  1
  Ir  Ir26  1  0.500724  0.999989  0.125339  1
  Ir  Ir27  1  0.500724  0.000011  0.625339  1
  Ir  Ir28  1  0.999770  0.500285  0.874691  1
  Ir  Ir29  1  0.999770  0.499715  0.374691  1
  Pt  Pt30  1  0.853018  0.146213  0.250052  1
  Pt  Pt31  1  0.853018  0.853787  0.750052  1
