# generated using pymatgen
data_HoLu2Zr(Al8Pt3)3
_symmetry_space_group_name_H-M   'P 1'
_cell_length_a   7.50974742
_cell_length_b   7.51922888
_cell_length_c   13.07605212
_cell_angle_alpha   84.55310250
_cell_angle_beta   79.01841667
_cell_angle_gamma   59.91202908
_symmetry_Int_Tables_number   1
_chemical_formula_structural   HoLu2Zr(Al8Pt3)3
_chemical_formula_sum   'Ho1 Lu2 Zr1 Al24 Pt9'
_cell_volume   627.18235716
_cell_formula_units_Z   1
loop_
 _symmetry_equiv_pos_site_id
 _symmetry_equiv_pos_as_xyz
  1  'x, y, z'
loop_
 _atom_site_type_symbol
 _atom_site_label
 _atom_site_symmetry_multiplicity
 _atom_site_fract_x
 _atom_site_fract_y
 _atom_site_fract_z
 _atom_site_occupancy
  Ho  Ho0  1  0.606362  0.831437  0.192180  1
  Lu  Lu1  1  0.734362  0.498757  0.806623  1
  Lu  Lu2  1  0.266115  0.501251  0.193157  1
  Zr  Zr3  1  0.393110  0.168256  0.809818  1
  Al  Al4  1  0.682297  0.835679  0.941563  1
  Al  Al5  1  0.316680  0.166946  0.054959  1
  Al  Al6  1  0.146388  0.832699  0.562421  1
  Al  Al7  1  0.853275  0.167214  0.437935  1
  Al  Al8  1  0.479622  0.166824  0.560687  1
  Al  Al9  1  0.519562  0.833767  0.441182  1
  Al  Al10  1  0.217444  0.165810  0.328591  1
  Al  Al11  1  0.779186  0.836753  0.673856  1
  Al  Al12  1  0.435823  0.504325  0.674253  1
  Al  Al13  1  0.562801  0.493293  0.327879  1
  Al  Al14  1  0.110768  0.159804  0.673090  1
  Al  Al15  1  0.891035  0.839757  0.329089  1
  Al  Al16  1  0.354758  0.496717  0.941890  1
  Al  Al17  1  0.646622  0.500534  0.055660  1
  Al  Al18  1  0.018338  0.168755  0.949520  1
  Al  Al19  1  0.984715  0.831877  0.047797  1
  Al  Al20  1  0.186790  0.499358  0.441071  1
  Al  Al21  1  0.813750  0.500326  0.558825  1
  Al  Al22  1  0.732999  0.164558  0.183322  1
  Al  Al23  1  0.267221  0.840135  0.816636  1
  Al  Al24  1  0.065232  0.626390  0.815320  1
  Al  Al25  1  0.939646  0.368393  0.184080  1
  Al  Al26  1  0.850514  0.042705  0.815840  1
  Al  Al27  1  0.144791  0.957858  0.183550  1
  Pt  Pt28  1  0.118692  0.490933  0.639698  1
  Pt  Pt29  1  0.879945  0.509051  0.360527  1
  Pt  Pt30  1  0.657320  0.172078  0.999035  1
  Pt  Pt31  1  0.343990  0.827721  0.999530  1
  Pt  Pt32  1  0.536789  0.167060  0.361272  1
  Pt  Pt33  1  0.463933  0.831748  0.639514  1
  Pt  Pt34  1  0.778046  0.176989  0.638060  1
  Pt  Pt35  1  0.221405  0.823929  0.362413  1
  Pt  Pt36  1  0.999675  0.500314  0.999156  1
