# generated using pymatgen
data_Sr4CePaO8
_symmetry_space_group_name_H-M   'P 1'
_cell_length_a   3.64463800
_cell_length_b   6.18643537
_cell_length_c   10.53816069
_cell_angle_alpha   90.04057141
_cell_angle_beta   90.00000000
_cell_angle_gamma   90.00000000
_symmetry_Int_Tables_number   1
_chemical_formula_structural   Sr4CePaO8
_chemical_formula_sum   'Sr4 Ce1 Pa1 O8'
_cell_volume   237.60719471
_cell_formula_units_Z   1
loop_
 _symmetry_equiv_pos_site_id
 _symmetry_equiv_pos_as_xyz
  1  'x, y, z'
loop_
 _atom_site_type_symbol
 _atom_site_label
 _atom_site_symmetry_multiplicity
 _atom_site_fract_x
 _atom_site_fract_y
 _atom_site_fract_z
 _atom_site_occupancy
  Sr  Sr0  1  0.500000  0.432972  0.173483  1
  Sr  Sr1  1  0.500000  0.567028  0.826517  1
  Sr  Sr2  1  0.500000  0.941462  0.315531  1
  Sr  Sr3  1  0.500000  0.058538  0.684469  1
  Ce  Ce4  1  0.000000  0.000000  0.000000  1
  Pa  Pa5  1  0.000000  0.500000  0.500000  1
  O  O6  1  0.500000  0.281417  0.459374  1
  O  O7  1  0.500000  0.718583  0.540626  1
  O  O8  1  0.500000  0.766904  0.044901  1
  O  O9  1  0.500000  0.233096  0.955099  1
  O  O10  1  0.000000  0.638805  0.314054  1
  O  O11  1  0.000000  0.361195  0.685946  1
  O  O12  1  0.000000  0.853578  0.798485  1
  O  O13  1  0.000000  0.146422  0.201515  1
