# generated using pymatgen
data_SmY7Cu3Si12Rh
_symmetry_space_group_name_H-M   'P 1'
_cell_length_a   8.04986800
_cell_length_b   8.04986778
_cell_length_c   8.17558300
_cell_angle_alpha   89.99995729
_cell_angle_beta   90.00004271
_cell_angle_gamma   120.00009954
_symmetry_Int_Tables_number   1
_chemical_formula_structural   SmY7Cu3Si12Rh
_chemical_formula_sum   'Sm1 Y7 Cu3 Si12 Rh1'
_cell_volume   458.80319539
_cell_formula_units_Z   1
loop_
 _symmetry_equiv_pos_site_id
 _symmetry_equiv_pos_as_xyz
  1  'x, y, z'
loop_
 _atom_site_type_symbol
 _atom_site_label
 _atom_site_symmetry_multiplicity
 _atom_site_fract_x
 _atom_site_fract_y
 _atom_site_fract_z
 _atom_site_occupancy
  Sm  Sm0  1  0.000000  0.000000  0.249996  1
  Y  Y1  1  0.000000  0.000000  0.749711  1
  Y  Y2  1  0.999281  0.499640  0.251663  1
  Y  Y3  1  0.500359  0.499641  0.251663  1
  Y  Y4  1  0.500622  0.001241  0.748479  1
  Y  Y5  1  0.500360  0.000719  0.251663  1
  Y  Y6  1  0.500621  0.499379  0.748480  1
  Y  Y7  1  0.998759  0.499378  0.748479  1
  Cu  Cu8  1  0.333332  0.666668  0.998110  1
  Cu  Cu9  1  0.333333  0.666667  0.499997  1
  Cu  Cu10  1  0.666667  0.333333  0.001582  1
  Si  Si11  1  0.169338  0.338675  0.999096  1
  Si  Si12  1  0.661325  0.830662  0.999096  1
  Si  Si13  1  0.168206  0.336411  0.501536  1
  Si  Si14  1  0.338527  0.169263  0.998806  1
  Si  Si15  1  0.169338  0.830662  0.999096  1
  Si  Si16  1  0.663589  0.831794  0.501536  1
  Si  Si17  1  0.830737  0.661473  0.998806  1
  Si  Si18  1  0.336506  0.168252  0.500566  1
  Si  Si19  1  0.168206  0.831794  0.501536  1
  Si  Si20  1  0.831748  0.663494  0.500566  1
  Si  Si21  1  0.830738  0.169262  0.998807  1
  Si  Si22  1  0.831748  0.168252  0.500566  1
  Rh  Rh23  1  0.666667  0.333333  0.500165  1
