# generated using pymatgen
data_Tb5Hg4IrPt
_symmetry_space_group_name_H-M   'P 1'
_cell_length_a   3.71340600
_cell_length_b   7.96759177
_cell_length_c   18.05920061
_cell_angle_alpha   89.60681595
_cell_angle_beta   90.00000000
_cell_angle_gamma   90.00000000
_symmetry_Int_Tables_number   1
_chemical_formula_structural   Tb5Hg4IrPt
_chemical_formula_sum   'Tb10 Hg8 Ir2 Pt2'
_cell_volume   534.30323708
_cell_formula_units_Z   2
loop_
 _symmetry_equiv_pos_site_id
 _symmetry_equiv_pos_as_xyz
  1  'x, y, z'
loop_
 _atom_site_type_symbol
 _atom_site_label
 _atom_site_symmetry_multiplicity
 _atom_site_fract_x
 _atom_site_fract_y
 _atom_site_fract_z
 _atom_site_occupancy
  Tb  Tb0  1  0.000000  0.110666  0.411394  1
  Tb  Tb1  1  0.000000  0.889334  0.588606  1
  Tb  Tb2  1  0.000000  0.388206  0.912463  1
  Tb  Tb3  1  0.000000  0.611794  0.087537  1
  Tb  Tb4  1  0.000000  0.230401  0.217664  1
  Tb  Tb5  1  0.000000  0.769599  0.782336  1
  Tb  Tb6  1  0.000000  0.253922  0.716676  1
  Tb  Tb7  1  0.000000  0.746078  0.283324  1
  Tb  Tb8  1  0.000000  0.000000  0.000000  1
  Tb  Tb9  1  0.000000  0.500000  0.500000  1
  Hg  Hg10  1  0.500000  0.419028  0.355676  1
  Hg  Hg11  1  0.500000  0.580972  0.644324  1
  Hg  Hg12  1  0.500000  0.079722  0.854978  1
  Hg  Hg13  1  0.500000  0.920278  0.145022  1
  Hg  Hg14  1  0.500000  0.289106  0.061023  1
  Hg  Hg15  1  0.500000  0.710894  0.938977  1
  Hg  Hg16  1  0.500000  0.210950  0.562018  1
  Hg  Hg17  1  0.500000  0.789050  0.437982  1
  Ir  Ir18  1  0.500000  0.025645  0.302901  1
  Ir  Ir19  1  0.500000  0.974355  0.697099  1
  Pt  Pt20  1  0.500000  0.475895  0.801457  1
  Pt  Pt21  1  0.500000  0.524105  0.198543  1
