# generated using pymatgen
data_Ti10Sb6P
_symmetry_space_group_name_H-M   'P 1'
_cell_length_a   8.09928800
_cell_length_b   8.09928786
_cell_length_c   5.50338400
_cell_angle_alpha   90.00000000
_cell_angle_beta   90.00000000
_cell_angle_gamma   120.00000057
_symmetry_Int_Tables_number   1
_chemical_formula_structural   Ti10Sb6P
_chemical_formula_sum   'Ti10 Sb6 P1'
_cell_volume   312.64689721
_cell_formula_units_Z   1
loop_
 _symmetry_equiv_pos_site_id
 _symmetry_equiv_pos_as_xyz
  1  'x, y, z'
loop_
 _atom_site_type_symbol
 _atom_site_label
 _atom_site_symmetry_multiplicity
 _atom_site_fract_x
 _atom_site_fract_y
 _atom_site_fract_z
 _atom_site_occupancy
  Ti  Ti0  1  0.666667  0.333333  0.500000  1
  Ti  Ti1  1  0.333333  0.666667  0.500000  1
  Ti  Ti2  1  0.333333  0.666667  0.000000  1
  Ti  Ti3  1  0.666667  0.333333  0.000000  1
  Ti  Ti4  1  0.749925  0.749925  0.245486  1
  Ti  Ti5  1  0.250075  0.000000  0.245486  1
  Ti  Ti6  1  0.000000  0.250075  0.245486  1
  Ti  Ti7  1  0.250075  0.250075  0.754514  1
  Ti  Ti8  1  0.749925  0.000000  0.754514  1
  Ti  Ti9  1  0.000000  0.749925  0.754514  1
  Sb  Sb10  1  0.392436  0.392436  0.247718  1
  Sb  Sb11  1  0.607564  0.000000  0.247718  1
  Sb  Sb12  1  0.000000  0.607564  0.247718  1
  Sb  Sb13  1  0.607564  0.607564  0.752282  1
  Sb  Sb14  1  0.392436  0.000000  0.752282  1
  Sb  Sb15  1  0.000000  0.392436  0.752282  1
  P  P16  1  0.000000  0.000000  0.500000  1
