# generated using pymatgen
data_SrLiRhF6
_symmetry_space_group_name_H-M   'P 1'
_cell_length_a   5.33079900
_cell_length_b   5.33079844
_cell_length_c   10.55926200
_cell_angle_alpha   90.00000000
_cell_angle_beta   90.00000000
_cell_angle_gamma   119.99999726
_symmetry_Int_Tables_number   1
_chemical_formula_structural   SrLiRhF6
_chemical_formula_sum   'Sr2 Li2 Rh2 F12'
_cell_volume   259.86559169
_cell_formula_units_Z   2
loop_
 _symmetry_equiv_pos_site_id
 _symmetry_equiv_pos_as_xyz
  1  'x, y, z'
loop_
 _atom_site_type_symbol
 _atom_site_label
 _atom_site_symmetry_multiplicity
 _atom_site_fract_x
 _atom_site_fract_y
 _atom_site_fract_z
 _atom_site_occupancy
  Sr  Sr0  1  0.000000  0.000000  0.500000  1
  Sr  Sr1  1  0.000000  0.000000  0.000000  1
  Li  Li2  1  0.333333  0.666667  0.750000  1
  Li  Li3  1  0.666667  0.333333  0.250000  1
  Rh  Rh4  1  0.666667  0.333333  0.750000  1
  Rh  Rh5  1  0.333333  0.666667  0.250000  1
  F  F6  1  0.644083  0.009590  0.643303  1
  F  F7  1  0.355917  0.990410  0.356697  1
  F  F8  1  0.990410  0.634493  0.643303  1
  F  F9  1  0.644083  0.634493  0.856697  1
  F  F10  1  0.009590  0.365507  0.356697  1
  F  F11  1  0.355917  0.365507  0.143303  1
  F  F12  1  0.365507  0.355917  0.643303  1
  F  F13  1  0.990410  0.355917  0.856697  1
  F  F14  1  0.634493  0.644083  0.356697  1
  F  F15  1  0.009590  0.644083  0.143303  1
  F  F16  1  0.365507  0.009590  0.856697  1
  F  F17  1  0.634493  0.990410  0.143303  1
