# generated using pymatgen
data_SmEr(Al3Pd)6
_symmetry_space_group_name_H-M   'P 1'
_cell_length_a   10.42763215
_cell_length_b   10.42763241
_cell_length_c   10.42763400
_cell_angle_alpha   42.21794378
_cell_angle_beta   42.21795034
_cell_angle_gamma   42.21794511
_symmetry_Int_Tables_number   1
_chemical_formula_structural   SmEr(Al3Pd)6
_chemical_formula_sum   'Sm1 Er1 Al18 Pd6'
_cell_volume   463.30480750
_cell_formula_units_Z   1
loop_
 _symmetry_equiv_pos_site_id
 _symmetry_equiv_pos_as_xyz
  1  'x, y, z'
loop_
 _atom_site_type_symbol
 _atom_site_label
 _atom_site_symmetry_multiplicity
 _atom_site_fract_x
 _atom_site_fract_y
 _atom_site_fract_z
 _atom_site_occupancy
  Sm  Sm0  1  0.166853  0.166853  0.166853  1
  Er  Er1  1  0.833149  0.833149  0.833149  1
  Al  Al2  1  0.107286  0.436121  0.762818  1
  Al  Al3  1  0.436121  0.762818  0.107286  1
  Al  Al4  1  0.565653  0.891822  0.236316  1
  Al  Al5  1  0.949918  0.949918  0.949918  1
  Al  Al6  1  0.049963  0.049963  0.049963  1
  Al  Al7  1  0.295451  0.703426  0.501110  1
  Al  Al8  1  0.891822  0.236316  0.565653  1
  Al  Al9  1  0.384769  0.384769  0.384769  1
  Al  Al10  1  0.501110  0.295451  0.703426  1
  Al  Al11  1  0.236316  0.565653  0.891822  1
  Al  Al12  1  0.716382  0.716382  0.716382  1
  Al  Al13  1  0.615245  0.615245  0.615245  1
  Al  Al14  1  0.334396  0.999986  0.665615  1
  Al  Al15  1  0.703426  0.501110  0.295451  1
  Al  Al16  1  0.665615  0.334396  0.999986  1
  Al  Al17  1  0.283724  0.283724  0.283724  1
  Al  Al18  1  0.999986  0.665615  0.334396  1
  Al  Al19  1  0.762818  0.107286  0.436121  1
  Pd  Pd20  1  0.419348  0.076910  0.759828  1
  Pd  Pd21  1  0.581863  0.239619  0.922431  1
  Pd  Pd22  1  0.076910  0.759828  0.419348  1
  Pd  Pd23  1  0.759828  0.419348  0.076910  1
  Pd  Pd24  1  0.922431  0.581863  0.239619  1
  Pd  Pd25  1  0.239619  0.922431  0.581863  1
