# generated using pymatgen
data_Pr7Os4C9
_symmetry_space_group_name_H-M   'P 1'
_cell_length_a   5.37483553
_cell_length_b   6.55211916
_cell_length_c   11.63021531
_cell_angle_alpha   92.45341839
_cell_angle_beta   103.36019066
_cell_angle_gamma   114.21488786
_symmetry_Int_Tables_number   1
_chemical_formula_structural   Pr7Os4C9
_chemical_formula_sum   'Pr7 Os4 C9'
_cell_volume   359.03456757
_cell_formula_units_Z   1
loop_
 _symmetry_equiv_pos_site_id
 _symmetry_equiv_pos_as_xyz
  1  'x, y, z'
loop_
 _atom_site_type_symbol
 _atom_site_label
 _atom_site_symmetry_multiplicity
 _atom_site_fract_x
 _atom_site_fract_y
 _atom_site_fract_z
 _atom_site_occupancy
  Pr  Pr0  1  0.000000  0.000000  0.000000  1
  Pr  Pr1  1  0.782056  0.404688  0.159423  1
  Pr  Pr2  1  0.172888  0.025565  0.320212  1
  Pr  Pr3  1  0.517871  0.654964  0.380777  1
  Pr  Pr4  1  0.482129  0.345035  0.619223  1
  Pr  Pr5  1  0.827112  0.974435  0.679788  1
  Pr  Pr6  1  0.217944  0.595311  0.840578  1
  Os  Os7  1  0.496456  0.852372  0.140540  1
  Os  Os8  1  0.862102  0.295127  0.429077  1
  Os  Os9  1  0.137898  0.704873  0.570923  1
  Os  Os10  1  0.503544  0.147628  0.859460  1
  C  C11  1  0.500000  0.000000  0.000000  1
  C  C12  1  0.337892  0.531174  0.144610  1
  C  C13  1  0.255090  0.330127  0.180052  1
  C  C14  1  0.672842  0.054513  0.291169  1
  C  C15  1  0.995299  0.603517  0.387081  1
  C  C16  1  0.004700  0.396482  0.612918  1
  C  C17  1  0.327158  0.945487  0.708831  1
  C  C18  1  0.744910  0.669873  0.819948  1
  C  C19  1  0.662107  0.468825  0.855390  1
