# generated using pymatgen
data_VTc5Sb14
_symmetry_space_group_name_H-M   'P 1'
_cell_length_a   8.23961757
_cell_length_b   8.23961808
_cell_length_c   8.23961632
_cell_angle_alpha   109.18730863
_cell_angle_beta   110.04054479
_cell_angle_gamma   109.18730986
_symmetry_Int_Tables_number   1
_chemical_formula_structural   VTc5Sb14
_chemical_formula_sum   'V1 Tc5 Sb14'
_cell_volume   430.59308680
_cell_formula_units_Z   1
loop_
 _symmetry_equiv_pos_site_id
 _symmetry_equiv_pos_as_xyz
  1  'x, y, z'
loop_
 _atom_site_type_symbol
 _atom_site_label
 _atom_site_symmetry_multiplicity
 _atom_site_fract_x
 _atom_site_fract_y
 _atom_site_fract_z
 _atom_site_occupancy
  V  V0  1  0.657543  0.000000  0.657543  1
  Tc  Tc1  1  0.339533  0.000000  0.339533  1
  Tc  Tc2  1  0.999106  0.342121  0.341228  1
  Tc  Tc3  1  0.999106  0.657879  0.656985  1
  Tc  Tc4  1  0.341228  0.342121  0.999106  1
  Tc  Tc5  1  0.656985  0.657879  0.999106  1
  Sb  Sb6  1  0.749435  0.500000  0.249435  1
  Sb  Sb7  1  0.503374  0.750474  0.253849  1
  Sb  Sb8  1  0.503374  0.249526  0.752900  1
  Sb  Sb9  1  0.752900  0.249526  0.503374  1
  Sb  Sb10  1  0.253849  0.750474  0.503374  1
  Sb  Sb11  1  0.249435  0.500000  0.749435  1
  Sb  Sb12  1  0.000288  0.000000  0.326699  1
  Sb  Sb13  1  0.673681  0.000000  0.996397  1
  Sb  Sb14  1  0.000288  0.673588  0.000288  1
  Sb  Sb15  1  0.326699  0.326412  0.326699  1
  Sb  Sb16  1  0.996397  0.322716  0.996397  1
  Sb  Sb17  1  0.673681  0.677284  0.673681  1
  Sb  Sb18  1  0.326699  0.000000  0.000288  1
  Sb  Sb19  1  0.996397  0.000000  0.673681  1
