# generated using pymatgen
data_NdDy6FeI12
_symmetry_space_group_name_H-M   'P 1'
_cell_length_a   9.81924349
_cell_length_b   9.81919401
_cell_length_c   9.77142603
_cell_angle_alpha   106.78641867
_cell_angle_beta   107.24030794
_cell_angle_gamma   106.85148383
_symmetry_Int_Tables_number   1
_chemical_formula_structural   NdDy6FeI12
_chemical_formula_sum   'Nd1 Dy6 Fe1 I12'
_cell_volume   785.47277824
_cell_formula_units_Z   1
loop_
 _symmetry_equiv_pos_site_id
 _symmetry_equiv_pos_as_xyz
  1  'x, y, z'
loop_
 _atom_site_type_symbol
 _atom_site_label
 _atom_site_symmetry_multiplicity
 _atom_site_fract_x
 _atom_site_fract_y
 _atom_site_fract_z
 _atom_site_occupancy
  Nd  Nd0  1  0.908035  0.978705  0.712363  1
  Dy  Dy1  1  0.708537  0.906541  0.976930  1
  Dy  Dy2  1  0.978538  0.709405  0.908638  1
  Dy  Dy3  1  0.088987  0.021013  0.275759  1
  Dy  Dy4  1  0.291926  0.093528  0.022123  1
  Dy  Dy5  1  0.022379  0.291290  0.094515  1
  Dy  Dy6  1  0.500045  0.499274  0.501158  1
  Fe  Fe7  1  0.998952  0.000341  0.995994  1
  I  I8  1  0.836619  0.606557  0.537079  1
  I  I9  1  0.529004  0.833392  0.613568  1
  I  I10  1  0.614544  0.538218  0.840530  1
  I  I11  1  0.161382  0.382180  0.461982  1
  I  I12  1  0.459576  0.160312  0.385686  1
  I  I13  1  0.385552  0.462312  0.162165  1
  I  I14  1  0.931471  0.330228  0.782296  1
  I  I15  1  0.778066  0.929376  0.316187  1
  I  I16  1  0.321527  0.776875  0.930800  1
  I  I17  1  0.071904  0.682926  0.227074  1
  I  I18  1  0.233655  0.074051  0.683707  1
  I  I19  1  0.679300  0.223472  0.071446  1
