# generated using pymatgen
data_Ho3Tm3Zr4(Sn3N)2
_symmetry_space_group_name_H-M   'P 1'
_cell_length_a   8.72294600
_cell_length_b   8.72294701
_cell_length_c   6.08617200
_cell_angle_alpha   90.00000000
_cell_angle_beta   90.00000000
_cell_angle_gamma   119.99999616
_symmetry_Int_Tables_number   1
_chemical_formula_structural   Ho3Tm3Zr4(Sn3N)2
_chemical_formula_sum   'Ho3 Tm3 Zr4 Sn6 N2'
_cell_volume   401.05255592
_cell_formula_units_Z   1
loop_
 _symmetry_equiv_pos_site_id
 _symmetry_equiv_pos_as_xyz
  1  'x, y, z'
loop_
 _atom_site_type_symbol
 _atom_site_label
 _atom_site_symmetry_multiplicity
 _atom_site_fract_x
 _atom_site_fract_y
 _atom_site_fract_z
 _atom_site_occupancy
  Ho  Ho0  1  0.782133  0.782133  0.750000  1
  Ho  Ho1  1  0.217867  0.000000  0.750000  1
  Ho  Ho2  1  0.000000  0.217867  0.750000  1
  Tm  Tm3  1  0.215982  0.215982  0.250000  1
  Tm  Tm4  1  0.784018  0.000000  0.250000  1
  Tm  Tm5  1  0.000000  0.784018  0.250000  1
  Zr  Zr6  1  0.666667  0.333333  0.000073  1
  Zr  Zr7  1  0.333333  0.666667  0.000073  1
  Zr  Zr8  1  0.333333  0.666667  0.499927  1
  Zr  Zr9  1  0.666667  0.333333  0.499927  1
  Sn  Sn10  1  0.407315  0.407315  0.750000  1
  Sn  Sn11  1  0.592685  0.000000  0.750000  1
  Sn  Sn12  1  0.000000  0.592685  0.750000  1
  Sn  Sn13  1  0.593038  0.593038  0.250000  1
  Sn  Sn14  1  0.406962  0.000000  0.250000  1
  Sn  Sn15  1  0.000000  0.406962  0.250000  1
  N  N16  1  0.000000  0.000000  0.002510  1
  N  N17  1  0.000000  0.000000  0.497490  1
