# generated using pymatgen
data_TbHo4(Hg2Pt)2
_symmetry_space_group_name_H-M   'P 1'
_cell_length_a   3.63342000
_cell_length_b   7.92448300
_cell_length_c   18.24931200
_cell_angle_alpha   90.00000000
_cell_angle_beta   90.00000000
_cell_angle_gamma   90.00000000
_symmetry_Int_Tables_number   1
_chemical_formula_structural   TbHo4(Hg2Pt)2
_chemical_formula_sum   'Tb2 Ho8 Hg8 Pt4'
_cell_volume   525.45198458
_cell_formula_units_Z   2
loop_
 _symmetry_equiv_pos_site_id
 _symmetry_equiv_pos_as_xyz
  1  'x, y, z'
loop_
 _atom_site_type_symbol
 _atom_site_label
 _atom_site_symmetry_multiplicity
 _atom_site_fract_x
 _atom_site_fract_y
 _atom_site_fract_z
 _atom_site_occupancy
  Tb  Tb0  1  0.000000  0.000000  0.000000  1
  Tb  Tb1  1  0.000000  0.500000  0.500000  1
  Ho  Ho2  1  0.000000  0.114913  0.414290  1
  Ho  Ho3  1  0.000000  0.885087  0.585710  1
  Ho  Ho4  1  0.000000  0.385087  0.914290  1
  Ho  Ho5  1  0.000000  0.614913  0.085710  1
  Ho  Ho6  1  0.000000  0.240461  0.218276  1
  Ho  Ho7  1  0.000000  0.759539  0.781724  1
  Ho  Ho8  1  0.000000  0.259539  0.718276  1
  Ho  Ho9  1  0.000000  0.740461  0.281724  1
  Hg  Hg10  1  0.500000  0.424522  0.353393  1
  Hg  Hg11  1  0.500000  0.575478  0.646607  1
  Hg  Hg12  1  0.500000  0.075478  0.853393  1
  Hg  Hg13  1  0.500000  0.924522  0.146607  1
  Hg  Hg14  1  0.500000  0.290095  0.064677  1
  Hg  Hg15  1  0.500000  0.709905  0.935323  1
  Hg  Hg16  1  0.500000  0.209905  0.564677  1
  Hg  Hg17  1  0.500000  0.790095  0.435323  1
  Pt  Pt18  1  0.500000  0.027628  0.303899  1
  Pt  Pt19  1  0.500000  0.972372  0.696101  1
  Pt  Pt20  1  0.500000  0.472372  0.803899  1
  Pt  Pt21  1  0.500000  0.527628  0.196101  1
