# generated using pymatgen
data_Yb2YSc(Ga2Ag)4
_symmetry_space_group_name_H-M   'P 1'
_cell_length_a   4.30906000
_cell_length_b   6.94546765
_cell_length_c   10.32389977
_cell_angle_alpha   90.51496657
_cell_angle_beta   90.00000000
_cell_angle_gamma   90.00000000
_symmetry_Int_Tables_number   1
_chemical_formula_structural   Yb2YSc(Ga2Ag)4
_chemical_formula_sum   'Yb2 Y1 Sc1 Ga8 Ag4'
_cell_volume   308.96570223
_cell_formula_units_Z   1
loop_
 _symmetry_equiv_pos_site_id
 _symmetry_equiv_pos_as_xyz
  1  'x, y, z'
loop_
 _atom_site_type_symbol
 _atom_site_label
 _atom_site_symmetry_multiplicity
 _atom_site_fract_x
 _atom_site_fract_y
 _atom_site_fract_z
 _atom_site_occupancy
  Yb  Yb0  1  0.750000  0.225120  0.172608  1
  Yb  Yb1  1  0.750000  0.725103  0.325944  1
  Y  Y2  1  0.250000  0.278421  0.674869  1
  Sc  Sc3  1  0.250000  0.779870  0.830436  1
  Ga  Ga4  1  0.250000  0.708288  0.540098  1
  Ga  Ga5  1  0.750000  0.299655  0.466268  1
  Ga  Ga6  1  0.750000  0.794396  0.029413  1
  Ga  Ga7  1  0.250000  0.195874  0.965001  1
  Ga  Ga8  1  0.250000  0.926719  0.147989  1
  Ga  Ga9  1  0.750000  0.063958  0.843371  1
  Ga  Ga10  1  0.750000  0.580247  0.659233  1
  Ga  Ga11  1  0.250000  0.429459  0.351520  1
  Ag  Ag12  1  0.250000  0.539964  0.097007  1
  Ag  Ag13  1  0.750000  0.455137  0.899911  1
  Ag  Ag14  1  0.750000  0.956938  0.597209  1
  Ag  Ag15  1  0.250000  0.040851  0.399123  1
