# generated using pymatgen
data_Ho8LuZn4
_symmetry_space_group_name_H-M   'P 1'
_cell_length_a   8.53404092
_cell_length_b   8.53404089
_cell_length_c   8.53457917
_cell_angle_alpha   94.98461067
_cell_angle_beta   94.99033429
_cell_angle_gamma   145.70151685
_symmetry_Int_Tables_number   1
_chemical_formula_structural   Ho8LuZn4
_chemical_formula_sum   'Ho8 Lu1 Zn4'
_cell_volume   334.68800192
_cell_formula_units_Z   1
loop_
 _symmetry_equiv_pos_site_id
 _symmetry_equiv_pos_as_xyz
  1  'x, y, z'
loop_
 _atom_site_type_symbol
 _atom_site_label
 _atom_site_symmetry_multiplicity
 _atom_site_fract_x
 _atom_site_fract_y
 _atom_site_fract_z
 _atom_site_occupancy
  Ho  Ho0  1  0.181832  0.888410  0.070243  1
  Ho  Ho1  1  0.111571  0.181843  0.293414  1
  Ho  Ho2  1  0.882509  0.401749  0.284260  1
  Ho  Ho3  1  0.598268  0.882523  0.480793  1
  Ho  Ho4  1  0.401731  0.117476  0.519206  1
  Ho  Ho5  1  0.117490  0.598250  0.715740  1
  Ho  Ho6  1  0.888428  0.818156  0.706586  1
  Ho  Ho7  1  0.818167  0.111589  0.929757  1
  Lu  Lu8  1  0.499999  0.499999  0.000000  1
  Zn  Zn9  1  0.392604  0.735000  0.127607  1
  Zn  Zn10  1  0.734978  0.607409  0.342390  1
  Zn  Zn11  1  0.265021  0.392590  0.657610  1
  Zn  Zn12  1  0.607395  0.264999  0.872393  1
