# generated using pymatgen
data_CaZrPa2O8
_symmetry_space_group_name_H-M   'P 1'
_cell_length_a   5.26308400
_cell_length_b   5.36865349
_cell_length_c   5.37754300
_cell_angle_alpha   90.00000000
_cell_angle_beta   90.00000000
_cell_angle_gamma   87.73686661
_symmetry_Int_Tables_number   1
_chemical_formula_structural   CaZrPa2O8
_chemical_formula_sum   'Ca1 Zr1 Pa2 O8'
_cell_volume   151.82758719
_cell_formula_units_Z   1
loop_
 _symmetry_equiv_pos_site_id
 _symmetry_equiv_pos_as_xyz
  1  'x, y, z'
loop_
 _atom_site_type_symbol
 _atom_site_label
 _atom_site_symmetry_multiplicity
 _atom_site_fract_x
 _atom_site_fract_y
 _atom_site_fract_z
 _atom_site_occupancy
  Ca  Ca0  1  0.500000  0.250000  0.747377  1
  Zr  Zr1  1  0.500000  0.750000  0.261971  1
  Pa  Pa2  1  0.000000  0.250000  0.247064  1
  Pa  Pa3  1  0.000000  0.750000  0.750853  1
  O  O4  1  0.733235  0.529767  0.025713  1
  O  O5  1  0.266765  0.970233  0.025713  1
  O  O6  1  0.217909  0.483747  0.987058  1
  O  O7  1  0.782091  0.016253  0.987058  1
  O  O8  1  0.739394  0.975136  0.471190  1
  O  O9  1  0.260606  0.524864  0.471190  1
  O  O10  1  0.226282  0.009201  0.512407  1
  O  O11  1  0.773718  0.490799  0.512407  1
