# generated using pymatgen
data_NdDyYRuO7
_symmetry_space_group_name_H-M   'P 1'
_cell_length_a   6.45284641
_cell_length_b   6.45981658
_cell_length_c   7.51035500
_cell_angle_alpha   90.00000000
_cell_angle_beta   90.00000000
_cell_angle_gamma   110.21544457
_symmetry_Int_Tables_number   1
_chemical_formula_structural   NdDyYRuO7
_chemical_formula_sum   'Nd2 Dy2 Y2 Ru2 O14'
_cell_volume   293.77845225
_cell_formula_units_Z   2
loop_
 _symmetry_equiv_pos_site_id
 _symmetry_equiv_pos_as_xyz
  1  'x, y, z'
loop_
 _atom_site_type_symbol
 _atom_site_label
 _atom_site_symmetry_multiplicity
 _atom_site_fract_x
 _atom_site_fract_y
 _atom_site_fract_z
 _atom_site_occupancy
  Nd  Nd0  1  0.000000  0.000000  0.500000  1
  Nd  Nd1  1  0.000000  0.000000  0.000000  1
  Dy  Dy2  1  0.929375  0.481351  0.750000  1
  Dy  Dy3  1  0.070625  0.518649  0.250000  1
  Y  Y4  1  0.481356  0.929887  0.750000  1
  Y  Y5  1  0.518644  0.070113  0.250000  1
  Ru  Ru6  1  0.500000  0.500000  0.500000  1
  Ru  Ru7  1  0.500000  0.500000  0.000000  1
  O  O8  1  0.589348  0.588501  0.750000  1
  O  O9  1  0.410652  0.411499  0.250000  1
  O  O10  1  0.838878  0.116629  0.750000  1
  O  O11  1  0.161122  0.883371  0.250000  1
  O  O12  1  0.116086  0.837833  0.750000  1
  O  O13  1  0.883914  0.162167  0.250000  1
  O  O14  1  0.439707  0.182414  0.963051  1
  O  O15  1  0.560293  0.817586  0.463051  1
  O  O16  1  0.181713  0.440205  0.962935  1
  O  O17  1  0.818287  0.559795  0.462935  1
  O  O18  1  0.439707  0.182414  0.536949  1
  O  O19  1  0.560293  0.817586  0.036949  1
  O  O20  1  0.818287  0.559795  0.037065  1
  O  O21  1  0.181713  0.440205  0.537065  1
