# generated using pymatgen
data_Y2Er3SnSb2
_symmetry_space_group_name_H-M   'P 1'
_cell_length_a   8.93502308
_cell_length_b   8.91171682
_cell_length_c   6.37347900
_cell_angle_alpha   90.00000000
_cell_angle_beta   90.00000000
_cell_angle_gamma   119.91374429
_symmetry_Int_Tables_number   1
_chemical_formula_structural   Y2Er3SnSb2
_chemical_formula_sum   'Y4 Er6 Sn2 Sb4'
_cell_volume   439.88693880
_cell_formula_units_Z   2
loop_
 _symmetry_equiv_pos_site_id
 _symmetry_equiv_pos_as_xyz
  1  'x, y, z'
loop_
 _atom_site_type_symbol
 _atom_site_label
 _atom_site_symmetry_multiplicity
 _atom_site_fract_x
 _atom_site_fract_y
 _atom_site_fract_z
 _atom_site_occupancy
  Y  Y0  1  0.001212  0.757223  0.750000  1
  Y  Y1  1  0.001212  0.243990  0.250000  1
  Y  Y2  1  0.755213  0.755851  0.250000  1
  Y  Y3  1  0.755213  0.999363  0.750000  1
  Er  Er4  1  0.244508  0.242618  0.750000  1
  Er  Er5  1  0.244508  0.001891  0.250000  1
  Er  Er6  1  0.333778  0.666889  0.500000  1
  Er  Er7  1  0.665002  0.332500  0.000000  1
  Er  Er8  1  0.665002  0.332500  0.500000  1
  Er  Er9  1  0.333778  0.666889  0.000000  1
  Sn  Sn10  1  0.391476  0.999673  0.750000  1
  Sn  Sn11  1  0.391476  0.391803  0.250000  1
  Sb  Sb12  1  0.000006  0.609573  0.250000  1
  Sb  Sb13  1  0.000006  0.390434  0.750000  1
  Sb  Sb14  1  0.608804  0.608549  0.750000  1
  Sb  Sb15  1  0.608804  0.000255  0.250000  1
