# generated using pymatgen
data_Fe3Co2Si3Mo4
_symmetry_space_group_name_H-M   'P 1'
_cell_length_a   4.75963101
_cell_length_b   4.73508565
_cell_length_c   7.70045500
_cell_angle_alpha   90.00000000
_cell_angle_beta   90.00000000
_cell_angle_gamma   120.17585612
_symmetry_Int_Tables_number   1
_chemical_formula_structural   Fe3Co2Si3Mo4
_chemical_formula_sum   'Fe3 Co2 Si3 Mo4'
_cell_volume   150.02921079
_cell_formula_units_Z   1
loop_
 _symmetry_equiv_pos_site_id
 _symmetry_equiv_pos_as_xyz
  1  'x, y, z'
loop_
 _atom_site_type_symbol
 _atom_site_label
 _atom_site_symmetry_multiplicity
 _atom_site_fract_x
 _atom_site_fract_y
 _atom_site_fract_z
 _atom_site_occupancy
  Fe  Fe0  1  0.173303  0.346634  0.250000  1
  Fe  Fe1  1  0.171656  0.832066  0.250000  1
  Fe  Fe2  1  0.660301  0.831999  0.250000  1
  Co  Co3  1  0.824451  0.151532  0.750000  1
  Co  Co4  1  0.327033  0.151463  0.750000  1
  Si  Si5  1  0.815083  0.630106  0.750000  1
  Si  Si6  1  0.009689  0.019367  0.501665  1
  Si  Si7  1  0.009689  0.019367  0.998335  1
  Mo  Mo8  1  0.669922  0.339809  0.064109  1
  Mo  Mo9  1  0.334476  0.668923  0.935138  1
  Mo  Mo10  1  0.334476  0.668923  0.564862  1
  Mo  Mo11  1  0.669922  0.339809  0.435891  1
