# generated using pymatgen
data_Ti4CuAsRh10
_symmetry_space_group_name_H-M   'P 1'
_cell_length_a   3.94428300
_cell_length_b   5.39673951
_cell_length_c   10.69475326
_cell_angle_alpha   91.40236914
_cell_angle_beta   90.00000000
_cell_angle_gamma   90.00000000
_symmetry_Int_Tables_number   1
_chemical_formula_structural   Ti4CuAsRh10
_chemical_formula_sum   'Ti4 Cu1 As1 Rh10'
_cell_volume   227.58319652
_cell_formula_units_Z   1
loop_
 _symmetry_equiv_pos_site_id
 _symmetry_equiv_pos_as_xyz
  1  'x, y, z'
loop_
 _atom_site_type_symbol
 _atom_site_label
 _atom_site_symmetry_multiplicity
 _atom_site_fract_x
 _atom_site_fract_y
 _atom_site_fract_z
 _atom_site_occupancy
  Ti  Ti0  1  0.500000  0.292072  0.128674  1
  Ti  Ti1  1  0.500000  0.707928  0.871326  1
  Ti  Ti2  1  0.500000  0.819187  0.356271  1
  Ti  Ti3  1  0.500000  0.180813  0.643729  1
  Cu  Cu4  1  0.000000  0.000000  0.000000  1
  As  As5  1  0.000000  0.500000  0.500000  1
  Rh  Rh6  1  0.000000  0.000000  0.500000  1
  Rh  Rh7  1  0.000000  0.500000  0.000000  1
  Rh  Rh8  1  0.000000  0.055401  0.247814  1
  Rh  Rh9  1  0.000000  0.944599  0.752186  1
  Rh  Rh10  1  0.000000  0.554802  0.254385  1
  Rh  Rh11  1  0.000000  0.445198  0.745615  1
  Rh  Rh12  1  0.500000  0.306681  0.391592  1
  Rh  Rh13  1  0.500000  0.693319  0.608408  1
  Rh  Rh14  1  0.500000  0.787377  0.117236  1
  Rh  Rh15  1  0.500000  0.212623  0.882764  1
