# generated using pymatgen
data_CaZn3Co2(AsO4)4
_symmetry_space_group_name_H-M   'P 1'
_cell_length_a   8.87452269
_cell_length_b   5.34639100
_cell_length_c   9.16830082
_cell_angle_alpha   60.43911479
_cell_angle_beta   90.19207112
_cell_angle_gamma   90.48624940
_symmetry_Int_Tables_number   1
_chemical_formula_structural   CaZn3Co2(AsO4)4
_chemical_formula_sum   'Ca1 Zn3 Co2 As4 O16'
_cell_volume   378.36772388
_cell_formula_units_Z   1
loop_
 _symmetry_equiv_pos_site_id
 _symmetry_equiv_pos_as_xyz
  1  'x, y, z'
loop_
 _atom_site_type_symbol
 _atom_site_label
 _atom_site_symmetry_multiplicity
 _atom_site_fract_x
 _atom_site_fract_y
 _atom_site_fract_z
 _atom_site_occupancy
  Ca  Ca0  1  0.999485  0.500310  0.499996  1
  Zn  Zn1  1  0.633491  0.505507  0.389787  1
  Zn  Zn2  1  0.862786  0.542346  0.886790  1
  Zn  Zn3  1  0.367880  0.494160  0.610155  1
  Co  Co4  1  0.141397  0.469578  0.109004  1
  Co  Co5  1  0.500176  0.498183  0.000496  1
  As  As6  1  0.313392  0.842243  0.190548  1
  As  As7  1  0.792380  0.157205  0.290326  1
  As  As8  1  0.685213  0.156069  0.811648  1
  As  As9  1  0.209279  0.845678  0.707707  1
  O  O10  1  0.077095  0.687259  0.868220  1
  O  O11  1  0.569121  0.308468  0.637075  1
  O  O12  1  0.925490  0.316651  0.131235  1
  O  O13  1  0.431965  0.690841  0.362921  1
  O  O14  1  0.209582  0.204137  0.646650  1
  O  O15  1  0.695349  0.792929  0.877226  1
  O  O16  1  0.791112  0.797964  0.352598  1
  O  O17  1  0.305613  0.205721  0.121225  1
  O  O18  1  0.159728  0.796099  0.543380  1
  O  O19  1  0.627028  0.208993  0.971202  1
  O  O20  1  0.140356  0.664635  0.249034  1
  O  O21  1  0.621180  0.337548  0.232270  1
  O  O22  1  0.858389  0.334545  0.754854  1
  O  O23  1  0.379846  0.663964  0.766428  1
  O  O24  1  0.362851  0.773934  0.033172  1
  O  O25  1  0.839814  0.205032  0.456052  1
