# generated using pymatgen
data_AsS23
_symmetry_space_group_name_H-M   'P 1'
_cell_length_a   5.45556065
_cell_length_b   9.35382023
_cell_length_c   15.89152000
_cell_angle_alpha   82.42591985
_cell_angle_beta   85.98404661
_cell_angle_gamma   91.36398717
_symmetry_Int_Tables_number   1
_chemical_formula_structural   AsS23
_chemical_formula_sum   'As1 S23'
_cell_volume   801.45279356
_cell_formula_units_Z   1
loop_
 _symmetry_equiv_pos_site_id
 _symmetry_equiv_pos_as_xyz
  1  'x, y, z'
loop_
 _atom_site_type_symbol
 _atom_site_label
 _atom_site_symmetry_multiplicity
 _atom_site_fract_x
 _atom_site_fract_y
 _atom_site_fract_z
 _atom_site_occupancy
  As  As0  1  0.730834  0.184114  0.411188  1
  S  S1  1  0.742409  0.933871  0.413683  1
  S  S2  1  0.019365  0.304872  0.099846  1
  S  S3  1  0.768453  0.206707  0.552590  1
  S  S4  1  0.463454  0.871024  0.505193  1
  S  S5  1  0.176888  0.286509  0.980094  1
  S  S6  1  0.814420  0.730025  0.022852  1
  S  S7  1  0.139168  0.199210  0.364645  1
  S  S8  1  0.518177  0.460496  0.270209  1
  S  S9  1  0.853607  0.108597  0.150737  1
  S  S10  1  0.278861  0.867307  0.115466  1
  S  S11  1  0.715984  0.637699  0.651012  1
  S  S12  1  0.301783  0.429863  0.581792  1
  S  S13  1  0.154658  0.899617  0.854591  1
  S  S14  1  0.725806  0.142110  0.882225  1
  S  S15  1  0.071206  0.681194  0.110883  1
  S  S16  1  0.603883  0.846343  0.623889  1
  S  S17  1  0.403682  0.218411  0.594122  1
  S  S18  1  0.970923  0.707787  0.903418  1
  S  S19  1  0.920394  0.330964  0.891375  1
  S  S20  1  0.197663  0.426682  0.331402  1
  S  S21  1  0.116685  0.979742  0.206458  1
  S  S22  1  0.401876  0.512739  0.689319  1
  S  S23  1  0.909822  0.034113  0.793016  1
