# generated using pymatgen
data_DyHoIr2O7
_symmetry_space_group_name_H-M   'P 1'
_cell_length_a   7.23405494
_cell_length_b   7.23697950
_cell_length_c   7.23405437
_cell_angle_alpha   59.98662545
_cell_angle_beta   59.96994067
_cell_angle_gamma   59.98661373
_symmetry_Int_Tables_number   1
_chemical_formula_structural   DyHoIr2O7
_chemical_formula_sum   'Dy2 Ho2 Ir4 O14'
_cell_volume   267.68210276
_cell_formula_units_Z   2
loop_
 _symmetry_equiv_pos_site_id
 _symmetry_equiv_pos_as_xyz
  1  'x, y, z'
loop_
 _atom_site_type_symbol
 _atom_site_label
 _atom_site_symmetry_multiplicity
 _atom_site_fract_x
 _atom_site_fract_y
 _atom_site_fract_z
 _atom_site_occupancy
  Dy  Dy0  1  0.125000  0.625000  0.125000  1
  Dy  Dy1  1  0.125000  0.125000  0.125000  1
  Ho  Ho2  1  0.625000  0.125000  0.125000  1
  Ho  Ho3  1  0.125000  0.125000  0.625000  1
  Ir  Ir4  1  0.125000  0.625000  0.625000  1
  Ir  Ir5  1  0.625000  0.125000  0.625000  1
  Ir  Ir6  1  0.625000  0.625000  0.125000  1
  Ir  Ir7  1  0.625000  0.625000  0.625000  1
  O  O8  1  0.711891  0.713859  0.287220  1
  O  O9  1  0.287220  0.287030  0.711891  1
  O  O10  1  0.713035  0.286965  0.713035  1
  O  O11  1  0.287310  0.712690  0.287310  1
  O  O12  1  0.287220  0.713859  0.711891  1
  O  O13  1  0.711891  0.287030  0.287220  1
  O  O14  1  0.538109  0.536141  0.962780  1
  O  O15  1  0.962780  0.962970  0.538109  1
  O  O16  1  0.536965  0.963035  0.536965  1
  O  O17  1  0.962690  0.537310  0.962690  1
  O  O18  1  0.962780  0.536141  0.538109  1
  O  O19  1  0.538109  0.962970  0.962780  1
  O  O20  1  0.250914  0.249086  0.250914  1
  O  O21  1  0.999086  0.000914  0.999086  1
