# generated using pymatgen
data_YbGd4U2O12
_symmetry_space_group_name_H-M   'P 1'
_cell_length_a   6.58027065
_cell_length_b   6.68404063
_cell_length_c   6.52494500
_cell_angle_alpha   100.03793127
_cell_angle_beta   98.45061385
_cell_angle_gamma   99.45823887
_symmetry_Int_Tables_number   1
_chemical_formula_structural   YbGd4U2O12
_chemical_formula_sum   'Yb1 Gd4 U2 O12'
_cell_volume   274.15749124
_cell_formula_units_Z   1
loop_
 _symmetry_equiv_pos_site_id
 _symmetry_equiv_pos_as_xyz
  1  'x, y, z'
loop_
 _atom_site_type_symbol
 _atom_site_label
 _atom_site_symmetry_multiplicity
 _atom_site_fract_x
 _atom_site_fract_y
 _atom_site_fract_z
 _atom_site_occupancy
  Yb  Yb0  1  0.858732  0.692143  0.396596  1
  Gd  Gd1  1  0.389745  0.855369  0.685555  1
  Gd  Gd2  1  0.306084  0.611139  0.147803  1
  Gd  Gd3  1  0.143039  0.311097  0.604470  1
  Gd  Gd4  1  0.609244  0.129484  0.308566  1
  U  U5  1  0.693071  0.401198  0.864632  1
  U  U6  1  0.999862  0.001247  0.995064  1
  O  O7  1  0.442073  0.183605  0.606480  1
  O  O8  1  0.585013  0.416877  0.155755  1
  O  O9  1  0.174946  0.578787  0.436962  1
  O  O10  1  0.562946  0.821062  0.407011  1
  O  O11  1  0.440548  0.571078  0.823195  1
  O  O12  1  0.809347  0.414779  0.586634  1
  O  O13  1  0.065569  0.318756  0.941975  1
  O  O14  1  0.689430  0.058762  0.926555  1
  O  O15  1  0.053634  0.931545  0.686057  1
  O  O16  1  0.915991  0.679495  0.044744  1
  O  O17  1  0.310207  0.942961  0.071502  1
  O  O18  1  0.950515  0.080613  0.310443  1
