# generated using pymatgen
data_CrGa3(NiPt3)3
_symmetry_space_group_name_H-M   'P 1'
_cell_length_a   3.93361000
_cell_length_b   3.93361000
_cell_length_c   14.90325700
_cell_angle_alpha   90.00000000
_cell_angle_beta   90.00000000
_cell_angle_gamma   90.00000000
_symmetry_Int_Tables_number   1
_chemical_formula_structural   CrGa3(NiPt3)3
_chemical_formula_sum   'Cr1 Ga3 Ni3 Pt9'
_cell_volume   230.60238222
_cell_formula_units_Z   1
loop_
 _symmetry_equiv_pos_site_id
 _symmetry_equiv_pos_as_xyz
  1  'x, y, z'
loop_
 _atom_site_type_symbol
 _atom_site_label
 _atom_site_symmetry_multiplicity
 _atom_site_fract_x
 _atom_site_fract_y
 _atom_site_fract_z
 _atom_site_occupancy
  Cr  Cr0  1  0.000000  0.000000  0.000000  1
  Ga  Ga1  1  0.000000  0.000000  0.254944  1
  Ga  Ga2  1  0.000000  0.000000  0.500000  1
  Ga  Ga3  1  0.000000  0.000000  0.745056  1
  Ni  Ni4  1  0.500000  0.500000  0.253341  1
  Ni  Ni5  1  0.500000  0.500000  0.500000  1
  Ni  Ni6  1  0.500000  0.500000  0.746659  1
  Pt  Pt7  1  0.500000  0.500000  0.000000  1
  Pt  Pt8  1  0.500000  0.000000  0.131712  1
  Pt  Pt9  1  0.500000  0.000000  0.376781  1
  Pt  Pt10  1  0.500000  0.000000  0.623219  1
  Pt  Pt11  1  0.500000  0.000000  0.868288  1
  Pt  Pt12  1  0.000000  0.500000  0.131712  1
  Pt  Pt13  1  0.000000  0.500000  0.376781  1
  Pt  Pt14  1  0.000000  0.500000  0.623219  1
  Pt  Pt15  1  0.000000  0.500000  0.868288  1
