# generated using pymatgen
data_Tb8Ti3Si16MoW8
_symmetry_space_group_name_H-M   'P 1'
_cell_length_a   6.92055833
_cell_length_b   6.92241702
_cell_length_c   12.85909891
_cell_angle_alpha   89.95751216
_cell_angle_beta   89.98233521
_cell_angle_gamma   89.89960342
_symmetry_Int_Tables_number   1
_chemical_formula_structural   Tb8Ti3Si16MoW8
_chemical_formula_sum   'Tb8 Ti3 Si16 Mo1 W8'
_cell_volume   616.03958838
_cell_formula_units_Z   1
loop_
 _symmetry_equiv_pos_site_id
 _symmetry_equiv_pos_as_xyz
  1  'x, y, z'
loop_
 _atom_site_type_symbol
 _atom_site_label
 _atom_site_symmetry_multiplicity
 _atom_site_fract_x
 _atom_site_fract_y
 _atom_site_fract_z
 _atom_site_occupancy
  Tb  Tb0  1  0.338543  0.001981  0.468522  1
  Tb  Tb1  1  0.496862  0.837417  0.719046  1
  Tb  Tb2  1  0.499739  0.162644  0.217537  1
  Tb  Tb3  1  0.837389  0.497132  0.280956  1
  Tb  Tb4  1  0.162598  0.499017  0.782552  1
  Tb  Tb5  1  0.660557  0.998959  0.968812  1
  Tb  Tb6  1  0.001969  0.338581  0.531512  1
  Tb  Tb7  1  0.998998  0.660919  0.031287  1
  Ti  Ti8  1  0.170293  0.831966  0.248500  1
  Ti  Ti9  1  0.831267  0.170592  0.751281  1
  Ti  Ti10  1  0.668590  0.668747  0.499979  1
  Si  Si11  1  0.200344  0.127717  0.683570  1
  Si  Si12  1  0.374547  0.697857  0.934241  1
  Si  Si13  1  0.627450  0.299028  0.433951  1
  Si  Si14  1  0.698531  0.374812  0.066157  1
  Si  Si15  1  0.298901  0.627574  0.566058  1
  Si  Si16  1  0.797294  0.873511  0.184314  1
  Si  Si17  1  0.127538  0.200335  0.316403  1
  Si  Si18  1  0.873664  0.797064  0.815261  1
  Si  Si19  1  0.288780  0.963617  0.061975  1
  Si  Si20  1  0.539351  0.790876  0.313819  1
  Si  Si21  1  0.459187  0.209648  0.814315  1
  Si  Si22  1  0.790924  0.539667  0.686259  1
  Si  Si23  1  0.209780  0.459938  0.185971  1
  Si  Si24  1  0.709944  0.040328  0.563801  1
  Si  Si25  1  0.964015  0.287989  0.937542  1
  Si  Si26  1  0.040402  0.709892  0.436134  1
  Mo  Mo27  1  0.158869  0.002632  0.873452  1
  W  W28  1  0.332337  0.332825  0.000432  1
  W  W29  1  0.494121  0.665747  0.125431  1
  W  W30  1  0.506141  0.339397  0.624847  1
  W  W31  1  0.665357  0.493478  0.874861  1
  W  W32  1  0.339357  0.505836  0.375065  1
  W  W33  1  0.838941  0.993324  0.374535  1
  W  W34  1  0.004005  0.159567  0.126151  1
  W  W35  1  0.993414  0.839389  0.625470  1
