# generated using pymatgen
data_CeSiOs2C
_symmetry_space_group_name_H-M   'P 1'
_cell_length_a   5.91990562
_cell_length_b   5.91990559
_cell_length_c   7.14816800
_cell_angle_alpha   90.00000000
_cell_angle_beta   90.00000000
_cell_angle_gamma   140.97358102
_symmetry_Int_Tables_number   1
_chemical_formula_structural   CeSiOs2C
_chemical_formula_sum   'Ce2 Si2 Os4 C2'
_cell_volume   157.74052910
_cell_formula_units_Z   2
loop_
 _symmetry_equiv_pos_site_id
 _symmetry_equiv_pos_as_xyz
  1  'x, y, z'
loop_
 _atom_site_type_symbol
 _atom_site_label
 _atom_site_symmetry_multiplicity
 _atom_site_fract_x
 _atom_site_fract_y
 _atom_site_fract_z
 _atom_site_occupancy
  Ce  Ce0  1  0.551746  0.448254  0.250000  1
  Ce  Ce1  1  0.448254  0.551746  0.750000  1
  Si  Si2  1  0.271571  0.728429  0.250000  1
  Si  Si3  1  0.728429  0.271571  0.750000  1
  Os  Os4  1  0.834339  0.165661  0.057431  1
  Os  Os5  1  0.165661  0.834339  0.942569  1
  Os  Os6  1  0.165661  0.834339  0.557431  1
  Os  Os7  1  0.834339  0.165661  0.442569  1
  C  C8  1  0.000000  0.000000  0.000000  1
  C  C9  1  0.000000  0.000000  0.500000  1
