# generated using pymatgen
data_LiHo3Hg5
_symmetry_space_group_name_H-M   'P 1'
_cell_length_a   7.97479662
_cell_length_b   7.97479775
_cell_length_c   7.97479500
_cell_angle_alpha   66.57777394
_cell_angle_beta   66.57778608
_cell_angle_gamma   66.57776513
_symmetry_Int_Tables_number   1
_chemical_formula_structural   LiHo3Hg5
_chemical_formula_sum   'Li2 Ho6 Hg10'
_cell_volume   409.39850472
_cell_formula_units_Z   2
loop_
 _symmetry_equiv_pos_site_id
 _symmetry_equiv_pos_as_xyz
  1  'x, y, z'
loop_
 _atom_site_type_symbol
 _atom_site_label
 _atom_site_symmetry_multiplicity
 _atom_site_fract_x
 _atom_site_fract_y
 _atom_site_fract_z
 _atom_site_occupancy
  Li  Li0  1  0.656265  0.656265  0.656265  1
  Li  Li1  1  0.343735  0.343735  0.343735  1
  Ho  Ho2  1  0.889194  0.196227  0.606551  1
  Ho  Ho3  1  0.606551  0.889194  0.196227  1
  Ho  Ho4  1  0.196227  0.606551  0.889194  1
  Ho  Ho5  1  0.110806  0.803773  0.393449  1
  Ho  Ho6  1  0.393449  0.110806  0.803773  1
  Ho  Ho7  1  0.803773  0.393449  0.110806  1
  Hg  Hg8  1  0.000000  0.000000  0.000000  1
  Hg  Hg9  1  0.500000  0.500000  0.500000  1
  Hg  Hg10  1  0.807211  0.807211  0.807211  1
  Hg  Hg11  1  0.192789  0.192789  0.192789  1
  Hg  Hg12  1  0.942873  0.567480  0.310930  1
  Hg  Hg13  1  0.310930  0.942873  0.567480  1
  Hg  Hg14  1  0.567480  0.310930  0.942873  1
  Hg  Hg15  1  0.057127  0.432520  0.689070  1
  Hg  Hg16  1  0.689070  0.057127  0.432520  1
  Hg  Hg17  1  0.432520  0.689070  0.057127  1
