# generated using pymatgen
data_YbCdCuPt3
_symmetry_space_group_name_H-M   'P 1'
_cell_length_a   5.41994557
_cell_length_b   5.41994530
_cell_length_c   5.18958541
_cell_angle_alpha   58.52043726
_cell_angle_beta   58.52043663
_cell_angle_gamma   60.00000119
_symmetry_Int_Tables_number   1
_chemical_formula_structural   YbCdCuPt3
_chemical_formula_sum   'Yb1 Cd1 Cu1 Pt3'
_cell_volume   105.32322055
_cell_formula_units_Z   1
loop_
 _symmetry_equiv_pos_site_id
 _symmetry_equiv_pos_as_xyz
  1  'x, y, z'
loop_
 _atom_site_type_symbol
 _atom_site_label
 _atom_site_symmetry_multiplicity
 _atom_site_fract_x
 _atom_site_fract_y
 _atom_site_fract_z
 _atom_site_occupancy
  Yb  Yb0  1  0.750484  0.750484  0.748547  1
  Cd  Cd1  1  0.000269  0.000269  0.999192  1
  Cu  Cu2  1  0.374947  0.374947  0.875158  1
  Pt  Pt3  1  0.374238  0.875823  0.375701  1
  Pt  Pt4  1  0.374238  0.374238  0.375701  1
  Pt  Pt5  1  0.875823  0.374238  0.375701  1
