# generated using pymatgen
data_Dy11HoInCo4Ir
_symmetry_space_group_name_H-M   'P 1'
_cell_length_a   8.29499659
_cell_length_b   8.29914221
_cell_length_c   8.29914267
_cell_angle_alpha   111.29303210
_cell_angle_beta   110.50101531
_cell_angle_gamma   106.67597253
_symmetry_Int_Tables_number   1
_chemical_formula_structural   Dy11HoInCo4Ir
_chemical_formula_sum   'Dy11 Ho1 In1 Co4 Ir1'
_cell_volume   438.89380283
_cell_formula_units_Z   1
loop_
 _symmetry_equiv_pos_site_id
 _symmetry_equiv_pos_as_xyz
  1  'x, y, z'
loop_
 _atom_site_type_symbol
 _atom_site_label
 _atom_site_symmetry_multiplicity
 _atom_site_fract_x
 _atom_site_fract_y
 _atom_site_fract_z
 _atom_site_occupancy
  Dy  Dy0  1  0.590584  0.784356  0.806227  1
  Dy  Dy1  1  0.022009  0.215730  0.806279  1
  Dy  Dy2  1  0.978432  0.784376  0.194056  1
  Dy  Dy3  1  0.183370  0.287155  0.470272  1
  Dy  Dy4  1  0.816461  0.712460  0.529107  1
  Dy  Dy5  1  0.183370  0.713097  0.896214  1
  Dy  Dy6  1  0.816462  0.287354  0.104001  1
  Dy  Dy7  1  0.315860  0.621469  0.306011  1
  Dy  Dy8  1  0.684007  0.378258  0.693717  1
  Dy  Dy9  1  0.315860  0.009849  0.694389  1
  Dy  Dy10  1  0.684007  0.990291  0.305749  1
  Ho  Ho11  1  0.409570  0.215523  0.194049  1
  In  In12  1  0.499706  0.499487  0.000219  1
  Co  Co13  1  0.377936  0.000152  0.377783  1
  Co  Co14  1  0.621660  0.999922  0.621739  1
  Co  Co15  1  0.111767  0.611774  0.499995  1
  Co  Co16  1  0.887872  0.388243  0.499629  1
  Ir  Ir17  1  0.001068  0.000505  0.000563  1
