# generated using pymatgen
data_Dy4ErGa5P7Ir19
_symmetry_space_group_name_H-M   'P 1'
_cell_length_a   12.94338841
_cell_length_b   12.92141700
_cell_length_c   3.97002600
_cell_angle_alpha   90.00000000
_cell_angle_beta   90.00000000
_cell_angle_gamma   119.94455317
_symmetry_Int_Tables_number   1
_chemical_formula_structural   Dy4ErGa5P7Ir19
_chemical_formula_sum   'Dy4 Er1 Ga5 P7 Ir19'
_cell_volume   575.33989076
_cell_formula_units_Z   1
loop_
 _symmetry_equiv_pos_site_id
 _symmetry_equiv_pos_as_xyz
  1  'x, y, z'
loop_
 _atom_site_type_symbol
 _atom_site_label
 _atom_site_symmetry_multiplicity
 _atom_site_fract_x
 _atom_site_fract_y
 _atom_site_fract_z
 _atom_site_occupancy
  Dy  Dy0  1  0.335054  0.666025  0.500000  1
  Dy  Dy1  1  0.665066  0.333228  0.500000  1
  Dy  Dy2  1  0.182245  0.183356  0.000000  1
  Dy  Dy3  1  0.813894  0.997450  0.000000  1
  Er  Er4  1  0.003483  0.815956  0.000000  1
  Ga  Ga5  1  0.998496  0.638218  0.500000  1
  Ga  Ga6  1  0.360093  0.360965  0.500000  1
  Ga  Ga7  1  0.639254  0.003813  0.500000  1
  Ga  Ga8  1  0.519180  0.679426  0.000000  1
  Ga  Ga9  1  0.321973  0.836131  0.000000  1
  P  P10  1  0.166835  0.479550  0.000000  1
  P  P11  1  0.481048  0.177699  0.000000  1
  P  P12  1  0.693466  0.516497  0.000000  1
  P  P13  1  0.819955  0.304698  0.000000  1
  P  P14  1  0.996324  0.177986  0.500000  1
  P  P15  1  0.825000  0.820290  0.500000  1
  P  P16  1  0.179067  0.000638  0.500000  1
  Ir  Ir17  1  0.525784  0.875741  0.000000  1
  Ir  Ir18  1  0.131110  0.634978  0.000000  1
  Ir  Ir19  1  0.346622  0.478362  0.000000  1
  Ir  Ir20  1  0.498431  0.368856  0.000000  1
  Ir  Ir21  1  0.868025  0.499810  0.000000  1
  Ir  Ir22  1  0.630510  0.132540  0.000000  1
  Ir  Ir23  1  0.000257  0.447856  0.500000  1
  Ir  Ir24  1  0.550034  0.557626  0.500000  1
  Ir  Ir25  1  0.441578  0.995675  0.500000  1
  Ir  Ir26  1  0.995489  0.280492  0.000000  1
  Ir  Ir27  1  0.731364  0.719184  0.000000  1
  Ir  Ir28  1  0.280158  0.008080  0.000000  1
  Ir  Ir29  1  0.639400  0.809505  0.500000  1
  Ir  Ir30  1  0.192223  0.825013  0.500000  1
  Ir  Ir31  1  0.168746  0.374669  0.500000  1
  Ir  Ir32  1  0.383742  0.178775  0.500000  1
  Ir  Ir33  1  0.791799  0.611188  0.500000  1
  Ir  Ir34  1  0.823168  0.207899  0.500000  1
  Ir  Ir35  1  0.001126  0.001827  0.500000  1
