# generated using pymatgen
data_Ho6ScCo16P12W
_symmetry_space_group_name_H-M   'P 1'
_cell_length_a   3.70083900
_cell_length_b   10.57491300
_cell_length_c   12.26140500
_cell_angle_alpha   90.00000000
_cell_angle_beta   90.00000000
_cell_angle_gamma   90.00000000
_symmetry_Int_Tables_number   1
_chemical_formula_structural   Ho6ScCo16P12W
_chemical_formula_sum   'Ho6 Sc1 Co16 P12 W1'
_cell_volume   479.86296469
_cell_formula_units_Z   1
loop_
 _symmetry_equiv_pos_site_id
 _symmetry_equiv_pos_as_xyz
  1  'x, y, z'
loop_
 _atom_site_type_symbol
 _atom_site_label
 _atom_site_symmetry_multiplicity
 _atom_site_fract_x
 _atom_site_fract_y
 _atom_site_fract_z
 _atom_site_occupancy
  Ho  Ho0  1  0.000000  0.500000  0.527405  1
  Ho  Ho1  1  0.500000  0.000000  0.475115  1
  Ho  Ho2  1  0.500000  0.821414  0.205338  1
  Ho  Ho3  1  0.500000  0.178586  0.205338  1
  Ho  Ho4  1  0.000000  0.680639  0.795414  1
  Ho  Ho5  1  0.000000  0.319361  0.795414  1
  Sc  Sc6  1  0.500000  0.500000  0.154115  1
  Co  Co7  1  0.000000  0.500000  0.984488  1
  Co  Co8  1  0.500000  0.000000  0.010804  1
  Co  Co9  1  0.500000  0.294523  0.433969  1
  Co  Co10  1  0.500000  0.705477  0.433969  1
  Co  Co11  1  0.000000  0.203489  0.569545  1
  Co  Co12  1  0.000000  0.796511  0.569545  1
  Co  Co13  1  0.500000  0.878950  0.706219  1
  Co  Co14  1  0.500000  0.121050  0.706219  1
  Co  Co15  1  0.000000  0.623041  0.296819  1
  Co  Co16  1  0.000000  0.376959  0.296819  1
  Co  Co17  1  0.500000  0.327989  0.990586  1
  Co  Co18  1  0.500000  0.672011  0.990586  1
  Co  Co19  1  0.000000  0.164136  0.005629  1
  Co  Co20  1  0.000000  0.835864  0.005629  1
  Co  Co21  1  0.500000  0.500000  0.702642  1
  Co  Co22  1  0.000000  0.000000  0.297914  1
  P  P23  1  0.500000  0.310343  0.617100  1
  P  P24  1  0.500000  0.689657  0.617100  1
  P  P25  1  0.000000  0.188752  0.385090  1
  P  P26  1  0.000000  0.811248  0.385090  1
  P  P27  1  0.500000  0.500000  0.882866  1
  P  P28  1  0.000000  0.000000  0.118174  1
  P  P29  1  0.500000  0.844731  0.889355  1
  P  P30  1  0.500000  0.155269  0.889355  1
  P  P31  1  0.000000  0.661650  0.104604  1
  P  P32  1  0.000000  0.338350  0.104604  1
  P  P33  1  0.500000  0.500000  0.358532  1
  P  P34  1  0.000000  0.000000  0.647501  1
  W  W35  1  0.000000  0.000000  0.841106  1
