# generated using pymatgen
data_Sc2Al2HgAu
_symmetry_space_group_name_H-M   'P 1'
_cell_length_a   7.00633800
_cell_length_b   7.00633740
_cell_length_c   8.26721800
_cell_angle_alpha   90.00000000
_cell_angle_beta   90.00000000
_cell_angle_gamma   120.00000284
_symmetry_Int_Tables_number   1
_chemical_formula_structural   Sc2Al2HgAu
_chemical_formula_sum   'Sc6 Al6 Hg3 Au3'
_cell_volume   351.45695432
_cell_formula_units_Z   3
loop_
 _symmetry_equiv_pos_site_id
 _symmetry_equiv_pos_as_xyz
  1  'x, y, z'
loop_
 _atom_site_type_symbol
 _atom_site_label
 _atom_site_symmetry_multiplicity
 _atom_site_fract_x
 _atom_site_fract_y
 _atom_site_fract_z
 _atom_site_occupancy
  Sc  Sc0  1  0.584043  0.997285  0.754519  1
  Sc  Sc1  1  0.002715  0.586758  0.754519  1
  Sc  Sc2  1  0.413242  0.415957  0.754519  1
  Sc  Sc3  1  0.004451  0.587751  0.245052  1
  Sc  Sc4  1  0.583300  0.995549  0.245052  1
  Sc  Sc5  1  0.412249  0.416700  0.245052  1
  Al  Al6  1  0.751545  0.762876  0.000165  1
  Al  Al7  1  0.237124  0.988669  0.000165  1
  Al  Al8  1  0.011331  0.248455  0.000165  1
  Al  Al9  1  0.760297  0.759511  0.500487  1
  Al  Al10  1  0.240489  0.000786  0.500487  1
  Al  Al11  1  0.999214  0.239703  0.500487  1
  Hg  Hg12  1  0.666667  0.333333  0.000115  1
  Hg  Hg13  1  0.666667  0.333333  0.498375  1
  Hg  Hg14  1  0.333333  0.666667  0.500434  1
  Au  Au15  1  0.000000  0.000000  0.751728  1
  Au  Au16  1  0.000000  0.000000  0.249718  1
  Au  Au17  1  0.333333  0.666667  0.998962  1
