# generated using pymatgen
data_Sm5P12Ir7Ru12
_symmetry_space_group_name_H-M   'P 1'
_cell_length_a   12.56330800
_cell_length_b   12.54738110
_cell_length_c   3.97320300
_cell_angle_alpha   90.00000000
_cell_angle_beta   90.00000000
_cell_angle_gamma   119.50379819
_symmetry_Int_Tables_number   1
_chemical_formula_structural   Sm5P12Ir7Ru12
_chemical_formula_sum   'Sm5 P12 Ir7 Ru12'
_cell_volume   545.10270461
_cell_formula_units_Z   1
loop_
 _symmetry_equiv_pos_site_id
 _symmetry_equiv_pos_as_xyz
  1  'x, y, z'
loop_
 _atom_site_type_symbol
 _atom_site_label
 _atom_site_symmetry_multiplicity
 _atom_site_fract_x
 _atom_site_fract_y
 _atom_site_fract_z
 _atom_site_occupancy
  Sm  Sm0  1  0.665202  0.331945  0.000000  1
  Sm  Sm1  1  0.333737  0.666890  0.000000  1
  Sm  Sm2  1  0.813762  0.001664  0.500000  1
  Sm  Sm3  1  0.186093  0.187571  0.500000  1
  Sm  Sm4  1  0.000435  0.813763  0.500000  1
  P  P5  1  0.629953  0.002533  0.000000  1
  P  P6  1  0.372352  0.372614  0.000000  1
  P  P7  1  0.005284  0.632913  0.000000  1
  P  P8  1  0.685047  0.517243  0.500000  1
  P  P9  1  0.826111  0.303196  0.500000  1
  P  P10  1  0.312170  0.830518  0.500000  1
  P  P11  1  0.519347  0.687500  0.500000  1
  P  P12  1  0.182611  0.001494  0.000000  1
  P  P13  1  0.817677  0.817533  0.000000  1
  P  P14  1  0.998385  0.185369  0.000000  1
  P  P15  1  0.480345  0.167449  0.500000  1
  P  P16  1  0.169935  0.482350  0.500000  1
  Ir  Ir17  1  0.624625  0.806442  0.000000  1
  Ir  Ir18  1  0.183666  0.377598  0.000000  1
  Ir  Ir19  1  0.375143  0.182289  0.000000  1
  Ir  Ir20  1  0.195135  0.819799  0.000000  1
  Ir  Ir21  1  0.809430  0.624075  0.000000  1
  Ir  Ir22  1  0.869001  0.504944  0.500000  1
  Ir  Ir23  1  0.999222  0.001289  0.000000  1
  Ru  Ru24  1  0.488548  0.360613  0.500000  1
  Ru  Ru25  1  0.635276  0.122023  0.500000  1
  Ru  Ru26  1  0.125351  0.638954  0.500000  1
  Ru  Ru27  1  0.363073  0.489157  0.500000  1
  Ru  Ru28  1  0.509944  0.870886  0.500000  1
  Ru  Ru29  1  0.716017  0.713924  0.500000  1
  Ru  Ru30  1  0.002169  0.287821  0.500000  1
  Ru  Ru31  1  0.446759  0.998718  0.000000  1
  Ru  Ru32  1  0.553906  0.551465  0.000000  1
  Ru  Ru33  1  0.000746  0.450024  0.000000  1
  Ru  Ru34  1  0.818599  0.197093  0.000000  1
  Ru  Ru35  1  0.284941  0.000343  0.500000  1
