# generated using pymatgen
data_Ca2TbEr(NiAs)4
_symmetry_space_group_name_H-M   'P 1'
_cell_length_a   4.04237300
_cell_length_b   4.04237177
_cell_length_c   16.21038600
_cell_angle_alpha   90.00000000
_cell_angle_beta   90.00000000
_cell_angle_gamma   120.00001825
_symmetry_Int_Tables_number   1
_chemical_formula_structural   Ca2TbEr(NiAs)4
_chemical_formula_sum   'Ca2 Tb1 Er1 Ni4 As4'
_cell_volume   229.40165403
_cell_formula_units_Z   1
loop_
 _symmetry_equiv_pos_site_id
 _symmetry_equiv_pos_as_xyz
  1  'x, y, z'
loop_
 _atom_site_type_symbol
 _atom_site_label
 _atom_site_symmetry_multiplicity
 _atom_site_fract_x
 _atom_site_fract_y
 _atom_site_fract_z
 _atom_site_occupancy
  Ca  Ca0  1  0.000000  0.000000  0.999626  1
  Ca  Ca1  1  0.000000  0.000000  0.500374  1
  Tb  Tb2  1  0.000000  0.000000  0.250000  1
  Er  Er3  1  0.000000  0.000000  0.750000  1
  Ni  Ni4  1  0.333333  0.666667  0.135162  1
  Ni  Ni5  1  0.666667  0.333333  0.862467  1
  Ni  Ni6  1  0.666667  0.333333  0.637533  1
  Ni  Ni7  1  0.333333  0.666667  0.364838  1
  As  As8  1  0.333333  0.666667  0.626729  1
  As  As9  1  0.666667  0.333333  0.374497  1
  As  As10  1  0.666667  0.333333  0.125503  1
  As  As11  1  0.333333  0.666667  0.873271  1
