# generated using pymatgen
data_Y2Nb3Co9SiAs6
_symmetry_space_group_name_H-M   'P 1'
_cell_length_a   3.78287000
_cell_length_b   9.52114573
_cell_length_c   9.52114600
_cell_angle_alpha   120.00000093
_cell_angle_beta   90.00000000
_cell_angle_gamma   90.00000000
_symmetry_Int_Tables_number   1
_chemical_formula_structural   Y2Nb3Co9SiAs6
_chemical_formula_sum   'Y2 Nb3 Co9 Si1 As6'
_cell_volume   296.98224222
_cell_formula_units_Z   1
loop_
 _symmetry_equiv_pos_site_id
 _symmetry_equiv_pos_as_xyz
  1  'x, y, z'
loop_
 _atom_site_type_symbol
 _atom_site_label
 _atom_site_symmetry_multiplicity
 _atom_site_fract_x
 _atom_site_fract_y
 _atom_site_fract_z
 _atom_site_occupancy
  Y  Y0  1  0.000000  0.666667  0.333333  1
  Y  Y1  1  0.500000  0.333333  0.666667  1
  Nb  Nb2  1  0.500000  0.779646  0.897396  1
  Nb  Nb3  1  0.500000  0.117750  0.220354  1
  Nb  Nb4  1  0.500000  0.102604  0.882250  1
  Co  Co5  1  0.000000  0.571460  0.938925  1
  Co  Co6  1  0.000000  0.367465  0.428540  1
  Co  Co7  1  0.000000  0.061075  0.632535  1
  Co  Co8  1  0.000000  0.879536  0.158059  1
  Co  Co9  1  0.000000  0.278523  0.120464  1
  Co  Co10  1  0.000000  0.841941  0.721477  1
  Co  Co11  1  0.500000  0.947933  0.385387  1
  Co  Co12  1  0.500000  0.437453  0.052067  1
  Co  Co13  1  0.500000  0.614613  0.562547  1
  Si  Si14  1  0.000000  0.000000  0.000000  1
  As  As15  1  0.500000  0.709486  0.124992  1
  As  As16  1  0.500000  0.415506  0.290514  1
  As  As17  1  0.500000  0.875008  0.584494  1
  As  As18  1  0.000000  0.580859  0.692516  1
  As  As19  1  0.000000  0.111657  0.419141  1
  As  As20  1  0.000000  0.307484  0.888343  1
