# generated using pymatgen
data_Tm12InFe4Hg
_symmetry_space_group_name_H-M   'P 1'
_cell_length_a   8.26546957
_cell_length_b   8.26546935
_cell_length_c   8.26546845
_cell_angle_alpha   111.33861848
_cell_angle_beta   110.47997397
_cell_angle_gamma   106.63303526
_symmetry_Int_Tables_number   1
_chemical_formula_structural   Tm12InFe4Hg
_chemical_formula_sum   'Tm12 In1 Fe4 Hg1'
_cell_volume   433.87033505
_cell_formula_units_Z   1
loop_
 _symmetry_equiv_pos_site_id
 _symmetry_equiv_pos_as_xyz
  1  'x, y, z'
loop_
 _atom_site_type_symbol
 _atom_site_label
 _atom_site_symmetry_multiplicity
 _atom_site_fract_x
 _atom_site_fract_y
 _atom_site_fract_z
 _atom_site_occupancy
  Tm  Tm0  1  0.439041  0.227538  0.211503  1
  Tm  Tm1  1  0.560959  0.772462  0.788497  1
  Tm  Tm2  1  0.016036  0.227538  0.788497  1
  Tm  Tm3  1  0.983964  0.772462  0.211503  1
  Tm  Tm4  1  0.189241  0.291407  0.480649  1
  Tm  Tm5  1  0.810759  0.708593  0.519351  1
  Tm  Tm6  1  0.189241  0.708593  0.897835  1
  Tm  Tm7  1  0.810759  0.291407  0.102165  1
  Tm  Tm8  1  0.311952  0.611574  0.299622  1
  Tm  Tm9  1  0.688048  0.388426  0.700378  1
  Tm  Tm10  1  0.311952  0.012331  0.700378  1
  Tm  Tm11  1  0.688048  0.987669  0.299622  1
  In  In12  1  0.500000  0.500000  0.000000  1
  Fe  Fe13  1  0.384804  0.000000  0.384804  1
  Fe  Fe14  1  0.615196  0.000000  0.615196  1
  Fe  Fe15  1  0.108962  0.608962  0.500000  1
  Fe  Fe16  1  0.891038  0.391038  0.500000  1
  Hg  Hg17  1  0.000000  0.000000  0.000000  1
