# generated using pymatgen
data_La3ZnHg2IrPd2
_symmetry_space_group_name_H-M   'P 1'
_cell_length_a   7.78704264
_cell_length_b   7.76974002
_cell_length_c   4.03184000
_cell_angle_alpha   90.00000000
_cell_angle_beta   90.00000000
_cell_angle_gamma   120.47037983
_symmetry_Int_Tables_number   1
_chemical_formula_structural   La3ZnHg2IrPd2
_chemical_formula_sum   'La3 Zn1 Hg2 Ir1 Pd2'
_cell_volume   210.24946061
_cell_formula_units_Z   1
loop_
 _symmetry_equiv_pos_site_id
 _symmetry_equiv_pos_as_xyz
  1  'x, y, z'
loop_
 _atom_site_type_symbol
 _atom_site_label
 _atom_site_symmetry_multiplicity
 _atom_site_fract_x
 _atom_site_fract_y
 _atom_site_fract_z
 _atom_site_occupancy
  La  La0  1  0.421424  0.407228  0.500000  1
  La  La1  1  0.600115  0.009581  0.500000  1
  La  La2  1  0.982297  0.587624  0.500000  1
  Zn  Zn3  1  0.745724  0.746642  0.000000  1
  Hg  Hg4  1  0.250032  0.992943  0.000000  1
  Hg  Hg5  1  0.007756  0.256373  0.000000  1
  Ir  Ir6  1  0.670531  0.353810  0.000000  1
  Pd  Pd7  1  0.350742  0.671997  0.000000  1
  Pd  Pd8  1  0.971380  0.973802  0.500000  1
