# generated using pymatgen
data_Er3Tm2(CoHg)2
_symmetry_space_group_name_H-M   'P 1'
_cell_length_a   7.79806591
_cell_length_b   7.79806617
_cell_length_c   15.29787902
_cell_angle_alpha   89.99408746
_cell_angle_beta   90.00591319
_cell_angle_gamma   152.85851968
_symmetry_Int_Tables_number   1
_chemical_formula_structural   Er3Tm2(CoHg)2
_chemical_formula_sum   'Er6 Tm4 Co4 Hg4'
_cell_volume   424.37530823
_cell_formula_units_Z   2
loop_
 _symmetry_equiv_pos_site_id
 _symmetry_equiv_pos_as_xyz
  1  'x, y, z'
loop_
 _atom_site_type_symbol
 _atom_site_label
 _atom_site_symmetry_multiplicity
 _atom_site_fract_x
 _atom_site_fract_y
 _atom_site_fract_z
 _atom_site_occupancy
  Er  Er0  1  0.039187  0.960813  0.872612  1
  Er  Er1  1  0.960724  0.039276  0.373323  1
  Er  Er2  1  0.039583  0.960417  0.627148  1
  Er  Er3  1  0.253778  0.746222  0.127968  1
  Er  Er4  1  0.253664  0.746336  0.371637  1
  Er  Er5  1  0.746459  0.253541  0.871862  1
  Tm  Tm6  1  0.607458  0.392542  0.249781  1
  Tm  Tm7  1  0.745905  0.254095  0.628489  1
  Tm  Tm8  1  0.960228  0.039772  0.127322  1
  Tm  Tm9  1  0.391614  0.608386  0.749676  1
  Co  Co10  1  0.407292  0.592708  0.249939  1
  Co  Co11  1  0.593723  0.406277  0.749706  1
  Co  Co12  1  0.811131  0.188869  0.249710  1
  Co  Co13  1  0.189869  0.810131  0.749824  1
  Hg  Hg14  1  0.609625  0.390375  0.032032  1
  Hg  Hg15  1  0.610560  0.389440  0.468459  1
  Hg  Hg16  1  0.389146  0.610854  0.532239  1
  Hg  Hg17  1  0.390056  0.609944  0.968274  1
