# generated using pymatgen
data_Rb12Mn3BeBr20
_symmetry_space_group_name_H-M   'P 1'
_cell_length_a   9.31202174
_cell_length_b   10.66639000
_cell_length_c   13.84550970
_cell_angle_alpha   90.00000000
_cell_angle_beta   89.76455484
_cell_angle_gamma   90.00000000
_symmetry_Int_Tables_number   1
_chemical_formula_structural   Rb12Mn3BeBr20
_chemical_formula_sum   'Rb12 Mn3 Be1 Br20'
_cell_volume   1375.20271593
_cell_formula_units_Z   1
loop_
 _symmetry_equiv_pos_site_id
 _symmetry_equiv_pos_as_xyz
  1  'x, y, z'
loop_
 _atom_site_type_symbol
 _atom_site_label
 _atom_site_symmetry_multiplicity
 _atom_site_fract_x
 _atom_site_fract_y
 _atom_site_fract_z
 _atom_site_occupancy
  Rb  Rb0  1  0.908673  0.025088  0.670200  1
  Rb  Rb1  1  0.591148  0.978013  0.172689  1
  Rb  Rb2  1  0.591148  0.521987  0.172689  1
  Rb  Rb3  1  0.087292  0.520633  0.328580  1
  Rb  Rb4  1  0.087292  0.979367  0.328580  1
  Rb  Rb5  1  0.409384  0.023625  0.828507  1
  Rb  Rb6  1  0.588532  0.750000  0.452896  1
  Rb  Rb7  1  0.915589  0.250000  0.954780  1
  Rb  Rb8  1  0.084212  0.750000  0.045837  1
  Rb  Rb9  1  0.417466  0.250000  0.543898  1
  Rb  Rb10  1  0.409384  0.476375  0.828507  1
  Rb  Rb11  1  0.908673  0.474912  0.670200  1
  Mn  Mn12  1  0.690865  0.750000  0.890541  1
  Mn  Mn13  1  0.308962  0.250000  0.109520  1
  Mn  Mn14  1  0.191287  0.750000  0.608779  1
  Be  Be15  1  0.813511  0.250000  0.392618  1
  Br  Br16  1  0.658286  0.250000  0.734890  1
  Br  Br17  1  0.317178  0.553435  0.563124  1
  Br  Br18  1  0.860229  0.250000  0.236723  1
  Br  Br19  1  0.839787  0.750000  0.234572  1
  Br  Br20  1  0.634178  0.750000  0.715382  1
  Br  Br21  1  0.697408  0.423810  0.430942  1
  Br  Br22  1  0.815645  0.553536  0.936078  1
  Br  Br23  1  0.538596  0.250000  0.014242  1
  Br  Br24  1  0.962574  0.750000  0.514234  1
  Br  Br25  1  0.158840  0.250000  0.764610  1
  Br  Br26  1  0.815645  0.946464  0.936078  1
  Br  Br27  1  0.317178  0.946565  0.563124  1
  Br  Br28  1  0.341537  0.750000  0.266650  1
  Br  Br29  1  0.183059  0.054396  0.063777  1
  Br  Br30  1  0.697408  0.076190  0.430942  1
  Br  Br31  1  0.134348  0.750000  0.783935  1
  Br  Br32  1  0.363653  0.250000  0.284280  1
  Br  Br33  1  0.015668  0.250000  0.477821  1
  Br  Br34  1  0.183059  0.445604  0.063777  1
  Br  Br35  1  0.462301  0.750000  0.985998  1
