# generated using pymatgen
data_LiSm2Ge2(PPd5)4
_symmetry_space_group_name_H-M   'P 1'
_cell_length_a   8.66709213
_cell_length_b   8.75852964
_cell_length_c   8.75852939
_cell_angle_alpha   59.31050041
_cell_angle_beta   60.34475211
_cell_angle_gamma   60.34475237
_symmetry_Int_Tables_number   1
_chemical_formula_structural   LiSm2Ge2(PPd5)4
_chemical_formula_sum   'Li1 Sm2 Ge2 P4 Pd20'
_cell_volume   470.03167408
_cell_formula_units_Z   1
loop_
 _symmetry_equiv_pos_site_id
 _symmetry_equiv_pos_as_xyz
  1  'x, y, z'
loop_
 _atom_site_type_symbol
 _atom_site_label
 _atom_site_symmetry_multiplicity
 _atom_site_fract_x
 _atom_site_fract_y
 _atom_site_fract_z
 _atom_site_occupancy
  Li  Li0  1  0.000000  0.000000  0.000000  1
  Sm  Sm1  1  0.250000  0.250000  0.250000  1
  Sm  Sm2  1  0.750000  0.750000  0.750000  1
  Ge  Ge3  1  0.739340  0.260660  0.260660  1
  Ge  Ge4  1  0.260660  0.739340  0.739340  1
  P  P5  1  0.262603  0.737397  0.262603  1
  P  P6  1  0.737397  0.262603  0.737397  1
  P  P7  1  0.262603  0.262603  0.737397  1
  P  P8  1  0.737397  0.737397  0.262603  1
  Pd  Pd9  1  0.378948  0.388043  0.388043  1
  Pd  Pd10  1  0.621052  0.611957  0.611957  1
  Pd  Pd11  1  0.388043  0.378948  0.844966  1
  Pd  Pd12  1  0.388043  0.844966  0.378948  1
  Pd  Pd13  1  0.611957  0.621052  0.155034  1
  Pd  Pd14  1  0.611957  0.155034  0.621052  1
  Pd  Pd15  1  0.844966  0.388043  0.388043  1
  Pd  Pd16  1  0.155034  0.611957  0.611957  1
  Pd  Pd17  1  0.342822  0.000000  0.000000  1
  Pd  Pd18  1  0.657178  0.000000  0.000000  1
  Pd  Pd19  1  0.000000  0.342822  0.657178  1
  Pd  Pd20  1  0.000000  0.657178  0.342822  1
  Pd  Pd21  1  0.009794  0.346628  0.990206  1
  Pd  Pd22  1  0.653372  0.990206  0.346628  1
  Pd  Pd23  1  0.990206  0.653372  0.009794  1
  Pd  Pd24  1  0.346628  0.009794  0.653372  1
  Pd  Pd25  1  0.009794  0.990206  0.346628  1
  Pd  Pd26  1  0.990206  0.009794  0.653372  1
  Pd  Pd27  1  0.653372  0.346628  0.990206  1
  Pd  Pd28  1  0.346628  0.653372  0.009794  1
