# generated using pymatgen
data_DyTh(BOs)4
_symmetry_space_group_name_H-M   'P 1'
_cell_length_a   6.76170330
_cell_length_b   6.01992903
_cell_length_c   5.60669942
_cell_angle_alpha   71.02075271
_cell_angle_beta   57.34107915
_cell_angle_gamma   51.63816897
_symmetry_Int_Tables_number   1
_chemical_formula_structural   DyTh(BOs)4
_chemical_formula_sum   'Dy1 Th1 B4 Os4'
_cell_volume   150.64086225
_cell_formula_units_Z   1
loop_
 _symmetry_equiv_pos_site_id
 _symmetry_equiv_pos_as_xyz
  1  'x, y, z'
loop_
 _atom_site_type_symbol
 _atom_site_label
 _atom_site_symmetry_multiplicity
 _atom_site_fract_x
 _atom_site_fract_y
 _atom_site_fract_z
 _atom_site_occupancy
  Dy  Dy0  1  0.000000  0.000000  0.000000  1
  Th  Th1  1  0.250000  0.250000  0.250000  1
  B  B2  1  0.310444  0.689556  0.310444  1
  B  B3  1  0.689556  0.310444  0.689556  1
  B  B4  1  0.566240  0.933760  0.566240  1
  B  B5  1  0.933760  0.566240  0.933760  1
  Os  Os6  1  0.636701  0.636701  0.363299  1
  Os  Os7  1  0.363299  0.363299  0.636701  1
  Os  Os8  1  0.612140  0.612140  0.887860  1
  Os  Os9  1  0.887860  0.887860  0.612140  1
