# generated using pymatgen
data_Ac2BPt8
_symmetry_space_group_name_H-M   'P 1'
_cell_length_a   9.24142164
_cell_length_b   9.24142131
_cell_length_c   4.30841600
_cell_angle_alpha   90.00000000
_cell_angle_beta   90.00000000
_cell_angle_gamma   145.56938620
_symmetry_Int_Tables_number   1
_chemical_formula_structural   Ac2BPt8
_chemical_formula_sum   'Ac2 B1 Pt8'
_cell_volume   208.04485170
_cell_formula_units_Z   1
loop_
 _symmetry_equiv_pos_site_id
 _symmetry_equiv_pos_as_xyz
  1  'x, y, z'
loop_
 _atom_site_type_symbol
 _atom_site_label
 _atom_site_symmetry_multiplicity
 _atom_site_fract_x
 _atom_site_fract_y
 _atom_site_fract_z
 _atom_site_occupancy
  Ac  Ac0  1  0.610784  0.371799  0.500000  1
  Ac  Ac1  1  0.371799  0.610784  0.500000  1
  B  B2  1  0.211981  0.211981  0.000000  1
  Pt  Pt3  1  0.115630  0.908905  0.000000  1
  Pt  Pt4  1  0.908905  0.115630  0.000000  1
  Pt  Pt5  1  0.492345  0.991649  0.000000  1
  Pt  Pt6  1  0.991649  0.492345  0.000000  1
  Pt  Pt7  1  0.190514  0.793276  0.500000  1
  Pt  Pt8  1  0.793276  0.190514  0.500000  1
  Pt  Pt9  1  0.022116  0.022116  0.500000  1
  Pt  Pt10  1  0.604599  0.604599  0.000000  1
