# generated using pymatgen
data_CaSm6RuI12
_symmetry_space_group_name_H-M   'P 1'
_cell_length_a   9.94917313
_cell_length_b   9.94917238
_cell_length_c   9.94917280
_cell_angle_alpha   106.85624391
_cell_angle_beta   106.85624410
_cell_angle_gamma   106.85624197
_symmetry_Int_Tables_number   1
_chemical_formula_structural   CaSm6RuI12
_chemical_formula_sum   'Ca1 Sm6 Ru1 I12'
_cell_volume   823.37034533
_cell_formula_units_Z   1
loop_
 _symmetry_equiv_pos_site_id
 _symmetry_equiv_pos_as_xyz
  1  'x, y, z'
loop_
 _atom_site_type_symbol
 _atom_site_label
 _atom_site_symmetry_multiplicity
 _atom_site_fract_x
 _atom_site_fract_y
 _atom_site_fract_z
 _atom_site_occupancy
  Ca  Ca0  1  0.500000  0.500000  0.500000  1
  Sm  Sm1  1  0.904001  0.701146  0.977972  1
  Sm  Sm2  1  0.977972  0.904001  0.701146  1
  Sm  Sm3  1  0.701146  0.977972  0.904001  1
  Sm  Sm4  1  0.095999  0.298854  0.022028  1
  Sm  Sm5  1  0.022028  0.095999  0.298854  1
  Sm  Sm6  1  0.298854  0.022028  0.095999  1
  Ru  Ru7  1  0.000000  0.000000  0.000000  1
  I  I8  1  0.622996  0.847654  0.544137  1
  I  I9  1  0.544137  0.622996  0.847654  1
  I  I10  1  0.847654  0.544137  0.622996  1
  I  I11  1  0.377004  0.152346  0.455863  1
  I  I12  1  0.455863  0.377004  0.152346  1
  I  I13  1  0.152346  0.455863  0.377004  1
  I  I14  1  0.679297  0.074567  0.225784  1
  I  I15  1  0.225784  0.679297  0.074567  1
  I  I16  1  0.074567  0.225784  0.679297  1
  I  I17  1  0.320703  0.925433  0.774216  1
  I  I18  1  0.774216  0.320703  0.925433  1
  I  I19  1  0.925433  0.774216  0.320703  1
