# generated using pymatgen
data_La17Yb3Ga11Bi
_symmetry_space_group_name_H-M   'P 1'
_cell_length_a   8.10477600
_cell_length_b   8.10477600
_cell_length_c   14.56678300
_cell_angle_alpha   90.00000000
_cell_angle_beta   90.00000000
_cell_angle_gamma   90.00000000
_symmetry_Int_Tables_number   1
_chemical_formula_structural   La17Yb3Ga11Bi
_chemical_formula_sum   'La17 Yb3 Ga11 Bi1'
_cell_volume   956.85401438
_cell_formula_units_Z   1
loop_
 _symmetry_equiv_pos_site_id
 _symmetry_equiv_pos_as_xyz
  1  'x, y, z'
loop_
 _atom_site_type_symbol
 _atom_site_label
 _atom_site_symmetry_multiplicity
 _atom_site_fract_x
 _atom_site_fract_y
 _atom_site_fract_z
 _atom_site_occupancy
  La  La0  1  0.339553  0.311162  0.104596  1
  La  La1  1  0.827721  0.831191  0.894181  1
  La  La2  1  0.838927  0.181123  0.398592  1
  La  La3  1  0.172279  0.168809  0.894181  1
  La  La4  1  0.660447  0.688838  0.104596  1
  La  La5  1  0.821160  0.831969  0.600580  1
  La  La6  1  0.318877  0.338927  0.398592  1
  La  La7  1  0.188838  0.839553  0.104596  1
  La  La8  1  0.178840  0.168031  0.600580  1
  La  La9  1  0.811162  0.160447  0.104596  1
  La  La10  1  0.331969  0.678840  0.600580  1
  La  La11  1  0.500000  0.000000  0.292640  1
  La  La12  1  0.668809  0.327721  0.894181  1
  La  La13  1  0.668031  0.321160  0.600580  1
  La  La14  1  0.331191  0.672279  0.894181  1
  La  La15  1  0.161073  0.818877  0.398592  1
  La  La16  1  0.681123  0.661073  0.398592  1
  Yb  Yb17  1  0.500000  0.000000  0.752832  1
  Yb  Yb18  1  0.000000  0.500000  0.240655  1
  Yb  Yb19  1  0.000000  0.500000  0.733146  1
  Ga  Ga20  1  0.619299  0.381898  0.248186  1
  Ga  Ga21  1  0.883511  0.119894  0.749091  1
  Ga  Ga22  1  0.500000  0.000000  0.504231  1
  Ga  Ga23  1  0.881898  0.880701  0.248186  1
  Ga  Ga24  1  0.116489  0.880106  0.749091  1
  Ga  Ga25  1  0.380106  0.383511  0.749091  1
  Ga  Ga26  1  0.118102  0.119299  0.248186  1
  Ga  Ga27  1  0.380701  0.618102  0.248186  1
  Ga  Ga28  1  0.619894  0.616489  0.749091  1
  Ga  Ga29  1  0.500000  0.000000  0.987689  1
  Ga  Ga30  1  0.000000  0.500000  0.504776  1
  Bi  Bi31  1  0.000000  0.500000  0.003132  1
