# generated using pymatgen
data_ThAl4Fe9
_symmetry_space_group_name_H-M   'P 1'
_cell_length_a   8.19060107
_cell_length_b   8.19060075
_cell_length_c   8.19060016
_cell_angle_alpha   120.30279675
_cell_angle_beta   120.30278152
_cell_angle_gamma   89.47634532
_symmetry_Int_Tables_number   1
_chemical_formula_structural   ThAl4Fe9
_chemical_formula_sum   'Th2 Al8 Fe18'
_cell_volume   386.74119447
_cell_formula_units_Z   2
loop_
 _symmetry_equiv_pos_site_id
 _symmetry_equiv_pos_as_xyz
  1  'x, y, z'
loop_
 _atom_site_type_symbol
 _atom_site_label
 _atom_site_symmetry_multiplicity
 _atom_site_fract_x
 _atom_site_fract_y
 _atom_site_fract_z
 _atom_site_occupancy
  Th  Th0  1  0.750000  0.750000  0.000000  1
  Th  Th1  1  0.250000  0.250000  0.000000  1
  Al  Al2  1  0.060366  0.560366  0.868912  1
  Al  Al3  1  0.691454  0.191454  0.131088  1
  Al  Al4  1  0.560366  0.691454  0.500000  1
  Al  Al5  1  0.191454  0.060366  0.500000  1
  Al  Al6  1  0.939634  0.439634  0.131088  1
  Al  Al7  1  0.308546  0.808546  0.868912  1
  Al  Al8  1  0.439634  0.308546  0.500000  1
  Al  Al9  1  0.808546  0.939634  0.500000  1
  Fe  Fe10  1  0.059862  0.201579  0.261442  1
  Fe  Fe11  1  0.940138  0.798421  0.738558  1
  Fe  Fe12  1  0.559862  0.298421  0.858284  1
  Fe  Fe13  1  0.440138  0.701579  0.141716  1
  Fe  Fe14  1  0.798421  0.059862  0.858284  1
  Fe  Fe15  1  0.201579  0.940138  0.141716  1
  Fe  Fe16  1  0.701579  0.559862  0.261442  1
  Fe  Fe17  1  0.298421  0.440138  0.738558  1
  Fe  Fe18  1  0.433647  0.933647  0.715832  1
  Fe  Fe19  1  0.217815  0.717815  0.284168  1
  Fe  Fe20  1  0.933647  0.217815  0.500000  1
  Fe  Fe21  1  0.717815  0.433647  0.500000  1
  Fe  Fe22  1  0.566353  0.066353  0.284168  1
  Fe  Fe23  1  0.782185  0.282185  0.715832  1
  Fe  Fe24  1  0.066353  0.782185  0.500000  1
  Fe  Fe25  1  0.282185  0.566353  0.500000  1
  Fe  Fe26  1  0.000000  0.500000  0.500000  1
  Fe  Fe27  1  0.500000  0.000000  0.500000  1
