# generated using pymatgen
data_Ho7Er(SiPt)8
_symmetry_space_group_name_H-M   'P 1'
_cell_length_a   4.27156400
_cell_length_b   7.45112105
_cell_length_c   14.00403008
_cell_angle_alpha   89.98679293
_cell_angle_beta   90.00016643
_cell_angle_gamma   90.00059499
_symmetry_Int_Tables_number   1
_chemical_formula_structural   Ho7Er(SiPt)8
_chemical_formula_sum   'Ho7 Er1 Si8 Pt8'
_cell_volume   445.71942381
_cell_formula_units_Z   1
loop_
 _symmetry_equiv_pos_site_id
 _symmetry_equiv_pos_as_xyz
  1  'x, y, z'
loop_
 _atom_site_type_symbol
 _atom_site_label
 _atom_site_symmetry_multiplicity
 _atom_site_fract_x
 _atom_site_fract_y
 _atom_site_fract_z
 _atom_site_occupancy
  Ho  Ho0  1  0.000006  0.300330  0.999810  1
  Ho  Ho1  1  0.499996  0.699861  0.500191  1
  Ho  Ho2  1  0.999996  0.294584  0.500125  1
  Ho  Ho3  1  0.500003  0.705499  0.999854  1
  Ho  Ho4  1  0.000004  0.204280  0.249379  1
  Ho  Ho5  1  0.499997  0.795574  0.250663  1
  Ho  Ho6  1  0.999996  0.203997  0.750597  1
  Er  Er7  1  0.500004  0.795377  0.749356  1
  Si  Si8  1  0.999994  0.906464  0.592500  1
  Si  Si9  1  0.499997  0.093296  0.907603  1
  Si  Si10  1  0.999993  0.906633  0.408069  1
  Si  Si11  1  0.500002  0.093387  0.091953  1
  Si  Si12  1  0.999996  0.593443  0.148018  1
  Si  Si13  1  0.500000  0.406530  0.352047  1
  Si  Si14  1  0.999999  0.593981  0.851597  1
  Si  Si15  1  0.500002  0.406506  0.648019  1
  Pt  Pt16  1  0.499994  0.075669  0.608868  1
  Pt  Pt17  1  0.000004  0.923547  0.891168  1
  Pt  Pt18  1  0.500000  0.076231  0.391693  1
  Pt  Pt19  1  0.000007  0.923774  0.108322  1
  Pt  Pt20  1  0.500004  0.420218  0.153888  1
  Pt  Pt21  1  0.000003  0.579712  0.346048  1
  Pt  Pt22  1  0.500006  0.420639  0.845653  1
  Pt  Pt23  1  0.999997  0.580467  0.654580  1
