# generated using pymatgen
data_Tb4Dy8Co5Pb
_symmetry_space_group_name_H-M   'P 1'
_cell_length_a   8.30520345
_cell_length_b   8.30520192
_cell_length_c   8.30520287
_cell_angle_alpha   106.92695118
_cell_angle_beta   110.78367624
_cell_angle_gamma   110.73261675
_symmetry_Int_Tables_number   1
_chemical_formula_structural   Tb4Dy8Co5Pb
_chemical_formula_sum   'Tb4 Dy8 Co5 Pb1'
_cell_volume   440.34139660
_cell_formula_units_Z   1
loop_
 _symmetry_equiv_pos_site_id
 _symmetry_equiv_pos_as_xyz
  1  'x, y, z'
loop_
 _atom_site_type_symbol
 _atom_site_label
 _atom_site_symmetry_multiplicity
 _atom_site_fract_x
 _atom_site_fract_y
 _atom_site_fract_z
 _atom_site_occupancy
  Tb  Tb0  1  0.477376  0.292008  0.185368  1
  Tb  Tb1  1  0.106640  0.292008  0.814632  1
  Tb  Tb2  1  0.893360  0.707992  0.185368  1
  Tb  Tb3  1  0.522624  0.707992  0.814632  1
  Dy  Dy4  1  0.307825  0.620844  0.313019  1
  Dy  Dy5  1  0.307825  0.994807  0.686981  1
  Dy  Dy6  1  0.692175  0.379156  0.686981  1
  Dy  Dy7  1  0.692175  0.005193  0.313019  1
  Dy  Dy8  1  0.192810  0.206683  0.399494  1
  Dy  Dy9  1  0.807190  0.793317  0.600506  1
  Dy  Dy10  1  0.192810  0.793317  0.986126  1
  Dy  Dy11  1  0.807190  0.206683  0.013874  1
  Co  Co12  1  0.500000  0.612081  0.112081  1
  Co  Co13  1  0.500000  0.387919  0.887919  1
  Co  Co14  1  0.377903  0.000000  0.377903  1
  Co  Co15  1  0.622097  0.000000  0.622097  1
  Co  Co16  1  0.000000  0.000000  0.000000  1
  Pb  Pb17  1  0.000000  0.500000  0.500000  1
