# generated using pymatgen
data_Zr6InSiBi
_symmetry_space_group_name_H-M   'P 1'
_cell_length_a   7.76347000
_cell_length_b   7.76346979
_cell_length_c   3.88295600
_cell_angle_alpha   90.00000000
_cell_angle_beta   90.00000000
_cell_angle_gamma   120.00000089
_symmetry_Int_Tables_number   1
_chemical_formula_structural   Zr6InSiBi
_chemical_formula_sum   'Zr6 In1 Si1 Bi1'
_cell_volume   202.67717565
_cell_formula_units_Z   1
loop_
 _symmetry_equiv_pos_site_id
 _symmetry_equiv_pos_as_xyz
  1  'x, y, z'
loop_
 _atom_site_type_symbol
 _atom_site_label
 _atom_site_symmetry_multiplicity
 _atom_site_fract_x
 _atom_site_fract_y
 _atom_site_fract_z
 _atom_site_occupancy
  Zr  Zr0  1  0.386070  0.384854  0.500000  1
  Zr  Zr1  1  0.615146  0.001216  0.500000  1
  Zr  Zr2  1  0.998784  0.613930  0.500000  1
  Zr  Zr3  1  0.760718  0.755632  0.000000  1
  Zr  Zr4  1  0.244368  0.005086  0.000000  1
  Zr  Zr5  1  0.994914  0.239282  0.000000  1
  In  In6  1  0.666667  0.333333  0.000000  1
  Si  Si7  1  0.000000  0.000000  0.500000  1
  Bi  Bi8  1  0.333333  0.666667  0.000000  1
