# generated using pymatgen
data_La2Pr3Ni19
_symmetry_space_group_name_H-M   'P 1'
_cell_length_a   5.03151972
_cell_length_b   5.03151961
_cell_length_c   16.53976954
_cell_angle_alpha   81.25114797
_cell_angle_beta   81.25114605
_cell_angle_gamma   59.99999977
_symmetry_Int_Tables_number   1
_chemical_formula_structural   La2Pr3Ni19
_chemical_formula_sum   'La2 Pr3 Ni19'
_cell_volume   356.98874973
_cell_formula_units_Z   1
loop_
 _symmetry_equiv_pos_site_id
 _symmetry_equiv_pos_as_xyz
  1  'x, y, z'
loop_
 _atom_site_type_symbol
 _atom_site_label
 _atom_site_symmetry_multiplicity
 _atom_site_fract_x
 _atom_site_fract_y
 _atom_site_fract_z
 _atom_site_occupancy
  La  La0  1  0.921791  0.921791  0.234629  1
  La  La1  1  0.078209  0.078209  0.765371  1
  Pr  Pr2  1  0.000000  0.000000  0.000000  1
  Pr  Pr3  1  0.848362  0.848362  0.454916  1
  Pr  Pr4  1  0.151638  0.151638  0.545084  1
  Ni  Ni5  1  0.500000  0.500000  0.500000  1
  Ni  Ni6  1  0.748953  0.748954  0.753141  1
  Ni  Ni7  1  0.251046  0.251046  0.246860  1
  Ni  Ni8  1  0.666719  0.666719  0.999844  1
  Ni  Ni9  1  0.333281  0.333281  0.000156  1
  Ni  Ni10  1  0.584757  0.584757  0.245731  1
  Ni  Ni11  1  0.415243  0.415243  0.754269  1
  Ni  Ni12  1  0.377695  0.377695  0.368406  1
  Ni  Ni13  1  0.876203  0.377695  0.368406  1
  Ni  Ni14  1  0.377695  0.876203  0.368406  1
  Ni  Ni15  1  0.622305  0.622305  0.631594  1
  Ni  Ni16  1  0.123797  0.622305  0.631594  1
  Ni  Ni17  1  0.622305  0.123797  0.631594  1
  Ni  Ni18  1  0.459254  0.459254  0.121737  1
  Ni  Ni19  1  0.959756  0.459254  0.121737  1
  Ni  Ni20  1  0.459254  0.959756  0.121737  1
  Ni  Ni21  1  0.540746  0.540746  0.878263  1
  Ni  Ni22  1  0.040244  0.540746  0.878263  1
  Ni  Ni23  1  0.540746  0.040244  0.878263  1
