# generated using pymatgen
data_Er6Al6SnAu5
_symmetry_space_group_name_H-M   'P 1'
_cell_length_a   7.19922900
_cell_length_b   7.19922894
_cell_length_c   8.29560200
_cell_angle_alpha   90.00000000
_cell_angle_beta   90.00000000
_cell_angle_gamma   119.99998648
_symmetry_Int_Tables_number   1
_chemical_formula_structural   Er6Al6SnAu5
_chemical_formula_sum   'Er6 Al6 Sn1 Au5'
_cell_volume   372.34932546
_cell_formula_units_Z   1
loop_
 _symmetry_equiv_pos_site_id
 _symmetry_equiv_pos_as_xyz
  1  'x, y, z'
loop_
 _atom_site_type_symbol
 _atom_site_label
 _atom_site_symmetry_multiplicity
 _atom_site_fract_x
 _atom_site_fract_y
 _atom_site_fract_z
 _atom_site_occupancy
  Er  Er0  1  0.583077  0.995217  0.739814  1
  Er  Er1  1  0.004783  0.587860  0.739814  1
  Er  Er2  1  0.412140  0.416923  0.739814  1
  Er  Er3  1  0.004180  0.587752  0.260134  1
  Er  Er4  1  0.583573  0.995820  0.260134  1
  Er  Er5  1  0.412248  0.416427  0.260134  1
  Al  Al6  1  0.751318  0.771580  0.999992  1
  Al  Al7  1  0.228420  0.979738  0.999992  1
  Al  Al8  1  0.020262  0.248682  0.999992  1
  Al  Al9  1  0.761581  0.758735  0.499980  1
  Al  Al10  1  0.241265  0.002846  0.499980  1
  Al  Al11  1  0.997154  0.238419  0.499980  1
  Sn  Sn12  1  0.666667  0.333333  0.999811  1
  Au  Au13  1  0.000000  0.000000  0.752109  1
  Au  Au14  1  0.000000  0.000000  0.248050  1
  Au  Au15  1  0.666667  0.333333  0.500136  1
  Au  Au16  1  0.333333  0.666667  0.499845  1
  Au  Au17  1  0.333333  0.666667  0.000287  1
