# generated using pymatgen
data_Y6Ta5Ga11Os7
_symmetry_space_group_name_H-M   'P 1'
_cell_length_a   9.09793015
_cell_length_b   9.09792914
_cell_length_c   9.02777325
_cell_angle_alpha   59.74259364
_cell_angle_beta   59.74259415
_cell_angle_gamma   59.99999284
_symmetry_Int_Tables_number   1
_chemical_formula_structural   Y6Ta5Ga11Os7
_chemical_formula_sum   'Y6 Ta5 Ga11 Os7'
_cell_volume   526.32022722
_cell_formula_units_Z   1
loop_
 _symmetry_equiv_pos_site_id
 _symmetry_equiv_pos_as_xyz
  1  'x, y, z'
loop_
 _atom_site_type_symbol
 _atom_site_label
 _atom_site_symmetry_multiplicity
 _atom_site_fract_x
 _atom_site_fract_y
 _atom_site_fract_z
 _atom_site_occupancy
  Y  Y0  1  0.707923  0.707923  0.293872  1
  Y  Y1  1  0.290282  0.707923  0.293872  1
  Y  Y2  1  0.707923  0.290282  0.293872  1
  Y  Y3  1  0.297346  0.297346  0.710438  1
  Y  Y4  1  0.694869  0.297346  0.710438  1
  Y  Y5  1  0.297346  0.694869  0.710438  1
  Ta  Ta6  1  0.877775  0.877775  0.366676  1
  Ta  Ta7  1  0.876238  0.368943  0.878582  1
  Ta  Ta8  1  0.368943  0.876238  0.878582  1
  Ta  Ta9  1  0.876238  0.876238  0.878582  1
  Ta  Ta10  1  0.126833  0.126833  0.619502  1
  Ga  Ga11  1  0.116234  0.647589  0.119943  1
  Ga  Ga12  1  0.647589  0.116234  0.119943  1
  Ga  Ga13  1  0.116234  0.116234  0.119943  1
  Ga  Ga14  1  0.662536  0.662536  0.012394  1
  Ga  Ga15  1  0.663414  0.011233  0.661941  1
  Ga  Ga16  1  0.011233  0.663414  0.661941  1
  Ga  Ga17  1  0.663414  0.663414  0.661941  1
  Ga  Ga18  1  0.332412  0.332412  0.002765  1
  Ga  Ga19  1  0.336964  0.994009  0.332061  1
  Ga  Ga20  1  0.994009  0.336964  0.332061  1
  Ga  Ga21  1  0.336964  0.336964  0.332061  1
  Os  Os22  1  0.006490  0.006490  0.980530  1
  Os  Os23  1  0.997482  0.997482  0.509782  1
  Os  Os24  1  0.495254  0.997482  0.509782  1
  Os  Os25  1  0.997482  0.495254  0.509782  1
  Os  Os26  1  0.503117  0.503117  0.999424  1
  Os  Os27  1  0.994342  0.503117  0.999424  1
  Os  Os28  1  0.503117  0.994342  0.999424  1
