# generated using pymatgen
data_CaSc2(CoH6)2
_symmetry_space_group_name_H-M   'P 1'
_cell_length_a   4.30743400
_cell_length_b   4.30743463
_cell_length_c   7.53883900
_cell_angle_alpha   90.00000000
_cell_angle_beta   90.00000000
_cell_angle_gamma   119.99999514
_symmetry_Int_Tables_number   1
_chemical_formula_structural   CaSc2(CoH6)2
_chemical_formula_sum   'Ca1 Sc2 Co2 H12'
_cell_volume   121.13578245
_cell_formula_units_Z   1
loop_
 _symmetry_equiv_pos_site_id
 _symmetry_equiv_pos_as_xyz
  1  'x, y, z'
loop_
 _atom_site_type_symbol
 _atom_site_label
 _atom_site_symmetry_multiplicity
 _atom_site_fract_x
 _atom_site_fract_y
 _atom_site_fract_z
 _atom_site_occupancy
  Ca  Ca0  1  0.000000  0.000000  0.000000  1
  Sc  Sc1  1  0.666667  0.333333  0.365161  1
  Sc  Sc2  1  0.333333  0.666667  0.634839  1
  Co  Co3  1  0.666667  0.333333  0.737562  1
  Co  Co4  1  0.333333  0.666667  0.262438  1
  H  H5  1  0.164663  0.835337  0.386416  1
  H  H6  1  0.670675  0.835337  0.386416  1
  H  H7  1  0.164663  0.329325  0.386416  1
  H  H8  1  0.835337  0.164663  0.613584  1
  H  H9  1  0.329325  0.164663  0.613584  1
  H  H10  1  0.835337  0.670675  0.613584  1
  H  H11  1  0.496625  0.993247  0.857563  1
  H  H12  1  0.496625  0.503375  0.857563  1
  H  H13  1  0.006753  0.503375  0.857563  1
  H  H14  1  0.503375  0.006753  0.142437  1
  H  H15  1  0.503375  0.496625  0.142437  1
  H  H16  1  0.993247  0.496625  0.142437  1
