# generated using pymatgen
data_Tm20IrRu9Rh2
_symmetry_space_group_name_H-M   'P 1'
_cell_length_a   10.67743506
_cell_length_b   10.67726768
_cell_length_c   6.30232249
_cell_angle_alpha   89.98258541
_cell_angle_beta   90.04306606
_cell_angle_gamma   89.98470308
_symmetry_Int_Tables_number   1
_chemical_formula_structural   Tm20IrRu9Rh2
_chemical_formula_sum   'Tm20 Ir1 Ru9 Rh2'
_cell_volume   718.50125870
_cell_formula_units_Z   1
loop_
 _symmetry_equiv_pos_site_id
 _symmetry_equiv_pos_as_xyz
  1  'x, y, z'
loop_
 _atom_site_type_symbol
 _atom_site_label
 _atom_site_symmetry_multiplicity
 _atom_site_fract_x
 _atom_site_fract_y
 _atom_site_fract_z
 _atom_site_occupancy
  Tm  Tm0  1  0.292091  0.085652  0.375108  1
  Tm  Tm1  1  0.291286  0.915234  0.875451  1
  Tm  Tm2  1  0.707354  0.085618  0.875435  1
  Tm  Tm3  1  0.707111  0.915112  0.374662  1
  Tm  Tm4  1  0.584236  0.792038  0.875748  1
  Tm  Tm5  1  0.585201  0.206427  0.373805  1
  Tm  Tm6  1  0.414496  0.793028  0.375203  1
  Tm  Tm7  1  0.412512  0.207772  0.875669  1
  Tm  Tm8  1  0.208211  0.413693  0.624401  1
  Tm  Tm9  1  0.207241  0.585513  0.124837  1
  Tm  Tm10  1  0.793806  0.414790  0.126093  1
  Tm  Tm11  1  0.792503  0.585435  0.624137  1
  Tm  Tm12  1  0.915086  0.706862  0.125479  1
  Tm  Tm13  1  0.916053  0.291203  0.624833  1
  Tm  Tm14  1  0.086423  0.707303  0.624368  1
  Tm  Tm15  1  0.085625  0.291875  0.124774  1
  Tm  Tm16  1  0.001133  0.000872  0.498774  1
  Tm  Tm17  1  0.000759  0.000970  0.001205  1
  Tm  Tm18  1  0.500244  0.500357  0.002054  1
  Tm  Tm19  1  0.499502  0.500010  0.498013  1
  Ir  Ir20  1  0.346522  0.653571  0.749889  1
  Ru  Ru21  1  0.845653  0.153048  0.250217  1
  Ru  Ru22  1  0.153341  0.153252  0.749980  1
  Ru  Ru23  1  0.152784  0.845849  0.249748  1
  Ru  Ru24  1  0.653062  0.653158  0.250362  1
  Ru  Ru25  1  0.347621  0.347715  0.249642  1
  Ru  Ru26  1  0.501152  0.000095  0.124470  1
  Ru  Ru27  1  0.500641  0.000406  0.625560  1
  Ru  Ru28  1  0.999208  0.500093  0.874439  1
  Ru  Ru29  1  0.999402  0.500439  0.375495  1
  Rh  Rh30  1  0.846179  0.846147  0.750038  1
  Rh  Rh31  1  0.653559  0.346464  0.750112  1
