# generated using pymatgen
data_Pr3Nd(Zn2I)2
_symmetry_space_group_name_H-M   'P 1'
_cell_length_a   4.40880800
_cell_length_b   4.40880774
_cell_length_c   16.36987000
_cell_angle_alpha   90.00000000
_cell_angle_beta   90.00000000
_cell_angle_gamma   119.99998698
_symmetry_Int_Tables_number   1
_chemical_formula_structural   Pr3Nd(Zn2I)2
_chemical_formula_sum   'Pr3 Nd1 Zn4 I2'
_cell_volume   275.56132557
_cell_formula_units_Z   1
loop_
 _symmetry_equiv_pos_site_id
 _symmetry_equiv_pos_as_xyz
  1  'x, y, z'
loop_
 _atom_site_type_symbol
 _atom_site_label
 _atom_site_symmetry_multiplicity
 _atom_site_fract_x
 _atom_site_fract_y
 _atom_site_fract_z
 _atom_site_occupancy
  Pr  Pr0  1  0.000000  0.000000  0.387567  1
  Pr  Pr1  1  0.000000  0.000000  0.113391  1
  Pr  Pr2  1  0.000000  0.000000  0.885836  1
  Nd  Nd3  1  0.000000  0.000000  0.613137  1
  Zn  Zn4  1  0.666667  0.333333  0.505595  1
  Zn  Zn5  1  0.333333  0.666667  0.003764  1
  Zn  Zn6  1  0.666667  0.333333  0.995637  1
  Zn  Zn7  1  0.333333  0.666667  0.496065  1
  I  I8  1  0.666667  0.333333  0.250814  1
  I  I9  1  0.333333  0.666667  0.748196  1
