# generated using pymatgen
data_YbSmFe6(P3Rh2)2
_symmetry_space_group_name_H-M   'P 1'
_cell_length_a   3.78550400
_cell_length_b   10.39396800
_cell_length_c   12.22359400
_cell_angle_alpha   90.00000000
_cell_angle_beta   90.00000000
_cell_angle_gamma   90.00000000
_symmetry_Int_Tables_number   1
_chemical_formula_structural   YbSmFe6(P3Rh2)2
_chemical_formula_sum   'Yb2 Sm2 Fe12 P12 Rh8'
_cell_volume   480.95450990
_cell_formula_units_Z   2
loop_
 _symmetry_equiv_pos_site_id
 _symmetry_equiv_pos_as_xyz
  1  'x, y, z'
loop_
 _atom_site_type_symbol
 _atom_site_label
 _atom_site_symmetry_multiplicity
 _atom_site_fract_x
 _atom_site_fract_y
 _atom_site_fract_z
 _atom_site_occupancy
  Yb  Yb0  1  0.750000  0.419192  0.289351  1
  Yb  Yb1  1  0.750000  0.080808  0.789351  1
  Sm  Sm2  1  0.250000  0.581083  0.710759  1
  Sm  Sm3  1  0.250000  0.918917  0.210759  1
  Fe  Fe4  1  0.250000  0.224145  0.171184  1
  Fe  Fe5  1  0.250000  0.275855  0.671184  1
  Fe  Fe6  1  0.750000  0.776098  0.829216  1
  Fe  Fe7  1  0.750000  0.723902  0.329216  1
  Fe  Fe8  1  0.250000  0.878297  0.698147  1
  Fe  Fe9  1  0.250000  0.621703  0.198147  1
  Fe  Fe10  1  0.750000  0.122586  0.302568  1
  Fe  Fe11  1  0.750000  0.377414  0.802568  1
  Fe  Fe12  1  0.250000  0.459010  0.935775  1
  Fe  Fe13  1  0.250000  0.040990  0.435775  1
  Fe  Fe14  1  0.750000  0.539692  0.064830  1
  Fe  Fe15  1  0.750000  0.960308  0.564830  1
  P  P16  1  0.250000  0.429692  0.113117  1
  P  P17  1  0.250000  0.070308  0.613117  1
  P  P18  1  0.750000  0.569719  0.889504  1
  P  P19  1  0.750000  0.930281  0.389504  1
  P  P20  1  0.250000  0.273265  0.852678  1
  P  P21  1  0.250000  0.226735  0.352678  1
  P  P22  1  0.750000  0.723042  0.146789  1
  P  P23  1  0.750000  0.776958  0.646789  1
  P  P24  1  0.250000  0.605881  0.377922  1
  P  P25  1  0.250000  0.894119  0.877922  1
  P  P26  1  0.750000  0.390991  0.620947  1
  P  P27  1  0.750000  0.109009  0.120947  1
  Rh  Rh28  1  0.250000  0.706703  0.984598  1
  Rh  Rh29  1  0.250000  0.793297  0.484598  1
  Rh  Rh30  1  0.750000  0.293371  0.014704  1
  Rh  Rh31  1  0.750000  0.206629  0.514704  1
  Rh  Rh32  1  0.250000  0.404941  0.479065  1
  Rh  Rh33  1  0.250000  0.095059  0.979065  1
  Rh  Rh34  1  0.750000  0.594958  0.518845  1
  Rh  Rh35  1  0.750000  0.905042  0.018845  1
