# generated using pymatgen
data_Cd4Sb3WO14
_symmetry_space_group_name_H-M   'P 1'
_cell_length_a   7.38780183
_cell_length_b   7.40289204
_cell_length_c   7.40289200
_cell_angle_alpha   60.00000018
_cell_angle_beta   59.93240900
_cell_angle_gamma   59.93240566
_symmetry_Int_Tables_number   1
_chemical_formula_structural   Cd4Sb3WO14
_chemical_formula_sum   'Cd4 Sb3 W1 O14'
_cell_volume   285.99511211
_cell_formula_units_Z   1
loop_
 _symmetry_equiv_pos_site_id
 _symmetry_equiv_pos_as_xyz
  1  'x, y, z'
loop_
 _atom_site_type_symbol
 _atom_site_label
 _atom_site_symmetry_multiplicity
 _atom_site_fract_x
 _atom_site_fract_y
 _atom_site_fract_z
 _atom_site_occupancy
  Cd  Cd0  1  0.625000  0.125000  0.125000  1
  Cd  Cd1  1  0.125000  0.625000  0.125000  1
  Cd  Cd2  1  0.125000  0.125000  0.625000  1
  Cd  Cd3  1  0.125000  0.125000  0.125000  1
  Sb  Sb4  1  0.625000  0.125000  0.625000  1
  Sb  Sb5  1  0.625000  0.625000  0.125000  1
  Sb  Sb6  1  0.625000  0.625000  0.625000  1
  W  W7  1  0.125000  0.625000  0.625000  1
  O  O8  1  0.698115  0.699082  0.301401  1
  O  O9  1  0.302350  0.303194  0.697228  1
  O  O10  1  0.698115  0.301401  0.699082  1
  O  O11  1  0.302350  0.697228  0.303194  1
  O  O12  1  0.302350  0.697228  0.697228  1
  O  O13  1  0.698115  0.301401  0.301401  1
  O  O14  1  0.551885  0.550918  0.948599  1
  O  O15  1  0.947650  0.946806  0.552772  1
  O  O16  1  0.551885  0.948599  0.550918  1
  O  O17  1  0.947650  0.552772  0.946806  1
  O  O18  1  0.947650  0.552772  0.552772  1
  O  O19  1  0.551885  0.948599  0.948599  1
  O  O20  1  0.248537  0.250488  0.250488  1
  O  O21  1  0.001463  0.999512  0.999512  1
