# generated using pymatgen
data_Ho5Tm3(CuP)12
_symmetry_space_group_name_H-M   'P 1'
_cell_length_a   3.82882100
_cell_length_b   10.65785702
_cell_length_c   12.95281903
_cell_angle_alpha   89.99272983
_cell_angle_beta   90.00000000
_cell_angle_gamma   90.00000000
_symmetry_Int_Tables_number   1
_chemical_formula_structural   Ho5Tm3(CuP)12
_chemical_formula_sum   'Ho5 Tm3 Cu12 P12'
_cell_volume   528.56602860
_cell_formula_units_Z   1
loop_
 _symmetry_equiv_pos_site_id
 _symmetry_equiv_pos_as_xyz
  1  'x, y, z'
loop_
 _atom_site_type_symbol
 _atom_site_label
 _atom_site_symmetry_multiplicity
 _atom_site_fract_x
 _atom_site_fract_y
 _atom_site_fract_z
 _atom_site_occupancy
  Ho  Ho0  1  0.250000  0.931102  0.791929  1
  Ho  Ho1  1  0.750000  0.430934  0.708179  1
  Ho  Ho2  1  0.250000  0.569015  0.291771  1
  Ho  Ho3  1  0.750000  0.069039  0.208142  1
  Ho  Ho4  1  0.250000  0.840441  0.503554  1
  Tm  Tm5  1  0.750000  0.340521  0.996415  1
  Tm  Tm6  1  0.250000  0.659450  0.003578  1
  Tm  Tm7  1  0.750000  0.159603  0.496428  1
  Cu  Cu8  1  0.250000  0.405722  0.513308  1
  Cu  Cu9  1  0.750000  0.905739  0.986686  1
  Cu  Cu10  1  0.250000  0.094266  0.013320  1
  Cu  Cu11  1  0.750000  0.594168  0.486660  1
  Cu  Cu12  1  0.250000  0.271997  0.331576  1
  Cu  Cu13  1  0.750000  0.771954  0.168362  1
  Cu  Cu14  1  0.250000  0.228019  0.831601  1
  Cu  Cu15  1  0.750000  0.727967  0.668532  1
  Cu  Cu16  1  0.250000  0.859735  0.282066  1
  Cu  Cu17  1  0.750000  0.359728  0.217713  1
  Cu  Cu18  1  0.250000  0.640278  0.782291  1
  Cu  Cu19  1  0.750000  0.140325  0.717753  1
  P  P20  1  0.250000  0.243438  0.641362  1
  P  P21  1  0.750000  0.743445  0.858645  1
  P  P22  1  0.250000  0.256556  0.141332  1
  P  P23  1  0.750000  0.756214  0.358006  1
  P  P24  1  0.250000  0.604996  0.602892  1
  P  P25  1  0.750000  0.105578  0.897390  1
  P  P26  1  0.250000  0.894439  0.102627  1
  P  P27  1  0.750000  0.394450  0.397353  1
  P  P28  1  0.250000  0.056860  0.370455  1
  P  P29  1  0.750000  0.556431  0.129283  1
  P  P30  1  0.250000  0.443544  0.870691  1
  P  P31  1  0.750000  0.944048  0.630102  1
