# generated using pymatgen
data_Tb5(NiTe)2
_symmetry_space_group_name_H-M   'P 1'
_cell_length_a   7.80380748
_cell_length_b   7.80380699
_cell_length_c   14.95106000
_cell_angle_alpha   90.00000000
_cell_angle_beta   90.00000000
_cell_angle_gamma   150.14990495
_symmetry_Int_Tables_number   1
_chemical_formula_structural   Tb5(NiTe)2
_chemical_formula_sum   'Tb10 Ni4 Te4'
_cell_volume   453.19074431
_cell_formula_units_Z   2
loop_
 _symmetry_equiv_pos_site_id
 _symmetry_equiv_pos_as_xyz
  1  'x, y, z'
loop_
 _atom_site_type_symbol
 _atom_site_label
 _atom_site_symmetry_multiplicity
 _atom_site_fract_x
 _atom_site_fract_y
 _atom_site_fract_z
 _atom_site_occupancy
  Tb  Tb0  1  0.039802  0.960198  0.874671  1
  Tb  Tb1  1  0.960197  0.039803  0.125323  1
  Tb  Tb2  1  0.740858  0.259142  0.627652  1
  Tb  Tb3  1  0.960198  0.039802  0.374671  1
  Tb  Tb4  1  0.393551  0.606449  0.749998  1
  Tb  Tb5  1  0.259142  0.740858  0.372343  1
  Tb  Tb6  1  0.259142  0.740858  0.127652  1
  Tb  Tb7  1  0.740858  0.259142  0.872343  1
  Tb  Tb8  1  0.606449  0.393551  0.249998  1
  Tb  Tb9  1  0.039803  0.960197  0.625323  1
  Ni  Ni10  1  0.412888  0.587112  0.250026  1
  Ni  Ni11  1  0.187037  0.812963  0.749992  1
  Ni  Ni12  1  0.587112  0.412888  0.750026  1
  Ni  Ni13  1  0.812963  0.187037  0.249992  1
  Te  Te14  1  0.384993  0.615007  0.539897  1
  Te  Te15  1  0.615007  0.384993  0.460098  1
  Te  Te16  1  0.384993  0.615007  0.960098  1
  Te  Te17  1  0.615007  0.384993  0.039897  1
