# generated using pymatgen
data_NaCdGaF6
_symmetry_space_group_name_H-M   'P 1'
_cell_length_a   3.85335100
_cell_length_b   10.21011400
_cell_length_c   12.76097500
_cell_angle_alpha   90.00000000
_cell_angle_beta   90.00000000
_cell_angle_gamma   90.00000000
_symmetry_Int_Tables_number   1
_chemical_formula_structural   NaCdGaF6
_chemical_formula_sum   'Na4 Cd4 Ga4 F24'
_cell_volume   502.05699175
_cell_formula_units_Z   4
loop_
 _symmetry_equiv_pos_site_id
 _symmetry_equiv_pos_as_xyz
  1  'x, y, z'
loop_
 _atom_site_type_symbol
 _atom_site_label
 _atom_site_symmetry_multiplicity
 _atom_site_fract_x
 _atom_site_fract_y
 _atom_site_fract_z
 _atom_site_occupancy
  Na  Na0  1  0.250000  0.176475  0.914998  1
  Na  Na1  1  0.250000  0.323525  0.414998  1
  Na  Na2  1  0.750000  0.823525  0.085002  1
  Na  Na3  1  0.750000  0.676475  0.585002  1
  Cd  Cd4  1  0.750000  0.999935  0.382011  1
  Cd  Cd5  1  0.750000  0.500065  0.882011  1
  Cd  Cd6  1  0.250000  0.000065  0.617989  1
  Cd  Cd7  1  0.250000  0.499935  0.117989  1
  Ga  Ga8  1  0.250000  0.820168  0.835894  1
  Ga  Ga9  1  0.750000  0.179832  0.164106  1
  Ga  Ga10  1  0.250000  0.679832  0.335894  1
  Ga  Ga11  1  0.750000  0.320168  0.664106  1
  F  F12  1  0.750000  0.132358  0.643429  1
  F  F13  1  0.250000  0.095551  0.457770  1
  F  F14  1  0.750000  0.367642  0.143429  1
  F  F15  1  0.750000  0.143423  0.020490  1
  F  F16  1  0.750000  0.997779  0.202082  1
  F  F17  1  0.750000  0.288052  0.813716  1
  F  F18  1  0.250000  0.867642  0.356571  1
  F  F19  1  0.750000  0.904449  0.542230  1
  F  F20  1  0.250000  0.632358  0.856571  1
  F  F21  1  0.750000  0.811285  0.834251  1
  F  F22  1  0.750000  0.356577  0.520490  1
  F  F23  1  0.750000  0.688715  0.334251  1
  F  F24  1  0.250000  0.188715  0.165749  1
  F  F25  1  0.250000  0.788052  0.686284  1
  F  F26  1  0.250000  0.643423  0.479510  1
  F  F27  1  0.750000  0.595551  0.042230  1
  F  F28  1  0.250000  0.404449  0.957770  1
  F  F29  1  0.250000  0.002221  0.797918  1
  F  F30  1  0.250000  0.711948  0.186284  1
  F  F31  1  0.750000  0.502221  0.702082  1
  F  F32  1  0.250000  0.311285  0.665749  1
  F  F33  1  0.250000  0.497779  0.297918  1
  F  F34  1  0.250000  0.856577  0.979510  1
  F  F35  1  0.750000  0.211948  0.313716  1
