# generated using pymatgen
data_Hf6Al(Ga3Cu8)2
_symmetry_space_group_name_H-M   'P 1'
_cell_length_a   8.39719099
_cell_length_b   8.39719036
_cell_length_c   8.39719300
_cell_angle_alpha   60.00000143
_cell_angle_beta   60.00000389
_cell_angle_gamma   59.99999559
_symmetry_Int_Tables_number   1
_chemical_formula_structural   Hf6Al(Ga3Cu8)2
_chemical_formula_sum   'Hf6 Al1 Ga6 Cu16'
_cell_volume   418.68477631
_cell_formula_units_Z   1
loop_
 _symmetry_equiv_pos_site_id
 _symmetry_equiv_pos_as_xyz
  1  'x, y, z'
loop_
 _atom_site_type_symbol
 _atom_site_label
 _atom_site_symmetry_multiplicity
 _atom_site_fract_x
 _atom_site_fract_y
 _atom_site_fract_z
 _atom_site_occupancy
  Hf  Hf0  1  0.703804  0.703804  0.296196  1
  Hf  Hf1  1  0.296196  0.703804  0.296196  1
  Hf  Hf2  1  0.703804  0.296196  0.296196  1
  Hf  Hf3  1  0.296196  0.296196  0.703804  1
  Hf  Hf4  1  0.703804  0.296196  0.703804  1
  Hf  Hf5  1  0.296196  0.703804  0.703804  1
  Al  Al6  1  0.000000  0.000000  0.000000  1
  Ga  Ga7  1  0.000000  0.000000  0.500000  1
  Ga  Ga8  1  0.500000  0.000000  0.500000  1
  Ga  Ga9  1  0.000000  0.500000  0.500000  1
  Ga  Ga10  1  0.500000  0.500000  0.000000  1
  Ga  Ga11  1  0.000000  0.500000  0.000000  1
  Ga  Ga12  1  0.500000  0.000000  0.000000  1
  Cu  Cu13  1  0.881266  0.881266  0.356201  1
  Cu  Cu14  1  0.881266  0.356201  0.881266  1
  Cu  Cu15  1  0.356201  0.881266  0.881266  1
  Cu  Cu16  1  0.881266  0.881266  0.881266  1
  Cu  Cu17  1  0.118734  0.118734  0.643799  1
  Cu  Cu18  1  0.118734  0.643799  0.118734  1
  Cu  Cu19  1  0.643799  0.118734  0.118734  1
  Cu  Cu20  1  0.118734  0.118734  0.118734  1
  Cu  Cu21  1  0.668959  0.668959  0.993121  1
  Cu  Cu22  1  0.668959  0.993121  0.668959  1
  Cu  Cu23  1  0.993121  0.668959  0.668959  1
  Cu  Cu24  1  0.668959  0.668959  0.668959  1
  Cu  Cu25  1  0.331041  0.331041  0.006879  1
  Cu  Cu26  1  0.331041  0.006879  0.331041  1
  Cu  Cu27  1  0.006879  0.331041  0.331041  1
  Cu  Cu28  1  0.331041  0.331041  0.331041  1
