# generated using pymatgen
data_Tm3U(Si3Rh)2
_symmetry_space_group_name_H-M   'P 1'
_cell_length_a   8.16229700
_cell_length_b   8.16229714
_cell_length_c   7.75350200
_cell_angle_alpha   90.00000000
_cell_angle_beta   90.00000000
_cell_angle_gamma   119.99999540
_symmetry_Int_Tables_number   1
_chemical_formula_structural   Tm3U(Si3Rh)2
_chemical_formula_sum   'Tm6 U2 Si12 Rh4'
_cell_volume   447.35608485
_cell_formula_units_Z   2
loop_
 _symmetry_equiv_pos_site_id
 _symmetry_equiv_pos_as_xyz
  1  'x, y, z'
loop_
 _atom_site_type_symbol
 _atom_site_label
 _atom_site_symmetry_multiplicity
 _atom_site_fract_x
 _atom_site_fract_y
 _atom_site_fract_z
 _atom_site_occupancy
  Tm  Tm0  1  0.982161  0.491081  0.250000  1
  Tm  Tm1  1  0.508919  0.491081  0.250000  1
  Tm  Tm2  1  0.491081  0.982161  0.750000  1
  Tm  Tm3  1  0.017839  0.508919  0.750000  1
  Tm  Tm4  1  0.491081  0.508919  0.750000  1
  Tm  Tm5  1  0.508919  0.017839  0.250000  1
  U  U6  1  0.000000  0.000000  0.750000  1
  U  U7  1  0.000000  0.000000  0.250000  1
  Si  Si8  1  0.166304  0.833696  0.497786  1
  Si  Si9  1  0.166304  0.332606  0.497786  1
  Si  Si10  1  0.667394  0.833696  0.497786  1
  Si  Si11  1  0.332606  0.166304  0.997786  1
  Si  Si12  1  0.833696  0.667394  0.502214  1
  Si  Si13  1  0.833696  0.166304  0.997786  1
  Si  Si14  1  0.833696  0.667394  0.997786  1
  Si  Si15  1  0.166304  0.332606  0.002214  1
  Si  Si16  1  0.667394  0.833696  0.002214  1
  Si  Si17  1  0.332606  0.166304  0.502214  1
  Si  Si18  1  0.833696  0.166304  0.502214  1
  Si  Si19  1  0.166304  0.833696  0.002214  1
  Rh  Rh20  1  0.333333  0.666667  0.028356  1
  Rh  Rh21  1  0.666667  0.333333  0.971644  1
  Rh  Rh22  1  0.666667  0.333333  0.528356  1
  Rh  Rh23  1  0.333333  0.666667  0.471644  1
