# generated using pymatgen
data_Lu6Co(Si2Tc)3
_symmetry_space_group_name_H-M   'P 1'
_cell_length_a   5.63389881
_cell_length_b   5.63389966
_cell_length_c   13.59989874
_cell_angle_alpha   89.64946469
_cell_angle_beta   90.35053388
_cell_angle_gamma   137.21902342
_symmetry_Int_Tables_number   1
_chemical_formula_structural   Lu6Co(Si2Tc)3
_chemical_formula_sum   'Lu6 Co1 Si6 Tc3'
_cell_volume   293.18424396
_cell_formula_units_Z   1
loop_
 _symmetry_equiv_pos_site_id
 _symmetry_equiv_pos_as_xyz
  1  'x, y, z'
loop_
 _atom_site_type_symbol
 _atom_site_label
 _atom_site_symmetry_multiplicity
 _atom_site_fract_x
 _atom_site_fract_y
 _atom_site_fract_z
 _atom_site_occupancy
  Lu  Lu0  1  0.640650  0.359350  0.249350  1
  Lu  Lu1  1  0.359817  0.640183  0.750340  1
  Lu  Lu2  1  0.920828  0.079172  0.111129  1
  Lu  Lu3  1  0.073793  0.926207  0.885206  1
  Lu  Lu4  1  0.078331  0.921669  0.616634  1
  Lu  Lu5  1  0.925168  0.074832  0.385396  1
  Co  Co6  1  0.784242  0.215758  0.920196  1
  Si  Si7  1  0.329504  0.670496  0.248716  1
  Si  Si8  1  0.670835  0.329165  0.756112  1
  Si  Si9  1  0.615171  0.384829  0.035399  1
  Si  Si10  1  0.380229  0.619771  0.956455  1
  Si  Si11  1  0.389687  0.610313  0.539567  1
  Si  Si12  1  0.614004  0.385996  0.461799  1
  Tc  Tc13  1  0.786038  0.213962  0.587165  1
  Tc  Tc14  1  0.217407  0.782593  0.417339  1
  Tc  Tc15  1  0.214295  0.785705  0.079197  1
