# generated using pymatgen
data_LuMn8NbP4
_symmetry_space_group_name_H-M   'P 1'
_cell_length_a   3.67720400
_cell_length_b   6.84896913
_cell_length_c   6.84896913
_cell_angle_alpha   90.32256147
_cell_angle_beta   90.00000000
_cell_angle_gamma   90.00000000
_symmetry_Int_Tables_number   1
_chemical_formula_structural   LuMn8NbP4
_chemical_formula_sum   'Lu1 Mn8 Nb1 P4'
_cell_volume   172.48894246
_cell_formula_units_Z   1
loop_
 _symmetry_equiv_pos_site_id
 _symmetry_equiv_pos_as_xyz
  1  'x, y, z'
loop_
 _atom_site_type_symbol
 _atom_site_label
 _atom_site_symmetry_multiplicity
 _atom_site_fract_x
 _atom_site_fract_y
 _atom_site_fract_z
 _atom_site_occupancy
  Lu  Lu0  1  0.500000  0.000000  0.000000  1
  Mn  Mn1  1  0.500000  0.156149  0.581540  1
  Mn  Mn2  1  0.500000  0.843851  0.418460  1
  Mn  Mn3  1  0.000000  0.347203  0.087758  1
  Mn  Mn4  1  0.000000  0.652797  0.912242  1
  Mn  Mn5  1  0.500000  0.581540  0.156149  1
  Mn  Mn6  1  0.500000  0.418460  0.843851  1
  Mn  Mn7  1  0.000000  0.087758  0.347203  1
  Mn  Mn8  1  0.000000  0.912242  0.652797  1
  Nb  Nb9  1  0.000000  0.500000  0.500000  1
  P  P10  1  0.500000  0.710507  0.710507  1
  P  P11  1  0.500000  0.289493  0.289493  1
  P  P12  1  0.000000  0.779801  0.220199  1
  P  P13  1  0.000000  0.220199  0.779801  1
