# generated using pymatgen
data_Y3HoAl18(IrPt)3
_symmetry_space_group_name_H-M   'P 1'
_cell_length_a   7.59271130
_cell_length_b   7.59418772
_cell_length_c   9.44604104
_cell_angle_alpha   89.98029586
_cell_angle_beta   89.98163593
_cell_angle_gamma   119.64626597
_symmetry_Int_Tables_number   1
_chemical_formula_structural   Y3HoAl18(IrPt)3
_chemical_formula_sum   'Y3 Ho1 Al18 Ir3 Pt3'
_cell_volume   473.36440208
_cell_formula_units_Z   1
loop_
 _symmetry_equiv_pos_site_id
 _symmetry_equiv_pos_as_xyz
  1  'x, y, z'
loop_
 _atom_site_type_symbol
 _atom_site_label
 _atom_site_symmetry_multiplicity
 _atom_site_fract_x
 _atom_site_fract_y
 _atom_site_fract_z
 _atom_site_occupancy
  Y  Y0  1  0.995789  0.670236  0.250425  1
  Y  Y1  1  0.005036  0.330361  0.749647  1
  Y  Y2  1  0.669582  0.994962  0.250358  1
  Ho  Ho3  1  0.329599  0.004212  0.749514  1
  Al  Al4  1  0.126362  0.127084  0.250449  1
  Al  Al5  1  0.873234  0.873709  0.749553  1
  Al  Al6  1  0.000265  0.331387  0.076215  1
  Al  Al7  1  0.999579  0.669310  0.922907  1
  Al  Al8  1  0.996951  0.665263  0.575336  1
  Al  Al9  1  0.335012  0.003335  0.425261  1
  Al  Al10  1  0.996642  0.331005  0.425005  1
  Al  Al11  1  0.668672  0.003343  0.575305  1
  Al  Al12  1  0.668306  0.999755  0.923474  1
  Al  Al13  1  0.331005  0.000745  0.076484  1
  Al  Al14  1  0.332908  0.329269  0.553861  1
  Al  Al15  1  0.670499  0.667103  0.446495  1
  Al  Al16  1  0.669453  0.669545  0.056797  1
  Al  Al17  1  0.330500  0.330308  0.942827  1
  Al  Al18  1  0.339706  0.545144  0.250512  1
  Al  Al19  1  0.659224  0.452087  0.747411  1
  Al  Al20  1  0.547476  0.340319  0.252613  1
  Al  Al21  1  0.454828  0.660602  0.749490  1
  Ir  Ir22  1  0.671643  0.328065  0.500137  1
  Ir  Ir23  1  0.000004  0.000245  0.999827  1
  Ir  Ir24  1  0.000523  0.999753  0.500188  1
  Pt  Pt25  1  0.671874  0.327944  0.999906  1
  Pt  Pt26  1  0.327578  0.672529  0.999895  1
  Pt  Pt27  1  0.327751  0.672378  0.500107  1
