# generated using pymatgen
data_Y7Er(Ta3Si4)4
_symmetry_space_group_name_H-M   'P 1'
_cell_length_a   7.04826009
_cell_length_b   7.04794526
_cell_length_c   13.01104225
_cell_angle_alpha   90.01875287
_cell_angle_beta   89.99895034
_cell_angle_gamma   90.00630647
_symmetry_Int_Tables_number   1
_chemical_formula_structural   Y7Er(Ta3Si4)4
_chemical_formula_sum   'Y7 Er1 Ta12 Si16'
_cell_volume   646.33326048
_cell_formula_units_Z   1
loop_
 _symmetry_equiv_pos_site_id
 _symmetry_equiv_pos_as_xyz
  1  'x, y, z'
loop_
 _atom_site_type_symbol
 _atom_site_label
 _atom_site_symmetry_multiplicity
 _atom_site_fract_x
 _atom_site_fract_y
 _atom_site_fract_z
 _atom_site_occupancy
  Y  Y0  1  0.341679  0.002785  0.468010  1
  Y  Y1  1  0.497170  0.841776  0.718124  1
  Y  Y2  1  0.503011  0.158147  0.217807  1
  Y  Y3  1  0.841741  0.497069  0.281867  1
  Y  Y4  1  0.158154  0.503059  0.782067  1
  Y  Y5  1  0.658519  0.997081  0.968281  1
  Y  Y6  1  0.002816  0.341637  0.531883  1
  Er  Er7  1  0.997815  0.658033  0.031810  1
  Ta  Ta8  1  0.328291  0.328815  0.000080  1
  Ta  Ta9  1  0.171471  0.827996  0.249741  1
  Ta  Ta10  1  0.828357  0.171683  0.750202  1
  Ta  Ta11  1  0.671468  0.671468  0.499967  1
  Ta  Ta12  1  0.152744  0.007753  0.874595  1
  Ta  Ta13  1  0.492465  0.653081  0.123851  1
  Ta  Ta14  1  0.507530  0.346826  0.624068  1
  Ta  Ta15  1  0.653342  0.493065  0.876380  1
  Ta  Ta16  1  0.346794  0.507529  0.375822  1
  Ta  Ta17  1  0.846830  0.992138  0.374022  1
  Ta  Ta18  1  0.007532  0.152904  0.125597  1
  Ta  Ta19  1  0.992245  0.846803  0.625822  1
  Si  Si20  1  0.203281  0.133805  0.682312  1
  Si  Si21  1  0.365253  0.703456  0.932331  1
  Si  Si22  1  0.633801  0.296434  0.432108  1
  Si  Si23  1  0.704412  0.366854  0.068020  1
  Si  Si24  1  0.296520  0.633830  0.567841  1
  Si  Si25  1  0.797349  0.865206  0.181468  1
  Si  Si26  1  0.133793  0.203298  0.317692  1
  Si  Si27  1  0.866336  0.796469  0.818330  1
  Si  Si28  1  0.293469  0.953819  0.064064  1
  Si  Si29  1  0.545583  0.793861  0.313918  1
  Si  Si30  1  0.454646  0.206159  0.814274  1
  Si  Si31  1  0.793958  0.545464  0.686052  1
  Si  Si32  1  0.205286  0.455001  0.185450  1
  Si  Si33  1  0.706134  0.045636  0.564094  1
  Si  Si34  1  0.954590  0.295022  0.936155  1
  Si  Si35  1  0.045618  0.706042  0.435893  1
