# generated using pymatgen
data_Lu8MoOs3C8
_symmetry_space_group_name_H-M   'P 1'
_cell_length_a   4.97461700
_cell_length_b   6.44620715
_cell_length_c   9.64854744
_cell_angle_alpha   89.58129713
_cell_angle_beta   90.00000000
_cell_angle_gamma   90.00000000
_symmetry_Int_Tables_number   1
_chemical_formula_structural   Lu8MoOs3C8
_chemical_formula_sum   'Lu8 Mo1 Os3 C8'
_cell_volume   309.39568127
_cell_formula_units_Z   1
loop_
 _symmetry_equiv_pos_site_id
 _symmetry_equiv_pos_as_xyz
  1  'x, y, z'
loop_
 _atom_site_type_symbol
 _atom_site_label
 _atom_site_symmetry_multiplicity
 _atom_site_fract_x
 _atom_site_fract_y
 _atom_site_fract_z
 _atom_site_occupancy
  Lu  Lu0  1  0.250000  0.676007  0.556882  1
  Lu  Lu1  1  0.750000  0.325364  0.443348  1
  Lu  Lu2  1  0.750000  0.826691  0.057359  1
  Lu  Lu3  1  0.250000  0.176623  0.941640  1
  Lu  Lu4  1  0.250000  0.534106  0.215879  1
  Lu  Lu5  1  0.750000  0.465269  0.779240  1
  Lu  Lu6  1  0.750000  0.968280  0.716341  1
  Lu  Lu7  1  0.250000  0.032204  0.284055  1
  Mo  Mo8  1  0.250000  0.715827  0.871547  1
  Os  Os9  1  0.750000  0.283770  0.131847  1
  Os  Os10  1  0.750000  0.781791  0.367155  1
  Os  Os11  1  0.250000  0.218437  0.629078  1
  C  C12  1  0.250000  0.447521  0.759414  1
  C  C13  1  0.750000  0.547312  0.242191  1
  C  C14  1  0.750000  0.048846  0.259500  1
  C  C15  1  0.250000  0.952310  0.739513  1
  C  C16  1  0.250000  0.829047  0.061433  1
  C  C17  1  0.750000  0.172226  0.945495  1
  C  C18  1  0.750000  0.670688  0.555888  1
  C  C19  1  0.250000  0.327680  0.442195  1
