# generated using pymatgen
data_Dy10Ho2In2Fe2Os
_symmetry_space_group_name_H-M   'P 1'
_cell_length_a   8.37236801
_cell_length_b   8.37236775
_cell_length_c   8.37753324
_cell_angle_alpha   108.76028739
_cell_angle_beta   108.76029062
_cell_angle_gamma   110.87830232
_symmetry_Int_Tables_number   1
_chemical_formula_structural   Dy10Ho2In2Fe2Os
_chemical_formula_sum   'Dy10 Ho2 In2 Fe2 Os1'
_cell_volume   451.98165657
_cell_formula_units_Z   1
loop_
 _symmetry_equiv_pos_site_id
 _symmetry_equiv_pos_as_xyz
  1  'x, y, z'
loop_
 _atom_site_type_symbol
 _atom_site_label
 _atom_site_symmetry_multiplicity
 _atom_site_fract_x
 _atom_site_fract_y
 _atom_site_fract_z
 _atom_site_occupancy
  Dy  Dy0  1  0.430602  0.192203  0.237653  1
  Dy  Dy1  1  0.569398  0.807797  0.762347  1
  Dy  Dy2  1  0.954549  0.192949  0.762347  1
  Dy  Dy3  1  0.192949  0.954549  0.762347  1
  Dy  Dy4  1  0.045451  0.807051  0.237653  1
  Dy  Dy5  1  0.807051  0.045451  0.237653  1
  Dy  Dy6  1  0.192203  0.430602  0.237653  1
  Dy  Dy7  1  0.807797  0.569398  0.762347  1
  Dy  Dy8  1  0.307543  0.307543  0.615086  1
  Dy  Dy9  1  0.692457  0.692457  0.384914  1
  Ho  Ho10  1  0.307787  0.692213  0.000000  1
  Ho  Ho11  1  0.692213  0.307787  0.000000  1
  In  In12  1  0.500000  0.000000  0.500000  1
  In  In13  1  0.000000  0.500000  0.500000  1
  Fe  Fe14  1  0.387751  0.387751  0.000000  1
  Fe  Fe15  1  0.612249  0.612249  0.000000  1
  Os  Os16  1  0.000000  0.000000  0.000000  1
