# generated using pymatgen
data_Ho4ErBiAu2
_symmetry_space_group_name_H-M   'P 1'
_cell_length_a   8.68609441
_cell_length_b   8.68609464
_cell_length_c   8.68609406
_cell_angle_alpha   124.23358583
_cell_angle_beta   124.23359320
_cell_angle_gamma   82.81137518
_symmetry_Int_Tables_number   1
_chemical_formula_structural   Ho4ErBiAu2
_chemical_formula_sum   'Ho8 Er2 Bi2 Au4'
_cell_volume   430.03280334
_cell_formula_units_Z   2
loop_
 _symmetry_equiv_pos_site_id
 _symmetry_equiv_pos_as_xyz
  1  'x, y, z'
loop_
 _atom_site_type_symbol
 _atom_site_label
 _atom_site_symmetry_multiplicity
 _atom_site_fract_x
 _atom_site_fract_y
 _atom_site_fract_z
 _atom_site_occupancy
  Ho  Ho0  1  0.514168  0.014168  0.809185  1
  Ho  Ho1  1  0.204982  0.704982  0.190815  1
  Ho  Ho2  1  0.014168  0.204982  0.500000  1
  Ho  Ho3  1  0.704982  0.514168  0.500000  1
  Ho  Ho4  1  0.485832  0.985832  0.190815  1
  Ho  Ho5  1  0.795018  0.295018  0.809185  1
  Ho  Ho6  1  0.985832  0.795018  0.500000  1
  Ho  Ho7  1  0.295018  0.485832  0.500000  1
  Er  Er8  1  0.500000  0.500000  0.000000  1
  Er  Er9  1  0.000000  0.000000  0.000000  1
  Bi  Bi10  1  0.250000  0.250000  0.000000  1
  Bi  Bi11  1  0.750000  0.750000  0.000000  1
  Au  Au12  1  0.138714  0.638714  0.777428  1
  Au  Au13  1  0.861286  0.361286  0.222572  1
  Au  Au14  1  0.638714  0.861286  0.500000  1
  Au  Au15  1  0.361286  0.138714  0.500000  1
