# generated using pymatgen
data_Yb(AuCl4)2
_symmetry_space_group_name_H-M   'P 1'
_cell_length_a   7.36065900
_cell_length_b   7.46319661
_cell_length_c   11.96521177
_cell_angle_alpha   94.26166774
_cell_angle_beta   90.00000000
_cell_angle_gamma   90.00000000
_symmetry_Int_Tables_number   1
_chemical_formula_structural   Yb(AuCl4)2
_chemical_formula_sum   'Yb2 Au4 Cl16'
_cell_volume   655.48010608
_cell_formula_units_Z   2
loop_
 _symmetry_equiv_pos_site_id
 _symmetry_equiv_pos_as_xyz
  1  'x, y, z'
loop_
 _atom_site_type_symbol
 _atom_site_label
 _atom_site_symmetry_multiplicity
 _atom_site_fract_x
 _atom_site_fract_y
 _atom_site_fract_z
 _atom_site_occupancy
  Yb  Yb0  1  0.182073  0.500000  0.250000  1
  Yb  Yb1  1  0.817927  0.500000  0.750000  1
  Au  Au2  1  0.236154  0.719966  0.624360  1
  Au  Au3  1  0.763846  0.719966  0.124360  1
  Au  Au4  1  0.763846  0.280034  0.375640  1
  Au  Au5  1  0.236154  0.280034  0.875640  1
  Cl  Cl6  1  0.539661  0.748791  0.677762  1
  Cl  Cl7  1  0.324269  0.725598  0.437067  1
  Cl  Cl8  1  0.860424  0.276622  0.190193  1
  Cl  Cl9  1  0.139576  0.723378  0.809807  1
  Cl  Cl10  1  0.460339  0.251209  0.322238  1
  Cl  Cl11  1  0.324269  0.274402  0.062933  1
  Cl  Cl12  1  0.675731  0.274402  0.562933  1
  Cl  Cl13  1  0.460339  0.748791  0.177762  1
  Cl  Cl14  1  0.139576  0.276622  0.690193  1
  Cl  Cl15  1  0.539661  0.251209  0.822238  1
  Cl  Cl16  1  0.860424  0.723378  0.309807  1
  Cl  Cl17  1  0.068713  0.714005  0.077280  1
  Cl  Cl18  1  0.675731  0.725598  0.937067  1
  Cl  Cl19  1  0.931287  0.285995  0.922720  1
  Cl  Cl20  1  0.068713  0.285995  0.422720  1
  Cl  Cl21  1  0.931287  0.714005  0.577280  1
