# generated using pymatgen
data_Dy6TcIr
_symmetry_space_group_name_H-M   'P 1'
_cell_length_a   6.33038000
_cell_length_b   7.34995100
_cell_length_c   9.20370900
_cell_angle_alpha   90.00000000
_cell_angle_beta   90.00000000
_cell_angle_gamma   90.00000000
_symmetry_Int_Tables_number   1
_chemical_formula_structural   Dy6TcIr
_chemical_formula_sum   'Dy12 Tc2 Ir2'
_cell_volume   428.23001415
_cell_formula_units_Z   2
loop_
 _symmetry_equiv_pos_site_id
 _symmetry_equiv_pos_as_xyz
  1  'x, y, z'
loop_
 _atom_site_type_symbol
 _atom_site_label
 _atom_site_symmetry_multiplicity
 _atom_site_fract_x
 _atom_site_fract_y
 _atom_site_fract_z
 _atom_site_occupancy
  Dy  Dy0  1  0.328660  0.676258  0.065976  1
  Dy  Dy1  1  0.171340  0.176258  0.434024  1
  Dy  Dy2  1  0.667986  0.324047  0.561078  1
  Dy  Dy3  1  0.832014  0.824047  0.938922  1
  Dy  Dy4  1  0.667986  0.324047  0.938922  1
  Dy  Dy5  1  0.832014  0.824047  0.561078  1
  Dy  Dy6  1  0.328660  0.676258  0.434024  1
  Dy  Dy7  1  0.171340  0.176258  0.065976  1
  Dy  Dy8  1  0.871244  0.538080  0.250000  1
  Dy  Dy9  1  0.628756  0.038080  0.250000  1
  Dy  Dy10  1  0.133555  0.460408  0.750000  1
  Dy  Dy11  1  0.366445  0.960408  0.750000  1
  Tc  Tc12  1  0.037219  0.885696  0.250000  1
  Tc  Tc13  1  0.462781  0.385696  0.250000  1
  Ir  Ir14  1  0.954005  0.115205  0.750000  1
  Ir  Ir15  1  0.545995  0.615205  0.750000  1
