# generated using pymatgen
data_Ca3ScCoC6
_symmetry_space_group_name_H-M   'P 1'
_cell_length_a   8.33343400
_cell_length_b   8.33343166
_cell_length_c   5.25321300
_cell_angle_alpha   90.00000000
_cell_angle_beta   90.00000000
_cell_angle_gamma   119.99999340
_symmetry_Int_Tables_number   1
_chemical_formula_structural   Ca3ScCoC6
_chemical_formula_sum   'Ca6 Sc2 Co2 C12'
_cell_volume   315.93922571
_cell_formula_units_Z   2
loop_
 _symmetry_equiv_pos_site_id
 _symmetry_equiv_pos_as_xyz
  1  'x, y, z'
loop_
 _atom_site_type_symbol
 _atom_site_label
 _atom_site_symmetry_multiplicity
 _atom_site_fract_x
 _atom_site_fract_y
 _atom_site_fract_z
 _atom_site_occupancy
  Ca  Ca0  1  0.602320  0.672461  0.750000  1
  Ca  Ca1  1  0.929859  0.602320  0.250000  1
  Ca  Ca2  1  0.672461  0.070141  0.250000  1
  Ca  Ca3  1  0.327539  0.929859  0.750000  1
  Ca  Ca4  1  0.070141  0.397680  0.750000  1
  Ca  Ca5  1  0.397680  0.327539  0.250000  1
  Sc  Sc6  1  0.000000  0.000000  0.500000  1
  Sc  Sc7  1  0.000000  0.000000  0.000000  1
  Co  Co8  1  0.666667  0.333333  0.750000  1
  Co  Co9  1  0.333333  0.666667  0.250000  1
  C  C10  1  0.959806  0.750242  0.750000  1
  C  C11  1  0.209563  0.959806  0.250000  1
  C  C12  1  0.750242  0.790437  0.250000  1
  C  C13  1  0.249758  0.209563  0.750000  1
  C  C14  1  0.790437  0.040194  0.750000  1
  C  C15  1  0.040194  0.249758  0.250000  1
  C  C16  1  0.853971  0.568518  0.750000  1
  C  C17  1  0.285453  0.853971  0.250000  1
  C  C18  1  0.568518  0.714547  0.250000  1
  C  C19  1  0.431482  0.285453  0.750000  1
  C  C20  1  0.146029  0.431482  0.250000  1
  C  C21  1  0.714547  0.146029  0.750000  1
