# generated using pymatgen
data_Er4Pa2FeCo16MoP12
_symmetry_space_group_name_H-M   'P 1'
_cell_length_a   3.70667700
_cell_length_b   10.51177400
_cell_length_c   12.10572000
_cell_angle_alpha   90.00000000
_cell_angle_beta   90.00000000
_cell_angle_gamma   90.00000000
_symmetry_Int_Tables_number   1
_chemical_formula_structural   Er4Pa2FeCo16MoP12
_chemical_formula_sum   'Er4 Pa2 Fe1 Co16 Mo1 P12'
_cell_volume   471.68425873
_cell_formula_units_Z   1
loop_
 _symmetry_equiv_pos_site_id
 _symmetry_equiv_pos_as_xyz
  1  'x, y, z'
loop_
 _atom_site_type_symbol
 _atom_site_label
 _atom_site_symmetry_multiplicity
 _atom_site_fract_x
 _atom_site_fract_y
 _atom_site_fract_z
 _atom_site_occupancy
  Er  Er0  1  0.250000  0.933242  0.795142  1
  Er  Er1  1  0.250000  0.566758  0.795142  1
  Er  Er2  1  0.750000  0.066185  0.203889  1
  Er  Er3  1  0.750000  0.433815  0.203889  1
  Pa  Pa4  1  0.750000  0.250000  0.469781  1
  Pa  Pa5  1  0.250000  0.750000  0.528482  1
  Fe  Fe6  1  0.750000  0.750000  0.155922  1
  Co  Co7  1  0.250000  0.250000  0.303747  1
  Co  Co8  1  0.750000  0.750000  0.696653  1
  Co  Co9  1  0.750000  0.250000  0.015824  1
  Co  Co10  1  0.250000  0.750000  0.985024  1
  Co  Co11  1  0.250000  0.418069  0.009285  1
  Co  Co12  1  0.250000  0.081931  0.009285  1
  Co  Co13  1  0.750000  0.583922  0.993067  1
  Co  Co14  1  0.750000  0.916078  0.993067  1
  Co  Co15  1  0.250000  0.449680  0.567952  1
  Co  Co16  1  0.250000  0.050320  0.567952  1
  Co  Co17  1  0.750000  0.550497  0.432645  1
  Co  Co18  1  0.750000  0.949503  0.432645  1
  Co  Co19  1  0.250000  0.870955  0.289979  1
  Co  Co20  1  0.250000  0.629045  0.289979  1
  Co  Co21  1  0.750000  0.129256  0.708748  1
  Co  Co22  1  0.750000  0.370744  0.708748  1
  Mo  Mo23  1  0.250000  0.250000  0.845869  1
  P  P24  1  0.250000  0.250000  0.122243  1
  P  P25  1  0.750000  0.750000  0.878699  1
  P  P26  1  0.250000  0.250000  0.651398  1
  P  P27  1  0.750000  0.750000  0.342117  1
  P  P28  1  0.250000  0.442833  0.381642  1
  P  P29  1  0.250000  0.057167  0.381642  1
  P  P30  1  0.750000  0.557912  0.617869  1
  P  P31  1  0.750000  0.942088  0.617869  1
  P  P32  1  0.250000  0.902133  0.107205  1
  P  P33  1  0.250000  0.597867  0.107205  1
  P  P34  1  0.750000  0.092451  0.894698  1
  P  P35  1  0.750000  0.407549  0.894698  1
