# generated using pymatgen
data_SrLaNd5OsBr12
_symmetry_space_group_name_H-M   'P 1'
_cell_length_a   9.70697125
_cell_length_b   9.57579627
_cell_length_c   9.59459458
_cell_angle_alpha   106.07205203
_cell_angle_beta   105.99935383
_cell_angle_gamma   106.65465037
_symmetry_Int_Tables_number   1
_chemical_formula_structural   SrLaNd5OsBr12
_chemical_formula_sum   'Sr1 La1 Nd5 Os1 Br12'
_cell_volume   757.53966416
_cell_formula_units_Z   1
loop_
 _symmetry_equiv_pos_site_id
 _symmetry_equiv_pos_as_xyz
  1  'x, y, z'
loop_
 _atom_site_type_symbol
 _atom_site_label
 _atom_site_symmetry_multiplicity
 _atom_site_fract_x
 _atom_site_fract_y
 _atom_site_fract_z
 _atom_site_occupancy
  Sr  Sr0  1  0.500362  0.499547  0.501174  1
  La  La1  1  0.102613  0.309612  0.018811  1
  Nd  Nd2  1  0.317301  0.021143  0.105830  1
  Nd  Nd3  1  0.019022  0.101400  0.306525  1
  Nd  Nd4  1  0.980642  0.897037  0.692437  1
  Nd  Nd5  1  0.682844  0.980101  0.894243  1
  Nd  Nd6  1  0.897685  0.694423  0.980426  1
  Os  Os7  1  0.000970  0.003554  0.999418  1
  Br  Br8  1  0.216361  0.681862  0.071276  1
  Br  Br9  1  0.452653  0.366148  0.153446  1
  Br  Br10  1  0.681063  0.071058  0.217297  1
  Br  Br11  1  0.928403  0.780725  0.317956  1
  Br  Br12  1  0.153572  0.449140  0.371418  1
  Br  Br13  1  0.363655  0.148440  0.446884  1
  Br  Br14  1  0.636062  0.850140  0.552957  1
  Br  Br15  1  0.847790  0.550877  0.634963  1
  Br  Br16  1  0.069790  0.214225  0.674407  1
  Br  Br17  1  0.318723  0.927768  0.782595  1
  Br  Br18  1  0.553085  0.633970  0.850549  1
  Br  Br19  1  0.777403  0.318829  0.927388  1
