# generated using pymatgen
data_Nd5Lu(CI5)2
_symmetry_space_group_name_H-M   'P 1'
_cell_length_a   7.86360353
_cell_length_b   9.68520327
_cell_length_c   9.76968892
_cell_angle_alpha   107.11116855
_cell_angle_beta   96.18821674
_cell_angle_gamma   104.36905315
_symmetry_Int_Tables_number   1
_chemical_formula_structural   Nd5Lu(CI5)2
_chemical_formula_sum   'Nd5 Lu1 C2 I10'
_cell_volume   675.61890964
_cell_formula_units_Z   1
loop_
 _symmetry_equiv_pos_site_id
 _symmetry_equiv_pos_as_xyz
  1  'x, y, z'
loop_
 _atom_site_type_symbol
 _atom_site_label
 _atom_site_symmetry_multiplicity
 _atom_site_fract_x
 _atom_site_fract_y
 _atom_site_fract_z
 _atom_site_occupancy
  Nd  Nd0  1  0.104821  0.038351  0.775212  1
  Nd  Nd1  1  0.372689  0.132227  0.177790  1
  Nd  Nd2  1  0.891098  0.959886  0.223387  1
  Nd  Nd3  1  0.029096  0.734831  0.922171  1
  Nd  Nd4  1  0.968518  0.265270  0.077018  1
  Lu  Lu5  1  0.636040  0.870865  0.826753  1
  C  C6  1  0.906904  0.969354  0.958296  1
  C  C7  1  0.083848  0.028409  0.038946  1
  I  I8  1  0.213771  0.739255  0.651622  1
  I  I9  1  0.088087  0.369358  0.818208  1
  I  I10  1  0.460175  0.807488  0.081319  1
  I  I11  1  0.253119  0.083200  0.461029  1
  I  I12  1  0.545983  0.178619  0.900083  1
  I  I13  1  0.807597  0.267198  0.358595  1
  I  I14  1  0.346884  0.457562  0.272259  1
  I  I15  1  0.911299  0.630185  0.180753  1
  I  I16  1  0.646453  0.556264  0.727656  1
  I  I17  1  0.733618  0.911678  0.548901  1
