# generated using pymatgen
data_Tb3Pr17Si15Au
_symmetry_space_group_name_H-M   'P 1'
_cell_length_a   7.92107012
_cell_length_b   7.89521972
_cell_length_c   15.28527191
_cell_angle_alpha   90.00442552
_cell_angle_beta   89.62183146
_cell_angle_gamma   90.11071290
_symmetry_Int_Tables_number   1
_chemical_formula_structural   Tb3Pr17Si15Au
_chemical_formula_sum   'Tb3 Pr17 Si15 Au1'
_cell_volume   955.89673009
_cell_formula_units_Z   1
loop_
 _symmetry_equiv_pos_site_id
 _symmetry_equiv_pos_as_xyz
  1  'x, y, z'
loop_
 _atom_site_type_symbol
 _atom_site_label
 _atom_site_symmetry_multiplicity
 _atom_site_fract_x
 _atom_site_fract_y
 _atom_site_fract_z
 _atom_site_occupancy
  Tb  Tb0  1  0.308927  0.309975  0.998912  1
  Tb  Tb1  1  0.189805  0.810458  0.250150  1
  Tb  Tb2  1  0.806099  0.186097  0.751781  1
  Pr  Pr3  1  0.693885  0.688884  0.498865  1
  Pr  Pr4  1  0.374634  0.011277  0.448109  1
  Pr  Pr5  1  0.491549  0.872263  0.699982  1
  Pr  Pr6  1  0.510561  0.123946  0.196800  1
  Pr  Pr7  1  0.878219  0.488225  0.301085  1
  Pr  Pr8  1  0.120133  0.514905  0.802293  1
  Pr  Pr9  1  0.626322  0.988351  0.949681  1
  Pr  Pr10  1  0.001985  0.379064  0.549962  1
  Pr  Pr11  1  0.989684  0.625884  0.052780  1
  Pr  Pr12  1  0.132585  0.982779  0.877611  1
  Pr  Pr13  1  0.519347  0.630916  0.126089  1
  Pr  Pr14  1  0.478899  0.371131  0.628185  1
  Pr  Pr15  1  0.628497  0.520041  0.874792  1
  Pr  Pr16  1  0.372904  0.481195  0.371725  1
  Pr  Pr17  1  0.872933  0.021285  0.376291  1
  Pr  Pr18  1  0.981592  0.127181  0.123174  1
  Pr  Pr19  1  0.016429  0.868289  0.621749  1
  Si  Si20  1  0.330561  0.691566  0.953513  1
  Si  Si21  1  0.662516  0.302993  0.452868  1
  Si  Si22  1  0.695013  0.332811  0.046994  1
  Si  Si23  1  0.306189  0.669235  0.546026  1
  Si  Si24  1  0.809330  0.830652  0.204375  1
  Si  Si25  1  0.170037  0.193285  0.295828  1
  Si  Si26  1  0.833257  0.808014  0.796959  1
  Si  Si27  1  0.286775  0.923227  0.062194  1
  Si  Si28  1  0.576051  0.788463  0.309239  1
  Si  Si29  1  0.435867  0.208299  0.816472  1
  Si  Si30  1  0.785874  0.575481  0.691482  1
  Si  Si31  1  0.214020  0.423373  0.187483  1
  Si  Si32  1  0.708790  0.078965  0.562108  1
  Si  Si33  1  0.923837  0.287679  0.938854  1
  Si  Si34  1  0.081961  0.714188  0.436855  1
  Au  Au35  1  0.184934  0.169626  0.698734  1
