# generated using pymatgen
data_NaTlF4
_symmetry_space_group_name_H-M   'P 1'
_cell_length_a   6.16321457
_cell_length_b   5.19411400
_cell_length_c   6.62629900
_cell_angle_alpha   90.00000000
_cell_angle_beta   111.87061861
_cell_angle_gamma   90.00000000
_symmetry_Int_Tables_number   1
_chemical_formula_structural   NaTlF4
_chemical_formula_sum   'Na2 Tl2 F8'
_cell_volume   196.85687802
_cell_formula_units_Z   2
loop_
 _symmetry_equiv_pos_site_id
 _symmetry_equiv_pos_as_xyz
  1  'x, y, z'
loop_
 _atom_site_type_symbol
 _atom_site_label
 _atom_site_symmetry_multiplicity
 _atom_site_fract_x
 _atom_site_fract_y
 _atom_site_fract_z
 _atom_site_occupancy
  Na  Na0  1  0.500000  0.500001  0.000000  1
  Na  Na1  1  0.500000  0.000000  0.500000  1
  Tl  Tl2  1  0.000000  0.000000  0.000000  1
  Tl  Tl3  1  0.000000  0.500001  0.500000  1
  F  F4  1  0.328682  0.181731  0.137216  1
  F  F5  1  0.856471  0.282687  0.176892  1
  F  F6  1  0.143529  0.782688  0.323108  1
  F  F7  1  0.671317  0.681732  0.362784  1
  F  F8  1  0.328683  0.318269  0.637216  1
  F  F9  1  0.856471  0.217314  0.676892  1
  F  F10  1  0.143529  0.717312  0.823108  1
  F  F11  1  0.671318  0.818268  0.862784  1
