# generated using pymatgen
data_LiTh8(Si4Rh)3
_symmetry_space_group_name_H-M   'P 1'
_cell_length_a   8.23400300
_cell_length_b   8.23400295
_cell_length_c   8.44712200
_cell_angle_alpha   90.00000000
_cell_angle_beta   90.00000000
_cell_angle_gamma   119.99999620
_symmetry_Int_Tables_number   1
_chemical_formula_structural   LiTh8(Si4Rh)3
_chemical_formula_sum   'Li1 Th8 Si12 Rh3'
_cell_volume   495.97690476
_cell_formula_units_Z   1
loop_
 _symmetry_equiv_pos_site_id
 _symmetry_equiv_pos_as_xyz
  1  'x, y, z'
loop_
 _atom_site_type_symbol
 _atom_site_label
 _atom_site_symmetry_multiplicity
 _atom_site_fract_x
 _atom_site_fract_y
 _atom_site_fract_z
 _atom_site_occupancy
  Li  Li0  1  0.333333  0.666667  0.499333  1
  Th  Th1  1  0.000000  0.000000  0.250765  1
  Th  Th2  1  0.000000  0.000000  0.749015  1
  Th  Th3  1  0.502778  0.497222  0.249291  1
  Th  Th4  1  0.502778  0.005558  0.249291  1
  Th  Th5  1  0.994442  0.497222  0.249291  1
  Th  Th6  1  0.502215  0.497785  0.750606  1
  Th  Th7  1  0.502215  0.004430  0.750606  1
  Th  Th8  1  0.995570  0.497785  0.750606  1
  Si  Si9  1  0.167982  0.832018  0.499585  1
  Si  Si10  1  0.167982  0.335966  0.499585  1
  Si  Si11  1  0.664034  0.832018  0.499585  1
  Si  Si12  1  0.833850  0.166150  0.500293  1
  Si  Si13  1  0.833850  0.667702  0.500293  1
  Si  Si14  1  0.332298  0.166150  0.500293  1
  Si  Si15  1  0.834732  0.165268  0.999692  1
  Si  Si16  1  0.834732  0.669464  0.999692  1
  Si  Si17  1  0.330536  0.165268  0.999692  1
  Si  Si18  1  0.166981  0.833019  0.000034  1
  Si  Si19  1  0.166981  0.333963  0.000034  1
  Si  Si20  1  0.666037  0.833019  0.000034  1
  Rh  Rh21  1  0.666667  0.333333  0.500537  1
  Rh  Rh22  1  0.666667  0.333333  0.999481  1
  Rh  Rh23  1  0.333333  0.666667  0.002362  1
