# generated using pymatgen
data_TbLu2Ni8Ir
_symmetry_space_group_name_H-M   'P 1'
_cell_length_a   4.93153452
_cell_length_b   4.93153668
_cell_length_c   8.71347262
_cell_angle_alpha   73.56165814
_cell_angle_beta   73.56165877
_cell_angle_gamma   60.00000647
_symmetry_Int_Tables_number   1
_chemical_formula_structural   TbLu2Ni8Ir
_chemical_formula_sum   'Tb1 Lu2 Ni8 Ir1'
_cell_volume   173.44718308
_cell_formula_units_Z   1
loop_
 _symmetry_equiv_pos_site_id
 _symmetry_equiv_pos_as_xyz
  1  'x, y, z'
loop_
 _atom_site_type_symbol
 _atom_site_label
 _atom_site_symmetry_multiplicity
 _atom_site_fract_x
 _atom_site_fract_y
 _atom_site_fract_z
 _atom_site_occupancy
  Tb  Tb0  1  0.000000  0.000000  0.000000  1
  Lu  Lu1  1  0.138884  0.138884  0.583349  1
  Lu  Lu2  1  0.861116  0.861116  0.416651  1
  Ni  Ni3  1  0.077769  0.582637  0.756954  1
  Ni  Ni4  1  0.582637  0.582637  0.756954  1
  Ni  Ni5  1  0.582637  0.077769  0.756954  1
  Ni  Ni6  1  0.922231  0.417363  0.243046  1
  Ni  Ni7  1  0.417363  0.417363  0.243046  1
  Ni  Ni8  1  0.417363  0.922231  0.243046  1
  Ni  Ni9  1  0.333335  0.333335  0.999993  1
  Ni  Ni10  1  0.666665  0.666665  0.000007  1
  Ir  Ir11  1  0.500000  0.500000  0.500000  1
