# generated using pymatgen
data_Hf15Sc3Ta2(Re3B)2
_symmetry_space_group_name_H-M   'P 1'
_cell_length_a   8.56530900
_cell_length_b   8.56530996
_cell_length_c   8.47964600
_cell_angle_alpha   90.00000000
_cell_angle_beta   90.00000000
_cell_angle_gamma   120.00000017
_symmetry_Int_Tables_number   1
_chemical_formula_structural   Hf15Sc3Ta2(Re3B)2
_chemical_formula_sum   'Hf15 Sc3 Ta2 Re6 B2'
_cell_volume   538.75891758
_cell_formula_units_Z   1
loop_
 _symmetry_equiv_pos_site_id
 _symmetry_equiv_pos_as_xyz
  1  'x, y, z'
loop_
 _atom_site_type_symbol
 _atom_site_label
 _atom_site_symmetry_multiplicity
 _atom_site_fract_x
 _atom_site_fract_y
 _atom_site_fract_z
 _atom_site_occupancy
  Hf  Hf0  1  0.203639  0.796361  0.443746  1
  Hf  Hf1  1  0.203639  0.407277  0.443746  1
  Hf  Hf2  1  0.592723  0.796361  0.443746  1
  Hf  Hf3  1  0.796858  0.203142  0.555576  1
  Hf  Hf4  1  0.796858  0.593717  0.555576  1
  Hf  Hf5  1  0.406283  0.203142  0.555576  1
  Hf  Hf6  1  0.796858  0.203142  0.944424  1
  Hf  Hf7  1  0.796858  0.593717  0.944424  1
  Hf  Hf8  1  0.406283  0.203142  0.944424  1
  Hf  Hf9  1  0.203639  0.796361  0.056254  1
  Hf  Hf10  1  0.203639  0.407277  0.056254  1
  Hf  Hf11  1  0.592723  0.796361  0.056254  1
  Hf  Hf12  1  0.458593  0.541407  0.750000  1
  Hf  Hf13  1  0.458593  0.917186  0.750000  1
  Hf  Hf14  1  0.082814  0.541407  0.750000  1
  Sc  Sc15  1  0.541029  0.458971  0.250000  1
  Sc  Sc16  1  0.541029  0.082057  0.250000  1
  Sc  Sc17  1  0.917943  0.458971  0.250000  1
  Ta  Ta18  1  0.000000  0.000000  0.497497  1
  Ta  Ta19  1  0.000000  0.000000  0.002503  1
  Re  Re20  1  0.886514  0.113486  0.250000  1
  Re  Re21  1  0.886514  0.773031  0.250000  1
  Re  Re22  1  0.226969  0.113486  0.250000  1
  Re  Re23  1  0.113425  0.886575  0.750000  1
  Re  Re24  1  0.113425  0.226848  0.750000  1
  Re  Re25  1  0.773152  0.886575  0.750000  1
  B  B26  1  0.333333  0.666667  0.250000  1
  B  B27  1  0.666667  0.333333  0.750000  1
