# generated using pymatgen
data_Tb7Tm(Sc3Ga4)4
_symmetry_space_group_name_H-M   'P 1'
_cell_length_a   7.29870198
_cell_length_b   7.55279239
_cell_length_c   14.50291639
_cell_angle_alpha   89.96431038
_cell_angle_beta   90.01281026
_cell_angle_gamma   90.00886400
_symmetry_Int_Tables_number   1
_chemical_formula_structural   Tb7Tm(Sc3Ga4)4
_chemical_formula_sum   'Tb7 Tm1 Sc12 Ga16'
_cell_volume   799.48150409
_cell_formula_units_Z   1
loop_
 _symmetry_equiv_pos_site_id
 _symmetry_equiv_pos_as_xyz
  1  'x, y, z'
loop_
 _atom_site_type_symbol
 _atom_site_label
 _atom_site_symmetry_multiplicity
 _atom_site_fract_x
 _atom_site_fract_y
 _atom_site_fract_z
 _atom_site_occupancy
  Tb  Tb0  1  0.011627  0.177003  0.095537  1
  Tb  Tb1  1  0.988367  0.822972  0.904044  1
  Tb  Tb2  1  0.488234  0.676998  0.904694  1
  Tb  Tb3  1  0.988342  0.822401  0.595544  1
  Tb  Tb4  1  0.511674  0.322960  0.095520  1
  Tb  Tb5  1  0.011949  0.176897  0.404748  1
  Tb  Tb6  1  0.511761  0.323160  0.405130  1
  Tm  Tm7  1  0.488459  0.678150  0.596214  1
  Sc  Sc8  1  0.161852  0.502886  0.749531  1
  Sc  Sc9  1  0.838445  0.497782  0.250097  1
  Sc  Sc10  1  0.338576  0.002244  0.250114  1
  Sc  Sc11  1  0.661237  0.997123  0.749477  1
  Sc  Sc12  1  0.330924  0.175263  0.624668  1
  Sc  Sc13  1  0.668789  0.824491  0.375799  1
  Sc  Sc14  1  0.169610  0.675116  0.375567  1
  Sc  Sc15  1  0.669314  0.824997  0.124600  1
  Sc  Sc16  1  0.829760  0.325373  0.624372  1
  Sc  Sc17  1  0.330760  0.175088  0.874946  1
  Sc  Sc18  1  0.830395  0.324915  0.875060  1
  Sc  Sc19  1  0.169357  0.675209  0.124561  1
  Ga  Ga20  1  0.031927  0.116890  0.749723  1
  Ga  Ga21  1  0.968012  0.882811  0.250127  1
  Ga  Ga22  1  0.468219  0.616950  0.250075  1
  Ga  Ga23  1  0.531476  0.383880  0.749544  1
  Ga  Ga24  1  0.285797  0.872662  0.749381  1
  Ga  Ga25  1  0.715010  0.126669  0.250097  1
  Ga  Ga26  1  0.214913  0.373220  0.250194  1
  Ga  Ga27  1  0.783969  0.627291  0.749270  1
  Ga  Ga28  1  0.161747  0.465923  0.540336  1
  Ga  Ga29  1  0.839867  0.535195  0.460327  1
  Ga  Ga30  1  0.340420  0.963412  0.460763  1
  Ga  Ga31  1  0.840056  0.535412  0.039752  1
  Ga  Ga32  1  0.659476  0.033744  0.540460  1
  Ga  Ga33  1  0.159641  0.464603  0.960007  1
  Ga  Ga34  1  0.659921  0.035575  0.959953  1
  Ga  Ga35  1  0.340115  0.964738  0.039768  1
