# generated using pymatgen
data_Li4Tb4IrPt3
_symmetry_space_group_name_H-M   'P 1'
_cell_length_a   4.02669600
_cell_length_b   7.05412151
_cell_length_c   8.40629189
_cell_angle_alpha   89.78928396
_cell_angle_beta   90.00000000
_cell_angle_gamma   90.00000000
_symmetry_Int_Tables_number   1
_chemical_formula_structural   Li4Tb4IrPt3
_chemical_formula_sum   'Li4 Tb4 Ir1 Pt3'
_cell_volume   238.77744934
_cell_formula_units_Z   1
loop_
 _symmetry_equiv_pos_site_id
 _symmetry_equiv_pos_as_xyz
  1  'x, y, z'
loop_
 _atom_site_type_symbol
 _atom_site_label
 _atom_site_symmetry_multiplicity
 _atom_site_fract_x
 _atom_site_fract_y
 _atom_site_fract_z
 _atom_site_occupancy
  Li  Li0  1  0.750000  0.623249  0.446340  1
  Li  Li1  1  0.250000  0.375454  0.554427  1
  Li  Li2  1  0.750000  0.123134  0.056484  1
  Li  Li3  1  0.250000  0.878711  0.944085  1
  Tb  Tb4  1  0.750000  0.554546  0.815339  1
  Tb  Tb5  1  0.250000  0.946820  0.326835  1
  Tb  Tb6  1  0.250000  0.450636  0.177416  1
  Tb  Tb7  1  0.750000  0.041445  0.678455  1
  Ir  Ir8  1  0.250000  0.759232  0.628606  1
  Pt  Pt9  1  0.250000  0.257994  0.874054  1
  Pt  Pt10  1  0.750000  0.744624  0.126932  1
  Pt  Pt11  1  0.750000  0.244159  0.371025  1
