# generated using pymatgen
data_Li3Ac2DySi2Ge
_symmetry_space_group_name_H-M   'P 1'
_cell_length_a   7.42814983
_cell_length_b   7.55927596
_cell_length_c   4.46018900
_cell_angle_alpha   90.00000000
_cell_angle_beta   90.00000000
_cell_angle_gamma   120.58567761
_symmetry_Int_Tables_number   1
_chemical_formula_structural   Li3Ac2DySi2Ge
_chemical_formula_sum   'Li3 Ac2 Dy1 Si2 Ge1'
_cell_volume   215.60126799
_cell_formula_units_Z   1
loop_
 _symmetry_equiv_pos_site_id
 _symmetry_equiv_pos_as_xyz
  1  'x, y, z'
loop_
 _atom_site_type_symbol
 _atom_site_label
 _atom_site_symmetry_multiplicity
 _atom_site_fract_x
 _atom_site_fract_y
 _atom_site_fract_z
 _atom_site_occupancy
  Li  Li0  1  0.222863  0.989040  0.500000  1
  Li  Li1  1  0.777137  0.766178  0.500000  1
  Li  Li2  1  0.000000  0.237593  0.500000  1
  Ac  Ac3  1  0.580159  0.003381  0.000000  1
  Ac  Ac4  1  0.419841  0.423221  0.000000  1
  Dy  Dy5  1  0.000000  0.588207  0.000000  1
  Si  Si6  1  0.305537  0.658297  0.500000  1
  Si  Si7  1  0.694463  0.352757  0.500000  1
  Ge  Ge8  1  0.000000  0.981326  0.000000  1
