# generated using pymatgen
data_NdFe3CoSb12
_symmetry_space_group_name_H-M   'P 1'
_cell_length_a   7.92712329
_cell_length_b   7.94611091
_cell_length_c   7.92712384
_cell_angle_alpha   109.51974648
_cell_angle_beta   109.42264588
_cell_angle_gamma   109.51975042
_symmetry_Int_Tables_number   1
_chemical_formula_structural   NdFe3CoSb12
_chemical_formula_sum   'Nd1 Fe3 Co1 Sb12'
_cell_volume   384.15240564
_cell_formula_units_Z   1
loop_
 _symmetry_equiv_pos_site_id
 _symmetry_equiv_pos_as_xyz
  1  'x, y, z'
loop_
 _atom_site_type_symbol
 _atom_site_label
 _atom_site_symmetry_multiplicity
 _atom_site_fract_x
 _atom_site_fract_y
 _atom_site_fract_z
 _atom_site_occupancy
  Nd  Nd0  1  0.000000  0.000000  0.000000  1
  Fe  Fe1  1  0.000000  0.000000  0.500000  1
  Fe  Fe2  1  0.500000  0.000000  0.000000  1
  Fe  Fe3  1  0.500000  0.500000  0.500000  1
  Co  Co4  1  0.000000  0.500000  0.000000  1
  Sb  Sb5  1  0.162722  0.828830  0.665961  1
  Sb  Sb6  1  0.837278  0.171170  0.334039  1
  Sb  Sb7  1  0.664281  0.160908  0.827371  1
  Sb  Sb8  1  0.503239  0.666107  0.837278  1
  Sb  Sb9  1  0.665961  0.837131  0.503239  1
  Sb  Sb10  1  0.496761  0.333893  0.162722  1
  Sb  Sb11  1  0.335719  0.839092  0.172629  1
  Sb  Sb12  1  0.172629  0.333538  0.836910  1
  Sb  Sb13  1  0.827371  0.666462  0.163090  1
  Sb  Sb14  1  0.334039  0.162869  0.496761  1
  Sb  Sb15  1  0.836910  0.503372  0.664281  1
  Sb  Sb16  1  0.163090  0.496628  0.335719  1
