# generated using pymatgen
data_Cs3SmV2O8
_symmetry_space_group_name_H-M   'P 1'
_cell_length_a   6.24101600
_cell_length_b   6.24101515
_cell_length_c   8.42856800
_cell_angle_alpha   90.00000000
_cell_angle_beta   90.00000000
_cell_angle_gamma   119.99999389
_symmetry_Int_Tables_number   1
_chemical_formula_structural   Cs3SmV2O8
_chemical_formula_sum   'Cs3 Sm1 V2 O8'
_cell_volume   284.31186642
_cell_formula_units_Z   1
loop_
 _symmetry_equiv_pos_site_id
 _symmetry_equiv_pos_as_xyz
  1  'x, y, z'
loop_
 _atom_site_type_symbol
 _atom_site_label
 _atom_site_symmetry_multiplicity
 _atom_site_fract_x
 _atom_site_fract_y
 _atom_site_fract_z
 _atom_site_occupancy
  Cs  Cs0  1  0.333333  0.666667  0.723330  1
  Cs  Cs1  1  0.666667  0.333333  0.276670  1
  Cs  Cs2  1  0.000000  0.000000  0.000000  1
  Sm  Sm3  1  0.000000  0.000000  0.500000  1
  V  V4  1  0.333333  0.666667  0.272807  1
  V  V5  1  0.666667  0.333333  0.727193  1
  O  O6  1  0.333333  0.666667  0.072251  1
  O  O7  1  0.666667  0.333333  0.927749  1
  O  O8  1  0.178114  0.821886  0.340373  1
  O  O9  1  0.821886  0.178114  0.659627  1
  O  O10  1  0.178114  0.356228  0.340373  1
  O  O11  1  0.821886  0.643772  0.659627  1
  O  O12  1  0.643772  0.821886  0.340373  1
  O  O13  1  0.356228  0.178114  0.659627  1
