# generated using pymatgen
data_Nb7Si2B4W3
_symmetry_space_group_name_H-M   'P 1'
_cell_length_a   7.25597824
_cell_length_b   7.25597883
_cell_length_c   7.28399736
_cell_angle_alpha   129.57368538
_cell_angle_beta   129.57367329
_cell_angle_gamma   74.08791463
_symmetry_Int_Tables_number   1
_chemical_formula_structural   Nb7Si2B4W3
_chemical_formula_sum   'Nb7 Si2 B4 W3'
_cell_volume   222.18360335
_cell_formula_units_Z   1
loop_
 _symmetry_equiv_pos_site_id
 _symmetry_equiv_pos_as_xyz
  1  'x, y, z'
loop_
 _atom_site_type_symbol
 _atom_site_label
 _atom_site_symmetry_multiplicity
 _atom_site_fract_x
 _atom_site_fract_y
 _atom_site_fract_z
 _atom_site_occupancy
  Nb  Nb0  1  0.191309  0.691309  0.162667  1
  Nb  Nb1  1  0.474290  0.974290  0.169330  1
  Nb  Nb2  1  0.306517  0.470901  0.499523  1
  Nb  Nb3  1  0.028885  0.193373  0.499112  1
  Nb  Nb4  1  0.527750  0.027750  0.834448  1
  Nb  Nb5  1  0.693373  0.528885  0.499112  1
  Nb  Nb6  1  0.970901  0.806517  0.499523  1
  Si  Si7  1  0.246181  0.249719  0.998447  1
  Si  Si8  1  0.749719  0.746181  0.998447  1
  B  B9  1  0.121539  0.621539  0.741958  1
  B  B10  1  0.878663  0.378663  0.255417  1
  B  B11  1  0.618352  0.885874  0.502761  1
  B  B12  1  0.385874  0.118352  0.502761  1
  W  W13  1  0.000296  0.001027  0.999431  1
  W  W14  1  0.501027  0.500296  0.999431  1
  W  W15  1  0.805324  0.305324  0.837632  1
