# generated using pymatgen
data_LiTm16Zn(InRh2)2
_symmetry_space_group_name_H-M   'P 1'
_cell_length_a   9.52811248
_cell_length_b   9.48147798
_cell_length_c   9.48147660
_cell_angle_alpha   59.71286974
_cell_angle_beta   59.96404906
_cell_angle_gamma   59.96404830
_symmetry_Int_Tables_number   1
_chemical_formula_structural   LiTm16Zn(InRh2)2
_chemical_formula_sum   'Li1 Tm16 Zn1 In2 Rh4'
_cell_volume   604.02848787
_cell_formula_units_Z   1
loop_
 _symmetry_equiv_pos_site_id
 _symmetry_equiv_pos_as_xyz
  1  'x, y, z'
loop_
 _atom_site_type_symbol
 _atom_site_label
 _atom_site_symmetry_multiplicity
 _atom_site_fract_x
 _atom_site_fract_y
 _atom_site_fract_z
 _atom_site_occupancy
  Li  Li0  1  0.717081  0.426463  0.426463  1
  Tm  Tm1  1  0.063584  0.062034  0.437389  1
  Tm  Tm2  1  0.435573  0.069713  0.435381  1
  Tm  Tm3  1  0.063584  0.437389  0.062034  1
  Tm  Tm4  1  0.057009  0.646576  0.646576  1
  Tm  Tm5  1  0.435573  0.435381  0.069713  1
  Tm  Tm6  1  0.645990  0.051521  0.649606  1
  Tm  Tm7  1  0.191589  0.808893  0.189212  1
  Tm  Tm8  1  0.191589  0.189212  0.808893  1
  Tm  Tm9  1  0.811766  0.812577  0.188663  1
  Tm  Tm10  1  0.437979  0.064015  0.064015  1
  Tm  Tm11  1  0.815404  0.185981  0.185981  1
  Tm  Tm12  1  0.067248  0.436401  0.436401  1
  Tm  Tm13  1  0.811766  0.188663  0.812577  1
  Tm  Tm14  1  0.191628  0.809071  0.809071  1
  Tm  Tm15  1  0.645990  0.649606  0.051521  1
  Tm  Tm16  1  0.649783  0.653052  0.653052  1
  Zn  Zn17  1  0.416565  0.415998  0.415998  1
  In  In18  1  0.421365  0.742566  0.416658  1
  In  In19  1  0.421365  0.416658  0.742566  1
  Rh  Rh20  1  0.859982  0.856572  0.428465  1
  Rh  Rh21  1  0.859716  0.855234  0.855234  1
  Rh  Rh22  1  0.427888  0.857962  0.857962  1
  Rh  Rh23  1  0.859982  0.428465  0.856572  1
