# generated using pymatgen
data_TmTa5(B2Ru5)2
_symmetry_space_group_name_H-M   'P 1'
_cell_length_a   9.49385894
_cell_length_b   9.49385894
_cell_length_c   3.05307600
_cell_angle_alpha   90.00000000
_cell_angle_beta   90.00000000
_cell_angle_gamma   90.23487169
_symmetry_Int_Tables_number   1
_chemical_formula_structural   TmTa5(B2Ru5)2
_chemical_formula_sum   'Tm1 Ta5 B4 Ru10'
_cell_volume   275.18167881
_cell_formula_units_Z   1
loop_
 _symmetry_equiv_pos_site_id
 _symmetry_equiv_pos_as_xyz
  1  'x, y, z'
loop_
 _atom_site_type_symbol
 _atom_site_label
 _atom_site_symmetry_multiplicity
 _atom_site_fract_x
 _atom_site_fract_y
 _atom_site_fract_z
 _atom_site_occupancy
  Tm  Tm0  1  0.824559  0.675441  0.000000  1
  Ta  Ta1  1  0.177903  0.322097  0.000000  1
  Ta  Ta2  1  0.324329  0.823264  0.000000  1
  Ta  Ta3  1  0.676736  0.175671  0.000000  1
  Ta  Ta4  1  0.500820  0.500779  0.000000  1
  Ta  Ta5  1  0.999221  0.999180  0.000000  1
  B  B6  1  0.619825  0.880175  0.000000  1
  B  B7  1  0.377759  0.122241  0.000000  1
  B  B8  1  0.122255  0.620624  0.000000  1
  B  B9  1  0.879376  0.377745  0.000000  1
  Ru  Ru10  1  0.560227  0.723284  0.500000  1
  Ru  Ru11  1  0.426976  0.282904  0.500000  1
  Ru  Ru12  1  0.080699  0.783205  0.500000  1
  Ru  Ru13  1  0.930599  0.216535  0.500000  1
  Ru  Ru14  1  0.283465  0.569401  0.500000  1
  Ru  Ru15  1  0.716795  0.419301  0.500000  1
  Ru  Ru16  1  0.217096  0.073024  0.500000  1
  Ru  Ru17  1  0.776716  0.939773  0.500000  1
  Ru  Ru18  1  0.496853  0.003147  0.500000  1
  Ru  Ru19  1  0.007792  0.492208  0.500000  1
