# generated using pymatgen
data_Ta2Nb6VSi2B4Mo
_symmetry_space_group_name_H-M   'P 1'
_cell_length_a   7.23268266
_cell_length_b   7.23268350
_cell_length_c   7.23268200
_cell_angle_alpha   129.61411776
_cell_angle_beta   129.61411302
_cell_angle_gamma   74.02442102
_symmetry_Int_Tables_number   1
_chemical_formula_structural   Ta2Nb6VSi2B4Mo
_chemical_formula_sum   'Ta2 Nb6 V1 Si2 B4 Mo1'
_cell_volume   218.96704252
_cell_formula_units_Z   1
loop_
 _symmetry_equiv_pos_site_id
 _symmetry_equiv_pos_as_xyz
  1  'x, y, z'
loop_
 _atom_site_type_symbol
 _atom_site_label
 _atom_site_symmetry_multiplicity
 _atom_site_fract_x
 _atom_site_fract_y
 _atom_site_fract_z
 _atom_site_occupancy
  Ta  Ta0  1  0.967021  0.468601  0.161948  1
  Ta  Ta1  1  0.469090  0.306776  0.502148  1
  Nb  Nb2  1  0.805576  0.967167  0.498358  1
  Nb  Nb3  1  0.307354  0.805112  0.838058  1
  Nb  Nb4  1  0.194560  0.032335  0.501555  1
  Nb  Nb5  1  0.530570  0.693025  0.498072  1
  Nb  Nb6  1  0.032227  0.530833  0.837528  1
  Nb  Nb7  1  0.692702  0.194792  0.162179  1
  V  V8  1  0.499439  0.499871  0.000011  1
  Si  Si9  1  0.749300  0.748917  0.999809  1
  Si  Si10  1  0.250436  0.250782  0.000458  1
  B  B11  1  0.383311  0.879631  0.262252  1
  B  B12  1  0.878724  0.616491  0.494478  1
  B  B13  1  0.617671  0.123274  0.739637  1
  B  B14  1  0.122321  0.382716  0.503781  1
  Mo  Mo15  1  0.999698  0.999677  0.999728  1
