# generated using pymatgen
data_Y10Rh5Au
_symmetry_space_group_name_H-M   'P 1'
_cell_length_a   11.11749406
_cell_length_b   11.06981700
_cell_length_c   6.34597149
_cell_angle_alpha   90.00000000
_cell_angle_beta   89.75101308
_cell_angle_gamma   90.00000000
_symmetry_Int_Tables_number   1
_chemical_formula_structural   Y10Rh5Au
_chemical_formula_sum   'Y20 Rh10 Au2'
_cell_volume   780.98260891
_cell_formula_units_Z   2
loop_
 _symmetry_equiv_pos_site_id
 _symmetry_equiv_pos_as_xyz
  1  'x, y, z'
loop_
 _atom_site_type_symbol
 _atom_site_label
 _atom_site_symmetry_multiplicity
 _atom_site_fract_x
 _atom_site_fract_y
 _atom_site_fract_z
 _atom_site_occupancy
  Y  Y0  1  0.290141  0.089700  0.372092  1
  Y  Y1  1  0.290141  0.910300  0.872092  1
  Y  Y2  1  0.699805  0.091542  0.865519  1
  Y  Y3  1  0.699805  0.908458  0.365519  1
  Y  Y4  1  0.580352  0.789758  0.877232  1
  Y  Y5  1  0.580352  0.210242  0.377232  1
  Y  Y6  1  0.407131  0.790650  0.377048  1
  Y  Y7  1  0.407131  0.209350  0.877048  1
  Y  Y8  1  0.210802  0.410384  0.620532  1
  Y  Y9  1  0.210802  0.589616  0.120532  1
  Y  Y10  1  0.790843  0.416080  0.124815  1
  Y  Y11  1  0.790843  0.583920  0.624815  1
  Y  Y12  1  0.916519  0.706632  0.137485  1
  Y  Y13  1  0.916519  0.293368  0.637485  1
  Y  Y14  1  0.094956  0.704146  0.624730  1
  Y  Y15  1  0.094956  0.295854  0.124730  1
  Y  Y16  1  0.007028  0.996883  0.499591  1
  Y  Y17  1  0.007028  0.003117  0.999591  1
  Y  Y18  1  0.501037  0.497683  0.000399  1
  Y  Y19  1  0.501037  0.502317  0.500399  1
  Rh  Rh20  1  0.154649  0.155324  0.749942  1
  Rh  Rh21  1  0.154649  0.844676  0.249942  1
  Rh  Rh22  1  0.657659  0.346082  0.747065  1
  Rh  Rh23  1  0.657659  0.653918  0.247065  1
  Rh  Rh24  1  0.347090  0.344843  0.252017  1
  Rh  Rh25  1  0.347090  0.655157  0.752017  1
  Rh  Rh26  1  0.498055  0.999533  0.120766  1
  Rh  Rh27  1  0.498055  0.000467  0.620766  1
  Rh  Rh28  1  0.001159  0.500303  0.879375  1
  Rh  Rh29  1  0.001159  0.499697  0.379375  1
  Au  Au30  1  0.842772  0.155021  0.251391  1
  Au  Au31  1  0.842772  0.844979  0.751391  1
