# generated using pymatgen
data_CsNd(LuSe2)2
_symmetry_space_group_name_H-M   'P 1'
_cell_length_a   4.13740500
_cell_length_b   4.13740526
_cell_length_c   30.22086100
_cell_angle_alpha   90.00000000
_cell_angle_beta   90.00000000
_cell_angle_gamma   119.99997395
_symmetry_Int_Tables_number   1
_chemical_formula_structural   CsNd(LuSe2)2
_chemical_formula_sum   'Cs2 Nd2 Lu4 Se8'
_cell_volume   448.01615661
_cell_formula_units_Z   2
loop_
 _symmetry_equiv_pos_site_id
 _symmetry_equiv_pos_as_xyz
  1  'x, y, z'
loop_
 _atom_site_type_symbol
 _atom_site_label
 _atom_site_symmetry_multiplicity
 _atom_site_fract_x
 _atom_site_fract_y
 _atom_site_fract_z
 _atom_site_occupancy
  Cs  Cs0  1  0.666667  0.333333  0.250000  1
  Cs  Cs1  1  0.333333  0.666667  0.750000  1
  Nd  Nd2  1  0.000000  0.000000  0.500000  1
  Nd  Nd3  1  0.000000  0.000000  0.000000  1
  Lu  Lu4  1  0.666667  0.333333  0.610807  1
  Lu  Lu5  1  0.666667  0.333333  0.889193  1
  Lu  Lu6  1  0.333333  0.666667  0.389193  1
  Lu  Lu7  1  0.333333  0.666667  0.110807  1
  Se  Se8  1  0.000000  0.000000  0.161255  1
  Se  Se9  1  0.666667  0.333333  0.439851  1
  Se  Se10  1  0.000000  0.000000  0.661255  1
  Se  Se11  1  0.333333  0.666667  0.939851  1
  Se  Se12  1  0.333333  0.666667  0.560149  1
  Se  Se13  1  0.000000  0.000000  0.338745  1
  Se  Se14  1  0.666667  0.333333  0.060149  1
  Se  Se15  1  0.000000  0.000000  0.838745  1
