# generated using pymatgen
data_Lu5Pt9
_symmetry_space_group_name_H-M   'P 1'
_cell_length_a   9.64538600
_cell_length_b   9.64538600
_cell_length_c   5.71554100
_cell_angle_alpha   90.00000000
_cell_angle_beta   90.00000000
_cell_angle_gamma   90.00000000
_symmetry_Int_Tables_number   1
_chemical_formula_structural   Lu5Pt9
_chemical_formula_sum   'Lu10 Pt18'
_cell_volume   531.73661838
_cell_formula_units_Z   2
loop_
 _symmetry_equiv_pos_site_id
 _symmetry_equiv_pos_as_xyz
  1  'x, y, z'
loop_
 _atom_site_type_symbol
 _atom_site_label
 _atom_site_symmetry_multiplicity
 _atom_site_fract_x
 _atom_site_fract_y
 _atom_site_fract_z
 _atom_site_occupancy
  Lu  Lu0  1  0.452117  0.810512  0.000000  1
  Lu  Lu1  1  0.547883  0.189488  0.000000  1
  Lu  Lu2  1  0.189488  0.547883  0.000000  1
  Lu  Lu3  1  0.810512  0.452117  0.000000  1
  Lu  Lu4  1  0.500000  0.500000  0.500000  1
  Lu  Lu5  1  0.310512  0.047883  0.500000  1
  Lu  Lu6  1  0.689488  0.952117  0.500000  1
  Lu  Lu7  1  0.952117  0.689488  0.500000  1
  Lu  Lu8  1  0.047883  0.310512  0.500000  1
  Lu  Lu9  1  0.000000  0.000000  0.000000  1
  Pt  Pt10  1  0.190732  0.809268  0.250164  1
  Pt  Pt11  1  0.809268  0.190732  0.749836  1
  Pt  Pt12  1  0.809268  0.190732  0.250164  1
  Pt  Pt13  1  0.190732  0.809268  0.749836  1
  Pt  Pt14  1  0.440727  0.781463  0.500000  1
  Pt  Pt15  1  0.559273  0.218537  0.500000  1
  Pt  Pt16  1  0.218537  0.559273  0.500000  1
  Pt  Pt17  1  0.781463  0.440727  0.500000  1
  Pt  Pt18  1  0.309268  0.309268  0.249836  1
  Pt  Pt19  1  0.690732  0.690732  0.750164  1
  Pt  Pt20  1  0.690732  0.690732  0.249836  1
  Pt  Pt21  1  0.309268  0.309268  0.750164  1
  Pt  Pt22  1  0.281463  0.059273  0.000000  1
  Pt  Pt23  1  0.718537  0.940727  0.000000  1
  Pt  Pt24  1  0.940727  0.718537  0.000000  1
  Pt  Pt25  1  0.059273  0.281463  0.000000  1
  Pt  Pt26  1  0.000000  0.000000  0.500000  1
  Pt  Pt27  1  0.500000  0.500000  0.000000  1
