# generated using pymatgen
data_Ba3TbPd2O9
_symmetry_space_group_name_H-M   'P 1'
_cell_length_a   5.96395700
_cell_length_b   5.96347920
_cell_length_c   14.97648900
_cell_angle_alpha   90.00062379
_cell_angle_beta   89.99904535
_cell_angle_gamma   119.99828001
_symmetry_Int_Tables_number   1
_chemical_formula_structural   Ba3TbPd2O9
_chemical_formula_sum   'Ba6 Tb2 Pd4 O18'
_cell_volume   461.29886165
_cell_formula_units_Z   2
loop_
 _symmetry_equiv_pos_site_id
 _symmetry_equiv_pos_as_xyz
  1  'x, y, z'
loop_
 _atom_site_type_symbol
 _atom_site_label
 _atom_site_symmetry_multiplicity
 _atom_site_fract_x
 _atom_site_fract_y
 _atom_site_fract_z
 _atom_site_occupancy
  Ba  Ba0  1  0.666666  0.333341  0.089885  1
  Ba  Ba1  1  0.000027  0.000003  0.249954  1
  Ba  Ba2  1  0.666668  0.333334  0.409902  1
  Ba  Ba3  1  0.333330  0.666665  0.589728  1
  Ba  Ba4  1  0.999968  0.999999  0.750022  1
  Ba  Ba5  1  0.333338  0.666653  0.910376  1
  Tb  Tb6  1  0.999999  0.999997  0.999959  1
  Tb  Tb7  1  0.000000  0.999998  0.500126  1
  Pd  Pd8  1  0.333347  0.666667  0.159533  1
  Pd  Pd9  1  0.333358  0.666665  0.340399  1
  Pd  Pd10  1  0.666636  0.333330  0.659639  1
  Pd  Pd11  1  0.666646  0.333326  0.840407  1
  O  O12  1  0.174688  0.349376  0.085016  1
  O  O13  1  0.174677  0.825338  0.085032  1
  O  O14  1  0.650617  0.825317  0.085013  1
  O  O15  1  0.034025  0.517009  0.249964  1
  O  O16  1  0.482970  0.516924  0.249952  1
  O  O17  1  0.482961  0.966021  0.249959  1
  O  O18  1  0.174661  0.349262  0.414923  1
  O  O19  1  0.174639  0.825391  0.414910  1
  O  O20  1  0.650730  0.825354  0.414928  1
  O  O21  1  0.349549  0.174790  0.585072  1
  O  O22  1  0.825226  0.174750  0.585090  1
  O  O23  1  0.825203  0.650463  0.585083  1
  O  O24  1  0.517025  0.033939  0.750051  1
  O  O25  1  0.517031  0.483094  0.750056  1
  O  O26  1  0.965995  0.483006  0.750047  1
  O  O27  1  0.349420  0.174708  0.915002  1
  O  O28  1  0.825303  0.174683  0.914984  1
  O  O29  1  0.825294  0.650597  0.914990  1
