# generated using pymatgen
data_Hf3Nb5(Co4P3)4
_symmetry_space_group_name_H-M   'P 1'
_cell_length_a   11.91052900
_cell_length_b   11.92258923
_cell_length_c   3.63079900
_cell_angle_alpha   90.00000000
_cell_angle_beta   90.00000000
_cell_angle_gamma   119.96654680
_symmetry_Int_Tables_number   1
_chemical_formula_structural   Hf3Nb5(Co4P3)4
_chemical_formula_sum   'Hf3 Nb5 Co16 P12'
_cell_volume   446.66381558
_cell_formula_units_Z   1
loop_
 _symmetry_equiv_pos_site_id
 _symmetry_equiv_pos_as_xyz
  1  'x, y, z'
loop_
 _atom_site_type_symbol
 _atom_site_label
 _atom_site_symmetry_multiplicity
 _atom_site_fract_x
 _atom_site_fract_y
 _atom_site_fract_z
 _atom_site_occupancy
  Hf  Hf0  1  0.823253  0.000000  0.500000  1
  Hf  Hf1  1  0.333601  0.666919  0.000000  1
  Hf  Hf2  1  0.666683  0.333081  0.000000  1
  Nb  Nb3  1  0.999806  0.821216  0.500000  1
  Nb  Nb4  1  0.178590  0.178784  0.500000  1
  Nb  Nb5  1  0.446620  0.000000  0.000000  1
  Nb  Nb6  1  0.000139  0.447392  0.000000  1
  Nb  Nb7  1  0.552747  0.552608  0.000000  1
  Co  Co8  1  0.273567  0.000000  0.500000  1
  Co  Co9  1  0.001116  0.275812  0.500000  1
  Co  Co10  1  0.725304  0.724188  0.500000  1
  Co  Co11  1  0.628453  0.807291  0.000000  1
  Co  Co12  1  0.191584  0.821209  0.000000  1
  Co  Co13  1  0.179286  0.370805  0.000000  1
  Co  Co14  1  0.370375  0.178791  0.000000  1
  Co  Co15  1  0.808481  0.629195  0.000000  1
  Co  Co16  1  0.821161  0.192709  0.000000  1
  Co  Co17  1  0.514544  0.869830  0.500000  1
  Co  Co18  1  0.129334  0.645619  0.500000  1
  Co  Co19  1  0.354826  0.484578  0.500000  1
  Co  Co20  1  0.483714  0.354381  0.500000  1
  Co  Co21  1  0.870247  0.515422  0.500000  1
  Co  Co22  1  0.644714  0.130170  0.500000  1
  Co  Co23  1  0.000876  0.000000  0.000000  1
  P  P24  1  0.174755  0.000000  0.000000  1
  P  P25  1  0.000982  0.175094  0.000000  1
  P  P26  1  0.825888  0.824906  0.000000  1
  P  P27  1  0.519452  0.689054  0.500000  1
  P  P28  1  0.310550  0.830066  0.500000  1
  P  P29  1  0.170175  0.481444  0.500000  1
  P  P30  1  0.480484  0.169934  0.500000  1
  P  P31  1  0.688731  0.518556  0.500000  1
  P  P32  1  0.830398  0.310946  0.500000  1
  P  P33  1  0.648361  0.000000  0.000000  1
  P  P34  1  0.000173  0.649144  0.000000  1
  P  P35  1  0.351029  0.350856  0.000000  1
