# generated using pymatgen
data_Ti2Si2Tc3BMo
_symmetry_space_group_name_H-M   'P 1'
_cell_length_a   6.74893900
_cell_length_b   6.63370752
_cell_length_c   3.13440700
_cell_angle_alpha   90.00000000
_cell_angle_beta   90.00000000
_cell_angle_gamma   120.57630288
_symmetry_Int_Tables_number   1
_chemical_formula_structural   Ti2Si2Tc3BMo
_chemical_formula_sum   'Ti2 Si2 Tc3 B1 Mo1'
_cell_volume   120.81654076
_cell_formula_units_Z   1
loop_
 _symmetry_equiv_pos_site_id
 _symmetry_equiv_pos_as_xyz
  1  'x, y, z'
loop_
 _atom_site_type_symbol
 _atom_site_label
 _atom_site_symmetry_multiplicity
 _atom_site_fract_x
 _atom_site_fract_y
 _atom_site_fract_z
 _atom_site_occupancy
  Ti  Ti0  1  0.391719  0.388715  0.000000  1
  Ti  Ti1  1  0.003004  0.611285  0.000000  1
  Si  Si2  1  0.332946  0.666455  0.500000  1
  Si  Si3  1  0.666492  0.333545  0.500000  1
  Tc  Tc4  1  0.244006  0.000000  0.500000  1
  Tc  Tc5  1  0.755676  0.755532  0.500000  1
  Tc  Tc6  1  0.000143  0.244468  0.500000  1
  B  B7  1  0.999365  0.000000  0.000000  1
  Mo  Mo8  1  0.606649  0.000000  0.000000  1
