# generated using pymatgen
data_Th5U3(P3Ru4)4
_symmetry_space_group_name_H-M   'P 1'
_cell_length_a   13.03963900
_cell_length_b   13.03963820
_cell_length_c   4.05042000
_cell_angle_alpha   90.00000000
_cell_angle_beta   90.00000000
_cell_angle_gamma   119.99999948
_symmetry_Int_Tables_number   1
_chemical_formula_structural   Th5U3(P3Ru4)4
_chemical_formula_sum   'Th5 U3 P12 Ru16'
_cell_volume   596.43318978
_cell_formula_units_Z   1
loop_
 _symmetry_equiv_pos_site_id
 _symmetry_equiv_pos_as_xyz
  1  'x, y, z'
loop_
 _atom_site_type_symbol
 _atom_site_label
 _atom_site_symmetry_multiplicity
 _atom_site_fract_x
 _atom_site_fract_y
 _atom_site_fract_z
 _atom_site_occupancy
  Th  Th0  1  0.183265  0.183265  0.500000  1
  Th  Th1  1  0.816735  0.000000  0.500000  1
  Th  Th2  1  0.000000  0.816735  0.500000  1
  Th  Th3  1  0.333333  0.666667  0.000000  1
  Th  Th4  1  0.666667  0.333333  0.000000  1
  U  U5  1  0.557292  0.557292  0.000000  1
  U  U6  1  0.442708  0.000000  0.000000  1
  U  U7  1  0.000000  0.442708  0.000000  1
  P  P8  1  0.815524  0.815524  0.000000  1
  P  P9  1  0.184476  0.000000  0.000000  1
  P  P10  1  0.000000  0.184476  0.000000  1
  P  P11  1  0.177014  0.476111  0.500000  1
  P  P12  1  0.523889  0.700903  0.500000  1
  P  P13  1  0.299097  0.822986  0.500000  1
  P  P14  1  0.700903  0.523889  0.500000  1
  P  P15  1  0.822986  0.299097  0.500000  1
  P  P16  1  0.476111  0.177014  0.500000  1
  P  P17  1  0.348552  0.348552  0.000000  1
  P  P18  1  0.651448  0.000000  0.000000  1
  P  P19  1  0.000000  0.651448  0.000000  1
  Ru  Ru20  1  0.720601  0.720601  0.500000  1
  Ru  Ru21  1  0.279399  0.000000  0.500000  1
  Ru  Ru22  1  0.000000  0.279399  0.500000  1
  Ru  Ru23  1  0.181705  0.377040  0.000000  1
  Ru  Ru24  1  0.622960  0.804664  0.000000  1
  Ru  Ru25  1  0.195336  0.818295  0.000000  1
  Ru  Ru26  1  0.804664  0.622960  0.000000  1
  Ru  Ru27  1  0.818295  0.195336  0.000000  1
  Ru  Ru28  1  0.377040  0.181705  0.000000  1
  Ru  Ru29  1  0.368688  0.493026  0.500000  1
  Ru  Ru30  1  0.506974  0.875662  0.500000  1
  Ru  Ru31  1  0.124338  0.631312  0.500000  1
  Ru  Ru32  1  0.875662  0.506974  0.500000  1
  Ru  Ru33  1  0.631312  0.124338  0.500000  1
  Ru  Ru34  1  0.493026  0.368688  0.500000  1
  Ru  Ru35  1  0.000000  0.000000  0.000000  1
