# generated using pymatgen
data_Y6Th2MgZnIr2
_symmetry_space_group_name_H-M   'P 1'
_cell_length_a   9.73974746
_cell_length_b   9.73974754
_cell_length_c   9.77216800
_cell_angle_alpha   59.88983387
_cell_angle_beta   59.88983360
_cell_angle_gamma   59.95896867
_symmetry_Int_Tables_number   1
_chemical_formula_structural   Y6Th2MgZnIr2
_chemical_formula_sum   'Y12 Th4 Mg2 Zn2 Ir4'
_cell_volume   654.20180552
_cell_formula_units_Z   2
loop_
 _symmetry_equiv_pos_site_id
 _symmetry_equiv_pos_as_xyz
  1  'x, y, z'
loop_
 _atom_site_type_symbol
 _atom_site_label
 _atom_site_symmetry_multiplicity
 _atom_site_fract_x
 _atom_site_fract_y
 _atom_site_fract_z
 _atom_site_occupancy
  Y  Y0  1  0.061843  0.437164  0.439047  1
  Y  Y1  1  0.437164  0.061843  0.061945  1
  Y  Y2  1  0.437164  0.061843  0.439047  1
  Y  Y3  1  0.061843  0.437164  0.061945  1
  Y  Y4  1  0.438219  0.438219  0.061781  1
  Y  Y5  1  0.060163  0.060163  0.439837  1
  Y  Y6  1  0.182348  0.813105  0.815412  1
  Y  Y7  1  0.813105  0.182348  0.189135  1
  Y  Y8  1  0.813105  0.182348  0.815412  1
  Y  Y9  1  0.182348  0.813105  0.189135  1
  Y  Y10  1  0.814185  0.814185  0.185815  1
  Y  Y11  1  0.185639  0.185639  0.814361  1
  Th  Th12  1  0.600189  0.600189  0.597899  1
  Th  Th13  1  0.600189  0.600189  0.201722  1
  Th  Th14  1  0.603377  0.195689  0.600467  1
  Th  Th15  1  0.195689  0.603377  0.600467  1
  Mg  Mg16  1  0.829288  0.519780  0.825466  1
  Mg  Mg17  1  0.519780  0.829288  0.825466  1
  Zn  Zn18  1  0.833535  0.833535  0.836089  1
  Zn  Zn19  1  0.833535  0.833535  0.496842  1
  Ir  Ir20  1  0.393385  0.393385  0.395410  1
  Ir  Ir21  1  0.393385  0.393385  0.817820  1
  Ir  Ir22  1  0.392250  0.818271  0.394739  1
  Ir  Ir23  1  0.818271  0.392250  0.394739  1
