# generated using pymatgen
data_PrTh2As3
_symmetry_space_group_name_H-M   'P 1'
_cell_length_a   7.37962638
_cell_length_b   7.37962611
_cell_length_c   7.37962705
_cell_angle_alpha   146.38836492
_cell_angle_beta   131.57913722
_cell_angle_gamma   60.23374683
_symmetry_Int_Tables_number   1
_chemical_formula_structural   PrTh2As3
_chemical_formula_sum   'Pr1 Th2 As3'
_cell_volume   164.87354059
_cell_formula_units_Z   1
loop_
 _symmetry_equiv_pos_site_id
 _symmetry_equiv_pos_as_xyz
  1  'x, y, z'
loop_
 _atom_site_type_symbol
 _atom_site_label
 _atom_site_symmetry_multiplicity
 _atom_site_fract_x
 _atom_site_fract_y
 _atom_site_fract_z
 _atom_site_occupancy
  Pr  Pr0  1  0.000000  0.000000  0.000000  1
  Th  Th1  1  0.666024  0.666024  0.000000  1
  Th  Th2  1  0.333976  0.333976  0.000000  1
  As  As3  1  0.500000  0.000000  0.500000  1
  As  As4  1  0.169546  0.669546  0.500000  1
  As  As5  1  0.830454  0.330454  0.500000  1
