# generated using pymatgen
data_CeTh6Sc(Nb3Si4)4
_symmetry_space_group_name_H-M   'P 1'
_cell_length_a   6.99759952
_cell_length_b   7.19579592
_cell_length_c   13.55362644
_cell_angle_alpha   90.20025979
_cell_angle_beta   89.81501030
_cell_angle_gamma   90.06629684
_symmetry_Int_Tables_number   1
_chemical_formula_structural   CeTh6Sc(Nb3Si4)4
_chemical_formula_sum   'Ce1 Th6 Sc1 Nb12 Si16'
_cell_volume   682.46161821
_cell_formula_units_Z   1
loop_
 _symmetry_equiv_pos_site_id
 _symmetry_equiv_pos_as_xyz
  1  'x, y, z'
loop_
 _atom_site_type_symbol
 _atom_site_label
 _atom_site_symmetry_multiplicity
 _atom_site_fract_x
 _atom_site_fract_y
 _atom_site_fract_z
 _atom_site_occupancy
  Ce  Ce0  1  0.502596  0.669992  0.595474  1
  Th  Th1  1  0.000969  0.830669  0.903313  1
  Th  Th2  1  0.500386  0.330636  0.095888  1
  Th  Th3  1  0.997339  0.169821  0.407556  1
  Th  Th4  1  0.497684  0.331435  0.408485  1
  Th  Th5  1  0.000526  0.169537  0.095777  1
  Th  Th6  1  0.500882  0.669921  0.901573  1
  Sc  Sc7  1  0.000108  0.825937  0.599245  1
  Nb  Nb8  1  0.663290  0.171859  0.623439  1
  Nb  Nb9  1  0.162879  0.327558  0.872467  1
  Nb  Nb10  1  0.337463  0.827881  0.125140  1
  Nb  Nb11  1  0.836442  0.674634  0.376736  1
  Nb  Nb12  1  0.336232  0.827741  0.375912  1
  Nb  Nb13  1  0.836671  0.672229  0.125288  1
  Nb  Nb14  1  0.666394  0.169629  0.872703  1
  Nb  Nb15  1  0.164454  0.326708  0.623855  1
  Nb  Nb16  1  0.836369  0.492837  0.749289  1
  Nb  Nb17  1  0.336428  0.004193  0.747722  1
  Nb  Nb18  1  0.163390  0.507775  0.251049  1
  Nb  Nb19  1  0.663326  0.994077  0.251574  1
  Si  Si20  1  0.659882  0.954891  0.460070  1
  Si  Si21  1  0.160451  0.543308  0.042810  1
  Si  Si22  1  0.341438  0.044422  0.955027  1
  Si  Si23  1  0.843386  0.469551  0.546520  1
  Si  Si24  1  0.329105  0.031509  0.546219  1
  Si  Si25  1  0.839728  0.455627  0.955670  1
  Si  Si26  1  0.660031  0.956203  0.043143  1
  Si  Si27  1  0.156375  0.550504  0.461703  1
  Si  Si28  1  0.459397  0.368924  0.747557  1
  Si  Si29  1  0.960884  0.126040  0.745363  1
  Si  Si30  1  0.541077  0.631369  0.251403  1
  Si  Si31  1  0.040987  0.869414  0.250924  1
  Si  Si32  1  0.706215  0.880138  0.743502  1
  Si  Si33  1  0.197329  0.621877  0.743989  1
  Si  Si34  1  0.299723  0.116486  0.251601  1
  Si  Si35  1  0.800165  0.384665  0.252015  1
