# generated using pymatgen
data_Y2Ho3Pt4
_symmetry_space_group_name_H-M   'P 1'
_cell_length_a   7.49019000
_cell_length_b   7.56545700
_cell_length_c   14.72626800
_cell_angle_alpha   90.00000000
_cell_angle_beta   90.00000000
_cell_angle_gamma   90.00000000
_symmetry_Int_Tables_number   1
_chemical_formula_structural   Y2Ho3Pt4
_chemical_formula_sum   'Y8 Ho12 Pt16'
_cell_volume   834.48916354
_cell_formula_units_Z   4
loop_
 _symmetry_equiv_pos_site_id
 _symmetry_equiv_pos_as_xyz
  1  'x, y, z'
loop_
 _atom_site_type_symbol
 _atom_site_label
 _atom_site_symmetry_multiplicity
 _atom_site_fract_x
 _atom_site_fract_y
 _atom_site_fract_z
 _atom_site_occupancy
  Y  Y0  1  0.997821  0.819591  0.406938  1
  Y  Y1  1  0.497821  0.680409  0.093062  1
  Y  Y2  1  0.502179  0.319591  0.593062  1
  Y  Y3  1  0.002179  0.180409  0.906938  1
  Y  Y4  1  0.002179  0.180409  0.593062  1
  Y  Y5  1  0.502179  0.319591  0.906938  1
  Y  Y6  1  0.497821  0.680409  0.406938  1
  Y  Y7  1  0.997821  0.819591  0.093062  1
  Ho  Ho8  1  0.681530  0.988307  0.250000  1
  Ho  Ho9  1  0.181530  0.511693  0.250000  1
  Ho  Ho10  1  0.818470  0.488307  0.750000  1
  Ho  Ho11  1  0.318470  0.011693  0.750000  1
  Ho  Ho12  1  0.656334  0.832704  0.622311  1
  Ho  Ho13  1  0.156334  0.667296  0.877689  1
  Ho  Ho14  1  0.843666  0.332704  0.377689  1
  Ho  Ho15  1  0.343666  0.167296  0.122311  1
  Ho  Ho16  1  0.343666  0.167296  0.377689  1
  Ho  Ho17  1  0.843666  0.332704  0.122311  1
  Ho  Ho18  1  0.156334  0.667296  0.622311  1
  Ho  Ho19  1  0.656334  0.832704  0.877689  1
  Pt  Pt20  1  0.815549  0.641374  0.250000  1
  Pt  Pt21  1  0.315549  0.858626  0.250000  1
  Pt  Pt22  1  0.684451  0.141374  0.750000  1
  Pt  Pt23  1  0.184451  0.358626  0.750000  1
  Pt  Pt24  1  0.546902  0.386783  0.250000  1
  Pt  Pt25  1  0.046902  0.113217  0.250000  1
  Pt  Pt26  1  0.953098  0.886783  0.750000  1
  Pt  Pt27  1  0.453098  0.613217  0.750000  1
  Pt  Pt28  1  0.817223  0.532556  0.542125  1
  Pt  Pt29  1  0.317223  0.967444  0.957875  1
  Pt  Pt30  1  0.682777  0.032556  0.457875  1
  Pt  Pt31  1  0.182777  0.467444  0.042125  1
  Pt  Pt32  1  0.182777  0.467444  0.457875  1
  Pt  Pt33  1  0.682777  0.032556  0.042125  1
  Pt  Pt34  1  0.317223  0.967444  0.542125  1
  Pt  Pt35  1  0.817223  0.532556  0.957875  1
