# generated using pymatgen
data_Lu10InSn4Bi
_symmetry_space_group_name_H-M   'P 1'
_cell_length_a   8.84335978
_cell_length_b   8.80301618
_cell_length_c   6.39802200
_cell_angle_alpha   90.00000000
_cell_angle_beta   90.00000000
_cell_angle_gamma   120.29900158
_symmetry_Int_Tables_number   1
_chemical_formula_structural   Lu10InSn4Bi
_chemical_formula_sum   'Lu10 In1 Sn4 Bi1'
_cell_volume   430.03989918
_cell_formula_units_Z   1
loop_
 _symmetry_equiv_pos_site_id
 _symmetry_equiv_pos_as_xyz
  1  'x, y, z'
loop_
 _atom_site_type_symbol
 _atom_site_label
 _atom_site_symmetry_multiplicity
 _atom_site_fract_x
 _atom_site_fract_y
 _atom_site_fract_z
 _atom_site_occupancy
  Lu  Lu0  1  0.666367  0.338563  0.001951  1
  Lu  Lu1  1  0.328820  0.660120  0.002083  1
  Lu  Lu2  1  0.328820  0.660120  0.497917  1
  Lu  Lu3  1  0.666367  0.338563  0.498049  1
  Lu  Lu4  1  0.766331  0.758195  0.750000  1
  Lu  Lu5  1  0.236940  0.003567  0.750000  1
  Lu  Lu6  1  0.011378  0.244168  0.750000  1
  Lu  Lu7  1  0.235491  0.237547  0.250000  1
  Lu  Lu8  1  0.761591  0.998585  0.250000  1
  Lu  Lu9  1  0.996579  0.760077  0.250000  1
  In  In10  1  0.399490  0.398527  0.750000  1
  Sn  Sn11  1  0.001444  0.605017  0.750000  1
  Sn  Sn12  1  0.602542  0.605191  0.250000  1
  Sn  Sn13  1  0.392677  0.998594  0.250000  1
  Sn  Sn14  1  0.995932  0.392771  0.250000  1
  Bi  Bi15  1  0.609231  0.000397  0.750000  1
