# generated using pymatgen
data_Pr4MgCd3Rh4
_symmetry_space_group_name_H-M   'P 1'
_cell_length_a   4.24395500
_cell_length_b   7.28355630
_cell_length_c   8.82572333
_cell_angle_alpha   89.96776254
_cell_angle_beta   90.00000000
_cell_angle_gamma   90.00000000
_symmetry_Int_Tables_number   1
_chemical_formula_structural   Pr4MgCd3Rh4
_chemical_formula_sum   'Pr4 Mg1 Cd3 Rh4'
_cell_volume   272.81264259
_cell_formula_units_Z   1
loop_
 _symmetry_equiv_pos_site_id
 _symmetry_equiv_pos_as_xyz
  1  'x, y, z'
loop_
 _atom_site_type_symbol
 _atom_site_label
 _atom_site_symmetry_multiplicity
 _atom_site_fract_x
 _atom_site_fract_y
 _atom_site_fract_z
 _atom_site_occupancy
  Pr  Pr0  1  0.250000  0.039444  0.319311  1
  Pr  Pr1  1  0.750000  0.954813  0.678591  1
  Pr  Pr2  1  0.250000  0.545355  0.178524  1
  Pr  Pr3  1  0.750000  0.458703  0.821564  1
  Mg  Mg4  1  0.750000  0.368288  0.443684  1
  Cd  Cd5  1  0.250000  0.137514  0.941988  1
  Cd  Cd6  1  0.750000  0.865808  0.059011  1
  Cd  Cd7  1  0.250000  0.632671  0.558666  1
  Rh  Rh8  1  0.750000  0.260310  0.136539  1
  Rh  Rh9  1  0.250000  0.744435  0.869540  1
  Rh  Rh10  1  0.750000  0.750427  0.370452  1
  Rh  Rh11  1  0.250000  0.242233  0.622130  1
