# generated using pymatgen
data_CaHfTi3Co9As7
_symmetry_space_group_name_H-M   'P 1'
_cell_length_a   3.70466600
_cell_length_b   9.47786487
_cell_length_c   9.47786500
_cell_angle_alpha   119.99999697
_cell_angle_beta   90.00000000
_cell_angle_gamma   90.00000000
_symmetry_Int_Tables_number   1
_chemical_formula_structural   CaHfTi3Co9As7
_chemical_formula_sum   'Ca1 Hf1 Ti3 Co9 As7'
_cell_volume   288.20448527
_cell_formula_units_Z   1
loop_
 _symmetry_equiv_pos_site_id
 _symmetry_equiv_pos_as_xyz
  1  'x, y, z'
loop_
 _atom_site_type_symbol
 _atom_site_label
 _atom_site_symmetry_multiplicity
 _atom_site_fract_x
 _atom_site_fract_y
 _atom_site_fract_z
 _atom_site_occupancy
  Ca  Ca0  1  0.500000  0.333333  0.666667  1
  Hf  Hf1  1  0.000000  0.666667  0.333333  1
  Ti  Ti2  1  0.500000  0.775652  0.892597  1
  Ti  Ti3  1  0.500000  0.116944  0.224348  1
  Ti  Ti4  1  0.500000  0.107403  0.883056  1
  Co  Co5  1  0.000000  0.575162  0.944363  1
  Co  Co6  1  0.000000  0.369201  0.424838  1
  Co  Co7  1  0.000000  0.055637  0.630799  1
  Co  Co8  1  0.000000  0.879781  0.163020  1
  Co  Co9  1  0.000000  0.283241  0.120219  1
  Co  Co10  1  0.000000  0.836980  0.716759  1
  Co  Co11  1  0.500000  0.941534  0.382151  1
  Co  Co12  1  0.500000  0.440616  0.058466  1
  Co  Co13  1  0.500000  0.617849  0.559384  1
  As  As14  1  0.000000  0.000000  0.000000  1
  As  As15  1  0.500000  0.708499  0.126682  1
  As  As16  1  0.500000  0.418182  0.291501  1
  As  As17  1  0.500000  0.873318  0.581818  1
  As  As18  1  0.000000  0.578855  0.694167  1
  As  As19  1  0.000000  0.115312  0.421145  1
  As  As20  1  0.000000  0.305833  0.884688  1
