# generated using pymatgen
data_Ta2RuSe6
_symmetry_space_group_name_H-M   'P 1'
_cell_length_a   5.87503012
_cell_length_b   5.87502996
_cell_length_c   7.09807905
_cell_angle_alpha   82.05069815
_cell_angle_beta   82.05069710
_cell_angle_gamma   120.01246915
_symmetry_Int_Tables_number   1
_chemical_formula_structural   Ta2RuSe6
_chemical_formula_sum   'Ta2 Ru1 Se6'
_cell_volume   203.86739901
_cell_formula_units_Z   1
loop_
 _symmetry_equiv_pos_site_id
 _symmetry_equiv_pos_as_xyz
  1  'x, y, z'
loop_
 _atom_site_type_symbol
 _atom_site_label
 _atom_site_symmetry_multiplicity
 _atom_site_fract_x
 _atom_site_fract_y
 _atom_site_fract_z
 _atom_site_occupancy
  Ta  Ta0  1  0.833240  0.500091  0.499927  1
  Ta  Ta1  1  0.500091  0.833240  0.499927  1
  Ru  Ru2  1  0.166690  0.166690  0.500107  1
  Se  Se3  1  0.573860  0.248242  0.255735  1
  Se  Se4  1  0.248242  0.573860  0.255735  1
  Se  Se5  1  0.922642  0.922642  0.256061  1
  Se  Se6  1  0.759776  0.759776  0.744534  1
  Se  Se7  1  0.410584  0.084780  0.744136  1
  Se  Se8  1  0.084780  0.410584  0.744136  1
