# generated using pymatgen
data_Hf18GaRe7PW
_symmetry_space_group_name_H-M   'P 1'
_cell_length_a   8.61194900
_cell_length_b   8.61194822
_cell_length_c   8.62721100
_cell_angle_alpha   90.00000000
_cell_angle_beta   90.00000000
_cell_angle_gamma   119.99999915
_symmetry_Int_Tables_number   1
_chemical_formula_structural   Hf18GaRe7PW
_chemical_formula_sum   'Hf18 Ga1 Re7 P1 W1'
_cell_volume   554.12011365
_cell_formula_units_Z   1
loop_
 _symmetry_equiv_pos_site_id
 _symmetry_equiv_pos_as_xyz
  1  'x, y, z'
loop_
 _atom_site_type_symbol
 _atom_site_label
 _atom_site_symmetry_multiplicity
 _atom_site_fract_x
 _atom_site_fract_y
 _atom_site_fract_z
 _atom_site_occupancy
  Hf  Hf0  1  0.194583  0.805417  0.452300  1
  Hf  Hf1  1  0.194583  0.389166  0.452300  1
  Hf  Hf2  1  0.610834  0.805417  0.452300  1
  Hf  Hf3  1  0.802843  0.197157  0.549363  1
  Hf  Hf4  1  0.802843  0.605688  0.549363  1
  Hf  Hf5  1  0.394312  0.197157  0.549363  1
  Hf  Hf6  1  0.804182  0.195818  0.950252  1
  Hf  Hf7  1  0.804182  0.608364  0.950252  1
  Hf  Hf8  1  0.391636  0.195818  0.950252  1
  Hf  Hf9  1  0.192999  0.807001  0.047757  1
  Hf  Hf10  1  0.192999  0.385999  0.047757  1
  Hf  Hf11  1  0.614001  0.807001  0.047757  1
  Hf  Hf12  1  0.540180  0.459820  0.249272  1
  Hf  Hf13  1  0.540180  0.080361  0.249272  1
  Hf  Hf14  1  0.919639  0.459820  0.249272  1
  Hf  Hf15  1  0.459206  0.540794  0.750519  1
  Hf  Hf16  1  0.459206  0.918411  0.750519  1
  Hf  Hf17  1  0.081589  0.540794  0.750519  1
  Ga  Ga18  1  0.333333  0.666667  0.248823  1
  Re  Re19  1  0.889576  0.110424  0.250921  1
  Re  Re20  1  0.889576  0.779151  0.250921  1
  Re  Re21  1  0.220849  0.110424  0.250921  1
  Re  Re22  1  0.109979  0.890021  0.749492  1
  Re  Re23  1  0.109979  0.219959  0.749492  1
  Re  Re24  1  0.780041  0.890021  0.749492  1
  Re  Re25  1  0.000000  0.000000  0.000317  1
  P  P26  1  0.666667  0.333333  0.751022  1
  W  W27  1  0.000000  0.000000  0.500209  1
