# generated using pymatgen
data_Pa2Ni7
_symmetry_space_group_name_H-M   'P 1'
_cell_length_a   4.82912938
_cell_length_b   4.82912943
_cell_length_c   6.48579154
_cell_angle_alpha   81.55490004
_cell_angle_beta   81.55489831
_cell_angle_gamma   119.79658626
_symmetry_Int_Tables_number   1
_chemical_formula_structural   Pa2Ni7
_chemical_formula_sum   'Pa2 Ni7'
_cell_volume   125.50220904
_cell_formula_units_Z   1
loop_
 _symmetry_equiv_pos_site_id
 _symmetry_equiv_pos_as_xyz
  1  'x, y, z'
loop_
 _atom_site_type_symbol
 _atom_site_label
 _atom_site_symmetry_multiplicity
 _atom_site_fract_x
 _atom_site_fract_y
 _atom_site_fract_z
 _atom_site_occupancy
  Pa  Pa0  1  0.119807  0.119807  0.229967  1
  Pa  Pa1  1  0.880193  0.880193  0.770033  1
  Ni  Ni2  1  0.000000  0.500000  0.500000  1
  Ni  Ni3  1  0.500000  0.000000  0.500000  1
  Ni  Ni4  1  0.475581  0.800329  0.154693  1
  Ni  Ni5  1  0.524419  0.199671  0.845307  1
  Ni  Ni6  1  0.199671  0.524419  0.845307  1
  Ni  Ni7  1  0.800329  0.475581  0.154693  1
  Ni  Ni8  1  0.500000  0.500000  0.500000  1
