# generated using pymatgen
data_DyY3ScSi3H
_symmetry_space_group_name_H-M   'P 1'
_cell_length_a   8.38486600
_cell_length_b   8.38486517
_cell_length_c   6.10775300
_cell_angle_alpha   90.00000000
_cell_angle_beta   90.00000000
_cell_angle_gamma   120.00000329
_symmetry_Int_Tables_number   1
_chemical_formula_structural   DyY3ScSi3H
_chemical_formula_sum   'Dy2 Y6 Sc2 Si6 H2'
_cell_volume   371.88125910
_cell_formula_units_Z   2
loop_
 _symmetry_equiv_pos_site_id
 _symmetry_equiv_pos_as_xyz
  1  'x, y, z'
loop_
 _atom_site_type_symbol
 _atom_site_label
 _atom_site_symmetry_multiplicity
 _atom_site_fract_x
 _atom_site_fract_y
 _atom_site_fract_z
 _atom_site_occupancy
  Dy  Dy0  1  0.333333  0.666667  0.500000  1
  Dy  Dy1  1  0.666667  0.333333  0.500000  1
  Y  Y2  1  0.748428  0.748428  0.754350  1
  Y  Y3  1  0.251572  0.000000  0.754350  1
  Y  Y4  1  0.000000  0.251572  0.754350  1
  Y  Y5  1  0.251572  0.251572  0.245650  1
  Y  Y6  1  0.748428  0.000000  0.245650  1
  Y  Y7  1  0.000000  0.748428  0.245650  1
  Sc  Sc8  1  0.666667  0.333333  0.000000  1
  Sc  Sc9  1  0.333333  0.666667  0.000000  1
  Si  Si10  1  0.392351  0.392351  0.764311  1
  Si  Si11  1  0.607649  0.000000  0.764311  1
  Si  Si12  1  0.000000  0.607649  0.764311  1
  Si  Si13  1  0.607649  0.607649  0.235689  1
  Si  Si14  1  0.392351  0.000000  0.235689  1
  Si  Si15  1  0.000000  0.392351  0.235689  1
  H  H16  1  0.000000  0.000000  0.500000  1
  H  H17  1  0.000000  0.000000  0.000000  1
