# generated using pymatgen
data_Li4LaAs2
_symmetry_space_group_name_H-M   'P 1'
_cell_length_a   8.36720964
_cell_length_b   8.36720979
_cell_length_c   8.36720897
_cell_angle_alpha   29.94333703
_cell_angle_beta   29.94333522
_cell_angle_gamma   29.94334411
_symmetry_Int_Tables_number   1
_chemical_formula_structural   Li4LaAs2
_chemical_formula_sum   'Li4 La1 As2'
_cell_volume   129.26556269
_cell_formula_units_Z   1
loop_
 _symmetry_equiv_pos_site_id
 _symmetry_equiv_pos_as_xyz
  1  'x, y, z'
loop_
 _atom_site_type_symbol
 _atom_site_label
 _atom_site_symmetry_multiplicity
 _atom_site_fract_x
 _atom_site_fract_y
 _atom_site_fract_z
 _atom_site_occupancy
  Li  Li0  1  0.430259  0.430259  0.430259  1
  Li  Li1  1  0.139271  0.139271  0.139271  1
  Li  Li2  1  0.569741  0.569741  0.569741  1
  Li  Li3  1  0.860729  0.860729  0.860729  1
  La  La4  1  0.000000  0.000000  0.000000  1
  As  As5  1  0.749771  0.749771  0.749771  1
  As  As6  1  0.250229  0.250229  0.250229  1
