# generated using pymatgen
data_Tb5Tm2P12Ir17
_symmetry_space_group_name_H-M   'P 1'
_cell_length_a   12.71518400
_cell_length_b   13.00174516
_cell_length_c   3.98652500
_cell_angle_alpha   90.00000000
_cell_angle_beta   90.00000000
_cell_angle_gamma   119.27355514
_symmetry_Int_Tables_number   1
_chemical_formula_structural   Tb5Tm2P12Ir17
_chemical_formula_sum   'Tb5 Tm2 P12 Ir17'
_cell_volume   574.88661968
_cell_formula_units_Z   1
loop_
 _symmetry_equiv_pos_site_id
 _symmetry_equiv_pos_as_xyz
  1  'x, y, z'
loop_
 _atom_site_type_symbol
 _atom_site_label
 _atom_site_symmetry_multiplicity
 _atom_site_fract_x
 _atom_site_fract_y
 _atom_site_fract_z
 _atom_site_occupancy
  Tb  Tb0  1  0.329779  0.662031  0.500000  1
  Tb  Tb1  1  0.667749  0.337969  0.500000  1
  Tb  Tb2  1  0.002622  0.816587  0.000000  1
  Tb  Tb3  1  0.186035  0.183413  0.000000  1
  Tb  Tb4  1  0.810875  0.000000  0.000000  1
  Tm  Tm5  1  0.996017  0.443754  0.500000  1
  Tm  Tm6  1  0.552264  0.556246  0.500000  1
  P  P7  1  0.009703  0.657680  0.500000  1
  P  P8  1  0.352023  0.342320  0.500000  1
  P  P9  1  0.643855  0.000000  0.500000  1
  P  P10  1  0.516565  0.690570  0.000000  1
  P  P11  1  0.309032  0.824529  0.000000  1
  P  P12  1  0.166623  0.480245  0.000000  1
  P  P13  1  0.484501  0.175471  0.000000  1
  P  P14  1  0.686379  0.519755  0.000000  1
  P  P15  1  0.825995  0.309430  0.000000  1
  P  P16  1  0.999400  0.174899  0.500000  1
  P  P17  1  0.824501  0.825101  0.500000  1
  P  P18  1  0.181808  0.000000  0.500000  1
  Ir  Ir19  1  0.504456  0.866154  0.000000  1
  Ir  Ir20  1  0.121704  0.645281  0.000000  1
  Ir  Ir21  1  0.357843  0.501247  0.000000  1
  Ir  Ir22  1  0.476424  0.354719  0.000000  1
  Ir  Ir23  1  0.856597  0.498753  0.000000  1
  Ir  Ir24  1  0.638302  0.133846  0.000000  1
  Ir  Ir25  1  0.465030  0.000000  0.500000  1
  Ir  Ir26  1  0.996480  0.272547  0.000000  1
  Ir  Ir27  1  0.723933  0.727453  0.000000  1
  Ir  Ir28  1  0.287410  0.000000  0.000000  1
  Ir  Ir29  1  0.623761  0.810419  0.500000  1
  Ir  Ir30  1  0.208879  0.828675  0.500000  1
  Ir  Ir31  1  0.180526  0.364605  0.500000  1
  Ir  Ir32  1  0.380204  0.171325  0.500000  1
  Ir  Ir33  1  0.815922  0.635395  0.500000  1
  Ir  Ir34  1  0.813342  0.189581  0.500000  1
  Ir  Ir35  1  0.003460  0.000000  0.500000  1
