# generated using pymatgen
data_Ho3Zn3CuPdPt
_symmetry_space_group_name_H-M   'P 1'
_cell_length_a   7.34641200
_cell_length_b   7.34641164
_cell_length_c   3.71314000
_cell_angle_alpha   90.00000000
_cell_angle_beta   90.00000000
_cell_angle_gamma   120.00000163
_symmetry_Int_Tables_number   1
_chemical_formula_structural   Ho3Zn3CuPdPt
_chemical_formula_sum   'Ho3 Zn3 Cu1 Pd1 Pt1'
_cell_volume   173.54914909
_cell_formula_units_Z   1
loop_
 _symmetry_equiv_pos_site_id
 _symmetry_equiv_pos_as_xyz
  1  'x, y, z'
loop_
 _atom_site_type_symbol
 _atom_site_label
 _atom_site_symmetry_multiplicity
 _atom_site_fract_x
 _atom_site_fract_y
 _atom_site_fract_z
 _atom_site_occupancy
  Ho  Ho0  1  0.409538  0.405283  0.000000  1
  Ho  Ho1  1  0.594717  0.004255  0.000000  1
  Ho  Ho2  1  0.995745  0.590462  0.000000  1
  Zn  Zn3  1  0.753794  0.755452  0.500000  1
  Zn  Zn4  1  0.244548  0.998342  0.500000  1
  Zn  Zn5  1  0.001658  0.246206  0.500000  1
  Cu  Cu6  1  0.000000  0.000000  0.000000  1
  Pd  Pd7  1  0.333333  0.666667  0.500000  1
  Pt  Pt8  1  0.666667  0.333333  0.500000  1
