# generated using pymatgen
data_HoPa5(Sn4Pd3)2
_symmetry_space_group_name_H-M   'P 1'
_cell_length_a   8.37577676
_cell_length_b   8.37577649
_cell_length_c   8.37577700
_cell_angle_alpha   109.57509991
_cell_angle_beta   109.41929631
_cell_angle_gamma   109.41930749
_symmetry_Int_Tables_number   1
_chemical_formula_structural   HoPa5(Sn4Pd3)2
_chemical_formula_sum   'Ho1 Pa5 Sn8 Pd6'
_cell_volume   452.32684260
_cell_formula_units_Z   1
loop_
 _symmetry_equiv_pos_site_id
 _symmetry_equiv_pos_as_xyz
  1  'x, y, z'
loop_
 _atom_site_type_symbol
 _atom_site_label
 _atom_site_symmetry_multiplicity
 _atom_site_fract_x
 _atom_site_fract_y
 _atom_site_fract_z
 _atom_site_occupancy
  Ho  Ho0  1  0.750000  0.875000  0.125000  1
  Pa  Pa1  1  0.875783  0.125217  0.751382  1
  Pa  Pa2  1  0.126166  0.750565  0.874783  1
  Pa  Pa3  1  0.373834  0.248618  0.624399  1
  Pa  Pa4  1  0.624217  0.375601  0.249435  1
  Pa  Pa5  1  0.250000  0.625000  0.375000  1
  Sn  Sn6  1  0.502415  0.000053  0.825225  1
  Sn  Sn7  1  0.174827  0.174775  0.177189  1
  Sn  Sn8  1  0.502985  0.001212  0.322382  1
  Sn  Sn9  1  0.821171  0.501774  0.998788  1
  Sn  Sn10  1  0.997015  0.319396  0.498226  1
  Sn  Sn11  1  0.325173  0.502362  0.999947  1
  Sn  Sn12  1  0.997585  0.822811  0.497638  1
  Sn  Sn13  1  0.678829  0.677618  0.680604  1
  Pd  Pd14  1  0.878696  0.258710  0.127486  1
  Pd  Pd15  1  0.750000  0.375000  0.625000  1
  Pd  Pd16  1  0.250000  0.125000  0.875000  1
  Pd  Pd17  1  0.621304  0.748789  0.380014  1
  Pd  Pd18  1  0.131225  0.872514  0.251211  1
  Pd  Pd19  1  0.368775  0.619986  0.741290  1
