# generated using pymatgen
data_Eu2B4RuRh3
_symmetry_space_group_name_H-M   'P 1'
_cell_length_a   7.00439678
_cell_length_b   6.07514222
_cell_length_c   5.60150441
_cell_angle_alpha   73.59429301
_cell_angle_beta   56.30681672
_cell_angle_gamma   50.29981447
_symmetry_Int_Tables_number   1
_chemical_formula_structural   Eu2B4RuRh3
_chemical_formula_sum   'Eu2 B4 Ru1 Rh3'
_cell_volume   151.62064491
_cell_formula_units_Z   1
loop_
 _symmetry_equiv_pos_site_id
 _symmetry_equiv_pos_as_xyz
  1  'x, y, z'
loop_
 _atom_site_type_symbol
 _atom_site_label
 _atom_site_symmetry_multiplicity
 _atom_site_fract_x
 _atom_site_fract_y
 _atom_site_fract_z
 _atom_site_occupancy
  Eu  Eu0  1  0.499130  0.499130  0.500870  1
  Eu  Eu1  1  0.751394  0.751394  0.748606  1
  B  B2  1  0.822298  0.187196  0.830058  1
  B  B3  1  0.063309  0.429351  0.076558  1
  B  B4  1  0.187196  0.822298  0.160448  1
  B  B5  1  0.429351  0.063309  0.430782  1
  Ru  Ru6  1  0.133149  0.133149  0.866851  1
  Rh  Rh7  1  0.381058  0.381058  0.118942  1
  Rh  Rh8  1  0.116213  0.116213  0.383787  1
  Rh  Rh9  1  0.866903  0.866903  0.133097  1
