# generated using pymatgen
data_Np2(B2Ir)3
_symmetry_space_group_name_H-M   'P 1'
_cell_length_a   3.70050500
_cell_length_b   5.97005984
_cell_length_c   5.97005962
_cell_angle_alpha   94.44181508
_cell_angle_beta   90.00000000
_cell_angle_gamma   90.00000000
_symmetry_Int_Tables_number   1
_chemical_formula_structural   Np2(B2Ir)3
_chemical_formula_sum   'Np2 B6 Ir3'
_cell_volume   131.49582988
_cell_formula_units_Z   1
loop_
 _symmetry_equiv_pos_site_id
 _symmetry_equiv_pos_as_xyz
  1  'x, y, z'
loop_
 _atom_site_type_symbol
 _atom_site_label
 _atom_site_symmetry_multiplicity
 _atom_site_fract_x
 _atom_site_fract_y
 _atom_site_fract_z
 _atom_site_occupancy
  Np  Np0  1  0.000000  0.273267  0.726733  1
  Np  Np1  1  0.000000  0.726733  0.273267  1
  B  B2  1  0.500000  0.914663  0.612497  1
  B  B3  1  0.500000  0.085337  0.387503  1
  B  B4  1  0.500000  0.612497  0.914663  1
  B  B5  1  0.500000  0.387503  0.085337  1
  B  B6  1  0.500000  0.606110  0.606110  1
  B  B7  1  0.500000  0.393890  0.393890  1
  Ir  Ir8  1  0.500000  0.000000  0.000000  1
  Ir  Ir9  1  0.000000  0.763717  0.763717  1
  Ir  Ir10  1  0.000000  0.236283  0.236283  1
