# generated using pymatgen
data_Er16Cd3Co4Hg
_symmetry_space_group_name_H-M   'P 1'
_cell_length_a   9.38230347
_cell_length_b   9.37471123
_cell_length_c   9.38230400
_cell_angle_alpha   59.97320443
_cell_angle_beta   59.99999814
_cell_angle_gamma   59.97320301
_symmetry_Int_Tables_number   1
_chemical_formula_structural   Er16Cd3Co4Hg
_chemical_formula_sum   'Er16 Cd3 Co4 Hg1'
_cell_volume   583.29177508
_cell_formula_units_Z   1
loop_
 _symmetry_equiv_pos_site_id
 _symmetry_equiv_pos_as_xyz
  1  'x, y, z'
loop_
 _atom_site_type_symbol
 _atom_site_label
 _atom_site_symmetry_multiplicity
 _atom_site_fract_x
 _atom_site_fract_y
 _atom_site_fract_z
 _atom_site_occupancy
  Er  Er0  1  0.153630  0.539110  0.153630  1
  Er  Er1  1  0.687919  0.311760  0.687919  1
  Er  Er2  1  0.687919  0.311760  0.312401  1
  Er  Er3  1  0.937678  0.561369  0.563275  1
  Er  Er4  1  0.540857  0.153360  0.152891  1
  Er  Er5  1  0.152891  0.153360  0.540857  1
  Er  Er6  1  0.937726  0.937150  0.562562  1
  Er  Er7  1  0.312665  0.687072  0.312665  1
  Er  Er8  1  0.562562  0.937150  0.937726  1
  Er  Er9  1  0.562562  0.937150  0.562562  1
  Er  Er10  1  0.687598  0.687072  0.312665  1
  Er  Er11  1  0.563275  0.561369  0.937678  1
  Er  Er12  1  0.937678  0.561369  0.937678  1
  Er  Er13  1  0.312665  0.687072  0.687598  1
  Er  Er14  1  0.152891  0.153360  0.152891  1
  Er  Er15  1  0.312401  0.311760  0.687919  1
  Cd  Cd16  1  0.920024  0.919647  0.920024  1
  Cd  Cd17  1  0.920024  0.919647  0.240306  1
  Cd  Cd18  1  0.240306  0.919647  0.920024  1
  Co  Co19  1  0.359015  0.358629  0.923342  1
  Co  Co20  1  0.358940  0.923182  0.358940  1
  Co  Co21  1  0.923342  0.358629  0.359015  1
  Co  Co22  1  0.359015  0.358629  0.359015  1
  Hg  Hg23  1  0.916418  0.250747  0.916418  1
