# generated using pymatgen
data_Dy4Y9Tm3(CdPt)4
_symmetry_space_group_name_H-M   'P 1'
_cell_length_a   9.67019625
_cell_length_b   9.67430948
_cell_length_c   9.69755120
_cell_angle_alpha   59.89241655
_cell_angle_beta   60.07387506
_cell_angle_gamma   60.17311059
_symmetry_Int_Tables_number   1
_chemical_formula_structural   Dy4Y9Tm3(CdPt)4
_chemical_formula_sum   'Dy4 Y9 Tm3 Cd4 Pt4'
_cell_volume   642.17614188
_cell_formula_units_Z   1
loop_
 _symmetry_equiv_pos_site_id
 _symmetry_equiv_pos_as_xyz
  1  'x, y, z'
loop_
 _atom_site_type_symbol
 _atom_site_label
 _atom_site_symmetry_multiplicity
 _atom_site_fract_x
 _atom_site_fract_y
 _atom_site_fract_z
 _atom_site_occupancy
  Dy  Dy0  1  0.352765  0.351829  0.352063  1
  Dy  Dy1  1  0.353087  0.352891  0.941681  1
  Dy  Dy2  1  0.352063  0.943342  0.352765  1
  Dy  Dy3  1  0.941681  0.352340  0.353087  1
  Y  Y4  1  0.811254  0.188746  0.811254  1
  Y  Y5  1  0.189038  0.188596  0.811587  1
  Y  Y6  1  0.811587  0.810779  0.189038  1
  Y  Y7  1  0.936397  0.564930  0.563161  1
  Y  Y8  1  0.563161  0.935512  0.936397  1
  Y  Y9  1  0.564268  0.935732  0.564268  1
  Y  Y10  1  0.936387  0.563613  0.936387  1
  Y  Y11  1  0.562853  0.564738  0.936616  1
  Y  Y12  1  0.936616  0.935793  0.562853  1
  Tm  Tm13  1  0.811257  0.188986  0.189418  1
  Tm  Tm14  1  0.189418  0.810339  0.811257  1
  Tm  Tm15  1  0.189350  0.810650  0.189350  1
  Cd  Cd16  1  0.581499  0.582105  0.581648  1
  Cd  Cd17  1  0.581513  0.582034  0.254317  1
  Cd  Cd18  1  0.581648  0.254749  0.581499  1
  Cd  Cd19  1  0.254317  0.582137  0.581513  1
  Pt  Pt20  1  0.141290  0.142718  0.145185  1
  Pt  Pt21  1  0.143747  0.141402  0.569617  1
  Pt  Pt22  1  0.145185  0.570806  0.141290  1
  Pt  Pt23  1  0.569617  0.145233  0.143747  1
