# generated using pymatgen
data_Ca3DyIr8
_symmetry_space_group_name_H-M   'P 1'
_cell_length_a   5.35194300
_cell_length_b   5.35194360
_cell_length_c   8.77216500
_cell_angle_alpha   90.00000000
_cell_angle_beta   90.00000000
_cell_angle_gamma   120.00000248
_symmetry_Int_Tables_number   1
_chemical_formula_structural   Ca3DyIr8
_chemical_formula_sum   'Ca3 Dy1 Ir8'
_cell_volume   217.60076616
_cell_formula_units_Z   1
loop_
 _symmetry_equiv_pos_site_id
 _symmetry_equiv_pos_as_xyz
  1  'x, y, z'
loop_
 _atom_site_type_symbol
 _atom_site_label
 _atom_site_symmetry_multiplicity
 _atom_site_fract_x
 _atom_site_fract_y
 _atom_site_fract_z
 _atom_site_occupancy
  Ca  Ca0  1  0.333334  0.666667  0.437404  1
  Ca  Ca1  1  0.666666  0.333334  0.568007  1
  Ca  Ca2  1  0.666666  0.333334  0.927539  1
  Dy  Dy3  1  0.333334  0.666667  0.069665  1
  Ir  Ir4  1  0.000000  0.000000  0.999098  1
  Ir  Ir5  1  0.341047  0.170524  0.248192  1
  Ir  Ir6  1  0.829476  0.170524  0.248192  1
  Ir  Ir7  1  0.829476  0.658952  0.248192  1
  Ir  Ir8  1  0.000000  0.000000  0.499740  1
  Ir  Ir9  1  0.170369  0.340738  0.751324  1
  Ir  Ir10  1  0.170370  0.829630  0.751324  1
  Ir  Ir11  1  0.659260  0.829630  0.751324  1
