# generated using pymatgen
data_Dy2ThIn3Pt2Rh
_symmetry_space_group_name_H-M   'P 1'
_cell_length_a   7.80172036
_cell_length_b   7.73417420
_cell_length_c   3.85044300
_cell_angle_alpha   90.00000000
_cell_angle_beta   90.00000000
_cell_angle_gamma   119.71398782
_symmetry_Int_Tables_number   1
_chemical_formula_structural   Dy2ThIn3Pt2Rh
_chemical_formula_sum   'Dy2 Th1 In3 Pt2 Rh1'
_cell_volume   201.78557476
_cell_formula_units_Z   1
loop_
 _symmetry_equiv_pos_site_id
 _symmetry_equiv_pos_as_xyz
  1  'x, y, z'
loop_
 _atom_site_type_symbol
 _atom_site_label
 _atom_site_symmetry_multiplicity
 _atom_site_fract_x
 _atom_site_fract_y
 _atom_site_fract_z
 _atom_site_occupancy
  Dy  Dy0  1  0.593845  0.004044  0.500000  1
  Dy  Dy1  1  0.406155  0.410199  0.500000  1
  Th  Th2  1  0.000000  0.593493  0.500000  1
  In  In3  1  0.000000  0.244133  0.000000  1
  In  In4  1  0.268416  0.013285  0.000000  1
  In  In5  1  0.731584  0.744869  0.000000  1
  Pt  Pt6  1  0.674236  0.339813  0.000000  1
  Pt  Pt7  1  0.325764  0.665578  0.000000  1
  Rh  Rh8  1  0.000000  0.984588  0.500000  1
