# generated using pymatgen
data_Tb3CeCdFe
_symmetry_space_group_name_H-M   'P 1'
_cell_length_a   9.53511937
_cell_length_b   9.53511877
_cell_length_c   9.53512000
_cell_angle_alpha   60.00000267
_cell_angle_beta   60.00000476
_cell_angle_gamma   60.00000108
_symmetry_Int_Tables_number   1
_chemical_formula_structural   Tb3CeCdFe
_chemical_formula_sum   'Tb12 Ce4 Cd4 Fe4'
_cell_volume   613.00417794
_cell_formula_units_Z   4
loop_
 _symmetry_equiv_pos_site_id
 _symmetry_equiv_pos_as_xyz
  1  'x, y, z'
loop_
 _atom_site_type_symbol
 _atom_site_label
 _atom_site_symmetry_multiplicity
 _atom_site_fract_x
 _atom_site_fract_y
 _atom_site_fract_z
 _atom_site_occupancy
  Tb  Tb0  1  0.560942  0.560942  0.939058  1
  Tb  Tb1  1  0.939058  0.560942  0.939058  1
  Tb  Tb2  1  0.560942  0.939058  0.939058  1
  Tb  Tb3  1  0.939058  0.939058  0.560942  1
  Tb  Tb4  1  0.560942  0.939058  0.560942  1
  Tb  Tb5  1  0.939058  0.560942  0.560942  1
  Tb  Tb6  1  0.188928  0.188928  0.811072  1
  Tb  Tb7  1  0.811072  0.188928  0.811072  1
  Tb  Tb8  1  0.188927  0.811073  0.811072  1
  Tb  Tb9  1  0.811072  0.811073  0.188928  1
  Tb  Tb10  1  0.188927  0.811072  0.188927  1
  Tb  Tb11  1  0.811072  0.188928  0.188928  1
  Ce  Ce12  1  0.341037  0.341037  0.976890  1
  Ce  Ce13  1  0.341037  0.976890  0.341037  1
  Ce  Ce14  1  0.976890  0.341037  0.341037  1
  Ce  Ce15  1  0.341037  0.341037  0.341037  1
  Cd  Cd16  1  0.580242  0.580242  0.259275  1
  Cd  Cd17  1  0.580242  0.259275  0.580242  1
  Cd  Cd18  1  0.259275  0.580242  0.580242  1
  Cd  Cd19  1  0.580242  0.580242  0.580242  1
  Fe  Fe20  1  0.147669  0.147669  0.556992  1
  Fe  Fe21  1  0.147669  0.556992  0.147669  1
  Fe  Fe22  1  0.556992  0.147669  0.147669  1
  Fe  Fe23  1  0.147669  0.147669  0.147669  1
