# generated using pymatgen
data_BaCdInPt
_symmetry_space_group_name_H-M   'P 1'
_cell_length_a   6.20717271
_cell_length_b   6.20717244
_cell_length_c   8.44796210
_cell_angle_alpha   89.79364598
_cell_angle_beta   90.20635586
_cell_angle_gamma   137.69072969
_symmetry_Int_Tables_number   1
_chemical_formula_structural   BaCdInPt
_chemical_formula_sum   'Ba2 Cd2 In2 Pt2'
_cell_volume   219.09714012
_cell_formula_units_Z   2
loop_
 _symmetry_equiv_pos_site_id
 _symmetry_equiv_pos_as_xyz
  1  'x, y, z'
loop_
 _atom_site_type_symbol
 _atom_site_label
 _atom_site_symmetry_multiplicity
 _atom_site_fract_x
 _atom_site_fract_y
 _atom_site_fract_z
 _atom_site_occupancy
  Ba  Ba0  1  0.443627  0.556373  0.746497  1
  Ba  Ba1  1  0.556373  0.443627  0.253503  1
  Cd  Cd2  1  0.836907  0.163093  0.447129  1
  Cd  Cd3  1  0.163093  0.836907  0.552871  1
  In  In4  1  0.841269  0.158731  0.059119  1
  In  In5  1  0.158731  0.841269  0.940881  1
  Pt  Pt6  1  0.724367  0.275633  0.759433  1
  Pt  Pt7  1  0.275633  0.724367  0.240567  1
