# generated using pymatgen
data_BI19
_symmetry_space_group_name_H-M   'P 1'
_cell_length_a   11.21541899
_cell_length_b   11.21541750
_cell_length_c   11.21542135
_cell_angle_alpha   97.14938042
_cell_angle_beta   97.14937291
_cell_angle_gamma   97.14938960
_symmetry_Int_Tables_number   1
_chemical_formula_structural   BI19
_chemical_formula_sum   'B1 I19'
_cell_volume   1374.78342870
_cell_formula_units_Z   1
loop_
 _symmetry_equiv_pos_site_id
 _symmetry_equiv_pos_as_xyz
  1  'x, y, z'
loop_
 _atom_site_type_symbol
 _atom_site_label
 _atom_site_symmetry_multiplicity
 _atom_site_fract_x
 _atom_site_fract_y
 _atom_site_fract_z
 _atom_site_occupancy
  B  B0  1  0.087029  0.087029  0.087029  1
  I  I1  1  0.425278  0.425278  0.425278  1
  I  I2  1  0.914271  0.124001  0.548554  1
  I  I3  1  0.124001  0.548554  0.914271  1
  I  I4  1  0.548554  0.914271  0.124001  1
  I  I5  1  0.945508  0.189834  0.123935  1
  I  I6  1  0.189834  0.123935  0.945508  1
  I  I7  1  0.123935  0.945508  0.189834  1
  I  I8  1  0.171199  0.144069  0.543798  1
  I  I9  1  0.144069  0.543798  0.171199  1
  I  I10  1  0.543798  0.171199  0.144069  1
  I  I11  1  0.498878  0.976215  0.639672  1
  I  I12  1  0.976215  0.639672  0.498878  1
  I  I13  1  0.639672  0.498878  0.976215  1
  I  I14  1  0.954869  0.340049  0.758232  1
  I  I15  1  0.340049  0.758232  0.954869  1
  I  I16  1  0.758232  0.954869  0.340049  1
  I  I17  1  0.533904  0.446733  0.178172  1
  I  I18  1  0.446733  0.178172  0.533904  1
  I  I19  1  0.178172  0.533904  0.446733  1
