# generated using pymatgen
data_KCe2Sm(SbAu)4
_symmetry_space_group_name_H-M   'P 1'
_cell_length_a   4.67751300
_cell_length_b   4.67751404
_cell_length_c   17.52835900
_cell_angle_alpha   90.00000000
_cell_angle_beta   90.00000000
_cell_angle_gamma   119.99999970
_symmetry_Int_Tables_number   1
_chemical_formula_structural   KCe2Sm(SbAu)4
_chemical_formula_sum   'K1 Ce2 Sm1 Sb4 Au4'
_cell_volume   332.12532752
_cell_formula_units_Z   1
loop_
 _symmetry_equiv_pos_site_id
 _symmetry_equiv_pos_as_xyz
  1  'x, y, z'
loop_
 _atom_site_type_symbol
 _atom_site_label
 _atom_site_symmetry_multiplicity
 _atom_site_fract_x
 _atom_site_fract_y
 _atom_site_fract_z
 _atom_site_occupancy
  K  K0  1  0.000000  0.000000  0.250000  1
  Ce  Ce1  1  0.000000  0.000000  0.511794  1
  Ce  Ce2  1  0.000000  0.000000  0.988206  1
  Sm  Sm3  1  0.000000  0.000000  0.750000  1
  Sb  Sb4  1  0.333333  0.666667  0.391494  1
  Sb  Sb5  1  0.666667  0.333333  0.618202  1
  Sb  Sb6  1  0.666667  0.333333  0.881798  1
  Sb  Sb7  1  0.333333  0.666667  0.108506  1
  Au  Au8  1  0.666667  0.333333  0.418118  1
  Au  Au9  1  0.333333  0.666667  0.666817  1
  Au  Au10  1  0.333333  0.666667  0.833183  1
  Au  Au11  1  0.666667  0.333333  0.081882  1
