# generated using pymatgen
data_ZrMn28
_symmetry_space_group_name_H-M   'P 1'
_cell_length_a   7.55290899
_cell_length_b   7.55290837
_cell_length_c   7.55290800
_cell_angle_alpha   109.47121964
_cell_angle_beta   109.47121799
_cell_angle_gamma   109.47122114
_symmetry_Int_Tables_number   1
_chemical_formula_structural   ZrMn28
_chemical_formula_sum   'Zr1 Mn28'
_cell_volume   331.68114834
_cell_formula_units_Z   1
loop_
 _symmetry_equiv_pos_site_id
 _symmetry_equiv_pos_as_xyz
  1  'x, y, z'
loop_
 _atom_site_type_symbol
 _atom_site_label
 _atom_site_symmetry_multiplicity
 _atom_site_fract_x
 _atom_site_fract_y
 _atom_site_fract_z
 _atom_site_occupancy
  Zr  Zr0  1  0.000000  0.000000  0.000000  1
  Mn  Mn1  1  0.625423  0.000000  0.000000  1
  Mn  Mn2  1  0.000000  0.625423  0.000000  1
  Mn  Mn3  1  0.000000  0.000000  0.625423  1
  Mn  Mn4  1  0.374577  0.374577  0.374577  1
  Mn  Mn5  1  0.391816  0.679025  0.000000  1
  Mn  Mn6  1  0.712791  0.320975  0.320975  1
  Mn  Mn7  1  0.391816  0.000000  0.679025  1
  Mn  Mn8  1  0.679025  0.391816  0.000000  1
  Mn  Mn9  1  0.000000  0.391816  0.679025  1
  Mn  Mn10  1  0.320975  0.712791  0.320975  1
  Mn  Mn11  1  0.320975  0.320975  0.712791  1
  Mn  Mn12  1  0.000000  0.679025  0.391816  1
  Mn  Mn13  1  0.679025  0.000000  0.391816  1
  Mn  Mn14  1  0.608184  0.608184  0.287209  1
  Mn  Mn15  1  0.287209  0.608184  0.608184  1
  Mn  Mn16  1  0.608184  0.287209  0.608184  1
  Mn  Mn17  1  0.377602  0.198015  0.000000  1
  Mn  Mn18  1  0.179587  0.801985  0.801985  1
  Mn  Mn19  1  0.377602  0.000000  0.198015  1
  Mn  Mn20  1  0.198015  0.377602  0.000000  1
  Mn  Mn21  1  0.000000  0.377602  0.198015  1
  Mn  Mn22  1  0.801985  0.179587  0.801985  1
  Mn  Mn23  1  0.801985  0.801985  0.179587  1
  Mn  Mn24  1  0.000000  0.198015  0.377602  1
  Mn  Mn25  1  0.198015  0.000000  0.377602  1
  Mn  Mn26  1  0.622398  0.622398  0.820413  1
  Mn  Mn27  1  0.820413  0.622398  0.622398  1
  Mn  Mn28  1  0.622398  0.820413  0.622398  1
