# generated using pymatgen
data_Nd2Tm3Lu(RuO7)2
_symmetry_space_group_name_H-M   'P 1'
_cell_length_a   6.37874372
_cell_length_b   6.38100967
_cell_length_c   7.45641300
_cell_angle_alpha   90.00000000
_cell_angle_beta   90.00000000
_cell_angle_gamma   109.68814525
_symmetry_Int_Tables_number   1
_chemical_formula_structural   Nd2Tm3Lu(RuO7)2
_chemical_formula_sum   'Nd2 Tm3 Lu1 Ru2 O14'
_cell_volume   285.75471940
_cell_formula_units_Z   1
loop_
 _symmetry_equiv_pos_site_id
 _symmetry_equiv_pos_as_xyz
  1  'x, y, z'
loop_
 _atom_site_type_symbol
 _atom_site_label
 _atom_site_symmetry_multiplicity
 _atom_site_fract_x
 _atom_site_fract_y
 _atom_site_fract_z
 _atom_site_occupancy
  Nd  Nd0  1  0.999819  0.999529  0.500251  1
  Nd  Nd1  1  0.999819  0.999529  0.999749  1
  Tm  Tm2  1  0.515169  0.064411  0.250000  1
  Tm  Tm3  1  0.936091  0.484740  0.750000  1
  Tm  Tm4  1  0.064357  0.515027  0.250000  1
  Lu  Lu5  1  0.485538  0.938671  0.750000  1
  Ru  Ru6  1  0.499817  0.500229  0.500421  1
  Ru  Ru7  1  0.499817  0.500229  0.999579  1
  O  O8  1  0.592216  0.593192  0.750000  1
  O  O9  1  0.408605  0.407848  0.250000  1
  O  O10  1  0.835008  0.120633  0.750000  1
  O  O11  1  0.163025  0.878391  0.250000  1
  O  O12  1  0.124866  0.836668  0.750000  1
  O  O13  1  0.878318  0.162550  0.250000  1
  O  O14  1  0.440908  0.178974  0.962695  1
  O  O15  1  0.558582  0.821207  0.465101  1
  O  O16  1  0.178185  0.438550  0.963907  1
  O  O17  1  0.821092  0.560445  0.463719  1
  O  O18  1  0.440908  0.178974  0.537305  1
  O  O19  1  0.558582  0.821207  0.034899  1
  O  O20  1  0.821092  0.560445  0.036281  1
  O  O21  1  0.178185  0.438550  0.536093  1
