# generated using pymatgen
data_La2Si4IrRh5
_symmetry_space_group_name_H-M   'P 1'
_cell_length_a   5.66845486
_cell_length_b   6.73458943
_cell_length_c   6.73458938
_cell_angle_alpha   64.72663183
_cell_angle_beta   65.15334068
_cell_angle_gamma   65.15334221
_symmetry_Int_Tables_number   1
_chemical_formula_structural   La2Si4IrRh5
_chemical_formula_sum   'La2 Si4 Ir1 Rh5'
_cell_volume   201.67538732
_cell_formula_units_Z   1
loop_
 _symmetry_equiv_pos_site_id
 _symmetry_equiv_pos_as_xyz
  1  'x, y, z'
loop_
 _atom_site_type_symbol
 _atom_site_label
 _atom_site_symmetry_multiplicity
 _atom_site_fract_x
 _atom_site_fract_y
 _atom_site_fract_z
 _atom_site_occupancy
  La  La0  1  0.538217  0.748980  0.750841  1
  La  La1  1  0.461783  0.249159  0.251020  1
  Si  Si2  1  0.223980  0.579008  0.577319  1
  Si  Si3  1  0.776020  0.422681  0.420992  1
  Si  Si4  1  0.119324  0.078956  0.078863  1
  Si  Si5  1  0.880676  0.921137  0.921044  1
  Ir  Ir6  1  0.500000  0.216854  0.783146  1
  Rh  Rh7  1  0.000000  0.716927  0.283073  1
  Rh  Rh8  1  0.500000  0.783609  0.216391  1
  Rh  Rh9  1  0.000000  0.283795  0.716205  1
  Rh  Rh10  1  0.999616  0.499836  0.000943  1
  Rh  Rh11  1  0.000384  0.999057  0.500164  1
