# generated using pymatgen
data_Ce9Y3(CoSi)8
_symmetry_space_group_name_H-M   'P 1'
_cell_length_a   5.51665008
_cell_length_b   7.88576411
_cell_length_c   12.31171900
_cell_angle_alpha   90.00000000
_cell_angle_beta   90.00000000
_cell_angle_gamma   89.98113444
_symmetry_Int_Tables_number   1
_chemical_formula_structural   Ce9Y3(CoSi)8
_chemical_formula_sum   'Ce9 Y3 Co8 Si8'
_cell_volume   535.59669678
_cell_formula_units_Z   1
loop_
 _symmetry_equiv_pos_site_id
 _symmetry_equiv_pos_as_xyz
  1  'x, y, z'
loop_
 _atom_site_type_symbol
 _atom_site_label
 _atom_site_symmetry_multiplicity
 _atom_site_fract_x
 _atom_site_fract_y
 _atom_site_fract_z
 _atom_site_occupancy
  Ce  Ce0  1  0.655893  0.254287  0.250000  1
  Ce  Ce1  1  0.156831  0.398476  0.408872  1
  Ce  Ce2  1  0.158992  0.100815  0.590391  1
  Ce  Ce3  1  0.839788  0.902376  0.091785  1
  Ce  Ce4  1  0.839536  0.600160  0.909773  1
  Ce  Ce5  1  0.839536  0.600160  0.590227  1
  Ce  Ce6  1  0.839788  0.902376  0.408215  1
  Ce  Ce7  1  0.158992  0.100815  0.909609  1
  Ce  Ce8  1  0.156831  0.398476  0.091128  1
  Y  Y9  1  0.344561  0.745983  0.750000  1
  Y  Y10  1  0.347526  0.752973  0.250000  1
  Y  Y11  1  0.654424  0.245434  0.750000  1
  Co  Co12  1  0.379957  0.044881  0.413099  1
  Co  Co13  1  0.375239  0.457638  0.585705  1
  Co  Co14  1  0.624957  0.539643  0.086898  1
  Co  Co15  1  0.621897  0.956067  0.913183  1
  Co  Co16  1  0.379957  0.044881  0.086901  1
  Co  Co17  1  0.375239  0.457638  0.914295  1
  Co  Co18  1  0.624957  0.539643  0.413102  1
  Co  Co19  1  0.621897  0.956067  0.586817  1
  Si  Si20  1  0.646332  0.250324  0.502288  1
  Si  Si21  1  0.353369  0.749322  0.000671  1
  Si  Si22  1  0.353369  0.749322  0.499329  1
  Si  Si23  1  0.646332  0.250324  0.997712  1
  Si  Si24  1  0.838562  0.896091  0.750000  1
  Si  Si25  1  0.841739  0.608505  0.250000  1
  Si  Si26  1  0.161725  0.396948  0.750000  1
  Si  Si27  1  0.161774  0.100374  0.250000  1
