# generated using pymatgen
data_Dy3Y6HoSn6
_symmetry_space_group_name_H-M   'P 1'
_cell_length_a   8.97553400
_cell_length_b   8.97553360
_cell_length_c   6.55687300
_cell_angle_alpha   90.00000000
_cell_angle_beta   90.00000000
_cell_angle_gamma   120.00000146
_symmetry_Int_Tables_number   1
_chemical_formula_structural   Dy3Y6HoSn6
_chemical_formula_sum   'Dy3 Y6 Ho1 Sn6'
_cell_volume   457.45457032
_cell_formula_units_Z   1
loop_
 _symmetry_equiv_pos_site_id
 _symmetry_equiv_pos_as_xyz
  1  'x, y, z'
loop_
 _atom_site_type_symbol
 _atom_site_label
 _atom_site_symmetry_multiplicity
 _atom_site_fract_x
 _atom_site_fract_y
 _atom_site_fract_z
 _atom_site_occupancy
  Dy  Dy0  1  0.333333  0.666667  0.500000  1
  Dy  Dy1  1  0.666667  0.333333  0.000000  1
  Dy  Dy2  1  0.666667  0.333333  0.500000  1
  Y  Y3  1  0.000046  0.760349  0.750040  1
  Y  Y4  1  0.000046  0.239697  0.249960  1
  Y  Y5  1  0.760303  0.760349  0.249960  1
  Y  Y6  1  0.760303  0.999954  0.750040  1
  Y  Y7  1  0.239651  0.239697  0.750040  1
  Y  Y8  1  0.239651  0.999954  0.249960  1
  Ho  Ho9  1  0.333333  0.666667  0.000000  1
  Sn  Sn10  1  0.395316  0.999828  0.750130  1
  Sn  Sn11  1  0.395316  0.395488  0.249870  1
  Sn  Sn12  1  0.000172  0.604684  0.249870  1
  Sn  Sn13  1  0.000172  0.395488  0.750130  1
  Sn  Sn14  1  0.604512  0.604684  0.750130  1
  Sn  Sn15  1  0.604512  0.999828  0.249870  1
