# generated using pymatgen
data_Eu4TmW3O14
_symmetry_space_group_name_H-M   'P 1'
_cell_length_a   7.62030500
_cell_length_b   7.54986749
_cell_length_c   7.62030700
_cell_angle_alpha   59.69089967
_cell_angle_beta   60.00000433
_cell_angle_gamma   59.69089567
_symmetry_Int_Tables_number   1
_chemical_formula_structural   Eu4TmW3O14
_chemical_formula_sum   'Eu4 Tm1 W3 O14'
_cell_volume   308.54906160
_cell_formula_units_Z   1
loop_
 _symmetry_equiv_pos_site_id
 _symmetry_equiv_pos_as_xyz
  1  'x, y, z'
loop_
 _atom_site_type_symbol
 _atom_site_label
 _atom_site_symmetry_multiplicity
 _atom_site_fract_x
 _atom_site_fract_y
 _atom_site_fract_z
 _atom_site_occupancy
  Eu  Eu0  1  0.125000  0.625000  0.125000  1
  Eu  Eu1  1  0.125000  0.125000  0.625000  1
  Eu  Eu2  1  0.625000  0.125000  0.125000  1
  Eu  Eu3  1  0.125000  0.125000  0.125000  1
  Tm  Tm4  1  0.625000  0.125000  0.625000  1
  W  W5  1  0.625000  0.625000  0.625000  1
  W  W6  1  0.125000  0.625000  0.625000  1
  W  W7  1  0.625000  0.625000  0.125000  1
  O  O8  1  0.304567  0.682340  0.708526  1
  O  O9  1  0.542657  0.939978  0.974707  1
  O  O10  1  0.708526  0.682340  0.304567  1
  O  O11  1  0.275293  0.310022  0.707343  1
  O  O12  1  0.999929  0.000213  0.999929  1
  O  O13  1  0.304567  0.682340  0.304567  1
  O  O14  1  0.707343  0.310022  0.707343  1
  O  O15  1  0.945433  0.567660  0.945433  1
  O  O16  1  0.541474  0.567660  0.945433  1
  O  O17  1  0.974707  0.939978  0.542657  1
  O  O18  1  0.250071  0.249787  0.250071  1
  O  O19  1  0.542657  0.939978  0.542657  1
  O  O20  1  0.707343  0.310022  0.275293  1
  O  O21  1  0.945433  0.567660  0.541474  1
