# generated using pymatgen
data_Dy3YHg2
_symmetry_space_group_name_H-M   'P 1'
_cell_length_a   5.10635600
_cell_length_b   7.10105400
_cell_length_c   9.25877200
_cell_angle_alpha   90.00000000
_cell_angle_beta   90.00000000
_cell_angle_gamma   90.00000000
_symmetry_Int_Tables_number   1
_chemical_formula_structural   Dy3YHg2
_chemical_formula_sum   'Dy6 Y2 Hg4'
_cell_volume   335.72779191
_cell_formula_units_Z   2
loop_
 _symmetry_equiv_pos_site_id
 _symmetry_equiv_pos_as_xyz
  1  'x, y, z'
loop_
 _atom_site_type_symbol
 _atom_site_label
 _atom_site_symmetry_multiplicity
 _atom_site_fract_x
 _atom_site_fract_y
 _atom_site_fract_z
 _atom_site_occupancy
  Dy  Dy0  1  0.250000  0.833564  0.924633  1
  Dy  Dy1  1  0.250000  0.333564  0.575367  1
  Dy  Dy2  1  0.750000  0.166639  0.077168  1
  Dy  Dy3  1  0.750000  0.666639  0.422832  1
  Dy  Dy4  1  0.250000  0.983922  0.308820  1
  Dy  Dy5  1  0.250000  0.483922  0.191180  1
  Y  Y6  1  0.750000  0.016214  0.692387  1
  Y  Y7  1  0.750000  0.516214  0.807613  1
  Hg  Hg8  1  0.250000  0.260638  0.898388  1
  Hg  Hg9  1  0.250000  0.760638  0.601612  1
  Hg  Hg10  1  0.750000  0.739024  0.101180  1
  Hg  Hg11  1  0.750000  0.239024  0.398820  1
