# generated using pymatgen
data_Nd16Cd2Hg2Ir3Au
_symmetry_space_group_name_H-M   'P 1'
_cell_length_a   9.96163099
_cell_length_b   9.96163109
_cell_length_c   9.97434148
_cell_angle_alpha   60.32918859
_cell_angle_beta   60.32918477
_cell_angle_gamma   60.32369999
_symmetry_Int_Tables_number   1
_chemical_formula_structural   Nd16Cd2Hg2Ir3Au
_chemical_formula_sum   'Nd16 Cd2 Hg2 Ir3 Au1'
_cell_volume   705.07433276
_cell_formula_units_Z   1
loop_
 _symmetry_equiv_pos_site_id
 _symmetry_equiv_pos_as_xyz
  1  'x, y, z'
loop_
 _atom_site_type_symbol
 _atom_site_label
 _atom_site_symmetry_multiplicity
 _atom_site_fract_x
 _atom_site_fract_y
 _atom_site_fract_z
 _atom_site_occupancy
  Nd  Nd0  1  0.346052  0.346052  0.346012  1
  Nd  Nd1  1  0.357492  0.357492  0.942581  1
  Nd  Nd2  1  0.358080  0.940612  0.357904  1
  Nd  Nd3  1  0.940612  0.358080  0.357904  1
  Nd  Nd4  1  0.799816  0.190981  0.191887  1
  Nd  Nd5  1  0.188916  0.809721  0.809933  1
  Nd  Nd6  1  0.190981  0.799816  0.191887  1
  Nd  Nd7  1  0.809721  0.188916  0.809933  1
  Nd  Nd8  1  0.190769  0.190769  0.800426  1
  Nd  Nd9  1  0.809224  0.809224  0.189908  1
  Nd  Nd10  1  0.940242  0.562485  0.563134  1
  Nd  Nd11  1  0.562075  0.939518  0.940456  1
  Nd  Nd12  1  0.562485  0.940242  0.563134  1
  Nd  Nd13  1  0.939518  0.562075  0.940456  1
  Nd  Nd14  1  0.562302  0.562302  0.941286  1
  Nd  Nd15  1  0.939495  0.939495  0.562696  1
  Cd  Cd16  1  0.578548  0.259970  0.579496  1
  Cd  Cd17  1  0.259970  0.578548  0.579496  1
  Hg  Hg18  1  0.584123  0.584123  0.586481  1
  Hg  Hg19  1  0.583089  0.583089  0.246879  1
  Ir  Ir20  1  0.140191  0.140191  0.572305  1
  Ir  Ir21  1  0.140129  0.572079  0.140676  1
  Ir  Ir22  1  0.572079  0.140129  0.140676  1
  Au  Au23  1  0.144092  0.144092  0.144459  1
