# generated using pymatgen
data_HfMn6Nb3Si2
_symmetry_space_group_name_H-M   'P 1'
_cell_length_a   4.88847700
_cell_length_b   4.88847788
_cell_length_c   7.91988000
_cell_angle_alpha   90.00000000
_cell_angle_beta   90.00000000
_cell_angle_gamma   120.00000078
_symmetry_Int_Tables_number   1
_chemical_formula_structural   HfMn6Nb3Si2
_chemical_formula_sum   'Hf1 Mn6 Nb3 Si2'
_cell_volume   163.90660714
_cell_formula_units_Z   1
loop_
 _symmetry_equiv_pos_site_id
 _symmetry_equiv_pos_as_xyz
  1  'x, y, z'
loop_
 _atom_site_type_symbol
 _atom_site_label
 _atom_site_symmetry_multiplicity
 _atom_site_fract_x
 _atom_site_fract_y
 _atom_site_fract_z
 _atom_site_occupancy
  Hf  Hf0  1  0.333333  0.666666  0.063534  1
  Mn  Mn1  1  0.342376  0.171188  0.251257  1
  Mn  Mn2  1  0.828812  0.171188  0.251257  1
  Mn  Mn3  1  0.828812  0.657624  0.251257  1
  Mn  Mn4  1  0.171160  0.342319  0.748661  1
  Mn  Mn5  1  0.171160  0.828840  0.748661  1
  Mn  Mn6  1  0.657681  0.828840  0.748661  1
  Nb  Nb7  1  0.333333  0.666666  0.438236  1
  Nb  Nb8  1  0.666666  0.333333  0.562934  1
  Nb  Nb9  1  0.666666  0.333333  0.934873  1
  Si  Si10  1  0.000000  0.000000  0.999621  1
  Si  Si11  1  0.000000  0.000000  0.501044  1
