# generated using pymatgen
data_TbSm2Zr(Co4P3)2
_symmetry_space_group_name_H-M   'P 1'
_cell_length_a   3.74844800
_cell_length_b   10.75762700
_cell_length_c   12.50430900
_cell_angle_alpha   90.00000000
_cell_angle_beta   90.00000000
_cell_angle_gamma   90.00000000
_symmetry_Int_Tables_number   1
_chemical_formula_structural   TbSm2Zr(Co4P3)2
_chemical_formula_sum   'Tb2 Sm4 Zr2 Co16 P12'
_cell_volume   504.22882552
_cell_formula_units_Z   2
loop_
 _symmetry_equiv_pos_site_id
 _symmetry_equiv_pos_as_xyz
  1  'x, y, z'
loop_
 _atom_site_type_symbol
 _atom_site_label
 _atom_site_symmetry_multiplicity
 _atom_site_fract_x
 _atom_site_fract_y
 _atom_site_fract_z
 _atom_site_occupancy
  Tb  Tb0  1  0.500000  0.821559  0.204680  1
  Tb  Tb1  1  0.500000  0.178441  0.204680  1
  Sm  Sm2  1  0.000000  0.500000  0.529248  1
  Sm  Sm3  1  0.500000  0.000000  0.469829  1
  Sm  Sm4  1  0.000000  0.678846  0.794954  1
  Sm  Sm5  1  0.000000  0.321154  0.794954  1
  Zr  Zr6  1  0.500000  0.500000  0.157363  1
  Zr  Zr7  1  0.000000  0.000000  0.842993  1
  Co  Co8  1  0.500000  0.500000  0.704517  1
  Co  Co9  1  0.000000  0.000000  0.294431  1
  Co  Co10  1  0.000000  0.500000  0.987795  1
  Co  Co11  1  0.500000  0.000000  0.014968  1
  Co  Co12  1  0.500000  0.331344  0.994546  1
  Co  Co13  1  0.500000  0.668656  0.994546  1
  Co  Co14  1  0.000000  0.167673  0.008221  1
  Co  Co15  1  0.000000  0.832327  0.008221  1
  Co  Co16  1  0.500000  0.294966  0.431860  1
  Co  Co17  1  0.500000  0.705034  0.431860  1
  Co  Co18  1  0.000000  0.204253  0.565587  1
  Co  Co19  1  0.000000  0.795747  0.565587  1
  Co  Co20  1  0.500000  0.879130  0.700844  1
  Co  Co21  1  0.500000  0.120870  0.700844  1
  Co  Co22  1  0.000000  0.621915  0.297502  1
  Co  Co23  1  0.000000  0.378085  0.297502  1
  P  P24  1  0.500000  0.500000  0.886753  1
  P  P25  1  0.000000  0.000000  0.116087  1
  P  P26  1  0.500000  0.500000  0.360845  1
  P  P27  1  0.000000  0.000000  0.638838  1
  P  P28  1  0.500000  0.306872  0.613849  1
  P  P29  1  0.500000  0.693128  0.613849  1
  P  P30  1  0.000000  0.191870  0.383400  1
  P  P31  1  0.000000  0.808130  0.383400  1
  P  P32  1  0.500000  0.839578  0.896778  1
  P  P33  1  0.500000  0.160422  0.896778  1
  P  P34  1  0.000000  0.661750  0.105945  1
  P  P35  1  0.000000  0.338250  0.105945  1
