# generated using pymatgen
data_Sc18TiRe7Se2
_symmetry_space_group_name_H-M   'P 1'
_cell_length_a   8.57322400
_cell_length_b   8.72320399
_cell_length_c   8.72310402
_cell_angle_alpha   120.00381201
_cell_angle_beta   89.99979461
_cell_angle_gamma   89.99884711
_symmetry_Int_Tables_number   1
_chemical_formula_structural   Sc18TiRe7Se2
_chemical_formula_sum   'Sc18 Ti1 Re7 Se2'
_cell_volume   564.94373776
_cell_formula_units_Z   1
loop_
 _symmetry_equiv_pos_site_id
 _symmetry_equiv_pos_as_xyz
  1  'x, y, z'
loop_
 _atom_site_type_symbol
 _atom_site_label
 _atom_site_symmetry_multiplicity
 _atom_site_fract_x
 _atom_site_fract_y
 _atom_site_fract_z
 _atom_site_occupancy
  Sc  Sc0  1  0.546612  0.805038  0.610075  1
  Sc  Sc1  1  0.546589  0.805031  0.194975  1
  Sc  Sc2  1  0.546616  0.389924  0.194966  1
  Sc  Sc3  1  0.453388  0.194962  0.389925  1
  Sc  Sc4  1  0.453411  0.194969  0.805025  1
  Sc  Sc5  1  0.453384  0.610076  0.805034  1
  Sc  Sc6  1  0.046566  0.194100  0.388196  1
  Sc  Sc7  1  0.046537  0.194109  0.805891  1
  Sc  Sc8  1  0.046571  0.611797  0.805896  1
  Sc  Sc9  1  0.953434  0.805900  0.611804  1
  Sc  Sc10  1  0.953463  0.805891  0.194109  1
  Sc  Sc11  1  0.953429  0.388203  0.194104  1
  Sc  Sc12  1  0.749681  0.458290  0.916577  1
  Sc  Sc13  1  0.749680  0.458292  0.541711  1
  Sc  Sc14  1  0.749676  0.083429  0.541716  1
  Sc  Sc15  1  0.250319  0.541710  0.083423  1
  Sc  Sc16  1  0.250320  0.541708  0.458289  1
  Sc  Sc17  1  0.250324  0.916571  0.458284  1
  Ti  Ti18  1  0.500000  0.000000  0.000000  1
  Re  Re19  1  0.750868  0.107946  0.215888  1
  Re  Re20  1  0.750858  0.107962  0.892036  1
  Re  Re21  1  0.750862  0.784111  0.892058  1
  Re  Re22  1  0.249132  0.892054  0.784112  1
  Re  Re23  1  0.249142  0.892038  0.107964  1
  Re  Re24  1  0.249138  0.215889  0.107942  1
  Re  Re25  1  0.000000  0.000000  0.000000  1
  Se  Se26  1  0.750862  0.666676  0.333320  1
  Se  Se27  1  0.249138  0.333324  0.666680  1
