# generated using pymatgen
data_La2Pr4YRh3
_symmetry_space_group_name_H-M   'P 1'
_cell_length_a   6.42315746
_cell_length_b   10.20227243
_cell_length_c   10.20227265
_cell_angle_alpha   120.19356393
_cell_angle_beta   90.03751269
_cell_angle_gamma   89.96248157
_symmetry_Int_Tables_number   1
_chemical_formula_structural   La2Pr4YRh3
_chemical_formula_sum   'La4 Pr8 Y2 Rh6'
_cell_volume   577.85985903
_cell_formula_units_Z   2
loop_
 _symmetry_equiv_pos_site_id
 _symmetry_equiv_pos_as_xyz
  1  'x, y, z'
loop_
 _atom_site_type_symbol
 _atom_site_label
 _atom_site_symmetry_multiplicity
 _atom_site_fract_x
 _atom_site_fract_y
 _atom_site_fract_z
 _atom_site_occupancy
  La  La0  1  0.257470  0.126664  0.873336  1
  La  La1  1  0.256976  0.746506  0.872695  1
  La  La2  1  0.256976  0.127305  0.253494  1
  La  La3  1  0.756413  0.873568  0.126432  1
  Pr  Pr4  1  0.755362  0.253281  0.126193  1
  Pr  Pr5  1  0.755362  0.873807  0.746719  1
  Pr  Pr6  1  0.442679  0.541788  0.458212  1
  Pr  Pr7  1  0.442066  0.916895  0.458948  1
  Pr  Pr8  1  0.442066  0.541052  0.083105  1
  Pr  Pr9  1  0.941215  0.458632  0.541368  1
  Pr  Pr10  1  0.941205  0.082866  0.541997  1
  Pr  Pr11  1  0.941205  0.458003  0.917134  1
  Y  Y12  1  0.464602  0.333353  0.666647  1
  Y  Y13  1  0.965012  0.666356  0.333644  1
  Rh  Rh14  1  0.177108  0.811235  0.188765  1
  Rh  Rh15  1  0.179644  0.378477  0.189405  1
  Rh  Rh16  1  0.179644  0.810595  0.621523  1
  Rh  Rh17  1  0.676830  0.190246  0.809754  1
  Rh  Rh18  1  0.677085  0.620744  0.811371  1
  Rh  Rh19  1  0.677085  0.188629  0.379256  1
