# generated using pymatgen
data_Nd3SmY2CoBr10
_symmetry_space_group_name_H-M   'P 1'
_cell_length_a   7.47622797
_cell_length_b   9.29455906
_cell_length_c   9.48726868
_cell_angle_alpha   108.15601601
_cell_angle_beta   96.20915709
_cell_angle_gamma   104.76096274
_symmetry_Int_Tables_number   1
_chemical_formula_structural   Nd3SmY2CoBr10
_chemical_formula_sum   'Nd3 Sm1 Y2 Co1 Br10'
_cell_volume   593.00343366
_cell_formula_units_Z   1
loop_
 _symmetry_equiv_pos_site_id
 _symmetry_equiv_pos_as_xyz
  1  'x, y, z'
loop_
 _atom_site_type_symbol
 _atom_site_label
 _atom_site_symmetry_multiplicity
 _atom_site_fract_x
 _atom_site_fract_y
 _atom_site_fract_z
 _atom_site_occupancy
  Nd  Nd0  1  0.466337  0.786313  0.588963  1
  Nd  Nd1  1  0.533966  0.213598  0.409826  1
  Nd  Nd2  1  0.370976  0.450759  0.746788  1
  Sm  Sm3  1  0.627645  0.548598  0.255425  1
  Y  Y4  1  0.853448  0.629539  0.673464  1
  Y  Y5  1  0.146946  0.370797  0.326103  1
  Co  Co6  1  0.500217  0.499945  0.499553  1
  Br  Br7  1  0.412402  0.127996  0.672247  1
  Br  Br8  1  0.588274  0.868945  0.325977  1
  Br  Br9  1  0.045654  0.676711  0.416499  1
  Br  Br10  1  0.952062  0.322581  0.582082  1
  Br  Br11  1  0.265736  0.751338  0.842214  1
  Br  Br12  1  0.733481  0.251606  0.157673  1
  Br  Br13  1  0.251706  0.417468  0.053755  1
  Br  Br14  1  0.751315  0.583666  0.949361  1
  Br  Br15  1  0.850745  0.944582  0.769766  1
  Br  Br16  1  0.149089  0.055557  0.230304  1
