# generated using pymatgen
data_Hf20Zr4SiAs7
_symmetry_space_group_name_H-M   'P 1'
_cell_length_a   8.23064105
_cell_length_b   8.23856521
_cell_length_c   15.41682509
_cell_angle_alpha   89.59967793
_cell_angle_beta   89.60805582
_cell_angle_gamma   38.42406564
_symmetry_Int_Tables_number   1
_chemical_formula_structural   Hf20Zr4SiAs7
_chemical_formula_sum   'Hf20 Zr4 Si1 As7'
_cell_volume   649.67106889
_cell_formula_units_Z   1
loop_
 _symmetry_equiv_pos_site_id
 _symmetry_equiv_pos_as_xyz
  1  'x, y, z'
loop_
 _atom_site_type_symbol
 _atom_site_label
 _atom_site_symmetry_multiplicity
 _atom_site_fract_x
 _atom_site_fract_y
 _atom_site_fract_z
 _atom_site_occupancy
  Hf  Hf0  1  0.049884  0.472380  0.905814  1
  Hf  Hf1  1  0.540594  0.576233  0.666193  1
  Hf  Hf2  1  0.432612  0.879138  0.990292  1
  Hf  Hf3  1  0.201955  0.700087  0.017516  1
  Hf  Hf4  1  0.564289  0.123062  0.012749  1
  Hf  Hf5  1  0.118423  0.568529  0.510113  1
  Hf  Hf6  1  0.954899  0.525873  0.095399  1
  Hf  Hf7  1  0.879971  0.431485  0.489451  1
  Hf  Hf8  1  0.005836  0.527701  0.300494  1
  Hf  Hf9  1  0.995707  0.471558  0.698725  1
  Hf  Hf10  1  0.799158  0.297404  0.983965  1
  Hf  Hf11  1  0.527699  0.949931  0.594300  1
  Hf  Hf12  1  0.044326  0.121950  0.308687  1
  Hf  Hf13  1  0.701057  0.201032  0.516453  1
  Hf  Hf14  1  0.296691  0.800291  0.483412  1
  Hf  Hf15  1  0.879027  0.953553  0.191009  1
  Hf  Hf16  1  0.469911  0.000476  0.198162  1
  Hf  Hf17  1  0.573422  0.539598  0.166698  1
  Hf  Hf18  1  0.529095  0.003500  0.801398  1
  Hf  Hf19  1  0.470601  0.050250  0.405089  1
  Zr  Zr20  1  0.121796  0.042922  0.808530  1
  Zr  Zr21  1  0.423801  0.460849  0.832735  1
  Zr  Zr22  1  0.957118  0.878306  0.691296  1
  Zr  Zr23  1  0.460775  0.424605  0.331406  1
  Si  Si24  1  0.336523  0.419478  0.166879  1
  As  As25  1  0.893448  0.934593  0.873208  1
  As  As26  1  0.104210  0.064851  0.128474  1
  As  As27  1  0.665456  0.580587  0.833258  1
  As  As28  1  0.580653  0.665356  0.332584  1
  As  As29  1  0.419020  0.335181  0.666105  1
  As  As30  1  0.935695  0.894552  0.371921  1
  As  As31  1  0.066344  0.104691  0.627689  1
