# generated using pymatgen
data_Sr21Mg(Al4Sn3)2
_symmetry_space_group_name_H-M   'P 1'
_cell_length_a   12.26030870
_cell_length_b   12.26031026
_cell_length_c   12.26031000
_cell_angle_alpha   60.00000610
_cell_angle_beta   60.00000190
_cell_angle_gamma   60.00000235
_symmetry_Int_Tables_number   1
_chemical_formula_structural   Sr21Mg(Al4Sn3)2
_chemical_formula_sum   'Sr21 Mg1 Al8 Sn6'
_cell_volume   1303.13483285
_cell_formula_units_Z   1
loop_
 _symmetry_equiv_pos_site_id
 _symmetry_equiv_pos_as_xyz
  1  'x, y, z'
loop_
 _atom_site_type_symbol
 _atom_site_label
 _atom_site_symmetry_multiplicity
 _atom_site_fract_x
 _atom_site_fract_y
 _atom_site_fract_z
 _atom_site_occupancy
  Sr  Sr0  1  0.870323  0.870323  0.389031  1
  Sr  Sr1  1  0.610969  0.129677  0.129677  1
  Sr  Sr2  1  0.870323  0.389031  0.870323  1
  Sr  Sr3  1  0.129677  0.129677  0.129677  1
  Sr  Sr4  1  0.389031  0.870323  0.870323  1
  Sr  Sr5  1  0.870323  0.870323  0.870323  1
  Sr  Sr6  1  0.173515  0.826485  0.500000  1
  Sr  Sr7  1  0.826485  0.500000  0.500000  1
  Sr  Sr8  1  0.129677  0.129677  0.610969  1
  Sr  Sr9  1  0.826485  0.173515  0.500000  1
  Sr  Sr10  1  0.173515  0.500000  0.500000  1
  Sr  Sr11  1  0.129677  0.610969  0.129677  1
  Sr  Sr12  1  0.500000  0.500000  0.173515  1
  Sr  Sr13  1  0.500000  0.173515  0.826485  1
  Sr  Sr14  1  0.500000  0.826485  0.173515  1
  Sr  Sr15  1  0.500000  0.500000  0.826485  1
  Sr  Sr16  1  0.500000  0.173515  0.500000  1
  Sr  Sr17  1  0.173515  0.500000  0.826485  1
  Sr  Sr18  1  0.000000  0.000000  0.000000  1
  Sr  Sr19  1  0.500000  0.826485  0.500000  1
  Sr  Sr20  1  0.826485  0.500000  0.173515  1
  Mg  Mg21  1  0.500000  0.500000  0.500000  1
  Al  Al22  1  0.694348  0.916958  0.694348  1
  Al  Al23  1  0.694348  0.694348  0.916958  1
  Al  Al24  1  0.694348  0.694348  0.694348  1
  Al  Al25  1  0.305652  0.083042  0.305652  1
  Al  Al26  1  0.916958  0.694348  0.694348  1
  Al  Al27  1  0.305652  0.305652  0.083042  1
  Al  Al28  1  0.083042  0.305652  0.305652  1
  Al  Al29  1  0.305652  0.305652  0.305652  1
  Sn  Sn30  1  0.784614  0.215386  0.784614  1
  Sn  Sn31  1  0.784614  0.215386  0.215386  1
  Sn  Sn32  1  0.215386  0.784614  0.215386  1
  Sn  Sn33  1  0.215386  0.784614  0.784614  1
  Sn  Sn34  1  0.784614  0.784614  0.215386  1
  Sn  Sn35  1  0.215386  0.215386  0.784614  1
