# generated using pymatgen
data_Er2Tm2B16Mo3W
_symmetry_space_group_name_H-M   'P 1'
_cell_length_a   3.60414800
_cell_length_b   6.00922733
_cell_length_c   11.61205811
_cell_angle_alpha   90.02706621
_cell_angle_beta   90.00000000
_cell_angle_gamma   90.00000000
_symmetry_Int_Tables_number   1
_chemical_formula_structural   Er2Tm2B16Mo3W
_chemical_formula_sum   'Er2 Tm2 B16 Mo3 W1'
_cell_volume   251.49560654
_cell_formula_units_Z   1
loop_
 _symmetry_equiv_pos_site_id
 _symmetry_equiv_pos_as_xyz
  1  'x, y, z'
loop_
 _atom_site_type_symbol
 _atom_site_label
 _atom_site_symmetry_multiplicity
 _atom_site_fract_x
 _atom_site_fract_y
 _atom_site_fract_z
 _atom_site_occupancy
  Er  Er0  1  0.000000  0.127365  0.149586  1
  Er  Er1  1  0.000000  0.873088  0.850185  1
  Tm  Tm2  1  0.000000  0.627108  0.350684  1
  Tm  Tm3  1  0.000000  0.372858  0.649668  1
  B  B4  1  0.500000  0.787939  0.187064  1
  B  B5  1  0.500000  0.212736  0.813288  1
  B  B6  1  0.500000  0.287469  0.313604  1
  B  B7  1  0.500000  0.712354  0.686589  1
  B  B8  1  0.500000  0.867648  0.031691  1
  B  B9  1  0.500000  0.132951  0.967785  1
  B  B10  1  0.500000  0.367623  0.468151  1
  B  B11  1  0.500000  0.632308  0.531942  1
  B  B12  1  0.500000  0.885047  0.452172  1
  B  B13  1  0.500000  0.114943  0.547936  1
  B  B14  1  0.500000  0.385113  0.047520  1
  B  B15  1  0.500000  0.614321  0.951998  1
  B  B16  1  0.500000  0.976173  0.306170  1
  B  B17  1  0.500000  0.024116  0.694006  1
  B  B18  1  0.500000  0.475757  0.194164  1
  B  B19  1  0.500000  0.523415  0.805892  1
  Mo  Mo20  1  0.000000  0.368993  0.915306  1
  Mo  Mo21  1  0.000000  0.130405  0.415968  1
  Mo  Mo22  1  0.000000  0.869510  0.584040  1
  W  W23  1  0.000000  0.630760  0.084590  1
