# generated using pymatgen
data_AgRhIO6
_symmetry_space_group_name_H-M   'P 1'
_cell_length_a   5.12650700
_cell_length_b   5.12650686
_cell_length_c   5.25584900
_cell_angle_alpha   90.00000000
_cell_angle_beta   90.00000000
_cell_angle_gamma   119.99998154
_symmetry_Int_Tables_number   1
_chemical_formula_structural   AgRhIO6
_chemical_formula_sum   'Ag1 Rh1 I1 O6'
_cell_volume   119.62355084
_cell_formula_units_Z   1
loop_
 _symmetry_equiv_pos_site_id
 _symmetry_equiv_pos_as_xyz
  1  'x, y, z'
loop_
 _atom_site_type_symbol
 _atom_site_label
 _atom_site_symmetry_multiplicity
 _atom_site_fract_x
 _atom_site_fract_y
 _atom_site_fract_z
 _atom_site_occupancy
  Ag  Ag0  1  0.666667  0.333333  0.500000  1
  Rh  Rh1  1  0.333333  0.666667  0.000000  1
  I  I2  1  0.000000  0.000000  0.000000  1
  O  O3  1  0.030189  0.324860  0.788083  1
  O  O4  1  0.294671  0.969811  0.788083  1
  O  O5  1  0.294671  0.324860  0.211917  1
  O  O6  1  0.675140  0.705329  0.788083  1
  O  O7  1  0.675140  0.969811  0.211917  1
  O  O8  1  0.030189  0.705329  0.211917  1
