# generated using pymatgen
data_Th2Cu10SnHg
_symmetry_space_group_name_H-M   'P 1'
_cell_length_a   5.09550100
_cell_length_b   8.34348712
_cell_length_c   10.67454523
_cell_angle_alpha   89.62559324
_cell_angle_beta   90.00000000
_cell_angle_gamma   90.00000000
_symmetry_Int_Tables_number   1
_chemical_formula_structural   Th2Cu10SnHg
_chemical_formula_sum   'Th4 Cu20 Sn2 Hg2'
_cell_volume   453.81056293
_cell_formula_units_Z   2
loop_
 _symmetry_equiv_pos_site_id
 _symmetry_equiv_pos_as_xyz
  1  'x, y, z'
loop_
 _atom_site_type_symbol
 _atom_site_label
 _atom_site_symmetry_multiplicity
 _atom_site_fract_x
 _atom_site_fract_y
 _atom_site_fract_z
 _atom_site_occupancy
  Th  Th0  1  0.250000  0.250352  0.566887  1
  Th  Th1  1  0.750000  0.749648  0.433113  1
  Th  Th2  1  0.250000  0.757708  0.941274  1
  Th  Th3  1  0.750000  0.242292  0.058726  1
  Cu  Cu4  1  0.500427  0.566468  0.186684  1
  Cu  Cu5  1  0.000427  0.433532  0.813316  1
  Cu  Cu6  1  0.998833  0.067799  0.313350  1
  Cu  Cu7  1  0.498833  0.932201  0.686650  1
  Cu  Cu8  1  0.750000  0.684122  0.755539  1
  Cu  Cu9  1  0.250000  0.315878  0.244461  1
  Cu  Cu10  1  0.750000  0.184051  0.743051  1
  Cu  Cu11  1  0.250000  0.815949  0.256949  1
  Cu  Cu12  1  0.750000  0.942885  0.890523  1
  Cu  Cu13  1  0.250000  0.057115  0.109477  1
  Cu  Cu14  1  0.750000  0.439832  0.605611  1
  Cu  Cu15  1  0.250000  0.560168  0.394389  1
  Cu  Cu16  1  0.750000  0.584315  0.983483  1
  Cu  Cu17  1  0.250000  0.415685  0.016517  1
  Cu  Cu18  1  0.750000  0.081327  0.516749  1
  Cu  Cu19  1  0.250000  0.918673  0.483251  1
  Cu  Cu20  1  0.501167  0.067799  0.313350  1
  Cu  Cu21  1  0.001167  0.932201  0.686650  1
  Cu  Cu22  1  0.999573  0.566468  0.186684  1
  Cu  Cu23  1  0.499573  0.433532  0.813316  1
  Sn  Sn24  1  0.750000  0.359838  0.362018  1
  Sn  Sn25  1  0.250000  0.640162  0.637982  1
  Hg  Hg26  1  0.750000  0.863551  0.134822  1
  Hg  Hg27  1  0.250000  0.136449  0.865178  1
