# generated using pymatgen
data_Sr2EuAl2(SbAs)2
_symmetry_space_group_name_H-M   'P 1'
_cell_length_a   8.94511430
_cell_length_b   8.94511395
_cell_length_c   7.06485379
_cell_angle_alpha   90.47744972
_cell_angle_beta   90.47745076
_cell_angle_gamma   75.77387984
_symmetry_Int_Tables_number   1
_chemical_formula_structural   Sr2EuAl2(SbAs)2
_chemical_formula_sum   'Sr4 Eu2 Al4 Sb4 As4'
_cell_volume   547.92854498
_cell_formula_units_Z   2
loop_
 _symmetry_equiv_pos_site_id
 _symmetry_equiv_pos_as_xyz
  1  'x, y, z'
loop_
 _atom_site_type_symbol
 _atom_site_label
 _atom_site_symmetry_multiplicity
 _atom_site_fract_x
 _atom_site_fract_y
 _atom_site_fract_z
 _atom_site_occupancy
  Sr  Sr0  1  0.739382  0.004099  0.983527  1
  Sr  Sr1  1  0.995901  0.260618  0.516473  1
  Sr  Sr2  1  0.260618  0.995901  0.016473  1
  Sr  Sr3  1  0.004099  0.739382  0.483527  1
  Eu  Eu4  1  0.587884  0.412116  0.250000  1
  Eu  Eu5  1  0.412116  0.587884  0.750000  1
  Al  Al6  1  0.588341  0.812461  0.405107  1
  Al  Al7  1  0.187539  0.411659  0.094893  1
  Al  Al8  1  0.411659  0.187539  0.594893  1
  Al  Al9  1  0.812461  0.588341  0.905107  1
  Sb  Sb10  1  0.709586  0.062595  0.481352  1
  Sb  Sb11  1  0.937405  0.290414  0.018648  1
  Sb  Sb12  1  0.290414  0.937405  0.518648  1
  Sb  Sb13  1  0.062595  0.709586  0.981352  1
  As  As14  1  0.569656  0.735093  0.065024  1
  As  As15  1  0.264907  0.430344  0.434976  1
  As  As16  1  0.430344  0.264907  0.934976  1
  As  As17  1  0.735093  0.569656  0.565024  1
