# generated using pymatgen
data_Ho4Lu(In2Ir)2
_symmetry_space_group_name_H-M   'P 1'
_cell_length_a   3.63302200
_cell_length_b   7.97417028
_cell_length_c   18.16009923
_cell_angle_alpha   90.05354597
_cell_angle_beta   90.00000000
_cell_angle_gamma   90.00000000
_symmetry_Int_Tables_number   1
_chemical_formula_structural   Ho4Lu(In2Ir)2
_chemical_formula_sum   'Ho8 Lu2 In8 Ir4'
_cell_volume   526.10394776
_cell_formula_units_Z   2
loop_
 _symmetry_equiv_pos_site_id
 _symmetry_equiv_pos_as_xyz
  1  'x, y, z'
loop_
 _atom_site_type_symbol
 _atom_site_label
 _atom_site_symmetry_multiplicity
 _atom_site_fract_x
 _atom_site_fract_y
 _atom_site_fract_z
 _atom_site_occupancy
  Ho  Ho0  1  0.000000  0.383926  0.911278  1
  Ho  Ho1  1  0.000000  0.616074  0.088722  1
  Ho  Ho2  1  0.000000  0.244051  0.221654  1
  Ho  Ho3  1  0.000000  0.755949  0.778346  1
  Ho  Ho4  1  0.000000  0.255659  0.720693  1
  Ho  Ho5  1  0.000000  0.744341  0.279307  1
  Ho  Ho6  1  0.000000  0.000000  0.000000  1
  Ho  Ho7  1  0.000000  0.500000  0.500000  1
  Lu  Lu8  1  0.000000  0.115436  0.410813  1
  Lu  Lu9  1  0.000000  0.884564  0.589187  1
  In  In10  1  0.500000  0.424168  0.350947  1
  In  In11  1  0.500000  0.575832  0.649053  1
  In  In12  1  0.500000  0.073267  0.849826  1
  In  In13  1  0.500000  0.926733  0.150174  1
  In  In14  1  0.500000  0.292838  0.067686  1
  In  In15  1  0.500000  0.707162  0.932314  1
  In  In16  1  0.500000  0.203387  0.565801  1
  In  In17  1  0.500000  0.796613  0.434199  1
  Ir  Ir18  1  0.500000  0.022876  0.305775  1
  Ir  Ir19  1  0.500000  0.977124  0.694225  1
  Ir  Ir20  1  0.500000  0.478088  0.803961  1
  Ir  Ir21  1  0.500000  0.521912  0.196039  1
