# generated using pymatgen
data_TbDy2Ga5Co
_symmetry_space_group_name_H-M   'P 1'
_cell_length_a   6.91813144
_cell_length_b   6.91813324
_cell_length_c   4.23513200
_cell_angle_alpha   90.00000000
_cell_angle_beta   90.00000000
_cell_angle_gamma   120.10147077
_symmetry_Int_Tables_number   1
_chemical_formula_structural   TbDy2Ga5Co
_chemical_formula_sum   'Tb1 Dy2 Ga5 Co1'
_cell_volume   175.35992240
_cell_formula_units_Z   1
loop_
 _symmetry_equiv_pos_site_id
 _symmetry_equiv_pos_as_xyz
  1  'x, y, z'
loop_
 _atom_site_type_symbol
 _atom_site_label
 _atom_site_symmetry_multiplicity
 _atom_site_fract_x
 _atom_site_fract_y
 _atom_site_fract_z
 _atom_site_occupancy
  Tb  Tb0  1  0.399236  0.399236  0.000000  1
  Dy  Dy1  1  0.601232  0.000162  0.000000  1
  Dy  Dy2  1  0.000162  0.601232  0.000000  1
  Ga  Ga3  1  0.230271  0.998729  0.500000  1
  Ga  Ga4  1  0.998729  0.230271  0.500000  1
  Ga  Ga5  1  0.770365  0.770365  0.500000  1
  Ga  Ga6  1  0.332986  0.667136  0.500000  1
  Ga  Ga7  1  0.667136  0.332986  0.500000  1
  Co  Co8  1  0.999883  0.999883  0.000000  1
