# generated using pymatgen
data_DyCd2Ni7B2
_symmetry_space_group_name_H-M   'P 1'
_cell_length_a   4.97620804
_cell_length_b   4.97631264
_cell_length_c   14.06188000
_cell_angle_alpha   90.00000000
_cell_angle_beta   90.00000000
_cell_angle_gamma   120.01300227
_symmetry_Int_Tables_number   1
_chemical_formula_structural   DyCd2Ni7B2
_chemical_formula_sum   'Dy2 Cd4 Ni14 B4'
_cell_volume   301.52497396
_cell_formula_units_Z   2
loop_
 _symmetry_equiv_pos_site_id
 _symmetry_equiv_pos_as_xyz
  1  'x, y, z'
loop_
 _atom_site_type_symbol
 _atom_site_label
 _atom_site_symmetry_multiplicity
 _atom_site_fract_x
 _atom_site_fract_y
 _atom_site_fract_z
 _atom_site_occupancy
  Dy  Dy0  1  0.666652  0.333359  0.750000  1
  Dy  Dy1  1  0.333348  0.666641  0.250000  1
  Cd  Cd2  1  0.333349  0.666652  0.471505  1
  Cd  Cd3  1  0.666651  0.333348  0.971505  1
  Cd  Cd4  1  0.666651  0.333348  0.528495  1
  Cd  Cd5  1  0.333349  0.666652  0.028495  1
  Ni  Ni6  1  0.833798  0.667624  0.353512  1
  Ni  Ni7  1  0.332391  0.166189  0.353507  1
  Ni  Ni8  1  0.000000  0.000000  0.000000  1
  Ni  Ni9  1  0.000000  0.000000  0.500000  1
  Ni  Ni10  1  0.833774  0.166194  0.146491  1
  Ni  Ni11  1  0.667609  0.833811  0.646493  1
  Ni  Ni12  1  0.166202  0.332376  0.646488  1
  Ni  Ni13  1  0.833798  0.667624  0.146488  1
  Ni  Ni14  1  0.332391  0.166189  0.146493  1
  Ni  Ni15  1  0.667609  0.833811  0.853507  1
  Ni  Ni16  1  0.166202  0.332376  0.853512  1
  Ni  Ni17  1  0.166226  0.833806  0.646491  1
  Ni  Ni18  1  0.166226  0.833806  0.853509  1
  Ni  Ni19  1  0.833774  0.166194  0.353509  1
  B  B20  1  0.666696  0.333332  0.250000  1
  B  B21  1  0.333304  0.666668  0.750000  1
  B  B22  1  0.999995  0.000041  0.750000  1
  B  B23  1  0.000005  0.999959  0.250000  1
