# generated using pymatgen
data_Eu3Co8ReP6
_symmetry_space_group_name_H-M   'P 1'
_cell_length_a   3.76545700
_cell_length_b   10.63916800
_cell_length_c   12.36984300
_cell_angle_alpha   90.00000000
_cell_angle_beta   90.00000000
_cell_angle_gamma   90.00000000
_symmetry_Int_Tables_number   1
_chemical_formula_structural   Eu3Co8ReP6
_chemical_formula_sum   'Eu6 Co16 Re2 P12'
_cell_volume   495.55235777
_cell_formula_units_Z   2
loop_
 _symmetry_equiv_pos_site_id
 _symmetry_equiv_pos_as_xyz
  1  'x, y, z'
loop_
 _atom_site_type_symbol
 _atom_site_label
 _atom_site_symmetry_multiplicity
 _atom_site_fract_x
 _atom_site_fract_y
 _atom_site_fract_z
 _atom_site_occupancy
  Eu  Eu0  1  0.000000  0.500000  0.525789  1
  Eu  Eu1  1  0.500000  0.000000  0.474211  1
  Eu  Eu2  1  0.500000  0.820962  0.205614  1
  Eu  Eu3  1  0.500000  0.179038  0.205614  1
  Eu  Eu4  1  0.000000  0.679038  0.794386  1
  Eu  Eu5  1  0.000000  0.320962  0.794386  1
  Co  Co6  1  0.500000  0.500000  0.701519  1
  Co  Co7  1  0.000000  0.000000  0.298481  1
  Co  Co8  1  0.000000  0.500000  0.990174  1
  Co  Co9  1  0.500000  0.000000  0.009826  1
  Co  Co10  1  0.500000  0.332022  0.992484  1
  Co  Co11  1  0.500000  0.667978  0.992484  1
  Co  Co12  1  0.000000  0.167978  0.007516  1
  Co  Co13  1  0.000000  0.832022  0.007516  1
  Co  Co14  1  0.500000  0.297068  0.430729  1
  Co  Co15  1  0.500000  0.702932  0.430729  1
  Co  Co16  1  0.000000  0.202932  0.569271  1
  Co  Co17  1  0.000000  0.797068  0.569271  1
  Co  Co18  1  0.500000  0.881435  0.709324  1
  Co  Co19  1  0.500000  0.118565  0.709324  1
  Co  Co20  1  0.000000  0.618565  0.290676  1
  Co  Co21  1  0.000000  0.381435  0.290676  1
  Re  Re22  1  0.500000  0.500000  0.154907  1
  Re  Re23  1  0.000000  0.000000  0.845093  1
  P  P24  1  0.500000  0.500000  0.885368  1
  P  P25  1  0.000000  0.000000  0.114632  1
  P  P26  1  0.500000  0.500000  0.344413  1
  P  P27  1  0.000000  0.000000  0.655587  1
  P  P28  1  0.500000  0.305106  0.615082  1
  P  P29  1  0.500000  0.694894  0.615082  1
  P  P30  1  0.000000  0.194894  0.384918  1
  P  P31  1  0.000000  0.805106  0.384918  1
  P  P32  1  0.500000  0.845984  0.893537  1
  P  P33  1  0.500000  0.154016  0.893537  1
  P  P34  1  0.000000  0.654016  0.106463  1
  P  P35  1  0.000000  0.345984  0.106463  1
