# generated using pymatgen
data_Sc3Ga3AgAu2
_symmetry_space_group_name_H-M   'P 1'
_cell_length_a   7.47824500
_cell_length_b   7.47824686
_cell_length_c   6.95315400
_cell_angle_alpha   90.00000000
_cell_angle_beta   90.00000000
_cell_angle_gamma   119.99999621
_symmetry_Int_Tables_number   1
_chemical_formula_structural   Sc3Ga3AgAu2
_chemical_formula_sum   'Sc6 Ga6 Ag2 Au4'
_cell_volume   336.75339512
_cell_formula_units_Z   2
loop_
 _symmetry_equiv_pos_site_id
 _symmetry_equiv_pos_as_xyz
  1  'x, y, z'
loop_
 _atom_site_type_symbol
 _atom_site_label
 _atom_site_symmetry_multiplicity
 _atom_site_fract_x
 _atom_site_fract_y
 _atom_site_fract_z
 _atom_site_occupancy
  Sc  Sc0  1  0.594868  0.978380  0.750000  1
  Sc  Sc1  1  0.021620  0.616487  0.750000  1
  Sc  Sc2  1  0.383513  0.405132  0.750000  1
  Sc  Sc3  1  0.978380  0.594868  0.250000  1
  Sc  Sc4  1  0.616487  0.021620  0.250000  1
  Sc  Sc5  1  0.405132  0.383513  0.250000  1
  Ga  Ga6  1  0.720441  0.720441  0.000000  1
  Ga  Ga7  1  0.279559  0.000000  0.000000  1
  Ga  Ga8  1  0.000000  0.279559  0.000000  1
  Ga  Ga9  1  0.720441  0.720441  0.500000  1
  Ga  Ga10  1  0.279559  0.000000  0.500000  1
  Ga  Ga11  1  0.000000  0.279559  0.500000  1
  Ag  Ag12  1  0.000000  0.000000  0.750000  1
  Ag  Ag13  1  0.000000  0.000000  0.250000  1
  Au  Au14  1  0.666667  0.333333  0.966190  1
  Au  Au15  1  0.666667  0.333333  0.533810  1
  Au  Au16  1  0.333333  0.666667  0.466190  1
  Au  Au17  1  0.333333  0.666667  0.033810  1
