# generated using pymatgen
data_YbTm3Pt3RhO14
_symmetry_space_group_name_H-M   'P 1'
_cell_length_a   7.20380013
_cell_length_b   7.21680520
_cell_length_c   7.22660410
_cell_angle_alpha   60.04484161
_cell_angle_beta   60.06363405
_cell_angle_gamma   59.94026607
_symmetry_Int_Tables_number   1
_chemical_formula_structural   YbTm3Pt3RhO14
_chemical_formula_sum   'Yb1 Tm3 Pt3 Rh1 O14'
_cell_volume   265.75697314
_cell_formula_units_Z   1
loop_
 _symmetry_equiv_pos_site_id
 _symmetry_equiv_pos_as_xyz
  1  'x, y, z'
loop_
 _atom_site_type_symbol
 _atom_site_label
 _atom_site_symmetry_multiplicity
 _atom_site_fract_x
 _atom_site_fract_y
 _atom_site_fract_z
 _atom_site_occupancy
  Yb  Yb0  1  0.125000  0.625000  0.625000  1
  Tm  Tm1  1  0.625000  0.625000  0.125000  1
  Tm  Tm2  1  0.625000  0.625000  0.625000  1
  Tm  Tm3  1  0.625000  0.125000  0.625000  1
  Pt  Pt4  1  0.125000  0.125000  0.125000  1
  Pt  Pt5  1  0.625000  0.125000  0.125000  1
  Pt  Pt6  1  0.125000  0.625000  0.125000  1
  Rh  Rh7  1  0.125000  0.125000  0.625000  1
  O  O8  1  0.032364  0.460284  0.461337  1
  O  O9  1  0.782813  0.784021  0.216690  1
  O  O10  1  0.782813  0.216478  0.216690  1
  O  O11  1  0.463143  0.037327  0.462202  1
  O  O12  1  0.032364  0.046014  0.461337  1
  O  O13  1  0.028701  0.464793  0.041712  1
  O  O14  1  0.739380  0.753865  0.752890  1
  O  O15  1  0.510620  0.496135  0.497110  1
  O  O16  1  0.786857  0.212673  0.787798  1
  O  O17  1  0.221299  0.785207  0.208288  1
  O  O18  1  0.217636  0.203986  0.788663  1
  O  O19  1  0.467187  0.033522  0.033310  1
  O  O20  1  0.467187  0.465979  0.033310  1
  O  O21  1  0.217636  0.789716  0.788663  1
