# generated using pymatgen
data_Nb3Ag4RuF28
_symmetry_space_group_name_H-M   'P 1'
_cell_length_a   5.72134139
_cell_length_b   8.68313875
_cell_length_c   13.06262171
_cell_angle_alpha   68.57282971
_cell_angle_beta   90.00359512
_cell_angle_gamma   90.04457619
_symmetry_Int_Tables_number   1
_chemical_formula_structural   Nb3Ag4RuF28
_chemical_formula_sum   'Nb3 Ag4 Ru1 F28'
_cell_volume   604.08737654
_cell_formula_units_Z   1
loop_
 _symmetry_equiv_pos_site_id
 _symmetry_equiv_pos_as_xyz
  1  'x, y, z'
loop_
 _atom_site_type_symbol
 _atom_site_label
 _atom_site_symmetry_multiplicity
 _atom_site_fract_x
 _atom_site_fract_y
 _atom_site_fract_z
 _atom_site_occupancy
  Nb  Nb0  1  0.208945  0.293755  0.440447  1
  Nb  Nb1  1  0.709052  0.706713  0.058554  1
  Nb  Nb2  1  0.790304  0.707240  0.560825  1
  Ag  Ag3  1  0.288163  0.863123  0.715324  1
  Ag  Ag4  1  0.788226  0.140747  0.791344  1
  Ag  Ag5  1  0.712657  0.140090  0.285990  1
  Ag  Ag6  1  0.212878  0.861697  0.212542  1
  Ru  Ru7  1  0.290570  0.286352  0.935926  1
  F  F8  1  0.576855  0.980000  0.746053  1
  F  F9  1  0.078951  0.021070  0.761297  1
  F  F10  1  0.423721  0.019120  0.258301  1
  F  F11  1  0.924487  0.980356  0.242011  1
  F  F12  1  0.384735  0.325691  0.553281  1
  F  F13  1  0.885971  0.676538  0.945553  1
  F  F14  1  0.612265  0.674257  0.448999  1
  F  F15  1  0.114445  0.314157  0.047861  1
  F  F16  1  0.462426  0.258802  0.814594  1
  F  F17  1  0.977869  0.747533  0.680302  1
  F  F18  1  0.524854  0.745686  0.179361  1
  F  F19  1  0.026111  0.254792  0.319316  1
  F  F20  1  0.006850  0.300752  0.849990  1
  F  F21  1  0.509091  0.713733  0.652032  1
  F  F22  1  0.991088  0.712212  0.149331  1
  F  F23  1  0.491908  0.289007  0.350236  1
  F  F24  1  0.252417  0.053632  0.002078  1
  F  F25  1  0.747855  0.944577  0.492368  1
  F  F26  1  0.753903  0.944742  0.992301  1
  F  F27  1  0.251013  0.056211  0.508030  1
  F  F28  1  0.324574  0.516413  0.864207  1
  F  F29  1  0.806680  0.475193  0.645732  1
  F  F30  1  0.692944  0.474380  0.142291  1
  F  F31  1  0.191704  0.525836  0.355727  1
  F  F32  1  0.568918  0.274585  0.012587  1
  F  F33  1  0.077217  0.717667  0.486666  1
  F  F34  1  0.420399  0.720884  0.985336  1
  F  F35  1  0.919951  0.282456  0.513203  1
