# generated using pymatgen
data_Rb3LiP2O7
_symmetry_space_group_name_H-M   'P 1'
_cell_length_a   5.77743560
_cell_length_b   5.77743631
_cell_length_c   14.08664600
_cell_angle_alpha   90.00000000
_cell_angle_beta   90.00000000
_cell_angle_gamma   113.01792262
_symmetry_Int_Tables_number   1
_chemical_formula_structural   Rb3LiP2O7
_chemical_formula_sum   'Rb6 Li2 P4 O14'
_cell_volume   432.75916406
_cell_formula_units_Z   2
loop_
 _symmetry_equiv_pos_site_id
 _symmetry_equiv_pos_as_xyz
  1  'x, y, z'
loop_
 _atom_site_type_symbol
 _atom_site_label
 _atom_site_symmetry_multiplicity
 _atom_site_fract_x
 _atom_site_fract_y
 _atom_site_fract_z
 _atom_site_occupancy
  Rb  Rb0  1  0.132014  0.132014  0.000000  1
  Rb  Rb1  1  0.867986  0.867986  0.500000  1
  Rb  Rb2  1  0.774766  0.461437  0.123278  1
  Rb  Rb3  1  0.461437  0.774766  0.876722  1
  Rb  Rb4  1  0.225234  0.538563  0.623278  1
  Rb  Rb5  1  0.538563  0.225234  0.376722  1
  Li  Li6  1  0.012435  0.987565  0.250000  1
  Li  Li7  1  0.987565  0.012435  0.750000  1
  P  P8  1  0.440161  0.824017  0.159908  1
  P  P9  1  0.824017  0.440161  0.840092  1
  P  P10  1  0.559839  0.175983  0.659908  1
  P  P11  1  0.175983  0.559839  0.340092  1
  O  O12  1  0.329239  0.020702  0.181891  1
  O  O13  1  0.020702  0.329239  0.818109  1
  O  O14  1  0.670761  0.979298  0.681891  1
  O  O15  1  0.979298  0.670761  0.318109  1
  O  O16  1  0.730266  0.938784  0.156939  1
  O  O17  1  0.938784  0.730266  0.843061  1
  O  O18  1  0.269734  0.061216  0.656939  1
  O  O19  1  0.061216  0.269734  0.343061  1
  O  O20  1  0.321789  0.662964  0.072609  1
  O  O21  1  0.662964  0.321789  0.927391  1
  O  O22  1  0.678211  0.337036  0.572609  1
  O  O23  1  0.337036  0.678211  0.427391  1
  O  O24  1  0.374153  0.625847  0.250000  1
  O  O25  1  0.625847  0.374153  0.750000  1
