# generated using pymatgen
data_CaTh3(Al3Ir)6
_symmetry_space_group_name_H-M   'P 1'
_cell_length_a   7.63659055
_cell_length_b   7.65149452
_cell_length_c   9.51288600
_cell_angle_alpha   90.00000000
_cell_angle_beta   90.00000000
_cell_angle_gamma   119.47168468
_symmetry_Int_Tables_number   1
_chemical_formula_structural   CaTh3(Al3Ir)6
_chemical_formula_sum   'Ca1 Th3 Al18 Ir6'
_cell_volume   483.92293490
_cell_formula_units_Z   1
loop_
 _symmetry_equiv_pos_site_id
 _symmetry_equiv_pos_as_xyz
  1  'x, y, z'
loop_
 _atom_site_type_symbol
 _atom_site_label
 _atom_site_symmetry_multiplicity
 _atom_site_fract_x
 _atom_site_fract_y
 _atom_site_fract_z
 _atom_site_occupancy
  Ca  Ca0  1  0.327965  0.005719  0.750000  1
  Th  Th1  1  0.995935  0.671840  0.250000  1
  Th  Th2  1  0.003577  0.328715  0.750000  1
  Th  Th3  1  0.670056  0.994145  0.250000  1
  Al  Al4  1  0.135659  0.132716  0.250000  1
  Al  Al5  1  0.869699  0.869826  0.750000  1
  Al  Al6  1  0.006283  0.335634  0.075140  1
  Al  Al7  1  0.000621  0.669954  0.921019  1
  Al  Al8  1  0.000621  0.669954  0.578981  1
  Al  Al9  1  0.335365  0.004873  0.432114  1
  Al  Al10  1  0.006283  0.335634  0.424860  1
  Al  Al11  1  0.658772  0.995400  0.578742  1
  Al  Al12  1  0.658772  0.995400  0.921258  1
  Al  Al13  1  0.335365  0.004873  0.067886  1
  Al  Al14  1  0.336060  0.332476  0.553813  1
  Al  Al15  1  0.663479  0.663119  0.455526  1
  Al  Al16  1  0.663479  0.663119  0.044474  1
  Al  Al17  1  0.336060  0.332476  0.946187  1
  Al  Al18  1  0.341936  0.543752  0.250000  1
  Al  Al19  1  0.657885  0.450958  0.750000  1
  Al  Al20  1  0.543992  0.338360  0.250000  1
  Al  Al21  1  0.452091  0.660073  0.750000  1
  Ir  Ir22  1  0.675381  0.329795  0.001280  1
  Ir  Ir23  1  0.327442  0.670687  0.001842  1
  Ir  Ir24  1  0.327442  0.670687  0.498158  1
  Ir  Ir25  1  0.675381  0.329795  0.498720  1
  Ir  Ir26  1  0.997200  0.000011  0.001602  1
  Ir  Ir27  1  0.997200  0.000011  0.498398  1
