# generated using pymatgen
data_Tb2Th(SnRh)3
_symmetry_space_group_name_H-M   'P 1'
_cell_length_a   7.57483356
_cell_length_b   7.66818970
_cell_length_c   3.93644100
_cell_angle_alpha   90.00000000
_cell_angle_beta   90.00000000
_cell_angle_gamma   120.40854208
_symmetry_Int_Tables_number   1
_chemical_formula_structural   Tb2Th(SnRh)3
_chemical_formula_sum   'Tb2 Th1 Sn3 Rh3'
_cell_volume   197.19580978
_cell_formula_units_Z   1
loop_
 _symmetry_equiv_pos_site_id
 _symmetry_equiv_pos_as_xyz
  1  'x, y, z'
loop_
 _atom_site_type_symbol
 _atom_site_label
 _atom_site_symmetry_multiplicity
 _atom_site_fract_x
 _atom_site_fract_y
 _atom_site_fract_z
 _atom_site_occupancy
  Tb  Tb0  1  0.407682  0.407980  0.500000  1
  Tb  Tb1  1  0.592318  0.000298  0.500000  1
  Th  Th2  1  0.000000  0.585489  0.500000  1
  Sn  Sn3  1  0.733360  0.743864  0.000000  1
  Sn  Sn4  1  0.266640  0.010504  0.000000  1
  Sn  Sn5  1  0.000000  0.245179  0.000000  1
  Rh  Rh6  1  0.682395  0.348436  0.000000  1
  Rh  Rh7  1  0.317605  0.666043  0.000000  1
  Rh  Rh8  1  0.000000  0.992207  0.500000  1
