# generated using pymatgen
data_Lu3Zr(ZnRh2)4
_symmetry_space_group_name_H-M   'P 1'
_cell_length_a   6.06789501
_cell_length_b   6.06812400
_cell_length_c   6.96847201
_cell_angle_alpha   90.00000000
_cell_angle_beta   90.00505355
_cell_angle_gamma   90.00000000
_symmetry_Int_Tables_number   1
_chemical_formula_structural   Lu3Zr(ZnRh2)4
_chemical_formula_sum   'Lu3 Zr1 Zn4 Rh8'
_cell_volume   256.58429019
_cell_formula_units_Z   1
loop_
 _symmetry_equiv_pos_site_id
 _symmetry_equiv_pos_as_xyz
  1  'x, y, z'
loop_
 _atom_site_type_symbol
 _atom_site_label
 _atom_site_symmetry_multiplicity
 _atom_site_fract_x
 _atom_site_fract_y
 _atom_site_fract_z
 _atom_site_occupancy
  Lu  Lu0  1  0.750103  0.249999  0.000050  1
  Lu  Lu1  1  0.249914  0.750000  0.000013  1
  Lu  Lu2  1  0.250116  0.750000  0.499973  1
  Zr  Zr3  1  0.749936  0.249999  0.500016  1
  Zn  Zn4  1  0.249980  0.249999  0.999978  1
  Zn  Zn5  1  0.750013  0.750000  0.999986  1
  Zn  Zn6  1  0.749974  0.750000  0.499964  1
  Zn  Zn7  1  0.250019  0.249999  0.500048  1
  Rh  Rh8  1  0.502209  0.002284  0.252484  1
  Rh  Rh9  1  0.502209  0.497713  0.252484  1
  Rh  Rh10  1  0.997671  0.002263  0.252582  1
  Rh  Rh11  1  0.997671  0.497736  0.252582  1
  Rh  Rh12  1  0.997772  0.002258  0.747406  1
  Rh  Rh13  1  0.997772  0.497744  0.747406  1
  Rh  Rh14  1  0.502320  0.002238  0.747513  1
  Rh  Rh15  1  0.502320  0.497766  0.747513  1
