# generated using pymatgen
data_TbPr2(SiIr)2
_symmetry_space_group_name_H-M   'P 1'
_cell_length_a   5.81253107
_cell_length_b   5.81253137
_cell_length_c   13.38688900
_cell_angle_alpha   90.00000000
_cell_angle_beta   90.00000000
_cell_angle_gamma   138.21426031
_symmetry_Int_Tables_number   1
_chemical_formula_structural   TbPr2(SiIr)2
_chemical_formula_sum   'Tb2 Pr4 Si4 Ir4'
_cell_volume   301.37737599
_cell_formula_units_Z   2
loop_
 _symmetry_equiv_pos_site_id
 _symmetry_equiv_pos_as_xyz
  1  'x, y, z'
loop_
 _atom_site_type_symbol
 _atom_site_label
 _atom_site_symmetry_multiplicity
 _atom_site_fract_x
 _atom_site_fract_y
 _atom_site_fract_z
 _atom_site_occupancy
  Tb  Tb0  1  0.515403  0.484597  0.250000  1
  Tb  Tb1  1  0.484597  0.515403  0.750000  1
  Pr  Pr2  1  0.772577  0.227423  0.603939  1
  Pr  Pr3  1  0.227423  0.772577  0.396061  1
  Pr  Pr4  1  0.772577  0.227423  0.896061  1
  Pr  Pr5  1  0.227423  0.772577  0.103939  1
  Si  Si6  1  0.057668  0.942332  0.589683  1
  Si  Si7  1  0.057668  0.942332  0.910317  1
  Si  Si8  1  0.942332  0.057668  0.410317  1
  Si  Si9  1  0.942332  0.057668  0.089683  1
  Ir  Ir10  1  0.821040  0.178960  0.250000  1
  Ir  Ir11  1  0.178960  0.821040  0.750000  1
  Ir  Ir12  1  0.500000  0.500000  0.000000  1
  Ir  Ir13  1  0.500000  0.500000  0.500000  1
