# generated using pymatgen
data_VIr6W
_symmetry_space_group_name_H-M   'P 1'
_cell_length_a   5.50727500
_cell_length_b   5.50727557
_cell_length_c   4.40567000
_cell_angle_alpha   90.00000000
_cell_angle_beta   90.00000000
_cell_angle_gamma   119.99999058
_symmetry_Int_Tables_number   1
_chemical_formula_structural   VIr6W
_chemical_formula_sum   'V1 Ir6 W1'
_cell_volume   115.72207376
_cell_formula_units_Z   1
loop_
 _symmetry_equiv_pos_site_id
 _symmetry_equiv_pos_as_xyz
  1  'x, y, z'
loop_
 _atom_site_type_symbol
 _atom_site_label
 _atom_site_symmetry_multiplicity
 _atom_site_fract_x
 _atom_site_fract_y
 _atom_site_fract_z
 _atom_site_occupancy
  V  V0  1  0.666667  0.333333  0.250000  1
  Ir  Ir1  1  0.165998  0.331994  0.250000  1
  Ir  Ir2  1  0.668006  0.834002  0.250000  1
  Ir  Ir3  1  0.165998  0.834002  0.250000  1
  Ir  Ir4  1  0.832138  0.664277  0.750000  1
  Ir  Ir5  1  0.335723  0.167862  0.750000  1
  Ir  Ir6  1  0.832138  0.167862  0.750000  1
  W  W7  1  0.333333  0.666667  0.750000  1
