# generated using pymatgen
data_Mn7CdPt16
_symmetry_space_group_name_H-M   'P 1'
_cell_length_a   3.97671300
_cell_length_b   5.58565954
_cell_length_c   16.64542640
_cell_angle_alpha   88.61327266
_cell_angle_beta   90.00000000
_cell_angle_gamma   90.00000000
_symmetry_Int_Tables_number   1
_chemical_formula_structural   Mn7CdPt16
_chemical_formula_sum   'Mn7 Cd1 Pt16'
_cell_volume   369.62932643
_cell_formula_units_Z   1
loop_
 _symmetry_equiv_pos_site_id
 _symmetry_equiv_pos_as_xyz
  1  'x, y, z'
loop_
 _atom_site_type_symbol
 _atom_site_label
 _atom_site_symmetry_multiplicity
 _atom_site_fract_x
 _atom_site_fract_y
 _atom_site_fract_z
 _atom_site_occupancy
  Mn  Mn0  1  0.500000  0.726013  0.245632  1
  Mn  Mn1  1  0.500000  0.739056  0.576109  1
  Mn  Mn2  1  0.500000  0.754377  0.917709  1
  Mn  Mn3  1  0.500000  0.243788  0.085918  1
  Mn  Mn4  1  0.500000  0.267953  0.419577  1
  Mn  Mn5  1  0.500000  0.268365  0.754886  1
  Mn  Mn6  1  0.000000  0.997423  0.331948  1
  Cd  Cd7  1  0.000000  0.002019  0.665641  1
  Pt  Pt8  1  0.000000  0.985912  0.171069  1
  Pt  Pt9  1  0.000000  0.007223  0.493669  1
  Pt  Pt10  1  0.000000  0.006780  0.834963  1
  Pt  Pt11  1  0.000000  0.500203  0.001503  1
  Pt  Pt12  1  0.000000  0.496383  0.332299  1
  Pt  Pt13  1  0.000000  0.503467  0.666283  1
  Pt  Pt14  1  0.000000  0.486550  0.167331  1
  Pt  Pt15  1  0.000000  0.506265  0.498037  1
  Pt  Pt16  1  0.000000  0.506994  0.834767  1
  Pt  Pt17  1  0.500000  0.228631  0.255697  1
  Pt  Pt18  1  0.500000  0.249389  0.582160  1
  Pt  Pt19  1  0.500000  0.252603  0.918833  1
  Pt  Pt20  1  0.500000  0.747390  0.083778  1
  Pt  Pt21  1  0.500000  0.765843  0.408387  1
  Pt  Pt22  1  0.500000  0.756299  0.751505  1
  Pt  Pt23  1  0.000000  0.001073  0.002297  1
