# generated using pymatgen
data_Dy5Y15(Ir3Ru)3
_symmetry_space_group_name_H-M   'P 1'
_cell_length_a   10.87675717
_cell_length_b   10.87775170
_cell_length_c   6.44249248
_cell_angle_alpha   90.04016464
_cell_angle_beta   89.98197945
_cell_angle_gamma   89.99109057
_symmetry_Int_Tables_number   1
_chemical_formula_structural   Dy5Y15(Ir3Ru)3
_chemical_formula_sum   'Dy5 Y15 Ir9 Ru3'
_cell_volume   762.24109691
_cell_formula_units_Z   1
loop_
 _symmetry_equiv_pos_site_id
 _symmetry_equiv_pos_as_xyz
  1  'x, y, z'
loop_
 _atom_site_type_symbol
 _atom_site_label
 _atom_site_symmetry_multiplicity
 _atom_site_fract_x
 _atom_site_fract_y
 _atom_site_fract_z
 _atom_site_occupancy
  Dy  Dy0  1  0.087488  0.292654  0.119763  1
  Dy  Dy1  1  0.000088  0.000017  0.499434  1
  Dy  Dy2  1  0.000058  0.000078  0.999524  1
  Dy  Dy3  1  0.499991  0.500011  0.999471  1
  Dy  Dy4  1  0.499951  0.499957  0.499309  1
  Y  Y5  1  0.293469  0.086928  0.378455  1
  Y  Y6  1  0.293646  0.913410  0.878778  1
  Y  Y7  1  0.706385  0.086554  0.878748  1
  Y  Y8  1  0.706426  0.913231  0.378443  1
  Y  Y9  1  0.586603  0.793622  0.878792  1
  Y  Y10  1  0.586784  0.206388  0.378539  1
  Y  Y11  1  0.413118  0.793660  0.378402  1
  Y  Y12  1  0.413438  0.206336  0.878750  1
  Y  Y13  1  0.208042  0.412437  0.623077  1
  Y  Y14  1  0.207724  0.587563  0.120040  1
  Y  Y15  1  0.792260  0.412417  0.120080  1
  Y  Y16  1  0.792050  0.587533  0.622902  1
  Y  Y17  1  0.912427  0.707768  0.120136  1
  Y  Y18  1  0.912526  0.291901  0.622966  1
  Y  Y19  1  0.087471  0.707942  0.622910  1
  Ir  Ir20  1  0.848934  0.152434  0.249781  1
  Ir  Ir21  1  0.848224  0.847960  0.749490  1
  Ir  Ir22  1  0.151633  0.152423  0.750468  1
  Ir  Ir23  1  0.151459  0.847859  0.249996  1
  Ir  Ir24  1  0.652030  0.348172  0.749657  1
  Ir  Ir25  1  0.652130  0.651439  0.250172  1
  Ir  Ir26  1  0.347347  0.348489  0.249682  1
  Ir  Ir27  1  0.347917  0.651774  0.749583  1
  Ir  Ir28  1  0.000136  0.499513  0.376230  1
  Ru  Ru29  1  0.499993  0.999998  0.124735  1
  Ru  Ru30  1  0.500035  0.000024  0.624585  1
  Ru  Ru31  1  0.000217  0.499509  0.877102  1
