# generated using pymatgen
data_Dy3Er5(AlRu)2
_symmetry_space_group_name_H-M   'P 1'
_cell_length_a   9.45569964
_cell_length_b   9.45569928
_cell_length_c   9.45570000
_cell_angle_alpha   59.99999747
_cell_angle_beta   59.99999876
_cell_angle_gamma   59.99999990
_symmetry_Int_Tables_number   1
_chemical_formula_structural   Dy3Er5(AlRu)2
_chemical_formula_sum   'Dy6 Er10 Al4 Ru4'
_cell_volume   597.81388063
_cell_formula_units_Z   2
loop_
 _symmetry_equiv_pos_site_id
 _symmetry_equiv_pos_as_xyz
  1  'x, y, z'
loop_
 _atom_site_type_symbol
 _atom_site_label
 _atom_site_symmetry_multiplicity
 _atom_site_fract_x
 _atom_site_fract_y
 _atom_site_fract_z
 _atom_site_occupancy
  Dy  Dy0  1  0.189803  0.810197  0.810197  1
  Dy  Dy1  1  0.810197  0.189803  0.189803  1
  Dy  Dy2  1  0.810197  0.189803  0.810197  1
  Dy  Dy3  1  0.189803  0.810197  0.189803  1
  Dy  Dy4  1  0.810197  0.810197  0.189803  1
  Dy  Dy5  1  0.189803  0.189803  0.810197  1
  Er  Er6  1  0.601196  0.601196  0.601196  1
  Er  Er7  1  0.601196  0.601196  0.196411  1
  Er  Er8  1  0.601196  0.196411  0.601196  1
  Er  Er9  1  0.196411  0.601196  0.601196  1
  Er  Er10  1  0.056091  0.443909  0.443909  1
  Er  Er11  1  0.443909  0.056091  0.056091  1
  Er  Er12  1  0.443909  0.056091  0.443909  1
  Er  Er13  1  0.056091  0.443909  0.056091  1
  Er  Er14  1  0.443909  0.443909  0.056091  1
  Er  Er15  1  0.056091  0.056091  0.443909  1
  Al  Al16  1  0.826750  0.826750  0.826750  1
  Al  Al17  1  0.826750  0.826750  0.519749  1
  Al  Al18  1  0.826750  0.519749  0.826750  1
  Al  Al19  1  0.519749  0.826750  0.826750  1
  Ru  Ru20  1  0.390030  0.390030  0.390030  1
  Ru  Ru21  1  0.390030  0.390030  0.829910  1
  Ru  Ru22  1  0.390030  0.829910  0.390030  1
  Ru  Ru23  1  0.829910  0.390030  0.390030  1
