# generated using pymatgen
data_Cs12ZrMo3Se16
_symmetry_space_group_name_H-M   'P 1'
_cell_length_a   10.42766659
_cell_length_b   10.54417056
_cell_length_c   12.12003100
_cell_angle_alpha   90.00000000
_cell_angle_beta   90.00000000
_cell_angle_gamma   89.40346987
_symmetry_Int_Tables_number   1
_chemical_formula_structural   Cs12ZrMo3Se16
_chemical_formula_sum   'Cs12 Zr1 Mo3 Se16'
_cell_volume   1332.53845478
_cell_formula_units_Z   1
loop_
 _symmetry_equiv_pos_site_id
 _symmetry_equiv_pos_as_xyz
  1  'x, y, z'
loop_
 _atom_site_type_symbol
 _atom_site_label
 _atom_site_symmetry_multiplicity
 _atom_site_fract_x
 _atom_site_fract_y
 _atom_site_fract_z
 _atom_site_occupancy
  Cs  Cs0  1  0.546013  0.709398  0.040347  1
  Cs  Cs1  1  0.051261  0.796929  0.461667  1
  Cs  Cs2  1  0.445632  0.290285  0.543682  1
  Cs  Cs3  1  0.956374  0.202251  0.951885  1
  Cs  Cs4  1  0.445632  0.290285  0.956318  1
  Cs  Cs5  1  0.956374  0.202251  0.548115  1
  Cs  Cs6  1  0.546013  0.709398  0.459653  1
  Cs  Cs7  1  0.051261  0.796929  0.038333  1
  Cs  Cs8  1  0.354522  0.077176  0.250000  1
  Cs  Cs9  1  0.855140  0.413682  0.250000  1
  Cs  Cs10  1  0.642993  0.915987  0.750000  1
  Cs  Cs11  1  0.145754  0.590561  0.750000  1
  Zr  Zr12  1  0.224135  0.018633  0.750000  1
  Mo  Mo13  1  0.274727  0.517088  0.250000  1
  Mo  Mo14  1  0.779161  0.983403  0.250000  1
  Mo  Mo15  1  0.724391  0.480323  0.750000  1
  Se  Se16  1  0.292493  0.740582  0.250000  1
  Se  Se17  1  0.794263  0.758708  0.250000  1
  Se  Se18  1  0.703866  0.257348  0.750000  1
  Se  Se19  1  0.204308  0.259743  0.750000  1
  Se  Se20  1  0.483998  0.425394  0.250000  1
  Se  Se21  1  0.988616  0.069485  0.250000  1
  Se  Se22  1  0.516256  0.572227  0.750000  1
  Se  Se23  1  0.999701  0.924230  0.750000  1
  Se  Se24  1  0.164849  0.454901  0.088626  1
  Se  Se25  1  0.669875  0.049193  0.410739  1
  Se  Se26  1  0.833957  0.542256  0.588348  1
  Se  Se27  1  0.339876  0.952501  0.926243  1
  Se  Se28  1  0.833957  0.542256  0.911652  1
  Se  Se29  1  0.339876  0.952501  0.573757  1
  Se  Se30  1  0.164849  0.454901  0.411374  1
  Se  Se31  1  0.669875  0.049193  0.089261  1
