# generated using pymatgen
data_Os5AuCl30
_symmetry_space_group_name_H-M   'P 1'
_cell_length_a   13.41065772
_cell_length_b   13.41283828
_cell_length_c   6.39302821
_cell_angle_alpha   89.64389914
_cell_angle_beta   89.33287081
_cell_angle_gamma   85.70912076
_symmetry_Int_Tables_number   1
_chemical_formula_structural   Os5AuCl30
_chemical_formula_sum   'Os5 Au1 Cl30'
_cell_volume   1146.62841047
_cell_formula_units_Z   1
loop_
 _symmetry_equiv_pos_site_id
 _symmetry_equiv_pos_as_xyz
  1  'x, y, z'
loop_
 _atom_site_type_symbol
 _atom_site_label
 _atom_site_symmetry_multiplicity
 _atom_site_fract_x
 _atom_site_fract_y
 _atom_site_fract_z
 _atom_site_occupancy
  Os  Os0  1  0.437091  0.229325  0.474143  1
  Os  Os1  1  0.769089  0.564681  0.525980  1
  Os  Os2  1  0.564466  0.768667  0.526003  1
  Os  Os3  1  0.102312  0.897733  0.999862  1
  Os  Os4  1  0.898036  0.102277  0.999617  1
  Au  Au5  1  0.233531  0.432781  0.475092  1
  Cl  Cl6  1  0.526214  0.327490  0.259333  1
  Cl  Cl7  1  0.669604  0.476290  0.740472  1
  Cl  Cl8  1  0.475577  0.670631  0.741280  1
  Cl  Cl9  1  0.330607  0.529000  0.254138  1
  Cl  Cl10  1  0.568865  0.199984  0.686743  1
  Cl  Cl11  1  0.799736  0.432522  0.313748  1
  Cl  Cl12  1  0.868141  0.233667  0.783461  1
  Cl  Cl13  1  0.765932  0.132400  0.216060  1
  Cl  Cl14  1  0.132288  0.766546  0.215433  1
  Cl  Cl15  1  0.234359  0.867161  0.783614  1
  Cl  Cl16  1  0.996745  0.191178  0.206711  1
  Cl  Cl17  1  0.809390  0.002705  0.792148  1
  Cl  Cl18  1  0.003856  0.808535  0.792131  1
  Cl  Cl19  1  0.190464  0.997639  0.206829  1
  Cl  Cl20  1  0.048435  0.047888  0.794961  1
  Cl  Cl21  1  0.951738  0.952018  0.203998  1
  Cl  Cl22  1  0.287112  0.282137  0.272139  1
  Cl  Cl23  1  0.714803  0.715333  0.726203  1
  Cl  Cl24  1  0.094366  0.471850  0.268820  1
  Cl  Cl25  1  0.535108  0.900990  0.738382  1
  Cl  Cl26  1  0.900367  0.535668  0.737847  1
  Cl  Cl27  1  0.465994  0.097388  0.260219  1
  Cl  Cl28  1  0.137134  0.335802  0.695905  1
  Cl  Cl29  1  0.663850  0.857037  0.310916  1
  Cl  Cl30  1  0.857690  0.663206  0.310317  1
  Cl  Cl31  1  0.338344  0.140732  0.688839  1
  Cl  Cl32  1  0.384121  0.379621  0.676917  1
  Cl  Cl33  1  0.618382  0.618136  0.325833  1
  Cl  Cl34  1  0.193443  0.572424  0.681798  1
  Cl  Cl35  1  0.432805  0.798561  0.314109  1
