# generated using pymatgen
data_CaTh3(PdPt)6
_symmetry_space_group_name_H-M   'P 1'
_cell_length_a   5.92403400
_cell_length_b   5.92403319
_cell_length_c   9.75129300
_cell_angle_alpha   90.00000000
_cell_angle_beta   90.00000000
_cell_angle_gamma   120.00000453
_symmetry_Int_Tables_number   1
_chemical_formula_structural   CaTh3(PdPt)6
_chemical_formula_sum   'Ca1 Th3 Pd6 Pt6'
_cell_volume   296.36563466
_cell_formula_units_Z   1
loop_
 _symmetry_equiv_pos_site_id
 _symmetry_equiv_pos_as_xyz
  1  'x, y, z'
loop_
 _atom_site_type_symbol
 _atom_site_label
 _atom_site_symmetry_multiplicity
 _atom_site_fract_x
 _atom_site_fract_y
 _atom_site_fract_z
 _atom_site_occupancy
  Ca  Ca0  1  0.333333  0.666667  0.250000  1
  Th  Th1  1  0.000000  0.000000  0.493786  1
  Th  Th2  1  0.000000  0.000000  0.006214  1
  Th  Th3  1  0.666667  0.333333  0.750000  1
  Pd  Pd4  1  0.824736  0.649473  0.250000  1
  Pd  Pd5  1  0.350527  0.175264  0.250000  1
  Pd  Pd6  1  0.824736  0.175264  0.250000  1
  Pd  Pd7  1  0.173868  0.347737  0.750000  1
  Pd  Pd8  1  0.652263  0.826132  0.750000  1
  Pd  Pd9  1  0.173868  0.826132  0.750000  1
  Pt  Pt10  1  0.499610  0.500390  0.499319  1
  Pt  Pt11  1  0.499610  0.999218  0.499319  1
  Pt  Pt12  1  0.000782  0.500390  0.499319  1
  Pt  Pt13  1  0.499610  0.500390  0.000681  1
  Pt  Pt14  1  0.499610  0.999218  0.000681  1
  Pt  Pt15  1  0.000782  0.500390  0.000681  1
