# generated using pymatgen
data_Pr3PaN4
_symmetry_space_group_name_H-M   'P 1'
_cell_length_a   6.29547132
_cell_length_b   6.29575893
_cell_length_c   5.14151704
_cell_angle_alpha   65.89639786
_cell_angle_beta   65.90227878
_cell_angle_gamma   48.20131950
_symmetry_Int_Tables_number   1
_chemical_formula_structural   Pr3PaN4
_chemical_formula_sum   'Pr3 Pa1 N4'
_cell_volume   135.87064047
_cell_formula_units_Z   1
loop_
 _symmetry_equiv_pos_site_id
 _symmetry_equiv_pos_as_xyz
  1  'x, y, z'
loop_
 _atom_site_type_symbol
 _atom_site_label
 _atom_site_symmetry_multiplicity
 _atom_site_fract_x
 _atom_site_fract_y
 _atom_site_fract_z
 _atom_site_occupancy
  Pr  Pr0  1  0.747097  0.752903  0.752903  1
  Pr  Pr1  1  0.247097  0.252903  0.252903  1
  Pr  Pr2  1  0.497371  0.502629  0.502629  1
  Pa  Pa3  1  0.998728  0.001272  0.001272  1
  N  N4  1  0.998126  0.001874  0.508010  1
  N  N5  1  0.216483  0.220958  0.783517  1
  N  N6  1  0.491990  0.508010  0.001874  1
  N  N7  1  0.779042  0.783517  0.220958  1
