# generated using pymatgen
data_CeY4HgPd14
_symmetry_space_group_name_H-M   'P 1'
_cell_length_a   4.18768400
_cell_length_b   4.13095800
_cell_length_c   20.97102800
_cell_angle_alpha   90.00000000
_cell_angle_beta   90.00000000
_cell_angle_gamma   90.00000000
_symmetry_Int_Tables_number   1
_chemical_formula_structural   CeY4HgPd14
_chemical_formula_sum   'Ce1 Y4 Hg1 Pd14'
_cell_volume   362.78089027
_cell_formula_units_Z   1
loop_
 _symmetry_equiv_pos_site_id
 _symmetry_equiv_pos_as_xyz
  1  'x, y, z'
loop_
 _atom_site_type_symbol
 _atom_site_label
 _atom_site_symmetry_multiplicity
 _atom_site_fract_x
 _atom_site_fract_y
 _atom_site_fract_z
 _atom_site_occupancy
  Ce  Ce0  1  0.000000  0.000000  0.000000  1
  Y  Y1  1  0.000000  0.000000  0.196718  1
  Y  Y2  1  0.000000  0.000000  0.389329  1
  Y  Y3  1  0.000000  0.000000  0.610671  1
  Y  Y4  1  0.000000  0.000000  0.803282  1
  Hg  Hg5  1  0.500000  0.000000  0.500000  1
  Pd  Pd6  1  0.500000  0.500000  0.000000  1
  Pd  Pd7  1  0.500000  0.500000  0.197720  1
  Pd  Pd8  1  0.500000  0.500000  0.396519  1
  Pd  Pd9  1  0.500000  0.500000  0.603481  1
  Pd  Pd10  1  0.500000  0.500000  0.802280  1
  Pd  Pd11  1  0.500000  0.000000  0.097852  1
  Pd  Pd12  1  0.500000  0.000000  0.296382  1
  Pd  Pd13  1  0.500000  0.000000  0.703618  1
  Pd  Pd14  1  0.500000  0.000000  0.902148  1
  Pd  Pd15  1  0.000000  0.500000  0.097552  1
  Pd  Pd16  1  0.000000  0.500000  0.296137  1
  Pd  Pd17  1  0.000000  0.500000  0.500000  1
  Pd  Pd18  1  0.000000  0.500000  0.703863  1
  Pd  Pd19  1  0.000000  0.500000  0.902448  1
