# generated using pymatgen
data_Hf2Zr3ZnBi3
_symmetry_space_group_name_H-M   'P 1'
_cell_length_a   8.87844100
_cell_length_b   8.87844122
_cell_length_c   5.89361200
_cell_angle_alpha   90.00000000
_cell_angle_beta   90.00000000
_cell_angle_gamma   119.99999544
_symmetry_Int_Tables_number   1
_chemical_formula_structural   Hf2Zr3ZnBi3
_chemical_formula_sum   'Hf4 Zr6 Zn2 Bi6'
_cell_volume   402.33297613
_cell_formula_units_Z   2
loop_
 _symmetry_equiv_pos_site_id
 _symmetry_equiv_pos_as_xyz
  1  'x, y, z'
loop_
 _atom_site_type_symbol
 _atom_site_label
 _atom_site_symmetry_multiplicity
 _atom_site_fract_x
 _atom_site_fract_y
 _atom_site_fract_z
 _atom_site_occupancy
  Hf  Hf0  1  0.666667  0.333333  0.000000  1
  Hf  Hf1  1  0.333333  0.666667  0.000000  1
  Hf  Hf2  1  0.333333  0.666667  0.500000  1
  Hf  Hf3  1  0.666667  0.333333  0.500000  1
  Zr  Zr4  1  0.733634  0.733634  0.750000  1
  Zr  Zr5  1  0.266366  0.000000  0.750000  1
  Zr  Zr6  1  0.000000  0.266366  0.750000  1
  Zr  Zr7  1  0.266366  0.266366  0.250000  1
  Zr  Zr8  1  0.733634  0.000000  0.250000  1
  Zr  Zr9  1  0.000000  0.733634  0.250000  1
  Zn  Zn10  1  0.000000  0.000000  0.500000  1
  Zn  Zn11  1  0.000000  0.000000  0.000000  1
  Bi  Bi12  1  0.385810  0.385810  0.750000  1
  Bi  Bi13  1  0.614190  0.000000  0.750000  1
  Bi  Bi14  1  0.000000  0.614190  0.750000  1
  Bi  Bi15  1  0.614190  0.614190  0.250000  1
  Bi  Bi16  1  0.385810  0.000000  0.250000  1
  Bi  Bi17  1  0.000000  0.385810  0.250000  1
