# generated using pymatgen
data_LaTl3In2(TeO6)3
_symmetry_space_group_name_H-M   'P 1'
_cell_length_a   9.19231100
_cell_length_b   9.21382158
_cell_length_c   5.10570400
_cell_angle_alpha   89.81209024
_cell_angle_beta   90.00000000
_cell_angle_gamma   119.92280569
_symmetry_Int_Tables_number   1
_chemical_formula_structural   LaTl3In2(TeO6)3
_chemical_formula_sum   'La1 Tl3 In2 Te3 O18'
_cell_volume   374.78737959
_cell_formula_units_Z   1
loop_
 _symmetry_equiv_pos_site_id
 _symmetry_equiv_pos_as_xyz
  1  'x, y, z'
loop_
 _atom_site_type_symbol
 _atom_site_label
 _atom_site_symmetry_multiplicity
 _atom_site_fract_x
 _atom_site_fract_y
 _atom_site_fract_z
 _atom_site_occupancy
  La  La0  1  0.612361  0.000000  0.000000  1
  Tl  Tl1  1  0.000782  0.623852  0.003626  1
  Tl  Tl2  1  0.376929  0.376148  0.996374  1
  Tl  Tl3  1  0.281681  0.000000  0.500000  1
  In  In4  1  0.999167  0.287620  0.494613  1
  In  In5  1  0.711546  0.712380  0.505387  1
  Te  Te6  1  0.999847  0.000000  0.000000  1
  Te  Te7  1  0.327887  0.657449  0.503135  1
  Te  Te8  1  0.670439  0.342551  0.496865  1
  O  O9  1  0.084319  0.878193  0.795044  1
  O  O10  1  0.113471  0.195156  0.769912  1
  O  O11  1  0.798571  0.910063  0.786902  1
  O  O12  1  0.206125  0.121807  0.204956  1
  O  O13  1  0.918314  0.804844  0.230088  1
  O  O14  1  0.888507  0.089937  0.213098  1
  O  O15  1  0.463097  0.598241  0.735890  1
  O  O16  1  0.391736  0.855284  0.711346  1
  O  O17  1  0.125638  0.528504  0.714062  1
  O  O18  1  0.864855  0.401759  0.264110  1
  O  O19  1  0.536451  0.144716  0.288654  1
  O  O20  1  0.597134  0.471496  0.285938  1
  O  O21  1  0.232999  0.758371  0.265112  1
  O  O22  1  0.235851  0.453713  0.292335  1
  O  O23  1  0.537406  0.769286  0.304964  1
  O  O24  1  0.474628  0.241629  0.734888  1
  O  O25  1  0.782138  0.546287  0.707665  1
  O  O26  1  0.768120  0.230714  0.695036  1
