# generated using pymatgen
data_Lu5ScCoTe2
_symmetry_space_group_name_H-M   'P 1'
_cell_length_a   3.86498700
_cell_length_b   8.21818476
_cell_length_c   8.05071668
_cell_angle_alpha   120.69052645
_cell_angle_beta   90.00000000
_cell_angle_gamma   90.00000000
_symmetry_Int_Tables_number   1
_chemical_formula_structural   Lu5ScCoTe2
_chemical_formula_sum   'Lu5 Sc1 Co1 Te2'
_cell_volume   219.89986024
_cell_formula_units_Z   1
loop_
 _symmetry_equiv_pos_site_id
 _symmetry_equiv_pos_as_xyz
  1  'x, y, z'
loop_
 _atom_site_type_symbol
 _atom_site_label
 _atom_site_symmetry_multiplicity
 _atom_site_fract_x
 _atom_site_fract_y
 _atom_site_fract_z
 _atom_site_occupancy
  Lu  Lu0  1  0.500000  0.764102  0.769822  1
  Lu  Lu1  1  0.500000  0.994280  0.230178  1
  Lu  Lu2  1  0.000000  0.383186  0.382106  1
  Lu  Lu3  1  0.000000  0.001080  0.617894  1
  Lu  Lu4  1  0.000000  0.596962  0.000000  1
  Sc  Sc5  1  0.500000  0.233907  0.000000  1
  Co  Co6  1  0.000000  0.032936  0.000000  1
  Te  Te7  1  0.500000  0.662494  0.331441  1
  Te  Te8  1  0.500000  0.331052  0.668559  1
