# generated using pymatgen
data_Hf18Re7MoP2
_symmetry_space_group_name_H-M   'P 1'
_cell_length_a   8.54942067
_cell_length_b   8.54942040
_cell_length_c   8.64133000
_cell_angle_alpha   90.00000000
_cell_angle_beta   90.00000000
_cell_angle_gamma   120.04523890
_symmetry_Int_Tables_number   1
_chemical_formula_structural   Hf18Re7MoP2
_chemical_formula_sum   'Hf18 Re7 Mo1 P2'
_cell_volume   546.74702047
_cell_formula_units_Z   1
loop_
 _symmetry_equiv_pos_site_id
 _symmetry_equiv_pos_as_xyz
  1  'x, y, z'
loop_
 _atom_site_type_symbol
 _atom_site_label
 _atom_site_symmetry_multiplicity
 _atom_site_fract_x
 _atom_site_fract_y
 _atom_site_fract_z
 _atom_site_occupancy
  Hf  Hf0  1  0.196497  0.803503  0.451954  1
  Hf  Hf1  1  0.196893  0.393286  0.452486  1
  Hf  Hf2  1  0.606714  0.803107  0.452486  1
  Hf  Hf3  1  0.803318  0.196682  0.549120  1
  Hf  Hf4  1  0.803552  0.607206  0.548465  1
  Hf  Hf5  1  0.392794  0.196448  0.548465  1
  Hf  Hf6  1  0.803318  0.196682  0.950880  1
  Hf  Hf7  1  0.803552  0.607206  0.951535  1
  Hf  Hf8  1  0.392794  0.196448  0.951535  1
  Hf  Hf9  1  0.196497  0.803503  0.048046  1
  Hf  Hf10  1  0.196893  0.393286  0.047514  1
  Hf  Hf11  1  0.606714  0.803107  0.047514  1
  Hf  Hf12  1  0.539356  0.460644  0.250000  1
  Hf  Hf13  1  0.538577  0.078496  0.250000  1
  Hf  Hf14  1  0.921504  0.461423  0.250000  1
  Hf  Hf15  1  0.460389  0.539611  0.750000  1
  Hf  Hf16  1  0.460232  0.920737  0.750000  1
  Hf  Hf17  1  0.079263  0.539768  0.750000  1
  Re  Re18  1  0.890182  0.780682  0.250000  1
  Re  Re19  1  0.219318  0.109818  0.250000  1
  Re  Re20  1  0.109415  0.890585  0.750000  1
  Re  Re21  1  0.109629  0.218901  0.750000  1
  Re  Re22  1  0.781099  0.890371  0.750000  1
  Re  Re23  1  0.000267  0.999733  0.500423  1
  Re  Re24  1  0.000267  0.999733  0.999577  1
  Mo  Mo25  1  0.891240  0.108760  0.250000  1
  P  P26  1  0.333113  0.666887  0.250000  1
  P  P27  1  0.666616  0.333384  0.750000  1
