# generated using pymatgen
data_Sr3LiNi2N3
_symmetry_space_group_name_H-M   'P 1'
_cell_length_a   5.31209300
_cell_length_b   9.14371900
_cell_length_c   13.05779200
_cell_angle_alpha   90.00000000
_cell_angle_beta   90.00000000
_cell_angle_gamma   90.00000000
_symmetry_Int_Tables_number   1
_chemical_formula_structural   Sr3LiNi2N3
_chemical_formula_sum   'Sr12 Li4 Ni8 N12'
_cell_volume   634.24680356
_cell_formula_units_Z   4
loop_
 _symmetry_equiv_pos_site_id
 _symmetry_equiv_pos_as_xyz
  1  'x, y, z'
loop_
 _atom_site_type_symbol
 _atom_site_label
 _atom_site_symmetry_multiplicity
 _atom_site_fract_x
 _atom_site_fract_y
 _atom_site_fract_z
 _atom_site_occupancy
  Sr  Sr0  1  0.492210  0.482004  0.754425  1
  Sr  Sr1  1  0.992210  0.017996  0.245575  1
  Sr  Sr2  1  0.007790  0.982004  0.745575  1
  Sr  Sr3  1  0.507790  0.517996  0.254425  1
  Sr  Sr4  1  0.004358  0.334586  0.417823  1
  Sr  Sr5  1  0.504358  0.165414  0.582177  1
  Sr  Sr6  1  0.495642  0.834586  0.082177  1
  Sr  Sr7  1  0.995642  0.665414  0.917823  1
  Sr  Sr8  1  0.030574  0.659014  0.590874  1
  Sr  Sr9  1  0.530574  0.840986  0.409126  1
  Sr  Sr10  1  0.469426  0.159014  0.909126  1
  Sr  Sr11  1  0.969426  0.340986  0.090874  1
  Li  Li12  1  0.471990  0.179212  0.149824  1
  Li  Li13  1  0.971990  0.320788  0.850176  1
  Li  Li14  1  0.028010  0.679212  0.350176  1
  Li  Li15  1  0.528010  0.820788  0.649824  1
  Ni  Ni16  1  0.513311  0.828570  0.836376  1
  Ni  Ni17  1  0.013311  0.671430  0.163624  1
  Ni  Ni18  1  0.986689  0.328570  0.663624  1
  Ni  Ni19  1  0.486689  0.171430  0.336376  1
  Ni  Ni20  1  0.975001  0.005562  0.993898  1
  Ni  Ni21  1  0.475001  0.494438  0.006102  1
  Ni  Ni22  1  0.524999  0.505562  0.506102  1
  Ni  Ni23  1  0.024999  0.994438  0.493898  1
  N  N24  1  0.287289  0.743986  0.752508  1
  N  N25  1  0.787289  0.756014  0.247492  1
  N  N26  1  0.212711  0.243986  0.747492  1
  N  N27  1  0.712711  0.256014  0.252508  1
  N  N28  1  0.256086  0.082766  0.415499  1
  N  N29  1  0.756086  0.417234  0.584501  1
  N  N30  1  0.243914  0.582766  0.084501  1
  N  N31  1  0.743914  0.917234  0.915499  1
  N  N32  1  0.785708  0.913105  0.571857  1
  N  N33  1  0.285708  0.586895  0.428143  1
  N  N34  1  0.714292  0.413105  0.928143  1
  N  N35  1  0.214292  0.086895  0.071857  1
