# generated using pymatgen
data_Dy5Y5(InSb)3
_symmetry_space_group_name_H-M   'P 1'
_cell_length_a   6.53497702
_cell_length_b   8.99329969
_cell_length_c   8.99306700
_cell_angle_alpha   119.99766699
_cell_angle_beta   89.99677161
_cell_angle_gamma   90.00738478
_symmetry_Int_Tables_number   1
_chemical_formula_structural   Dy5Y5(InSb)3
_chemical_formula_sum   'Dy5 Y5 In3 Sb3'
_cell_volume   457.73255064
_cell_formula_units_Z   1
loop_
 _symmetry_equiv_pos_site_id
 _symmetry_equiv_pos_as_xyz
  1  'x, y, z'
loop_
 _atom_site_type_symbol
 _atom_site_label
 _atom_site_symmetry_multiplicity
 _atom_site_fract_x
 _atom_site_fract_y
 _atom_site_fract_z
 _atom_site_occupancy
  Dy  Dy0  1  0.501174  0.333444  0.666863  1
  Dy  Dy1  1  0.501174  0.666604  0.333144  1
  Dy  Dy2  1  0.998678  0.666706  0.333474  1
  Dy  Dy3  1  0.998678  0.333216  0.666536  1
  Dy  Dy4  1  0.250024  0.000008  0.760452  1
  Y  Y5  1  0.750105  0.239787  0.999965  1
  Y  Y6  1  0.750095  0.760088  0.760064  1
  Y  Y7  1  0.750098  0.999991  0.239956  1
  Y  Y8  1  0.250100  0.760495  0.999966  1
  Y  Y9  1  0.250025  0.239548  0.239513  1
  In  In10  1  0.750120  0.606576  0.000008  1
  In  In11  1  0.749914  0.393428  0.393417  1
  In  In12  1  0.749916  0.000017  0.606614  1
  Sb  Sb13  1  0.249771  0.393771  0.999969  1
  Sb  Sb14  1  0.250066  0.606269  0.606183  1
  Sb  Sb15  1  0.250067  0.000053  0.393875  1
