# generated using pymatgen
data_Tb13Hf4(ThIr4)3
_symmetry_space_group_name_H-M   'P 1'
_cell_length_a   10.97794482
_cell_length_b   10.94119491
_cell_length_c   6.27270547
_cell_angle_alpha   89.98971909
_cell_angle_beta   89.78928819
_cell_angle_gamma   89.83820259
_symmetry_Int_Tables_number   1
_chemical_formula_structural   Tb13Hf4(ThIr4)3
_chemical_formula_sum   'Tb13 Hf4 Th3 Ir12'
_cell_volume   753.41804808
_cell_formula_units_Z   1
loop_
 _symmetry_equiv_pos_site_id
 _symmetry_equiv_pos_as_xyz
  1  'x, y, z'
loop_
 _atom_site_type_symbol
 _atom_site_label
 _atom_site_symmetry_multiplicity
 _atom_site_fract_x
 _atom_site_fract_y
 _atom_site_fract_z
 _atom_site_occupancy
  Tb  Tb0  1  0.709864  0.910394  0.374165  1
  Tb  Tb1  1  0.589346  0.782968  0.875793  1
  Tb  Tb2  1  0.588637  0.214839  0.375437  1
  Tb  Tb3  1  0.418467  0.782958  0.374545  1
  Tb  Tb4  1  0.412771  0.218517  0.875369  1
  Tb  Tb5  1  0.209593  0.416601  0.622650  1
  Tb  Tb6  1  0.209944  0.585662  0.123820  1
  Tb  Tb7  1  0.790109  0.414982  0.121985  1
  Tb  Tb8  1  0.789751  0.583353  0.622926  1
  Tb  Tb9  1  0.914087  0.710995  0.123338  1
  Tb  Tb10  1  0.916403  0.289075  0.620117  1
  Tb  Tb11  1  0.082015  0.710818  0.621072  1
  Tb  Tb12  1  0.083911  0.290906  0.117937  1
  Hf  Hf13  1  0.995559  0.998929  0.499940  1
  Hf  Hf14  1  0.999695  0.000279  0.001431  1
  Hf  Hf15  1  0.500447  0.499808  0.008469  1
  Hf  Hf16  1  0.501251  0.498890  0.508564  1
  Th  Th17  1  0.290549  0.090089  0.377039  1
  Th  Th18  1  0.289671  0.908573  0.875025  1
  Th  Th19  1  0.709222  0.086895  0.877089  1
  Ir  Ir20  1  0.857171  0.142719  0.243154  1
  Ir  Ir21  1  0.854659  0.861042  0.753713  1
  Ir  Ir22  1  0.144060  0.139311  0.744340  1
  Ir  Ir23  1  0.144848  0.861028  0.248308  1
  Ir  Ir24  1  0.642582  0.356382  0.755380  1
  Ir  Ir25  1  0.642997  0.639563  0.253755  1
  Ir  Ir26  1  0.358098  0.357969  0.257273  1
  Ir  Ir27  1  0.359071  0.643184  0.756356  1
  Ir  Ir28  1  0.497087  0.001114  0.113638  1
  Ir  Ir29  1  0.498935  0.000135  0.617370  1
  Ir  Ir30  1  0.999588  0.500943  0.879982  1
  Ir  Ir31  1  0.999611  0.501081  0.380020  1
