# generated using pymatgen
data_AsIrO5
_symmetry_space_group_name_H-M   'P 1'
_cell_length_a   4.96357700
_cell_length_b   8.84006000
_cell_length_c   9.10723000
_cell_angle_alpha   90.00000000
_cell_angle_beta   90.00000000
_cell_angle_gamma   90.00000000
_symmetry_Int_Tables_number   1
_chemical_formula_structural   AsIrO5
_chemical_formula_sum   'As4 Ir4 O20'
_cell_volume   399.60993854
_cell_formula_units_Z   4
loop_
 _symmetry_equiv_pos_site_id
 _symmetry_equiv_pos_as_xyz
  1  'x, y, z'
loop_
 _atom_site_type_symbol
 _atom_site_label
 _atom_site_symmetry_multiplicity
 _atom_site_fract_x
 _atom_site_fract_y
 _atom_site_fract_z
 _atom_site_occupancy
  As  As0  1  0.887757  0.027185  0.714874  1
  As  As1  1  0.387757  0.472815  0.285126  1
  As  As2  1  0.112243  0.527185  0.785126  1
  As  As3  1  0.612243  0.972815  0.214874  1
  Ir  Ir4  1  0.880270  0.654570  0.100042  1
  Ir  Ir5  1  0.380270  0.845430  0.899958  1
  Ir  Ir6  1  0.119730  0.154570  0.399958  1
  Ir  Ir7  1  0.619730  0.345430  0.600042  1
  O  O8  1  0.058847  0.500040  0.973213  1
  O  O9  1  0.558847  0.999960  0.026787  1
  O  O10  1  0.941153  0.000040  0.526787  1
  O  O11  1  0.441153  0.499960  0.473213  1
  O  O12  1  0.219732  0.710564  0.745511  1
  O  O13  1  0.719732  0.789436  0.254489  1
  O  O14  1  0.780268  0.210564  0.754489  1
  O  O15  1  0.280268  0.289436  0.245511  1
  O  O16  1  0.922320  0.320703  0.477657  1
  O  O17  1  0.422320  0.179297  0.522343  1
  O  O18  1  0.077680  0.820703  0.022343  1
  O  O19  1  0.577680  0.679297  0.977657  1
  O  O20  1  0.175922  0.623159  0.245827  1
  O  O21  1  0.675922  0.876841  0.754173  1
  O  O22  1  0.824078  0.123159  0.254173  1
  O  O23  1  0.324078  0.376841  0.745827  1
  O  O24  1  0.689535  0.477732  0.187849  1
  O  O25  1  0.189535  0.022268  0.812151  1
  O  O26  1  0.310465  0.977732  0.312151  1
  O  O27  1  0.810465  0.522268  0.687849  1
