# generated using pymatgen
data_USe2I3
_symmetry_space_group_name_H-M   'P 1'
_cell_length_a   9.35759097
_cell_length_b   7.54281213
_cell_length_c   17.21996161
_cell_angle_alpha   63.96912392
_cell_angle_beta   90.11709054
_cell_angle_gamma   90.15232638
_symmetry_Int_Tables_number   1
_chemical_formula_structural   USe2I3
_chemical_formula_sum   'U4 Se8 I12'
_cell_volume   1092.12851619
_cell_formula_units_Z   4
loop_
 _symmetry_equiv_pos_site_id
 _symmetry_equiv_pos_as_xyz
  1  'x, y, z'
loop_
 _atom_site_type_symbol
 _atom_site_label
 _atom_site_symmetry_multiplicity
 _atom_site_fract_x
 _atom_site_fract_y
 _atom_site_fract_z
 _atom_site_occupancy
  U  U0  1  0.617869  0.721284  0.986709  1
  U  U1  1  0.117659  0.279002  0.513241  1
  U  U2  1  0.382131  0.278716  0.013291  1
  U  U3  1  0.882341  0.720998  0.486759  1
  Se  Se4  1  0.693685  0.323405  0.038976  1
  Se  Se5  1  0.306315  0.676595  0.961024  1
  Se  Se6  1  0.806147  0.322962  0.538934  1
  Se  Se7  1  0.193853  0.677038  0.461066  1
  Se  Se8  1  0.036515  0.649395  0.361015  1
  Se  Se9  1  0.536662  0.350538  0.138996  1
  Se  Se10  1  0.963485  0.350605  0.638985  1
  Se  Se11  1  0.463338  0.649462  0.861004  1
  I  I12  1  0.664653  0.762805  0.357767  1
  I  I13  1  0.834925  0.763038  0.857953  1
  I  I14  1  0.165075  0.236962  0.142047  1
  I  I15  1  0.335347  0.237195  0.642233  1
  I  I16  1  0.924580  0.162916  0.380659  1
  I  I17  1  0.424584  0.837207  0.119254  1
  I  I18  1  0.075420  0.837084  0.619341  1
  I  I19  1  0.575416  0.162793  0.880746  1
  I  I20  1  0.655885  0.763424  0.593714  1
  I  I21  1  0.155864  0.236057  0.906300  1
  I  I22  1  0.344115  0.236576  0.406286  1
  I  I23  1  0.844136  0.763943  0.093700  1
