# generated using pymatgen
data_Lu10Ga3CuBi2
_symmetry_space_group_name_H-M   'P 1'
_cell_length_a   8.39085014
_cell_length_b   8.39085037
_cell_length_c   8.58646729
_cell_angle_alpha   124.09048192
_cell_angle_beta   124.09048507
_cell_angle_gamma   81.53894920
_symmetry_Int_Tables_number   1
_chemical_formula_structural   Lu10Ga3CuBi2
_chemical_formula_sum   'Lu10 Ga3 Cu1 Bi2'
_cell_volume   402.13477864
_cell_formula_units_Z   1
loop_
 _symmetry_equiv_pos_site_id
 _symmetry_equiv_pos_as_xyz
  1  'x, y, z'
loop_
 _atom_site_type_symbol
 _atom_site_label
 _atom_site_symmetry_multiplicity
 _atom_site_fract_x
 _atom_site_fract_y
 _atom_site_fract_z
 _atom_site_occupancy
  Lu  Lu0  1  0.997386  0.999022  0.996408  1
  Lu  Lu1  1  0.500978  0.502614  0.003592  1
  Lu  Lu2  1  0.785715  0.294731  0.793802  1
  Lu  Lu3  1  0.205269  0.714285  0.206198  1
  Lu  Lu4  1  0.491913  0.000930  0.206198  1
  Lu  Lu5  1  0.296087  0.472457  0.500000  1
  Lu  Lu6  1  0.027543  0.203913  0.500000  1
  Lu  Lu7  1  0.499070  0.008087  0.793802  1
  Lu  Lu8  1  0.710140  0.512702  0.500000  1
  Lu  Lu9  1  0.987298  0.789860  0.500000  1
  Ga  Ga10  1  0.152231  0.652261  0.804494  1
  Ga  Ga11  1  0.847739  0.347769  0.195506  1
  Ga  Ga12  1  0.638331  0.861669  0.500000  1
  Cu  Cu13  1  0.366820  0.133180  0.500000  1
  Bi  Bi14  1  0.246741  0.253259  0.000000  1
  Bi  Bi15  1  0.746741  0.753259  0.000000  1
