# generated using pymatgen
data_Ca3Th2Si12Ir19
_symmetry_space_group_name_H-M   'P 1'
_cell_length_a   12.88316800
_cell_length_b   12.88316920
_cell_length_c   4.03885600
_cell_angle_alpha   90.00000000
_cell_angle_beta   90.00000000
_cell_angle_gamma   120.00000719
_symmetry_Int_Tables_number   1
_chemical_formula_structural   Ca3Th2Si12Ir19
_chemical_formula_sum   'Ca3 Th2 Si12 Ir19'
_cell_volume   580.54294304
_cell_formula_units_Z   1
loop_
 _symmetry_equiv_pos_site_id
 _symmetry_equiv_pos_as_xyz
  1  'x, y, z'
loop_
 _atom_site_type_symbol
 _atom_site_label
 _atom_site_symmetry_multiplicity
 _atom_site_fract_x
 _atom_site_fract_y
 _atom_site_fract_z
 _atom_site_occupancy
  Ca  Ca0  1  0.000000  0.182312  0.500000  1
  Ca  Ca1  1  0.817688  0.817688  0.500000  1
  Ca  Ca2  1  0.182312  0.000000  0.500000  1
  Th  Th3  1  0.666667  0.333333  0.000000  1
  Th  Th4  1  0.333333  0.666667  0.000000  1
  Si  Si5  1  0.476332  0.311242  0.500000  1
  Si  Si6  1  0.818159  0.000000  0.000000  1
  Si  Si7  1  0.181841  0.181841  0.000000  1
  Si  Si8  1  0.000000  0.818159  0.000000  1
  Si  Si9  1  0.366113  0.000000  0.000000  1
  Si  Si10  1  0.688758  0.165091  0.500000  1
  Si  Si11  1  0.834909  0.523668  0.500000  1
  Si  Si12  1  0.523668  0.834909  0.500000  1
  Si  Si13  1  0.165091  0.688758  0.500000  1
  Si  Si14  1  0.311242  0.476332  0.500000  1
  Si  Si15  1  0.000000  0.366113  0.000000  1
  Si  Si16  1  0.633887  0.633887  0.000000  1
  Ir  Ir17  1  0.804631  0.183214  0.000000  1
  Ir  Ir18  1  0.378582  0.195369  0.000000  1
  Ir  Ir19  1  0.637703  0.511241  0.500000  1
  Ir  Ir20  1  0.873538  0.362297  0.500000  1
  Ir  Ir21  1  0.362297  0.873538  0.500000  1
  Ir  Ir22  1  0.511241  0.637703  0.500000  1
  Ir  Ir23  1  0.126462  0.488759  0.500000  1
  Ir  Ir24  1  0.816786  0.621418  0.000000  1
  Ir  Ir25  1  0.621418  0.816786  0.000000  1
  Ir  Ir26  1  0.183214  0.804631  0.000000  1
  Ir  Ir27  1  0.195369  0.378582  0.000000  1
  Ir  Ir28  1  0.000000  0.718178  0.500000  1
  Ir  Ir29  1  0.281822  0.281822  0.500000  1
  Ir  Ir30  1  0.718178  0.000000  0.500000  1
  Ir  Ir31  1  0.000000  0.550397  0.000000  1
  Ir  Ir32  1  0.449603  0.449603  0.000000  1
  Ir  Ir33  1  0.550397  0.000000  0.000000  1
  Ir  Ir34  1  0.000000  0.000000  0.000000  1
  Ir  Ir35  1  0.488759  0.126462  0.500000  1
