# generated using pymatgen
data_Eu2Dy3Er(SbO7)2
_symmetry_space_group_name_H-M   'P 1'
_cell_length_a   6.49732925
_cell_length_b   6.49094728
_cell_length_c   7.56908700
_cell_angle_alpha   90.00000000
_cell_angle_beta   90.00000000
_cell_angle_gamma   108.76399085
_symmetry_Int_Tables_number   1
_chemical_formula_structural   Eu2Dy3Er(SbO7)2
_chemical_formula_sum   'Eu2 Dy3 Er1 Sb2 O14'
_cell_volume   302.25143830
_cell_formula_units_Z   1
loop_
 _symmetry_equiv_pos_site_id
 _symmetry_equiv_pos_as_xyz
  1  'x, y, z'
loop_
 _atom_site_type_symbol
 _atom_site_label
 _atom_site_symmetry_multiplicity
 _atom_site_fract_x
 _atom_site_fract_y
 _atom_site_fract_z
 _atom_site_occupancy
  Eu  Eu0  1  0.499521  0.499684  0.500435  1
  Eu  Eu1  1  0.499521  0.499684  0.999565  1
  Dy  Dy2  1  0.531996  0.000090  0.750000  1
  Dy  Dy3  1  0.000125  0.531487  0.250000  1
  Dy  Dy4  1  0.468229  0.999767  0.250000  1
  Er  Er5  1  0.999373  0.468715  0.750000  1
  Sb  Sb6  1  0.000122  0.000044  0.500560  1
  Sb  Sb7  1  0.000122  0.000044  0.999440  1
  O  O8  1  0.679909  0.932705  0.469813  1
  O  O9  1  0.935048  0.680007  0.532184  1
  O  O10  1  0.679909  0.932705  0.030187  1
  O  O11  1  0.935048  0.680007  0.967816  1
  O  O12  1  0.320447  0.067100  0.530266  1
  O  O13  1  0.065745  0.320621  0.471071  1
  O  O14  1  0.320447  0.067100  0.969734  1
  O  O15  1  0.065745  0.320621  0.028929  1
  O  O16  1  0.930302  0.071454  0.750000  1
  O  O17  1  0.069234  0.929674  0.250000  1
  O  O18  1  0.363027  0.632251  0.750000  1
  O  O19  1  0.633739  0.366575  0.250000  1
  O  O20  1  0.641738  0.361067  0.750000  1
  O  O21  1  0.360655  0.638599  0.250000  1
