# generated using pymatgen
data_BaAuSeF
_symmetry_space_group_name_H-M   'P 1'
_cell_length_a   9.39432161
_cell_length_b   6.53136300
_cell_length_c   6.39180237
_cell_angle_alpha   89.99962780
_cell_angle_beta   89.92204859
_cell_angle_gamma   89.99993325
_symmetry_Int_Tables_number   1
_chemical_formula_structural   BaAuSeF
_chemical_formula_sum   'Ba4 Au4 Se4 F4'
_cell_volume   392.18608678
_cell_formula_units_Z   4
loop_
 _symmetry_equiv_pos_site_id
 _symmetry_equiv_pos_as_xyz
  1  'x, y, z'
loop_
 _atom_site_type_symbol
 _atom_site_label
 _atom_site_symmetry_multiplicity
 _atom_site_fract_x
 _atom_site_fract_y
 _atom_site_fract_z
 _atom_site_occupancy
  Ba  Ba0  1  0.656003  0.499887  0.249519  1
  Ba  Ba1  1  0.343996  0.999897  0.250478  1
  Ba  Ba2  1  0.656005  0.000103  0.749521  1
  Ba  Ba3  1  0.343996  0.500113  0.750480  1
  Au  Au4  1  0.999888  0.749742  0.248736  1
  Au  Au5  1  0.000115  0.249748  0.251267  1
  Au  Au6  1  0.999884  0.750252  0.748736  1
  Au  Au7  1  0.000114  0.250258  0.751265  1
  Se  Se8  1  0.800236  0.999955  0.249493  1
  Se  Se9  1  0.199769  0.499956  0.250515  1
  Se  Se10  1  0.800232  0.500045  0.749486  1
  Se  Se11  1  0.199763  0.000046  0.750506  1
  F  F12  1  0.499941  0.249887  0.999942  1
  F  F13  1  0.500060  0.750113  0.000058  1
  F  F14  1  0.500058  0.749893  0.500046  1
  F  F15  1  0.499940  0.250107  0.499953  1
