# generated using pymatgen
data_Zr4Al2Pd
_symmetry_space_group_name_H-M   'P 1'
_cell_length_a   5.30562696
_cell_length_b   5.30562727
_cell_length_c   5.49478800
_cell_angle_alpha   90.00000000
_cell_angle_beta   90.00000000
_cell_angle_gamma   117.82580256
_symmetry_Int_Tables_number   1
_chemical_formula_structural   Zr4Al2Pd
_chemical_formula_sum   'Zr4 Al2 Pd1'
_cell_volume   136.79140504
_cell_formula_units_Z   1
loop_
 _symmetry_equiv_pos_site_id
 _symmetry_equiv_pos_as_xyz
  1  'x, y, z'
loop_
 _atom_site_type_symbol
 _atom_site_label
 _atom_site_symmetry_multiplicity
 _atom_site_fract_x
 _atom_site_fract_y
 _atom_site_fract_z
 _atom_site_occupancy
  Zr  Zr0  1  0.000000  0.000000  0.743937  1
  Zr  Zr1  1  0.000000  0.000000  0.256063  1
  Zr  Zr2  1  0.333420  0.666580  0.500000  1
  Zr  Zr3  1  0.666580  0.333420  0.500000  1
  Al  Al4  1  0.500000  0.000000  0.000000  1
  Al  Al5  1  0.000000  0.500000  0.000000  1
  Pd  Pd6  1  0.500000  0.500000  0.000000  1
