# generated using pymatgen
data_Tb6ScV(Co4P3)4
_symmetry_space_group_name_H-M   'P 1'
_cell_length_a   3.70962800
_cell_length_b   10.61472800
_cell_length_c   12.30476300
_cell_angle_alpha   90.00000000
_cell_angle_beta   90.00000000
_cell_angle_gamma   90.00000000
_symmetry_Int_Tables_number   1
_chemical_formula_structural   Tb6ScV(Co4P3)4
_chemical_formula_sum   'Tb6 Sc1 V1 Co16 P12'
_cell_volume   484.52086526
_cell_formula_units_Z   1
loop_
 _symmetry_equiv_pos_site_id
 _symmetry_equiv_pos_as_xyz
  1  'x, y, z'
loop_
 _atom_site_type_symbol
 _atom_site_label
 _atom_site_symmetry_multiplicity
 _atom_site_fract_x
 _atom_site_fract_y
 _atom_site_fract_z
 _atom_site_occupancy
  Tb  Tb0  1  0.000000  0.500000  0.527762  1
  Tb  Tb1  1  0.500000  0.000000  0.477075  1
  Tb  Tb2  1  0.500000  0.821664  0.205292  1
  Tb  Tb3  1  0.500000  0.178336  0.205292  1
  Tb  Tb4  1  0.000000  0.681726  0.795593  1
  Tb  Tb5  1  0.000000  0.318274  0.795593  1
  Sc  Sc6  1  0.500000  0.500000  0.152963  1
  V  V7  1  0.000000  0.000000  0.843526  1
  Co  Co8  1  0.500000  0.500000  0.703094  1
  Co  Co9  1  0.000000  0.000000  0.297163  1
  Co  Co10  1  0.000000  0.500000  0.984605  1
  Co  Co11  1  0.500000  0.000000  0.010773  1
  Co  Co12  1  0.500000  0.327557  0.990493  1
  Co  Co13  1  0.500000  0.672443  0.990493  1
  Co  Co14  1  0.000000  0.163854  0.002948  1
  Co  Co15  1  0.000000  0.836146  0.002948  1
  Co  Co16  1  0.500000  0.294492  0.434172  1
  Co  Co17  1  0.500000  0.705508  0.434172  1
  Co  Co18  1  0.000000  0.202946  0.570107  1
  Co  Co19  1  0.000000  0.797054  0.570107  1
  Co  Co20  1  0.500000  0.880040  0.706665  1
  Co  Co21  1  0.500000  0.119960  0.706665  1
  Co  Co22  1  0.000000  0.622500  0.297044  1
  Co  Co23  1  0.000000  0.377500  0.297044  1
  P  P24  1  0.500000  0.500000  0.883561  1
  P  P25  1  0.000000  0.000000  0.115820  1
  P  P26  1  0.500000  0.500000  0.357255  1
  P  P27  1  0.000000  0.000000  0.651901  1
  P  P28  1  0.500000  0.308871  0.616949  1
  P  P29  1  0.500000  0.691129  0.616949  1
  P  P30  1  0.000000  0.189613  0.385994  1
  P  P31  1  0.000000  0.810387  0.385994  1
  P  P32  1  0.500000  0.847998  0.889011  1
  P  P33  1  0.500000  0.152002  0.889011  1
  P  P34  1  0.000000  0.661914  0.102984  1
  P  P35  1  0.000000  0.338086  0.102984  1
