# generated using pymatgen
data_Dy9Tm(Bi2Sb)2
_symmetry_space_group_name_H-M   'P 1'
_cell_length_a   8.18453800
_cell_length_b   9.45265528
_cell_length_c   11.99231311
_cell_angle_alpha   89.97804177
_cell_angle_beta   90.00000000
_cell_angle_gamma   90.00000000
_symmetry_Int_Tables_number   1
_chemical_formula_structural   Dy9Tm(Bi2Sb)2
_chemical_formula_sum   'Dy18 Tm2 Bi8 Sb4'
_cell_volume   927.79262767
_cell_formula_units_Z   2
loop_
 _symmetry_equiv_pos_site_id
 _symmetry_equiv_pos_as_xyz
  1  'x, y, z'
loop_
 _atom_site_type_symbol
 _atom_site_label
 _atom_site_symmetry_multiplicity
 _atom_site_fract_x
 _atom_site_fract_y
 _atom_site_fract_z
 _atom_site_occupancy
  Dy  Dy0  1  0.352744  0.750022  0.213346  1
  Dy  Dy1  1  0.852744  0.749978  0.286654  1
  Dy  Dy2  1  0.646676  0.249824  0.786620  1
  Dy  Dy3  1  0.146676  0.250176  0.713380  1
  Dy  Dy4  1  0.311248  0.062770  0.942562  1
  Dy  Dy5  1  0.811248  0.437230  0.557438  1
  Dy  Dy6  1  0.310469  0.437544  0.942193  1
  Dy  Dy7  1  0.810469  0.062456  0.557807  1
  Dy  Dy8  1  0.689357  0.937389  0.057577  1
  Dy  Dy9  1  0.189357  0.562611  0.442423  1
  Dy  Dy10  1  0.471711  0.249755  0.487521  1
  Dy  Dy11  1  0.971711  0.250245  0.012479  1
  Dy  Dy12  1  0.527514  0.750223  0.512166  1
  Dy  Dy13  1  0.027514  0.749777  0.987834  1
  Dy  Dy14  1  0.315054  0.250037  0.218177  1
  Dy  Dy15  1  0.815054  0.249963  0.281823  1
  Dy  Dy16  1  0.684781  0.749708  0.781980  1
  Dy  Dy17  1  0.184781  0.750292  0.718020  1
  Tm  Tm18  1  0.689228  0.564404  0.057829  1
  Tm  Tm19  1  0.189228  0.935596  0.442171  1
  Bi  Bi20  1  0.565138  0.995539  0.325311  1
  Bi  Bi21  1  0.065138  0.504461  0.174689  1
  Bi  Bi22  1  0.434698  0.495640  0.674776  1
  Bi  Bi23  1  0.934698  0.004360  0.825224  1
  Bi  Bi24  1  0.434689  0.004425  0.674585  1
  Bi  Bi25  1  0.934689  0.495575  0.825415  1
  Bi  Bi26  1  0.565652  0.504539  0.325126  1
  Bi  Bi27  1  0.065652  0.995461  0.174874  1
  Sb  Sb28  1  0.408290  0.749422  0.958338  1
  Sb  Sb29  1  0.908290  0.750578  0.541662  1
  Sb  Sb30  1  0.592753  0.252204  0.042402  1
  Sb  Sb31  1  0.092753  0.247796  0.457598  1
