# generated using pymatgen
data_LaAl5CuNi
_symmetry_space_group_name_H-M   'P 1'
_cell_length_a   6.36472919
_cell_length_b   6.36472907
_cell_length_c   6.36472925
_cell_angle_alpha   143.22503289
_cell_angle_beta   111.28688783
_cell_angle_gamma   80.55906103
_symmetry_Int_Tables_number   1
_chemical_formula_structural   LaAl5CuNi
_chemical_formula_sum   'La1 Al5 Cu1 Ni1'
_cell_volume   140.06446033
_cell_formula_units_Z   1
loop_
 _symmetry_equiv_pos_site_id
 _symmetry_equiv_pos_as_xyz
  1  'x, y, z'
loop_
 _atom_site_type_symbol
 _atom_site_label
 _atom_site_symmetry_multiplicity
 _atom_site_fract_x
 _atom_site_fract_y
 _atom_site_fract_z
 _atom_site_occupancy
  La  La0  1  0.999964  0.999964  0.000000  1
  Al  Al1  1  0.499333  0.999333  0.500000  1
  Al  Al2  1  0.848137  0.653936  0.194200  1
  Al  Al3  1  0.528015  0.343386  0.184629  1
  Al  Al4  1  0.459736  0.653936  0.805800  1
  Al  Al5  1  0.158757  0.343386  0.815371  1
  Cu  Cu6  1  0.745132  0.245132  0.500000  1
  Ni  Ni7  1  0.260927  0.760927  0.500000  1
