# generated using pymatgen
data_Yb4Si5Rh9
_symmetry_space_group_name_H-M   'P 1'
_cell_length_a   11.38960142
_cell_length_b   11.38960157
_cell_length_c   11.38960186
_cell_angle_alpha   28.47653688
_cell_angle_beta   28.47653593
_cell_angle_gamma   28.47653760
_symmetry_Int_Tables_number   1
_chemical_formula_structural   Yb4Si5Rh9
_chemical_formula_sum   'Yb4 Si5 Rh9'
_cell_volume   296.86938193
_cell_formula_units_Z   1
loop_
 _symmetry_equiv_pos_site_id
 _symmetry_equiv_pos_as_xyz
  1  'x, y, z'
loop_
 _atom_site_type_symbol
 _atom_site_label
 _atom_site_symmetry_multiplicity
 _atom_site_fract_x
 _atom_site_fract_y
 _atom_site_fract_z
 _atom_site_occupancy
  Yb  Yb0  1  0.949278  0.949278  0.949278  1
  Yb  Yb1  1  0.852645  0.852645  0.852645  1
  Yb  Yb2  1  0.147355  0.147355  0.147355  1
  Yb  Yb3  1  0.050722  0.050722  0.050722  1
  Si  Si4  1  0.277710  0.277710  0.277710  1
  Si  Si5  1  0.500000  0.500000  0.500000  1
  Si  Si6  1  0.388611  0.388611  0.388611  1
  Si  Si7  1  0.722290  0.722290  0.722290  1
  Si  Si8  1  0.611389  0.611389  0.611389  1
  Rh  Rh9  1  0.608460  0.608460  0.110161  1
  Rh  Rh10  1  0.889839  0.391540  0.391540  1
  Rh  Rh11  1  0.500000  0.000000  0.500000  1
  Rh  Rh12  1  0.391540  0.889839  0.391540  1
  Rh  Rh13  1  0.500000  0.500000  0.000000  1
  Rh  Rh14  1  0.110161  0.608460  0.608460  1
  Rh  Rh15  1  0.000000  0.500000  0.500000  1
  Rh  Rh16  1  0.391540  0.391540  0.889839  1
  Rh  Rh17  1  0.608460  0.110161  0.608460  1
