# generated using pymatgen
data_Tm4Zr2Pb5
_symmetry_space_group_name_H-M   'P 1'
_cell_length_a   6.28144085
_cell_length_b   9.33701394
_cell_length_c   11.49734643
_cell_angle_alpha   113.95698972
_cell_angle_beta   105.85295021
_cell_angle_gamma   89.99999686
_symmetry_Int_Tables_number   1
_chemical_formula_structural   Tm4Zr2Pb5
_chemical_formula_sum   'Tm8 Zr4 Pb10'
_cell_volume   588.05084353
_cell_formula_units_Z   2
loop_
 _symmetry_equiv_pos_site_id
 _symmetry_equiv_pos_as_xyz
  1  'x, y, z'
loop_
 _atom_site_type_symbol
 _atom_site_label
 _atom_site_symmetry_multiplicity
 _atom_site_fract_x
 _atom_site_fract_y
 _atom_site_fract_z
 _atom_site_occupancy
  Tm  Tm0  1  0.438144  0.672477  0.876287  1
  Tm  Tm1  1  0.561856  0.327523  0.123713  1
  Tm  Tm2  1  0.938144  0.203810  0.876287  1
  Tm  Tm3  1  0.061856  0.796190  0.123713  1
  Tm  Tm4  1  0.145682  0.258887  0.291363  1
  Tm  Tm5  1  0.854318  0.741113  0.708637  1
  Tm  Tm6  1  0.645682  0.032478  0.291363  1
  Tm  Tm7  1  0.354318  0.967522  0.708637  1
  Zr  Zr8  1  0.557053  0.307053  0.614106  1
  Zr  Zr9  1  0.442947  0.692947  0.385894  1
  Zr  Zr10  1  0.942947  0.692947  0.385894  1
  Zr  Zr11  1  0.057053  0.307053  0.614106  1
  Pb  Pb12  1  0.290236  0.592247  0.580471  1
  Pb  Pb13  1  0.709764  0.407753  0.419529  1
  Pb  Pb14  1  0.790236  0.988224  0.580471  1
  Pb  Pb15  1  0.209764  0.011776  0.419529  1
  Pb  Pb16  1  0.250000  0.000000  0.000000  1
  Pb  Pb17  1  0.750000  0.000000  0.000000  1
  Pb  Pb18  1  0.074516  0.472392  0.149033  1
  Pb  Pb19  1  0.925484  0.527608  0.850967  1
  Pb  Pb20  1  0.574516  0.676640  0.149033  1
  Pb  Pb21  1  0.425484  0.323360  0.850967  1
