# generated using pymatgen
data_Pr6HoFeBr12
_symmetry_space_group_name_H-M   'P 1'
_cell_length_a   9.53652443
_cell_length_b   9.53652441
_cell_length_c   9.53652445
_cell_angle_alpha   107.14647220
_cell_angle_beta   107.14647347
_cell_angle_gamma   107.14646586
_symmetry_Int_Tables_number   1
_chemical_formula_structural   Pr6HoFeBr12
_chemical_formula_sum   'Pr6 Ho1 Fe1 Br12'
_cell_volume   719.39196854
_cell_formula_units_Z   1
loop_
 _symmetry_equiv_pos_site_id
 _symmetry_equiv_pos_as_xyz
  1  'x, y, z'
loop_
 _atom_site_type_symbol
 _atom_site_label
 _atom_site_symmetry_multiplicity
 _atom_site_fract_x
 _atom_site_fract_y
 _atom_site_fract_z
 _atom_site_occupancy
  Pr  Pr0  1  0.976389  0.899170  0.691353  1
  Pr  Pr1  1  0.023611  0.100830  0.308647  1
  Pr  Pr2  1  0.100830  0.308647  0.023611  1
  Pr  Pr3  1  0.308647  0.023611  0.100830  1
  Pr  Pr4  1  0.899170  0.691353  0.976389  1
  Pr  Pr5  1  0.691353  0.976389  0.899170  1
  Ho  Ho6  1  0.500000  0.500000  0.500000  1
  Fe  Fe7  1  0.000000  0.000000  0.000000  1
  Br  Br8  1  0.532280  0.608226  0.819924  1
  Br  Br9  1  0.467720  0.391774  0.180076  1
  Br  Br10  1  0.316414  0.928222  0.775764  1
  Br  Br11  1  0.391774  0.180076  0.467720  1
  Br  Br12  1  0.928222  0.775764  0.316414  1
  Br  Br13  1  0.683586  0.071778  0.224236  1
  Br  Br14  1  0.071778  0.224236  0.683586  1
  Br  Br15  1  0.775764  0.316414  0.928222  1
  Br  Br16  1  0.224236  0.683586  0.071778  1
  Br  Br17  1  0.819924  0.532280  0.608226  1
  Br  Br18  1  0.180076  0.467720  0.391774  1
  Br  Br19  1  0.608226  0.819924  0.532280  1
