# generated using pymatgen
data_Eu10Si5Ag
_symmetry_space_group_name_H-M   'P 1'
_cell_length_a   7.89474347
_cell_length_b   7.89445768
_cell_length_c   9.34117564
_cell_angle_alpha   114.99855456
_cell_angle_beta   114.99743694
_cell_angle_gamma   89.99999016
_symmetry_Int_Tables_number   1
_chemical_formula_structural   Eu10Si5Ag
_chemical_formula_sum   'Eu10 Si5 Ag1'
_cell_volume   466.78160693
_cell_formula_units_Z   1
loop_
 _symmetry_equiv_pos_site_id
 _symmetry_equiv_pos_as_xyz
  1  'x, y, z'
loop_
 _atom_site_type_symbol
 _atom_site_label
 _atom_site_symmetry_multiplicity
 _atom_site_fract_x
 _atom_site_fract_y
 _atom_site_fract_z
 _atom_site_occupancy
  Eu  Eu0  1  0.507105  0.507115  0.014242  1
  Eu  Eu1  1  0.992865  0.992885  0.985758  1
  Eu  Eu2  1  0.976416  0.826679  0.284173  1
  Eu  Eu3  1  0.307784  0.457475  0.284144  1
  Eu  Eu4  1  0.826723  0.307811  0.284156  1
  Eu  Eu5  1  0.457429  0.976320  0.284118  1
  Eu  Eu6  1  0.042567  0.192189  0.715844  1
  Eu  Eu7  1  0.673312  0.523680  0.715882  1
  Eu  Eu8  1  0.192243  0.673321  0.715827  1
  Eu  Eu9  1  0.523640  0.042525  0.715856  1
  Si  Si10  1  0.250022  0.250000  0.500000  1
  Si  Si11  1  0.610858  0.889164  0.000031  1
  Si  Si12  1  0.389184  0.110847  0.000002  1
  Si  Si13  1  0.889182  0.389153  0.999998  1
  Si  Si14  1  0.110826  0.610836  0.999969  1
  Ag  Ag15  1  0.749845  0.750000  0.500000  1
