# generated using pymatgen
data_PrPa3AgTe12
_symmetry_space_group_name_H-M   'P 1'
_cell_length_a   7.50017200
_cell_length_b   7.50055793
_cell_length_c   11.62932024
_cell_angle_alpha   72.13315226
_cell_angle_beta   72.00980130
_cell_angle_gamma   70.26346405
_symmetry_Int_Tables_number   1
_chemical_formula_structural   PrPa3AgTe12
_chemical_formula_sum   'Pr1 Pa3 Ag1 Te12'
_cell_volume   570.49460078
_cell_formula_units_Z   1
loop_
 _symmetry_equiv_pos_site_id
 _symmetry_equiv_pos_as_xyz
  1  'x, y, z'
loop_
 _atom_site_type_symbol
 _atom_site_label
 _atom_site_symmetry_multiplicity
 _atom_site_fract_x
 _atom_site_fract_y
 _atom_site_fract_z
 _atom_site_occupancy
  Pr  Pr0  1  0.194040  0.690499  0.160767  1
  Pa  Pa1  1  0.807922  0.808126  0.838967  1
  Pa  Pa2  1  0.309441  0.309490  0.841525  1
  Pa  Pa3  1  0.692650  0.195949  0.155385  1
  Ag  Ag4  1  0.816670  0.817589  0.534708  1
  Te  Te5  1  0.007582  0.028455  0.313632  1
  Te  Te6  1  0.517700  0.496757  0.321775  1
  Te  Te7  1  0.474448  0.986830  0.691813  1
  Te  Te8  1  0.990774  0.475433  0.686269  1
  Te  Te9  1  0.272819  0.252018  0.323403  1
  Te  Te10  1  0.747416  0.768277  0.317953  1
  Te  Te11  1  0.235995  0.734643  0.688555  1
  Te  Te12  1  0.735763  0.235981  0.684124  1
  Te  Te13  1  0.013072  0.031558  0.940776  1
  Te  Te14  1  0.530349  0.512520  0.939597  1
  Te  Te15  1  0.487979  0.987284  0.047663  1
  Te  Te16  1  0.976678  0.479891  0.047486  1
