# generated using pymatgen
data_PrY3(ScPt)4
_symmetry_space_group_name_H-M   'P 1'
_cell_length_a   4.65542400
_cell_length_b   7.03293704
_cell_length_c   8.48639800
_cell_angle_alpha   90.24830644
_cell_angle_beta   90.00000000
_cell_angle_gamma   90.00000000
_symmetry_Int_Tables_number   1
_chemical_formula_structural   PrY3(ScPt)4
_chemical_formula_sum   'Pr1 Y3 Sc4 Pt4'
_cell_volume   277.85312673
_cell_formula_units_Z   1
loop_
 _symmetry_equiv_pos_site_id
 _symmetry_equiv_pos_as_xyz
  1  'x, y, z'
loop_
 _atom_site_type_symbol
 _atom_site_label
 _atom_site_symmetry_multiplicity
 _atom_site_fract_x
 _atom_site_fract_y
 _atom_site_fract_z
 _atom_site_occupancy
  Pr  Pr0  1  0.750000  0.514148  0.822440  1
  Y  Y1  1  0.250000  0.983990  0.322586  1
  Y  Y2  1  0.750000  0.016743  0.674428  1
  Y  Y3  1  0.250000  0.483628  0.179471  1
  Sc  Sc4  1  0.750000  0.641405  0.424193  1
  Sc  Sc5  1  0.250000  0.359403  0.568700  1
  Sc  Sc6  1  0.750000  0.139095  0.075346  1
  Sc  Sc7  1  0.250000  0.860951  0.926653  1
  Pt  Pt8  1  0.250000  0.237259  0.907649  1
  Pt  Pt9  1  0.750000  0.760076  0.101924  1
  Pt  Pt10  1  0.250000  0.744871  0.593350  1
  Pt  Pt11  1  0.750000  0.258431  0.403259  1
