# generated using pymatgen
data_Lu5Si8P4Ir19
_symmetry_space_group_name_H-M   'P 1'
_cell_length_a   12.79493713
_cell_length_b   12.75284262
_cell_length_c   3.92609900
_cell_angle_alpha   90.00000000
_cell_angle_beta   90.00000000
_cell_angle_gamma   119.95514264
_symmetry_Int_Tables_number   1
_chemical_formula_structural   Lu5Si8P4Ir19
_chemical_formula_sum   'Lu5 Si8 P4 Ir19'
_cell_volume   555.05135032
_cell_formula_units_Z   1
loop_
 _symmetry_equiv_pos_site_id
 _symmetry_equiv_pos_as_xyz
  1  'x, y, z'
loop_
 _atom_site_type_symbol
 _atom_site_label
 _atom_site_symmetry_multiplicity
 _atom_site_fract_x
 _atom_site_fract_y
 _atom_site_fract_z
 _atom_site_occupancy
  Lu  Lu0  1  0.666930  0.333416  0.000000  1
  Lu  Lu1  1  0.332738  0.667855  0.000000  1
  Lu  Lu2  1  0.814436  0.814183  0.500000  1
  Lu  Lu3  1  0.185466  0.001056  0.500000  1
  Lu  Lu4  1  0.999004  0.182850  0.500000  1
  Si  Si5  1  0.685096  0.165988  0.500000  1
  Si  Si6  1  0.833978  0.518700  0.500000  1
  Si  Si7  1  0.482014  0.315374  0.500000  1
  Si  Si8  1  0.168261  0.687676  0.500000  1
  Si  Si9  1  0.517361  0.829530  0.500000  1
  Si  Si10  1  0.635632  0.634906  0.000000  1
  Si  Si11  1  0.365097  0.999610  0.000000  1
  Si  Si12  1  0.999501  0.364309  0.000000  1
  P  P13  1  0.308196  0.484751  0.500000  1
  P  P14  1  0.178095  0.179153  0.000000  1
  P  P15  1  0.821070  0.997075  0.000000  1
  P  P16  1  0.000445  0.823749  0.000000  1
  Ir  Ir17  1  0.808987  0.177899  0.000000  1
  Ir  Ir18  1  0.821476  0.630029  0.000000  1
  Ir  Ir19  1  0.368678  0.190282  0.000000  1
  Ir  Ir20  1  0.179508  0.807821  0.000000  1
  Ir  Ir21  1  0.625295  0.817270  0.000000  1
  Ir  Ir22  1  0.198371  0.378817  0.000000  1
  Ir  Ir23  1  0.455882  0.443932  0.000000  1
  Ir  Ir24  1  0.553034  0.002273  0.000000  1
  Ir  Ir25  1  0.998868  0.551140  0.000000  1
  Ir  Ir26  1  0.279448  0.283586  0.500000  1
  Ir  Ir27  1  0.721197  0.997586  0.500000  1
  Ir  Ir28  1  0.000431  0.723139  0.500000  1
  Ir  Ir29  1  0.870956  0.357718  0.500000  1
  Ir  Ir30  1  0.643633  0.513610  0.500000  1
  Ir  Ir31  1  0.487290  0.129526  0.500000  1
  Ir  Ir32  1  0.360569  0.872141  0.500000  1
  Ir  Ir33  1  0.505193  0.633150  0.500000  1
  Ir  Ir34  1  0.126782  0.487821  0.500000  1
  Ir  Ir35  1  0.001084  0.002076  0.000000  1
