# generated using pymatgen
data_Ho3In3AgIrPd
_symmetry_space_group_name_H-M   'P 1'
_cell_length_a   7.87360400
_cell_length_b   7.87360429
_cell_length_c   3.74242900
_cell_angle_alpha   90.00000000
_cell_angle_beta   90.00000000
_cell_angle_gamma   119.99999036
_symmetry_Int_Tables_number   1
_chemical_formula_structural   Ho3In3AgIrPd
_chemical_formula_sum   'Ho3 In3 Ag1 Ir1 Pd1'
_cell_volume   200.92380616
_cell_formula_units_Z   1
loop_
 _symmetry_equiv_pos_site_id
 _symmetry_equiv_pos_as_xyz
  1  'x, y, z'
loop_
 _atom_site_type_symbol
 _atom_site_label
 _atom_site_symmetry_multiplicity
 _atom_site_fract_x
 _atom_site_fract_y
 _atom_site_fract_z
 _atom_site_occupancy
  Ho  Ho0  1  0.968846  0.389068  0.500000  1
  Ho  Ho1  1  0.610932  0.579778  0.500000  1
  Ho  Ho2  1  0.420222  0.031154  0.500000  1
  In  In3  1  0.259178  0.266410  0.000000  1
  In  In4  1  0.007232  0.740822  0.000000  1
  In  In5  1  0.733590  0.992768  0.000000  1
  Ag  Ag6  1  0.333333  0.666667  0.000000  1
  Ir  Ir7  1  0.666667  0.333333  0.000000  1
  Pd  Pd8  1  0.000000  0.000000  0.500000  1
