# generated using pymatgen
data_Lu3Mn(Al4Rh)3
_symmetry_space_group_name_H-M   'P 1'
_cell_length_a   8.73917600
_cell_length_b   8.73917786
_cell_length_c   9.44702300
_cell_angle_alpha   90.00000000
_cell_angle_beta   90.00000000
_cell_angle_gamma   120.00000051
_symmetry_Int_Tables_number   1
_chemical_formula_structural   Lu3Mn(Al4Rh)3
_chemical_formula_sum   'Lu6 Mn2 Al24 Rh6'
_cell_volume   624.83689614
_cell_formula_units_Z   2
loop_
 _symmetry_equiv_pos_site_id
 _symmetry_equiv_pos_as_xyz
  1  'x, y, z'
loop_
 _atom_site_type_symbol
 _atom_site_label
 _atom_site_symmetry_multiplicity
 _atom_site_fract_x
 _atom_site_fract_y
 _atom_site_fract_z
 _atom_site_occupancy
  Lu  Lu0  1  0.195142  0.390284  0.250000  1
  Lu  Lu1  1  0.804858  0.609716  0.750000  1
  Lu  Lu2  1  0.609716  0.804858  0.250000  1
  Lu  Lu3  1  0.390284  0.195142  0.750000  1
  Lu  Lu4  1  0.195142  0.804858  0.250000  1
  Lu  Lu5  1  0.804858  0.195142  0.750000  1
  Mn  Mn6  1  0.000000  0.000000  0.000000  1
  Mn  Mn7  1  0.000000  0.000000  0.500000  1
  Al  Al8  1  0.333333  0.666667  0.024534  1
  Al  Al9  1  0.666667  0.333333  0.975466  1
  Al  Al10  1  0.666667  0.333333  0.524534  1
  Al  Al11  1  0.333333  0.666667  0.475466  1
  Al  Al12  1  0.159900  0.319801  0.577571  1
  Al  Al13  1  0.840100  0.680199  0.422429  1
  Al  Al14  1  0.680199  0.840100  0.577571  1
  Al  Al15  1  0.840100  0.680199  0.077571  1
  Al  Al16  1  0.319801  0.159900  0.422429  1
  Al  Al17  1  0.159900  0.319801  0.922429  1
  Al  Al18  1  0.159900  0.840100  0.577571  1
  Al  Al19  1  0.319801  0.159900  0.077571  1
  Al  Al20  1  0.840100  0.159900  0.422429  1
  Al  Al21  1  0.680199  0.840100  0.922429  1
  Al  Al22  1  0.840100  0.159900  0.077571  1
  Al  Al23  1  0.159900  0.840100  0.922429  1
  Al  Al24  1  0.562370  0.124739  0.250000  1
  Al  Al25  1  0.437630  0.875261  0.750000  1
  Al  Al26  1  0.875261  0.437630  0.250000  1
  Al  Al27  1  0.124739  0.562370  0.750000  1
  Al  Al28  1  0.562370  0.437630  0.250000  1
  Al  Al29  1  0.437630  0.562370  0.750000  1
  Al  Al30  1  0.000000  0.000000  0.250000  1
  Al  Al31  1  0.000000  0.000000  0.750000  1
  Rh  Rh32  1  0.500000  0.000000  0.000000  1
  Rh  Rh33  1  0.000000  0.500000  0.000000  1
  Rh  Rh34  1  0.500000  0.000000  0.500000  1
  Rh  Rh35  1  0.500000  0.500000  0.000000  1
  Rh  Rh36  1  0.000000  0.500000  0.500000  1
  Rh  Rh37  1  0.500000  0.500000  0.500000  1
