# generated using pymatgen
data_LiTb16Hg3Rh4
_symmetry_space_group_name_H-M   'P 1'
_cell_length_a   9.63267081
_cell_length_b   9.64357998
_cell_length_c   9.64358000
_cell_angle_alpha   59.99999993
_cell_angle_beta   59.96252947
_cell_angle_gamma   59.96252994
_symmetry_Int_Tables_number   1
_chemical_formula_structural   LiTb16Hg3Rh4
_chemical_formula_sum   'Li1 Tb16 Hg3 Rh4'
_cell_volume   633.08510286
_cell_formula_units_Z   1
loop_
 _symmetry_equiv_pos_site_id
 _symmetry_equiv_pos_as_xyz
  1  'x, y, z'
loop_
 _atom_site_type_symbol
 _atom_site_label
 _atom_site_symmetry_multiplicity
 _atom_site_fract_x
 _atom_site_fract_y
 _atom_site_fract_z
 _atom_site_occupancy
  Li  Li0  1  0.295126  0.568292  0.568292  1
  Tb  Tb1  1  0.351921  0.349631  0.349631  1
  Tb  Tb2  1  0.351921  0.349631  0.948819  1
  Tb  Tb3  1  0.351921  0.948819  0.349631  1
  Tb  Tb4  1  0.937563  0.354146  0.354146  1
  Tb  Tb5  1  0.809591  0.189426  0.189426  1
  Tb  Tb6  1  0.185220  0.814413  0.814413  1
  Tb  Tb7  1  0.185220  0.814413  0.185953  1
  Tb  Tb8  1  0.809591  0.189426  0.811558  1
  Tb  Tb9  1  0.185220  0.185953  0.814413  1
  Tb  Tb10  1  0.809591  0.811558  0.189426  1
  Tb  Tb11  1  0.934898  0.564743  0.564743  1
  Tb  Tb12  1  0.563980  0.935670  0.935670  1
  Tb  Tb13  1  0.563980  0.935670  0.564682  1
  Tb  Tb14  1  0.934898  0.564743  0.935615  1
  Tb  Tb15  1  0.563980  0.564682  0.935670  1
  Tb  Tb16  1  0.934898  0.935615  0.564743  1
  Hg  Hg17  1  0.579542  0.586786  0.586786  1
  Hg  Hg18  1  0.579542  0.586786  0.246887  1
  Hg  Hg19  1  0.579542  0.246887  0.586786  1
  Rh  Rh20  1  0.140427  0.144399  0.144399  1
  Rh  Rh21  1  0.140427  0.144399  0.570773  1
  Rh  Rh22  1  0.140427  0.570773  0.144399  1
  Rh  Rh23  1  0.570573  0.143142  0.143142  1
