# generated using pymatgen
data_Nd4ErIn(Sn7Rh4)2
_symmetry_space_group_name_H-M   'P 1'
_cell_length_a   4.53189700
_cell_length_b   7.28460015
_cell_length_c   18.63769436
_cell_angle_alpha   89.80768338
_cell_angle_beta   90.00000000
_cell_angle_gamma   90.00000000
_symmetry_Int_Tables_number   1
_chemical_formula_structural   Nd4ErIn(Sn7Rh4)2
_chemical_formula_sum   'Nd4 Er1 In1 Sn14 Rh8'
_cell_volume   615.28381045
_cell_formula_units_Z   1
loop_
 _symmetry_equiv_pos_site_id
 _symmetry_equiv_pos_as_xyz
  1  'x, y, z'
loop_
 _atom_site_type_symbol
 _atom_site_label
 _atom_site_symmetry_multiplicity
 _atom_site_fract_x
 _atom_site_fract_y
 _atom_site_fract_z
 _atom_site_occupancy
  Nd  Nd0  1  0.250000  0.999015  0.859022  1
  Nd  Nd1  1  0.750000  0.996309  0.143514  1
  Nd  Nd2  1  0.750000  0.499659  0.642743  1
  Nd  Nd3  1  0.250000  0.500572  0.356750  1
  Er  Er4  1  0.750000  0.987993  0.568204  1
  In  In5  1  0.250000  0.279846  0.193257  1
  Sn  Sn6  1  0.750000  0.303521  0.818646  1
  Sn  Sn7  1  0.250000  0.133276  0.033648  1
  Sn  Sn8  1  0.750000  0.201495  0.313702  1
  Sn  Sn9  1  0.250000  0.480465  0.931724  1
  Sn  Sn10  1  0.750000  0.866599  0.969983  1
  Sn  Sn11  1  0.250000  0.357038  0.531148  1
  Sn  Sn12  1  0.250000  0.697224  0.182703  1
  Sn  Sn13  1  0.750000  0.515647  0.069006  1
  Sn  Sn14  1  0.750000  0.719545  0.804824  1
  Sn  Sn15  1  0.250000  0.015610  0.433994  1
  Sn  Sn16  1  0.750000  0.780943  0.308309  1
  Sn  Sn17  1  0.750000  0.636114  0.468172  1
  Sn  Sn18  1  0.250000  0.218247  0.692479  1
  Sn  Sn19  1  0.250000  0.804858  0.679027  1
  Rh  Rh20  1  0.250000  0.516833  0.783807  1
  Rh  Rh21  1  0.250000  0.746334  0.034987  1
  Rh  Rh22  1  0.750000  0.259644  0.458518  1
  Rh  Rh23  1  0.250000  0.980181  0.287893  1
  Rh  Rh24  1  0.250000  0.737453  0.534760  1
  Rh  Rh25  1  0.750000  0.251516  0.965276  1
  Rh  Rh26  1  0.750000  0.019204  0.719724  1
  Rh  Rh27  1  0.750000  0.494860  0.214180  1
