# generated using pymatgen
data_Cs5CrHS5
_symmetry_space_group_name_H-M   'P 1'
_cell_length_a   8.08998802
_cell_length_b   8.08998721
_cell_length_c   14.64078900
_cell_angle_alpha   81.50300219
_cell_angle_beta   81.50299589
_cell_angle_gamma   110.57780862
_symmetry_Int_Tables_number   1
_chemical_formula_structural   Cs5CrHS5
_chemical_formula_sum   'Cs10 Cr2 H2 S10'
_cell_volume   866.34516629
_cell_formula_units_Z   2
loop_
 _symmetry_equiv_pos_site_id
 _symmetry_equiv_pos_as_xyz
  1  'x, y, z'
loop_
 _atom_site_type_symbol
 _atom_site_label
 _atom_site_symmetry_multiplicity
 _atom_site_fract_x
 _atom_site_fract_y
 _atom_site_fract_z
 _atom_site_occupancy
  Cs  Cs0  1  0.263633  0.263633  0.959677  1
  Cs  Cs1  1  0.599647  0.082519  0.801347  1
  Cs  Cs2  1  0.082519  0.599647  0.801347  1
  Cs  Cs3  1  0.804145  0.804145  0.604194  1
  Cs  Cs4  1  0.674273  0.325727  0.500000  1
  Cs  Cs5  1  0.325727  0.674273  0.500000  1
  Cs  Cs6  1  0.195855  0.195855  0.395806  1
  Cs  Cs7  1  0.917481  0.400353  0.198653  1
  Cs  Cs8  1  0.400353  0.917481  0.198653  1
  Cs  Cs9  1  0.736367  0.736367  0.040323  1
  Cr  Cr10  1  0.167947  0.167947  0.694320  1
  Cr  Cr11  1  0.832053  0.832053  0.305680  1
  H  H12  1  0.794721  0.205279  0.000000  1
  H  H13  1  0.205279  0.794721  0.000000  1
  S  S14  1  0.693165  0.306835  0.000000  1
  S  S15  1  0.306835  0.693165  0.000000  1
  S  S16  1  0.001702  0.001702  0.831510  1
  S  S17  1  0.401740  0.401740  0.706970  1
  S  S18  1  0.263448  0.992132  0.618017  1
  S  S19  1  0.992132  0.263448  0.618017  1
  S  S20  1  0.007868  0.736552  0.381983  1
  S  S21  1  0.736552  0.007868  0.381983  1
  S  S22  1  0.598260  0.598260  0.293030  1
  S  S23  1  0.998298  0.998298  0.168490  1
