# generated using pymatgen
data_Zr4Ga2Fe5Os
_symmetry_space_group_name_H-M   'P 1'
_cell_length_a   5.10464864
_cell_length_b   5.10464838
_cell_length_c   8.27356600
_cell_angle_alpha   90.00000000
_cell_angle_beta   90.00000000
_cell_angle_gamma   120.73373449
_symmetry_Int_Tables_number   1
_chemical_formula_structural   Zr4Ga2Fe5Os
_chemical_formula_sum   'Zr4 Ga2 Fe5 Os1'
_cell_volume   185.30892571
_cell_formula_units_Z   1
loop_
 _symmetry_equiv_pos_site_id
 _symmetry_equiv_pos_as_xyz
  1  'x, y, z'
loop_
 _atom_site_type_symbol
 _atom_site_label
 _atom_site_symmetry_multiplicity
 _atom_site_fract_x
 _atom_site_fract_y
 _atom_site_fract_z
 _atom_site_occupancy
  Zr  Zr0  1  0.334637  0.665363  0.436102  1
  Zr  Zr1  1  0.668035  0.331965  0.566142  1
  Zr  Zr2  1  0.668035  0.331965  0.933858  1
  Zr  Zr3  1  0.334637  0.665363  0.063898  1
  Ga  Ga4  1  0.003313  0.996687  0.505720  1
  Ga  Ga5  1  0.003313  0.996687  0.994280  1
  Fe  Fe6  1  0.824592  0.661329  0.250000  1
  Fe  Fe7  1  0.338671  0.175408  0.250000  1
  Fe  Fe8  1  0.173652  0.826348  0.750000  1
  Fe  Fe9  1  0.173643  0.348356  0.750000  1
  Fe  Fe10  1  0.651644  0.826357  0.750000  1
  Os  Os11  1  0.825827  0.174173  0.250000  1
