# generated using pymatgen
data_Pr2Nd(PtPb)3
_symmetry_space_group_name_H-M   'P 1'
_cell_length_a   7.85277064
_cell_length_b   7.87496715
_cell_length_c   4.15897600
_cell_angle_alpha   90.00000000
_cell_angle_beta   90.00000000
_cell_angle_gamma   120.09353857
_symmetry_Int_Tables_number   1
_chemical_formula_structural   Pr2Nd(PtPb)3
_chemical_formula_sum   'Pr2 Nd1 Pt3 Pb3'
_cell_volume   222.52488774
_cell_formula_units_Z   1
loop_
 _symmetry_equiv_pos_site_id
 _symmetry_equiv_pos_as_xyz
  1  'x, y, z'
loop_
 _atom_site_type_symbol
 _atom_site_label
 _atom_site_symmetry_multiplicity
 _atom_site_fract_x
 _atom_site_fract_y
 _atom_site_fract_z
 _atom_site_occupancy
  Pr  Pr0  1  0.593910  0.000563  0.500000  1
  Pr  Pr1  1  0.406090  0.406653  0.500000  1
  Nd  Nd2  1  0.000000  0.594277  0.500000  1
  Pt  Pt3  1  0.000000  0.998864  0.500000  1
  Pt  Pt4  1  0.668784  0.334721  0.000000  1
  Pt  Pt5  1  0.331216  0.665937  0.000000  1
  Pb  Pb6  1  0.000000  0.257006  0.000000  1
  Pb  Pb7  1  0.257191  0.999586  0.000000  1
  Pb  Pb8  1  0.742809  0.742394  0.000000  1
