# generated using pymatgen
data_Cs2K10Al3GaTe12
_symmetry_space_group_name_H-M   'P 1'
_cell_length_a   14.57643495
_cell_length_b   8.82179815
_cell_length_c   11.27917536
_cell_angle_alpha   52.86303007
_cell_angle_beta   89.10270202
_cell_angle_gamma   89.13210873
_symmetry_Int_Tables_number   1
_chemical_formula_structural   Cs2K10Al3GaTe12
_chemical_formula_sum   'Cs2 K10 Al3 Ga1 Te12'
_cell_volume   1156.07435279
_cell_formula_units_Z   1
loop_
 _symmetry_equiv_pos_site_id
 _symmetry_equiv_pos_as_xyz
  1  'x, y, z'
loop_
 _atom_site_type_symbol
 _atom_site_label
 _atom_site_symmetry_multiplicity
 _atom_site_fract_x
 _atom_site_fract_y
 _atom_site_fract_z
 _atom_site_occupancy
  Cs  Cs0  1  0.309937  0.164076  0.064064  1
  Cs  Cs1  1  0.689269  0.835425  0.935949  1
  K  K2  1  0.814974  0.845677  0.434670  1
  K  K3  1  0.894959  0.315377  0.403809  1
  K  K4  1  0.614128  0.359586  0.474163  1
  K  K5  1  0.108628  0.641586  0.024247  1
  K  K6  1  0.386049  0.640490  0.526076  1
  K  K7  1  0.891617  0.358988  0.975682  1
  K  K8  1  0.611860  0.301910  0.910648  1
  K  K9  1  0.104636  0.684824  0.596328  1
  K  K10  1  0.388360  0.698202  0.089079  1
  K  K11  1  0.185035  0.153302  0.565993  1
  Al  Al12  1  0.566682  0.041648  0.346550  1
  Al  Al13  1  0.433312  0.958418  0.653458  1
  Al  Al14  1  0.933859  0.057914  0.839520  1
  Ga  Ga15  1  0.066559  0.941786  0.161149  1
  Te  Te16  1  0.410252  0.198404  0.357503  1
  Te  Te17  1  0.903082  0.823108  0.138860  1
  Te  Te18  1  0.589680  0.801663  0.642527  1
  Te  Te19  1  0.096209  0.178348  0.858431  1
  Te  Te20  1  0.699292  0.292598  0.213133  1
  Te  Te21  1  0.189716  0.664216  0.305642  1
  Te  Te22  1  0.300737  0.707337  0.786913  1
  Te  Te23  1  0.811222  0.333549  0.695077  1
  Te  Te24  1  0.549232  0.854521  0.237398  1
  Te  Te25  1  0.054717  0.139226  0.265261  1
  Te  Te26  1  0.450744  0.145635  0.762553  1
  Te  Te27  1  0.945252  0.862186  0.735318  1
