# generated using pymatgen
data_Li4Pr2LuSn4
_symmetry_space_group_name_H-M   'P 1'
_cell_length_a   8.74799641
_cell_length_b   8.74799654
_cell_length_c   8.74799651
_cell_angle_alpha   148.63876213
_cell_angle_beta   133.17738373
_cell_angle_gamma   57.44136751
_symmetry_Int_Tables_number   1
_chemical_formula_structural   Li4Pr2LuSn4
_chemical_formula_sum   'Li4 Pr2 Lu1 Sn4'
_cell_volume   252.18990752
_cell_formula_units_Z   1
loop_
 _symmetry_equiv_pos_site_id
 _symmetry_equiv_pos_as_xyz
  1  'x, y, z'
loop_
 _atom_site_type_symbol
 _atom_site_label
 _atom_site_symmetry_multiplicity
 _atom_site_fract_x
 _atom_site_fract_y
 _atom_site_fract_z
 _atom_site_occupancy
  Li  Li0  1  0.638532  0.328450  0.310081  1
  Li  Li1  1  0.361468  0.671550  0.689919  1
  Li  Li2  1  0.018368  0.328450  0.689919  1
  Li  Li3  1  0.981632  0.671550  0.310081  1
  Pr  Pr4  1  0.369828  0.869828  0.500000  1
  Pr  Pr5  1  0.630172  0.130172  0.500000  1
  Lu  Lu6  1  0.000000  0.000000  0.000000  1
  Sn  Sn7  1  0.209550  0.209550  0.000000  1
  Sn  Sn8  1  0.790450  0.790450  0.000000  1
  Sn  Sn9  1  0.707664  0.500000  0.207664  1
  Sn  Sn10  1  0.292336  0.500000  0.792336  1
