# generated using pymatgen
data_Pr8Co(Si4Pd)3
_symmetry_space_group_name_H-M   'P 1'
_cell_length_a   8.25923800
_cell_length_b   8.25923857
_cell_length_c   8.61246400
_cell_angle_alpha   90.00000000
_cell_angle_beta   90.00000000
_cell_angle_gamma   120.00000574
_symmetry_Int_Tables_number   1
_chemical_formula_structural   Pr8Co(Si4Pd)3
_chemical_formula_sum   'Pr8 Co1 Si12 Pd3'
_cell_volume   508.78935687
_cell_formula_units_Z   1
loop_
 _symmetry_equiv_pos_site_id
 _symmetry_equiv_pos_as_xyz
  1  'x, y, z'
loop_
 _atom_site_type_symbol
 _atom_site_label
 _atom_site_symmetry_multiplicity
 _atom_site_fract_x
 _atom_site_fract_y
 _atom_site_fract_z
 _atom_site_occupancy
  Pr  Pr0  1  0.501748  0.498252  0.753445  1
  Pr  Pr1  1  0.502640  0.497360  0.246793  1
  Pr  Pr2  1  0.996504  0.498252  0.753445  1
  Pr  Pr3  1  0.994720  0.497360  0.246793  1
  Pr  Pr4  1  0.501748  0.003496  0.753445  1
  Pr  Pr5  1  0.502640  0.005280  0.246793  1
  Pr  Pr6  1  0.000000  0.000000  0.750409  1
  Pr  Pr7  1  0.000000  0.000000  0.249497  1
  Co  Co8  1  0.666667  0.333333  0.997183  1
  Si  Si9  1  0.826899  0.173101  0.000142  1
  Si  Si10  1  0.164392  0.835608  0.999773  1
  Si  Si11  1  0.346201  0.173101  0.000142  1
  Si  Si12  1  0.165623  0.834377  0.500219  1
  Si  Si13  1  0.671216  0.835608  0.999773  1
  Si  Si14  1  0.835111  0.164889  0.499798  1
  Si  Si15  1  0.826899  0.653799  0.000142  1
  Si  Si16  1  0.668754  0.834377  0.500219  1
  Si  Si17  1  0.164392  0.328784  0.999773  1
  Si  Si18  1  0.329776  0.164889  0.499798  1
  Si  Si19  1  0.165623  0.331246  0.500219  1
  Si  Si20  1  0.835111  0.670224  0.499798  1
  Pd  Pd21  1  0.333333  0.666667  0.002228  1
  Pd  Pd22  1  0.333333  0.666667  0.498459  1
  Pd  Pd23  1  0.666667  0.333333  0.501716  1
