# generated using pymatgen
data_Pr4Gd3Er(TeO6)4
_symmetry_space_group_name_H-M   'P 1'
_cell_length_a   5.49336956
_cell_length_b   9.39510089
_cell_length_c   10.29479400
_cell_angle_alpha   89.97183725
_cell_angle_beta   89.93473955
_cell_angle_gamma   89.90556966
_symmetry_Int_Tables_number   1
_chemical_formula_structural   Pr4Gd3Er(TeO6)4
_chemical_formula_sum   'Pr4 Gd3 Er1 Te4 O24'
_cell_volume   531.32102532
_cell_formula_units_Z   1
loop_
 _symmetry_equiv_pos_site_id
 _symmetry_equiv_pos_as_xyz
  1  'x, y, z'
loop_
 _atom_site_type_symbol
 _atom_site_label
 _atom_site_symmetry_multiplicity
 _atom_site_fract_x
 _atom_site_fract_y
 _atom_site_fract_z
 _atom_site_occupancy
  Pr  Pr0  1  0.533238  0.219067  0.359372  1
  Pr  Pr1  1  0.032691  0.281820  0.640375  1
  Pr  Pr2  1  0.465546  0.718923  0.140644  1
  Pr  Pr3  1  0.967582  0.781284  0.858420  1
  Gd  Gd4  1  0.518541  0.102895  0.955587  1
  Gd  Gd5  1  0.018521  0.395933  0.044855  1
  Gd  Gd6  1  0.479084  0.606115  0.543910  1
  Er  Er7  1  0.984396  0.898106  0.455134  1
  Te  Te8  1  0.467526  0.990362  0.640482  1
  Te  Te9  1  0.964333  0.510545  0.357928  1
  Te  Te10  1  0.534441  0.491240  0.857419  1
  Te  Te11  1  0.033572  0.007774  0.144521  1
  O  O12  1  0.303544  0.141577  0.171806  1
  O  O13  1  0.803848  0.356876  0.828849  1
  O  O14  1  0.691894  0.641512  0.328129  1
  O  O15  1  0.198595  0.855171  0.666461  1
  O  O16  1  0.725732  0.110459  0.562883  1
  O  O17  1  0.225895  0.393171  0.437257  1
  O  O18  1  0.274087  0.609586  0.936091  1
  O  O19  1  0.774088  0.890451  0.064303  1
  O  O20  1  0.676747  0.634038  0.744637  1
  O  O21  1  0.174441  0.865417  0.258533  1
  O  O22  1  0.322218  0.132120  0.753822  1
  O  O23  1  0.824751  0.365806  0.245848  1
  O  O24  1  0.665624  0.949381  0.791645  1
  O  O25  1  0.164075  0.550793  0.207510  1
  O  O26  1  0.334262  0.449913  0.707719  1
  O  O27  1  0.835001  0.048077  0.295871  1
  O  O28  1  0.258391  0.073145  0.501807  1
  O  O29  1  0.759379  0.424953  0.496690  1
  O  O30  1  0.740324  0.576660  0.995587  1
  O  O31  1  0.239913  0.922372  0.005728  1
  O  O32  1  0.097673  0.663173  0.465673  1
  O  O33  1  0.613611  0.842251  0.532276  1
  O  O34  1  0.897338  0.157922  0.034995  1
  O  O35  1  0.399099  0.341116  0.967235  1
