# generated using pymatgen
data_Tb2U(SnRh)3
_symmetry_space_group_name_H-M   'P 1'
_cell_length_a   7.63628700
_cell_length_b   7.48387487
_cell_length_c   3.91421800
_cell_angle_alpha   90.00000000
_cell_angle_beta   90.00000000
_cell_angle_gamma   120.67599571
_symmetry_Int_Tables_number   1
_chemical_formula_structural   Tb2U(SnRh)3
_chemical_formula_sum   'Tb2 U1 Sn3 Rh3'
_cell_volume   192.39137338
_cell_formula_units_Z   1
loop_
 _symmetry_equiv_pos_site_id
 _symmetry_equiv_pos_as_xyz
  1  'x, y, z'
loop_
 _atom_site_type_symbol
 _atom_site_label
 _atom_site_symmetry_multiplicity
 _atom_site_fract_x
 _atom_site_fract_y
 _atom_site_fract_z
 _atom_site_occupancy
  Tb  Tb0  1  0.999758  0.406964  0.500000  1
  Tb  Tb1  1  0.592794  0.593036  0.500000  1
  U  U2  1  0.415487  0.000000  0.500000  1
  Sn  Sn3  1  0.755786  0.000000  0.000000  1
  Sn  Sn4  1  0.988103  0.730605  0.000000  1
  Sn  Sn5  1  0.257498  0.269395  0.000000  1
  Rh  Rh6  1  0.337105  0.700600  0.000000  1
  Rh  Rh7  1  0.636506  0.299400  0.000000  1
  Rh  Rh8  1  0.016964  0.000000  0.500000  1
