# generated using pymatgen
data_LiTb2(PrRh)6
_symmetry_space_group_name_H-M   'P 1'
_cell_length_a   7.60819439
_cell_length_b   7.60819336
_cell_length_c   7.60819383
_cell_angle_alpha   69.95925379
_cell_angle_beta   69.95925892
_cell_angle_gamma   69.95925118
_symmetry_Int_Tables_number   1
_chemical_formula_structural   LiTb2(PrRh)6
_chemical_formula_sum   'Li1 Tb2 Pr6 Rh6'
_cell_volume   375.80672579
_cell_formula_units_Z   1
loop_
 _symmetry_equiv_pos_site_id
 _symmetry_equiv_pos_as_xyz
  1  'x, y, z'
loop_
 _atom_site_type_symbol
 _atom_site_label
 _atom_site_symmetry_multiplicity
 _atom_site_fract_x
 _atom_site_fract_y
 _atom_site_fract_z
 _atom_site_occupancy
  Li  Li0  1  0.000000  0.000000  0.000000  1
  Tb  Tb1  1  0.812184  0.812184  0.812184  1
  Tb  Tb2  1  0.187816  0.187816  0.187816  1
  Pr  Pr3  1  0.149326  0.386142  0.674568  1
  Pr  Pr4  1  0.674568  0.149326  0.386142  1
  Pr  Pr5  1  0.386142  0.674568  0.149326  1
  Pr  Pr6  1  0.850674  0.613858  0.325432  1
  Pr  Pr7  1  0.325432  0.850674  0.613858  1
  Pr  Pr8  1  0.613858  0.325432  0.850674  1
  Rh  Rh9  1  0.953334  0.174592  0.573289  1
  Rh  Rh10  1  0.573289  0.953334  0.174592  1
  Rh  Rh11  1  0.174592  0.573289  0.953334  1
  Rh  Rh12  1  0.046666  0.825408  0.426711  1
  Rh  Rh13  1  0.426711  0.046666  0.825408  1
  Rh  Rh14  1  0.825408  0.426711  0.046666  1
