# generated using pymatgen
data_LuSc3(SiRh2)8
_symmetry_space_group_name_H-M   'P 1'
_cell_length_a   4.07841200
_cell_length_b   8.97451642
_cell_length_c   11.14195575
_cell_angle_alpha   90.28472384
_cell_angle_beta   90.00000000
_cell_angle_gamma   90.00000000
_symmetry_Int_Tables_number   1
_chemical_formula_structural   LuSc3(SiRh2)8
_chemical_formula_sum   'Lu1 Sc3 Si8 Rh16'
_cell_volume   407.81032701
_cell_formula_units_Z   1
loop_
 _symmetry_equiv_pos_site_id
 _symmetry_equiv_pos_as_xyz
  1  'x, y, z'
loop_
 _atom_site_type_symbol
 _atom_site_label
 _atom_site_symmetry_multiplicity
 _atom_site_fract_x
 _atom_site_fract_y
 _atom_site_fract_z
 _atom_site_occupancy
  Lu  Lu0  1  0.250000  0.144378  0.825663  1
  Sc  Sc1  1  0.250000  0.360279  0.323726  1
  Sc  Sc2  1  0.750000  0.856090  0.175956  1
  Sc  Sc3  1  0.750000  0.643945  0.673993  1
  Si  Si4  1  0.250000  0.415515  0.635687  1
  Si  Si5  1  0.250000  0.086278  0.139262  1
  Si  Si6  1  0.750000  0.589248  0.361166  1
  Si  Si7  1  0.750000  0.908201  0.863615  1
  Si  Si8  1  0.250000  0.615954  0.059533  1
  Si  Si9  1  0.250000  0.883238  0.560417  1
  Si  Si10  1  0.750000  0.378059  0.939852  1
  Si  Si11  1  0.750000  0.117377  0.441115  1
  Rh  Rh12  1  0.250000  0.618151  0.501719  1
  Rh  Rh13  1  0.250000  0.879975  0.003715  1
  Rh  Rh14  1  0.750000  0.383984  0.492528  1
  Rh  Rh15  1  0.750000  0.110676  0.003944  1
  Rh  Rh16  1  0.250000  0.698063  0.266275  1
  Rh  Rh17  1  0.250000  0.801169  0.766552  1
  Rh  Rh18  1  0.750000  0.312726  0.727776  1
  Rh  Rh19  1  0.750000  0.200117  0.236177  1
  Rh  Rh20  1  0.250000  0.172655  0.559080  1
  Rh  Rh21  1  0.250000  0.327183  0.061908  1
  Rh  Rh22  1  0.750000  0.830065  0.439201  1
  Rh  Rh23  1  0.750000  0.668451  0.939976  1
  Rh  Rh24  1  0.250000  0.008435  0.341216  1
  Rh  Rh25  1  0.250000  0.490552  0.842770  1
  Rh  Rh26  1  0.750000  0.990886  0.659117  1
  Rh  Rh27  1  0.750000  0.508350  0.158062  1
