# generated using pymatgen
data_Nd19HoSi15Ir
_symmetry_space_group_name_H-M   'P 1'
_cell_length_a   7.78579163
_cell_length_b   7.92959512
_cell_length_c   15.12444997
_cell_angle_alpha   89.78000524
_cell_angle_beta   89.67949899
_cell_angle_gamma   90.05691135
_symmetry_Int_Tables_number   1
_chemical_formula_structural   Nd19HoSi15Ir
_chemical_formula_sum   'Nd19 Ho1 Si15 Ir1'
_cell_volume   933.73397135
_cell_formula_units_Z   1
loop_
 _symmetry_equiv_pos_site_id
 _symmetry_equiv_pos_as_xyz
  1  'x, y, z'
loop_
 _atom_site_type_symbol
 _atom_site_label
 _atom_site_symmetry_multiplicity
 _atom_site_fract_x
 _atom_site_fract_y
 _atom_site_fract_z
 _atom_site_occupancy
  Nd  Nd0  1  0.812852  0.331586  0.615607  1
  Nd  Nd1  1  0.457664  0.685955  0.898438  1
  Nd  Nd2  1  0.958626  0.814124  0.898367  1
  Nd  Nd3  1  0.185239  0.683283  0.120834  1
  Nd  Nd4  1  0.690582  0.818541  0.121093  1
  Nd  Nd5  1  0.308240  0.179530  0.877825  1
  Nd  Nd6  1  0.185550  0.678320  0.379978  1
  Nd  Nd7  1  0.042453  0.188012  0.102808  1
  Nd  Nd8  1  0.312007  0.179944  0.622137  1
  Nd  Nd9  1  0.857616  0.490584  0.259831  1
  Nd  Nd10  1  0.364245  0.008502  0.253462  1
  Nd  Nd11  1  0.538969  0.318045  0.398812  1
  Nd  Nd12  1  0.811356  0.317379  0.878220  1
  Nd  Nd13  1  0.963325  0.812843  0.598747  1
  Nd  Nd14  1  0.460735  0.685427  0.601977  1
  Nd  Nd15  1  0.040862  0.187641  0.400003  1
  Nd  Nd16  1  0.693373  0.812162  0.384207  1
  Nd  Nd17  1  0.639125  0.993223  0.748289  1
  Nd  Nd18  1  0.542955  0.312644  0.102445  1
  Ho  Ho19  1  0.136759  0.512108  0.748054  1
  Si  Si20  1  0.478262  0.603064  0.245700  1
  Si  Si21  1  0.251920  0.378810  0.247193  1
  Si  Si22  1  0.513806  0.402295  0.750949  1
  Si  Si23  1  0.631973  0.025664  0.958795  1
  Si  Si24  1  0.016761  0.102397  0.748967  1
  Si  Si25  1  0.750351  0.621042  0.750769  1
  Si  Si26  1  0.750336  0.120041  0.248105  1
  Si  Si27  1  0.365215  0.970173  0.461120  1
  Si  Si28  1  0.981869  0.902385  0.248393  1
  Si  Si29  1  0.364908  0.974872  0.041165  1
  Si  Si30  1  0.634141  0.024335  0.542486  1
  Si  Si31  1  0.134634  0.474936  0.957270  1
  Si  Si32  1  0.145084  0.475794  0.543229  1
  Si  Si33  1  0.866151  0.525753  0.039150  1
  Si  Si34  1  0.245991  0.873132  0.750768  1
  Ir  Ir35  1  0.866067  0.515453  0.454808  1
