# generated using pymatgen
data_Er8Ti2ReSi16W9
_symmetry_space_group_name_H-M   'P 1'
_cell_length_a   6.87065909
_cell_length_b   6.87065920
_cell_length_c   12.74262672
_cell_angle_alpha   89.99465368
_cell_angle_beta   90.00534578
_cell_angle_gamma   89.43800837
_symmetry_Int_Tables_number   1
_chemical_formula_structural   Er8Ti2ReSi16W9
_chemical_formula_sum   'Er8 Ti2 Re1 Si16 W9'
_cell_volume   601.49894929
_cell_formula_units_Z   1
loop_
 _symmetry_equiv_pos_site_id
 _symmetry_equiv_pos_as_xyz
  1  'x, y, z'
loop_
 _atom_site_type_symbol
 _atom_site_label
 _atom_site_symmetry_multiplicity
 _atom_site_fract_x
 _atom_site_fract_y
 _atom_site_fract_z
 _atom_site_occupancy
  Er  Er0  1  0.340233  0.999336  0.468700  1
  Er  Er1  1  0.500190  0.836393  0.718742  1
  Er  Er2  1  0.500441  0.163107  0.218885  1
  Er  Er3  1  0.836393  0.500190  0.281258  1
  Er  Er4  1  0.163107  0.500441  0.781115  1
  Er  Er5  1  0.660476  0.000276  0.968877  1
  Er  Er6  1  0.999336  0.340233  0.531300  1
  Er  Er7  1  0.000276  0.660476  0.031123  1
  Ti  Ti8  1  0.169360  0.830032  0.250795  1
  Ti  Ti9  1  0.830032  0.169360  0.749205  1
  Re  Re10  1  0.667087  0.667087  0.500000  1
  Si  Si11  1  0.203297  0.129719  0.683425  1
  Si  Si12  1  0.372429  0.700045  0.933146  1
  Si  Si13  1  0.626200  0.303786  0.434434  1
  Si  Si14  1  0.700045  0.372429  0.066854  1
  Si  Si15  1  0.303786  0.626200  0.565566  1
  Si  Si16  1  0.796404  0.870576  0.183705  1
  Si  Si17  1  0.129719  0.203297  0.316575  1
  Si  Si18  1  0.870576  0.796404  0.816295  1
  Si  Si19  1  0.290311  0.962472  0.062744  1
  Si  Si20  1  0.540698  0.790681  0.316764  1
  Si  Si21  1  0.460818  0.207968  0.815256  1
  Si  Si22  1  0.790681  0.540698  0.683236  1
  Si  Si23  1  0.207968  0.460818  0.184744  1
  Si  Si24  1  0.710978  0.034175  0.561382  1
  Si  Si25  1  0.962472  0.290311  0.937256  1
  Si  Si26  1  0.034175  0.710978  0.438618  1
  W  W27  1  0.332634  0.332634  0.000000  1
  W  W28  1  0.156808  0.002136  0.873158  1
  W  W29  1  0.498004  0.665109  0.125469  1
  W  W30  1  0.501903  0.331337  0.625996  1
  W  W31  1  0.665109  0.498004  0.874531  1
  W  W32  1  0.331337  0.501903  0.374004  1
  W  W33  1  0.843895  0.000687  0.372755  1
  W  W34  1  0.002136  0.156808  0.126842  1
  W  W35  1  0.000687  0.843895  0.627245  1
