# generated using pymatgen
data_Tb5Y(Sb4Au3)2
_symmetry_space_group_name_H-M   'P 1'
_cell_length_a   8.62321542
_cell_length_b   8.62321506
_cell_length_c   8.62321500
_cell_angle_alpha   109.47279386
_cell_angle_beta   109.46808706
_cell_angle_gamma   109.47278642
_symmetry_Int_Tables_number   1
_chemical_formula_structural   Tb5Y(Sb4Au3)2
_chemical_formula_sum   'Tb5 Y1 Sb8 Au6'
_cell_volume   493.61204292
_cell_formula_units_Z   1
loop_
 _symmetry_equiv_pos_site_id
 _symmetry_equiv_pos_as_xyz
  1  'x, y, z'
loop_
 _atom_site_type_symbol
 _atom_site_label
 _atom_site_symmetry_multiplicity
 _atom_site_fract_x
 _atom_site_fract_y
 _atom_site_fract_z
 _atom_site_occupancy
  Tb  Tb0  1  0.625000  0.750000  0.375000  1
  Tb  Tb1  1  0.750002  0.374996  0.624997  1
  Tb  Tb2  1  0.250001  0.125004  0.875006  1
  Tb  Tb3  1  0.375003  0.625005  0.749999  1
  Tb  Tb4  1  0.124994  0.874995  0.249998  1
  Y  Y5  1  0.875000  0.250000  0.125000  1
  Sb  Sb6  1  0.177578  0.499999  0.000008  1
  Sb  Sb7  1  0.322424  0.322425  0.322420  1
  Sb  Sb8  1  0.999996  0.177575  0.500000  1
  Sb  Sb9  1  0.822421  0.822430  0.822422  1
  Sb  Sb10  1  0.500000  0.999996  0.677576  1
  Sb  Sb11  1  0.999992  0.677570  0.499991  1
  Sb  Sb12  1  0.500009  0.000001  0.177579  1
  Sb  Sb13  1  0.677580  0.500004  0.000004  1
  Au  Au14  1  0.375000  0.250000  0.625000  1
  Au  Au15  1  0.875001  0.125003  0.750009  1
  Au  Au16  1  0.249991  0.624992  0.374995  1
  Au  Au17  1  0.750003  0.875008  0.124999  1
  Au  Au18  1  0.125000  0.750000  0.875000  1
  Au  Au19  1  0.625005  0.374997  0.249997  1
