# generated using pymatgen
data_Dy2Ho4Al24Os5Pt3
_symmetry_space_group_name_H-M   'P 1'
_cell_length_a   8.81008518
_cell_length_b   8.82990980
_cell_length_c   9.54399456
_cell_angle_alpha   90.14399729
_cell_angle_beta   89.73576387
_cell_angle_gamma   119.48980663
_symmetry_Int_Tables_number   1
_chemical_formula_structural   Dy2Ho4Al24Os5Pt3
_chemical_formula_sum   'Dy2 Ho4 Al24 Os5 Pt3'
_cell_volume   646.25274823
_cell_formula_units_Z   1
loop_
 _symmetry_equiv_pos_site_id
 _symmetry_equiv_pos_as_xyz
  1  'x, y, z'
loop_
 _atom_site_type_symbol
 _atom_site_label
 _atom_site_symmetry_multiplicity
 _atom_site_fract_x
 _atom_site_fract_y
 _atom_site_fract_z
 _atom_site_occupancy
  Dy  Dy0  1  0.187742  0.383187  0.250938  1
  Dy  Dy1  1  0.812258  0.616813  0.749062  1
  Ho  Ho2  1  0.613406  0.813957  0.252166  1
  Ho  Ho3  1  0.386594  0.186043  0.747834  1
  Ho  Ho4  1  0.195387  0.809121  0.251468  1
  Ho  Ho5  1  0.804613  0.190879  0.748532  1
  Al  Al6  1  0.335321  0.671268  0.029702  1
  Al  Al7  1  0.664679  0.328732  0.970298  1
  Al  Al8  1  0.669140  0.331226  0.527913  1
  Al  Al9  1  0.330860  0.668774  0.472087  1
  Al  Al10  1  0.158172  0.325418  0.575528  1
  Al  Al11  1  0.841828  0.674582  0.424472  1
  Al  Al12  1  0.673362  0.840626  0.575707  1
  Al  Al13  1  0.836896  0.676268  0.078355  1
  Al  Al14  1  0.326638  0.159374  0.424293  1
  Al  Al15  1  0.163104  0.323732  0.921645  1
  Al  Al16  1  0.163969  0.835178  0.576273  1
  Al  Al17  1  0.325631  0.158888  0.076407  1
  Al  Al18  1  0.836031  0.164822  0.423727  1
  Al  Al19  1  0.674369  0.841112  0.923593  1
  Al  Al20  1  0.831678  0.159299  0.077685  1
  Al  Al21  1  0.168322  0.840701  0.922315  1
  Al  Al22  1  0.560632  0.124574  0.249774  1
  Al  Al23  1  0.439368  0.875426  0.750226  1
  Al  Al24  1  0.874108  0.438114  0.252649  1
  Al  Al25  1  0.125892  0.561886  0.747351  1
  Al  Al26  1  0.562612  0.436837  0.249718  1
  Al  Al27  1  0.437388  0.563163  0.750282  1
  Al  Al28  1  0.998478  0.002207  0.250225  1
  Al  Al29  1  0.001522  0.997793  0.749775  1
  Os  Os30  1  0.500000  0.000000  0.000000  1
  Os  Os31  1  0.500000  0.000000  0.500000  1
  Os  Os32  1  0.000000  0.500000  0.500000  1
  Os  Os33  1  0.000000  0.000000  0.000000  1
  Os  Os34  1  0.000000  0.000000  0.500000  1
  Pt  Pt35  1  0.000000  0.500000  0.000000  1
  Pt  Pt36  1  0.500000  0.500000  0.000000  1
  Pt  Pt37  1  0.500000  0.500000  0.500000  1
