# generated using pymatgen
data_La2PrRuI3
_symmetry_space_group_name_H-M   'P 1'
_cell_length_a   4.39092200
_cell_length_b   9.60615651
_cell_length_c   12.63261716
_cell_angle_alpha   87.31419174
_cell_angle_beta   90.00000000
_cell_angle_gamma   90.00000000
_symmetry_Int_Tables_number   1
_chemical_formula_structural   La2PrRuI3
_chemical_formula_sum   'La4 Pr2 Ru2 I6'
_cell_volume   532.25700537
_cell_formula_units_Z   2
loop_
 _symmetry_equiv_pos_site_id
 _symmetry_equiv_pos_as_xyz
  1  'x, y, z'
loop_
 _atom_site_type_symbol
 _atom_site_label
 _atom_site_symmetry_multiplicity
 _atom_site_fract_x
 _atom_site_fract_y
 _atom_site_fract_z
 _atom_site_occupancy
  La  La0  1  0.750000  0.688766  0.117573  1
  La  La1  1  0.250000  0.311234  0.882427  1
  La  La2  1  0.250000  0.884985  0.328104  1
  La  La3  1  0.750000  0.115015  0.671896  1
  Pr  Pr4  1  0.250000  0.902160  0.895813  1
  Pr  Pr5  1  0.750000  0.097840  0.104187  1
  Ru  Ru6  1  0.250000  0.886616  0.128165  1
  Ru  Ru7  1  0.750000  0.113384  0.871835  1
  I  I8  1  0.250000  0.867169  0.619615  1
  I  I9  1  0.750000  0.132831  0.380385  1
  I  I10  1  0.750000  0.635151  0.376876  1
  I  I11  1  0.250000  0.364849  0.623124  1
  I  I12  1  0.250000  0.394665  0.136747  1
  I  I13  1  0.750000  0.605335  0.863253  1
