# generated using pymatgen
data_Dy10Hg8Ir3Pt
_symmetry_space_group_name_H-M   'P 1'
_cell_length_a   3.70135400
_cell_length_b   7.93646575
_cell_length_c   17.96156274
_cell_angle_alpha   89.94984357
_cell_angle_beta   90.00000000
_cell_angle_gamma   90.00000000
_symmetry_Int_Tables_number   1
_chemical_formula_structural   Dy10Hg8Ir3Pt
_chemical_formula_sum   'Dy10 Hg8 Ir3 Pt1'
_cell_volume   527.63272420
_cell_formula_units_Z   1
loop_
 _symmetry_equiv_pos_site_id
 _symmetry_equiv_pos_as_xyz
  1  'x, y, z'
loop_
 _atom_site_type_symbol
 _atom_site_label
 _atom_site_symmetry_multiplicity
 _atom_site_fract_x
 _atom_site_fract_y
 _atom_site_fract_z
 _atom_site_occupancy
  Dy  Dy0  1  0.000000  0.111275  0.412237  1
  Dy  Dy1  1  0.000000  0.890004  0.589584  1
  Dy  Dy2  1  0.000000  0.389968  0.909991  1
  Dy  Dy3  1  0.000000  0.611059  0.086953  1
  Dy  Dy4  1  0.000000  0.231156  0.217302  1
  Dy  Dy5  1  0.000000  0.759023  0.782222  1
  Dy  Dy6  1  0.000000  0.257480  0.718708  1
  Dy  Dy7  1  0.000000  0.748025  0.282871  1
  Dy  Dy8  1  0.000000  0.000184  0.999752  1
  Dy  Dy9  1  0.000000  0.501583  0.500134  1
  Hg  Hg10  1  0.500000  0.418401  0.355727  1
  Hg  Hg11  1  0.500000  0.579441  0.644466  1
  Hg  Hg12  1  0.500000  0.078917  0.855630  1
  Hg  Hg13  1  0.500000  0.919671  0.144356  1
  Hg  Hg14  1  0.500000  0.289493  0.059850  1
  Hg  Hg15  1  0.500000  0.709150  0.938765  1
  Hg  Hg16  1  0.500000  0.210192  0.561700  1
  Hg  Hg17  1  0.500000  0.789849  0.438999  1
  Ir  Ir18  1  0.500000  0.026442  0.303142  1
  Ir  Ir19  1  0.500000  0.976827  0.698312  1
  Ir  Ir20  1  0.500000  0.477465  0.800481  1
  Pt  Pt21  1  0.500000  0.524393  0.198818  1
