# generated using pymatgen
data_Dy8HoErBi6
_symmetry_space_group_name_H-M   'P 1'
_cell_length_a   8.26892900
_cell_length_b   9.52172300
_cell_length_c   12.05524200
_cell_angle_alpha   90.00065288
_cell_angle_beta   90.00000000
_cell_angle_gamma   90.00000000
_symmetry_Int_Tables_number   1
_chemical_formula_structural   Dy8HoErBi6
_chemical_formula_sum   'Dy16 Ho2 Er2 Bi12'
_cell_volume   949.16286587
_cell_formula_units_Z   2
loop_
 _symmetry_equiv_pos_site_id
 _symmetry_equiv_pos_as_xyz
  1  'x, y, z'
loop_
 _atom_site_type_symbol
 _atom_site_label
 _atom_site_symmetry_multiplicity
 _atom_site_fract_x
 _atom_site_fract_y
 _atom_site_fract_z
 _atom_site_occupancy
  Dy  Dy0  1  0.352585  0.749895  0.215323  1
  Dy  Dy1  1  0.852585  0.750105  0.284677  1
  Dy  Dy2  1  0.647489  0.249904  0.784715  1
  Dy  Dy3  1  0.147489  0.250096  0.715285  1
  Dy  Dy4  1  0.307269  0.435890  0.941494  1
  Dy  Dy5  1  0.807269  0.064110  0.558506  1
  Dy  Dy6  1  0.692735  0.936019  0.058515  1
  Dy  Dy7  1  0.192735  0.563981  0.441485  1
  Dy  Dy8  1  0.475359  0.250060  0.488136  1
  Dy  Dy9  1  0.975359  0.249940  0.011864  1
  Dy  Dy10  1  0.524800  0.749966  0.511879  1
  Dy  Dy11  1  0.024800  0.750034  0.988121  1
  Dy  Dy12  1  0.312590  0.249921  0.218556  1
  Dy  Dy13  1  0.812590  0.250079  0.281444  1
  Dy  Dy14  1  0.687396  0.749956  0.781431  1
  Dy  Dy15  1  0.187396  0.750044  0.718569  1
  Ho  Ho16  1  0.692555  0.564372  0.058508  1
  Ho  Ho17  1  0.192555  0.935628  0.441492  1
  Er  Er18  1  0.307418  0.064545  0.941462  1
  Er  Er19  1  0.807418  0.435455  0.558538  1
  Bi  Bi20  1  0.407278  0.750606  0.956790  1
  Bi  Bi21  1  0.907278  0.749394  0.543210  1
  Bi  Bi22  1  0.592571  0.250304  0.043120  1
  Bi  Bi23  1  0.092571  0.249696  0.456880  1
  Bi  Bi24  1  0.564784  0.995533  0.325174  1
  Bi  Bi25  1  0.064784  0.504467  0.174826  1
  Bi  Bi26  1  0.435219  0.495515  0.674786  1
  Bi  Bi27  1  0.935219  0.004485  0.825214  1
  Bi  Bi28  1  0.435017  0.004517  0.674826  1
  Bi  Bi29  1  0.935017  0.495483  0.825174  1
  Bi  Bi30  1  0.564936  0.504498  0.325219  1
  Bi  Bi31  1  0.064936  0.995502  0.174781  1
