# generated using pymatgen
data_Rb8ZnCo3Cl16
_symmetry_space_group_name_H-M   'P 1'
_cell_length_a   7.61299600
_cell_length_b   12.98280900
_cell_length_c   28.19181300
_cell_angle_alpha   90.00000000
_cell_angle_beta   90.00000000
_cell_angle_gamma   90.00000000
_symmetry_Int_Tables_number   1
_chemical_formula_structural   Rb8ZnCo3Cl16
_chemical_formula_sum   'Rb24 Zn3 Co9 Cl48'
_cell_volume   2786.42447090
_cell_formula_units_Z   3
loop_
 _symmetry_equiv_pos_site_id
 _symmetry_equiv_pos_as_xyz
  1  'x, y, z'
loop_
 _atom_site_type_symbol
 _atom_site_label
 _atom_site_symmetry_multiplicity
 _atom_site_fract_x
 _atom_site_fract_y
 _atom_site_fract_z
 _atom_site_occupancy
  Rb  Rb0  1  0.773773  0.919641  0.711840  1
  Rb  Rb1  1  0.262072  0.815643  0.833136  1
  Rb  Rb2  1  0.276883  0.688901  0.667391  1
  Rb  Rb3  1  0.776840  0.188867  0.832580  1
  Rb  Rb4  1  0.700483  0.310074  0.000033  1
  Rb  Rb5  1  0.776937  0.311043  0.332659  1
  Rb  Rb6  1  0.273810  0.080491  0.288191  1
  Rb  Rb7  1  0.729209  0.583048  0.881927  1
  Rb  Rb8  1  0.273825  0.419643  0.788137  1
  Rb  Rb9  1  0.200459  0.810165  0.499993  1
  Rb  Rb10  1  0.713352  0.916180  0.044271  1
  Rb  Rb11  1  0.229309  0.416743  0.118075  1
  Rb  Rb12  1  0.773744  0.580504  0.211810  1
  Rb  Rb13  1  0.229329  0.083001  0.618057  1
  Rb  Rb14  1  0.700469  0.189843  0.500027  1
  Rb  Rb15  1  0.761730  0.184552  0.166788  1
  Rb  Rb16  1  0.213170  0.083666  0.955696  1
  Rb  Rb17  1  0.213189  0.416292  0.455717  1
  Rb  Rb18  1  0.729403  0.916837  0.381941  1
  Rb  Rb19  1  0.762057  0.315623  0.666844  1
  Rb  Rb20  1  0.276892  0.811041  0.167352  1
  Rb  Rb21  1  0.713091  0.583656  0.544321  1
  Rb  Rb22  1  0.200332  0.690062  0.000012  1
  Rb  Rb23  1  0.261768  0.684518  0.333222  1
  Zn  Zn24  1  0.260097  0.414454  0.258757  1
  Zn  Zn25  1  0.246245  0.419498  0.927280  1
  Zn  Zn26  1  0.760095  0.914453  0.241247  1
  Co  Co27  1  0.216551  0.417097  0.594550  1
  Co  Co28  1  0.759095  0.585539  0.741516  1
  Co  Co29  1  0.747100  0.919467  0.572975  1
  Co  Co30  1  0.747054  0.580510  0.072999  1
  Co  Co31  1  0.247077  0.080514  0.427025  1
  Co  Co32  1  0.259096  0.085542  0.758480  1
  Co  Co33  1  0.716541  0.917109  0.905449  1
  Co  Co34  1  0.716541  0.582909  0.405468  1
  Co  Co35  1  0.216539  0.082898  0.094529  1
  Cl  Cl36  1  0.024346  0.302952  0.918012  1
  Cl  Cl37  1  0.330389  0.567305  0.221539  1
  Cl  Cl38  1  0.486297  0.362044  0.572439  1
  Cl  Cl39  1  0.322009  0.055234  0.503273  1
  Cl  Cl40  1  0.676382  0.068555  0.610905  1
  Cl  Cl41  1  0.329567  0.934494  0.721943  1
  Cl  Cl42  1  0.026944  0.195575  0.418085  1
  Cl  Cl43  1  0.179751  0.062031  0.172788  1
  Cl  Cl44  1  0.679769  0.562013  0.327208  1
  Cl  Cl45  1  0.521049  0.799025  0.932325  1
  Cl  Cl46  1  0.830352  0.067299  0.278456  1
  Cl  Cl47  1  0.176322  0.931445  0.389088  1
  Cl  Cl48  1  0.527068  0.695621  0.081906  1
  Cl  Cl49  1  0.496928  0.358631  0.889688  1
  Cl  Cl50  1  0.526893  0.804440  0.581875  1
  Cl  Cl51  1  0.474835  0.294901  0.245650  1
  Cl  Cl52  1  0.472496  0.203498  0.745862  1
  Cl  Cl53  1  0.167393  0.568792  0.555997  1
  Cl  Cl54  1  0.972524  0.703509  0.754132  1
  Cl  Cl55  1  0.667338  0.431198  0.443982  1
  Cl  Cl56  1  0.690761  0.568556  0.664264  1
  Cl  Cl57  1  0.986243  0.862003  0.927590  1
  Cl  Cl58  1  0.829582  0.434505  0.778047  1
  Cl  Cl59  1  0.993673  0.859437  0.609772  1
  Cl  Cl60  1  0.007372  0.138088  0.722140  1
  Cl  Cl61  1  0.679690  0.938044  0.827244  1
  Cl  Cl62  1  0.175626  0.570336  0.888641  1
  Cl  Cl63  1  0.690022  0.931721  0.163375  1
  Cl  Cl64  1  0.004034  0.361193  0.221573  1
  Cl  Cl65  1  0.986247  0.638035  0.427518  1
  Cl  Cl66  1  0.676394  0.431412  0.110913  1
  Cl  Cl67  1  0.021094  0.201011  0.067698  1
  Cl  Cl68  1  0.504025  0.861196  0.278414  1
  Cl  Cl69  1  0.822107  0.555258  0.996716  1
  Cl  Cl70  1  0.486187  0.138115  0.072468  1
  Cl  Cl71  1  0.993566  0.640688  0.109785  1
  Cl  Cl72  1  0.179692  0.438060  0.672762  1
  Cl  Cl73  1  0.667354  0.068803  0.944008  1
  Cl  Cl74  1  0.493588  0.140627  0.390192  1
  Cl  Cl75  1  0.020993  0.299080  0.567691  1
  Cl  Cl76  1  0.974815  0.794888  0.254315  1
  Cl  Cl77  1  0.190021  0.431747  0.336621  1
  Cl  Cl78  1  0.521032  0.700929  0.432294  1
  Cl  Cl79  1  0.822026  0.944763  0.496729  1
  Cl  Cl80  1  0.190779  0.068545  0.835717  1
  Cl  Cl81  1  0.322877  0.445143  0.004177  1
  Cl  Cl82  1  0.167245  0.931140  0.056024  1
  Cl  Cl83  1  0.507347  0.638088  0.777862  1
