# generated using pymatgen
data_Y2ErZn3PdPt2
_symmetry_space_group_name_H-M   'P 1'
_cell_length_a   7.32109195
_cell_length_b   7.32109388
_cell_length_c   3.81432400
_cell_angle_alpha   90.00000000
_cell_angle_beta   90.00000000
_cell_angle_gamma   119.67224696
_symmetry_Int_Tables_number   1
_chemical_formula_structural   Y2ErZn3PdPt2
_chemical_formula_sum   'Y2 Er1 Zn3 Pd1 Pt2'
_cell_volume   177.63351989
_cell_formula_units_Z   1
loop_
 _symmetry_equiv_pos_site_id
 _symmetry_equiv_pos_as_xyz
  1  'x, y, z'
loop_
 _atom_site_type_symbol
 _atom_site_label
 _atom_site_symmetry_multiplicity
 _atom_site_fract_x
 _atom_site_fract_y
 _atom_site_fract_z
 _atom_site_occupancy
  Y  Y0  1  0.592086  0.999597  0.000000  1
  Y  Y1  1  0.999597  0.592086  0.000000  1
  Er  Er2  1  0.407046  0.407046  0.000000  1
  Zn  Zn3  1  0.253900  0.000824  0.500000  1
  Zn  Zn4  1  0.000824  0.253900  0.500000  1
  Zn  Zn5  1  0.746424  0.746424  0.500000  1
  Pd  Pd6  1  0.001699  0.001699  0.000000  1
  Pt  Pt7  1  0.334588  0.663836  0.500000  1
  Pt  Pt8  1  0.663836  0.334588  0.500000  1
