# generated using pymatgen
data_Zr4Re24Sn
_symmetry_space_group_name_H-M   'P 1'
_cell_length_a   8.49180145
_cell_length_b   8.49180112
_cell_length_c   8.49180100
_cell_angle_alpha   109.47122512
_cell_angle_beta   109.47122434
_cell_angle_gamma   109.47122108
_symmetry_Int_Tables_number   1
_chemical_formula_structural   Zr4Re24Sn
_chemical_formula_sum   'Zr4 Re24 Sn1'
_cell_volume   471.38690798
_cell_formula_units_Z   1
loop_
 _symmetry_equiv_pos_site_id
 _symmetry_equiv_pos_as_xyz
  1  'x, y, z'
loop_
 _atom_site_type_symbol
 _atom_site_label
 _atom_site_symmetry_multiplicity
 _atom_site_fract_x
 _atom_site_fract_y
 _atom_site_fract_z
 _atom_site_occupancy
  Zr  Zr0  1  0.630512  0.000000  0.000000  1
  Zr  Zr1  1  0.000000  0.630512  0.000000  1
  Zr  Zr2  1  0.000000  0.000000  0.630512  1
  Zr  Zr3  1  0.369488  0.369488  0.369488  1
  Re  Re4  1  0.394363  0.675844  0.000000  1
  Re  Re5  1  0.718519  0.324156  0.324156  1
  Re  Re6  1  0.394363  0.000000  0.675844  1
  Re  Re7  1  0.675844  0.394363  0.000000  1
  Re  Re8  1  0.000000  0.394363  0.675844  1
  Re  Re9  1  0.324156  0.718519  0.324156  1
  Re  Re10  1  0.324156  0.324156  0.718519  1
  Re  Re11  1  0.000000  0.675844  0.394363  1
  Re  Re12  1  0.675844  0.000000  0.394363  1
  Re  Re13  1  0.605637  0.605637  0.281481  1
  Re  Re14  1  0.281481  0.605637  0.605637  1
  Re  Re15  1  0.605637  0.281481  0.605637  1
  Re  Re16  1  0.377360  0.194771  0.000000  1
  Re  Re17  1  0.182588  0.805229  0.805229  1
  Re  Re18  1  0.377360  0.000000  0.194771  1
  Re  Re19  1  0.194771  0.377360  0.000000  1
  Re  Re20  1  0.000000  0.377360  0.194771  1
  Re  Re21  1  0.805229  0.182588  0.805229  1
  Re  Re22  1  0.805229  0.805229  0.182588  1
  Re  Re23  1  0.000000  0.194771  0.377360  1
  Re  Re24  1  0.194771  0.000000  0.377360  1
  Re  Re25  1  0.622640  0.622640  0.817412  1
  Re  Re26  1  0.817412  0.622640  0.622640  1
  Re  Re27  1  0.622640  0.817412  0.622640  1
  Sn  Sn28  1  0.000000  0.000000  0.000000  1
