# generated using pymatgen
data_Y2Ho14In6CuPd
_symmetry_space_group_name_H-M   'P 1'
_cell_length_a   10.51717800
_cell_length_b   10.51717859
_cell_length_c   6.89350400
_cell_angle_alpha   90.00000000
_cell_angle_beta   90.00000000
_cell_angle_gamma   119.99999816
_symmetry_Int_Tables_number   1
_chemical_formula_structural   Y2Ho14In6CuPd
_chemical_formula_sum   'Y2 Ho14 In6 Cu1 Pd1'
_cell_volume   660.34234007
_cell_formula_units_Z   1
loop_
 _symmetry_equiv_pos_site_id
 _symmetry_equiv_pos_as_xyz
  1  'x, y, z'
loop_
 _atom_site_type_symbol
 _atom_site_label
 _atom_site_symmetry_multiplicity
 _atom_site_fract_x
 _atom_site_fract_y
 _atom_site_fract_z
 _atom_site_occupancy
  Y  Y0  1  0.000000  0.000000  0.499423  1
  Y  Y1  1  0.000000  0.000000  0.994899  1
  Ho  Ho2  1  0.473206  0.526794  0.477629  1
  Ho  Ho3  1  0.053588  0.526794  0.477629  1
  Ho  Ho4  1  0.473206  0.946412  0.477629  1
  Ho  Ho5  1  0.527778  0.472222  0.979324  1
  Ho  Ho6  1  0.944445  0.472222  0.979324  1
  Ho  Ho7  1  0.527778  0.055555  0.979324  1
  Ho  Ho8  1  0.825136  0.174864  0.269042  1
  Ho  Ho9  1  0.349727  0.174864  0.269042  1
  Ho  Ho10  1  0.825136  0.650273  0.269042  1
  Ho  Ho11  1  0.175871  0.824129  0.767117  1
  Ho  Ho12  1  0.648258  0.824129  0.767117  1
  Ho  Ho13  1  0.175871  0.351742  0.767117  1
  Ho  Ho14  1  0.333333  0.666667  0.108623  1
  Ho  Ho15  1  0.666667  0.333333  0.607292  1
  In  In16  1  0.164301  0.835699  0.241671  1
  In  In17  1  0.671395  0.835699  0.241671  1
  In  In18  1  0.164301  0.328605  0.241671  1
  In  In19  1  0.837350  0.162650  0.740036  1
  In  In20  1  0.325299  0.162650  0.740036  1
  In  In21  1  0.837350  0.674701  0.740036  1
  Cu  Cu22  1  0.333333  0.666667  0.704784  1
  Pd  Pd23  1  0.666667  0.333333  0.205077  1
