# generated using pymatgen
data_NdDy4(SiHg)2
_symmetry_space_group_name_H-M   'P 1'
_cell_length_a   9.01835591
_cell_length_b   8.69099944
_cell_length_c   7.59765425
_cell_angle_alpha   89.87321824
_cell_angle_beta   89.99076132
_cell_angle_gamma   129.29693287
_symmetry_Int_Tables_number   1
_chemical_formula_structural   NdDy4(SiHg)2
_chemical_formula_sum   'Nd2 Dy8 Si4 Hg4'
_cell_volume   460.83450626
_cell_formula_units_Z   2
loop_
 _symmetry_equiv_pos_site_id
 _symmetry_equiv_pos_as_xyz
  1  'x, y, z'
loop_
 _atom_site_type_symbol
 _atom_site_label
 _atom_site_symmetry_multiplicity
 _atom_site_fract_x
 _atom_site_fract_y
 _atom_site_fract_z
 _atom_site_occupancy
  Nd  Nd0  1  0.062794  0.333391  0.321042  1
  Nd  Nd1  1  0.937206  0.666609  0.678958  1
  Dy  Dy2  1  0.435032  0.176275  0.824549  1
  Dy  Dy3  1  0.793920  0.546080  0.176982  1
  Dy  Dy4  1  0.564968  0.823725  0.175451  1
  Dy  Dy5  1  0.206080  0.453920  0.823018  1
  Dy  Dy6  1  0.708745  0.952656  0.679423  1
  Dy  Dy7  1  0.291255  0.047344  0.320577  1
  Dy  Dy8  1  0.000000  0.000000  0.000000  1
  Dy  Dy9  1  0.500000  0.500000  0.500000  1
  Si  Si10  1  0.382960  0.385583  0.118602  1
  Si  Si11  1  0.617040  0.614417  0.881398  1
  Si  Si12  1  0.119880  0.117903  0.621660  1
  Si  Si13  1  0.880120  0.882097  0.378340  1
  Hg  Hg14  1  0.795549  0.236202  0.981143  1
  Hg  Hg15  1  0.204451  0.763798  0.018857  1
  Hg  Hg16  1  0.681881  0.246925  0.486028  1
  Hg  Hg17  1  0.318119  0.753075  0.513972  1
