# generated using pymatgen
data_YHo2Sn3HgIr2
_symmetry_space_group_name_H-M   'P 1'
_cell_length_a   7.60354617
_cell_length_b   7.62054813
_cell_length_c   4.02344900
_cell_angle_alpha   90.00000000
_cell_angle_beta   90.00000000
_cell_angle_gamma   120.04604350
_symmetry_Int_Tables_number   1
_chemical_formula_structural   YHo2Sn3HgIr2
_chemical_formula_sum   'Y1 Ho2 Sn3 Hg1 Ir2'
_cell_volume   201.80403502
_cell_formula_units_Z   1
loop_
 _symmetry_equiv_pos_site_id
 _symmetry_equiv_pos_as_xyz
  1  'x, y, z'
loop_
 _atom_site_type_symbol
 _atom_site_label
 _atom_site_symmetry_multiplicity
 _atom_site_fract_x
 _atom_site_fract_y
 _atom_site_fract_z
 _atom_site_occupancy
  Y  Y0  1  0.390002  0.411071  0.500000  1
  Ho  Ho1  1  0.588575  0.977742  0.500000  1
  Ho  Ho2  1  0.022186  0.610923  0.500000  1
  Sn  Sn3  1  0.744828  0.752645  0.000000  1
  Sn  Sn4  1  0.247308  0.991684  0.000000  1
  Sn  Sn5  1  0.007728  0.255279  0.000000  1
  Hg  Hg6  1  0.667235  0.333350  0.000000  1
  Ir  Ir7  1  0.332942  0.668014  0.000000  1
  Ir  Ir8  1  0.999195  0.999292  0.500000  1
