# generated using pymatgen
data_Tb2FeAuO7
_symmetry_space_group_name_H-M   'P 1'
_cell_length_a   7.30597966
_cell_length_b   7.34753908
_cell_length_c   7.30601889
_cell_angle_alpha   59.80894834
_cell_angle_beta   59.59824872
_cell_angle_gamma   59.80908404
_symmetry_Int_Tables_number   1
_chemical_formula_structural   Tb2FeAuO7
_chemical_formula_sum   'Tb4 Fe2 Au2 O14'
_cell_volume   275.67541628
_cell_formula_units_Z   2
loop_
 _symmetry_equiv_pos_site_id
 _symmetry_equiv_pos_as_xyz
  1  'x, y, z'
loop_
 _atom_site_type_symbol
 _atom_site_label
 _atom_site_symmetry_multiplicity
 _atom_site_fract_x
 _atom_site_fract_y
 _atom_site_fract_z
 _atom_site_occupancy
  Tb  Tb0  1  0.500000  0.000000  0.500002  1
  Tb  Tb1  1  0.999999  0.499998  0.500002  1
  Tb  Tb2  1  0.500000  0.500000  0.000001  1
  Tb  Tb3  1  0.500001  0.500001  0.499999  1
  Fe  Fe4  1  0.000005  0.500004  0.999998  1
  Fe  Fe5  1  0.000004  0.000003  0.999998  1
  Au  Au6  1  0.499999  0.000001  0.000001  1
  Au  Au7  1  0.000000  0.000000  0.499999  1
  O  O8  1  0.622262  0.627722  0.622261  1
  O  O9  1  0.377739  0.372275  0.377742  1
  O  O10  1  0.339935  0.913240  0.908261  1
  O  O11  1  0.091751  0.661422  0.660050  1
  O  O12  1  0.914730  0.335278  0.914730  1
  O  O13  1  0.908262  0.913237  0.339936  1
  O  O14  1  0.339954  0.338580  0.908240  1
  O  O15  1  0.339701  0.910340  0.339702  1
  O  O16  1  0.908246  0.338579  0.339950  1
  O  O17  1  0.660047  0.661420  0.091758  1
  O  O18  1  0.091735  0.086762  0.660065  1
  O  O19  1  0.660064  0.086762  0.091739  1
  O  O20  1  0.660298  0.089661  0.660299  1
  O  O21  1  0.085271  0.664723  0.085268  1
