# generated using pymatgen
data_TaGaCl8
_symmetry_space_group_name_H-M   'P 1'
_cell_length_a   9.97059642
_cell_length_b   9.97059666
_cell_length_c   8.80956100
_cell_angle_alpha   90.00000000
_cell_angle_beta   90.00000000
_cell_angle_gamma   128.58040984
_symmetry_Int_Tables_number   1
_chemical_formula_structural   TaGaCl8
_chemical_formula_sum   'Ta2 Ga2 Cl16'
_cell_volume   684.62918614
_cell_formula_units_Z   2
loop_
 _symmetry_equiv_pos_site_id
 _symmetry_equiv_pos_as_xyz
  1  'x, y, z'
loop_
 _atom_site_type_symbol
 _atom_site_label
 _atom_site_symmetry_multiplicity
 _atom_site_fract_x
 _atom_site_fract_y
 _atom_site_fract_z
 _atom_site_occupancy
  Ta  Ta0  1  0.885133  0.114867  0.250000  1
  Ta  Ta1  1  0.114867  0.885133  0.750000  1
  Ga  Ga2  1  0.315907  0.684093  0.750000  1
  Ga  Ga3  1  0.684093  0.315907  0.250000  1
  Cl  Cl4  1  0.377405  0.622595  0.541856  1
  Cl  Cl5  1  0.622595  0.377405  0.458144  1
  Cl  Cl6  1  0.421293  0.965381  0.750000  1
  Cl  Cl7  1  0.965381  0.421293  0.250000  1
  Cl  Cl8  1  0.578707  0.034619  0.250000  1
  Cl  Cl9  1  0.034619  0.578707  0.750000  1
  Cl  Cl10  1  0.237976  0.167298  0.750000  1
  Cl  Cl11  1  0.167298  0.237976  0.250000  1
  Cl  Cl12  1  0.762024  0.832702  0.250000  1
  Cl  Cl13  1  0.832702  0.762024  0.750000  1
  Cl  Cl14  1  0.133241  0.866759  0.489270  1
  Cl  Cl15  1  0.866759  0.133241  0.510730  1
  Cl  Cl16  1  0.866759  0.133241  0.989270  1
  Cl  Cl17  1  0.133241  0.866759  0.010730  1
  Cl  Cl18  1  0.377405  0.622595  0.958144  1
  Cl  Cl19  1  0.622595  0.377405  0.041856  1
