# generated using pymatgen
data_ErNb(BiRh)2
_symmetry_space_group_name_H-M   'P 1'
_cell_length_a   4.59253300
_cell_length_b   6.47963100
_cell_length_c   9.14240000
_cell_angle_alpha   90.00000000
_cell_angle_beta   90.00000000
_cell_angle_gamma   90.00000000
_symmetry_Int_Tables_number   1
_chemical_formula_structural   ErNb(BiRh)2
_chemical_formula_sum   'Er2 Nb2 Bi4 Rh4'
_cell_volume   272.05880045
_cell_formula_units_Z   2
loop_
 _symmetry_equiv_pos_site_id
 _symmetry_equiv_pos_as_xyz
  1  'x, y, z'
loop_
 _atom_site_type_symbol
 _atom_site_label
 _atom_site_symmetry_multiplicity
 _atom_site_fract_x
 _atom_site_fract_y
 _atom_site_fract_z
 _atom_site_occupancy
  Er  Er0  1  0.000000  0.010773  0.374856  1
  Er  Er1  1  0.499999  0.510774  0.625144  1
  Nb  Nb2  1  0.499999  0.490518  0.121990  1
  Nb  Nb3  1  0.000000  0.990518  0.878010  1
  Bi  Bi4  1  0.499999  0.980516  0.126626  1
  Bi  Bi5  1  0.000000  0.514943  0.374455  1
  Bi  Bi6  1  0.499999  0.014943  0.625544  1
  Bi  Bi7  1  0.000000  0.480515  0.873374  1
  Rh  Rh8  1  0.000000  0.731911  0.109858  1
  Rh  Rh9  1  0.499999  0.271337  0.354334  1
  Rh  Rh10  1  0.000000  0.771338  0.645666  1
  Rh  Rh11  1  0.499999  0.231914  0.890142  1
