# generated using pymatgen
data_Lu5InGaBi
_symmetry_space_group_name_H-M   'P 1'
_cell_length_a   8.73490010
_cell_length_b   8.67511102
_cell_length_c   6.44865500
_cell_angle_alpha   90.00000000
_cell_angle_beta   90.00000000
_cell_angle_gamma   119.77384231
_symmetry_Int_Tables_number   1
_chemical_formula_structural   Lu5InGaBi
_chemical_formula_sum   'Lu10 In2 Ga2 Bi2'
_cell_volume   424.14853799
_cell_formula_units_Z   2
loop_
 _symmetry_equiv_pos_site_id
 _symmetry_equiv_pos_as_xyz
  1  'x, y, z'
loop_
 _atom_site_type_symbol
 _atom_site_label
 _atom_site_symmetry_multiplicity
 _atom_site_fract_x
 _atom_site_fract_y
 _atom_site_fract_z
 _atom_site_occupancy
  Lu  Lu0  1  0.690526  0.348206  0.007472  1
  Lu  Lu1  1  0.309474  0.657682  0.007472  1
  Lu  Lu2  1  0.309474  0.657682  0.492528  1
  Lu  Lu3  1  0.690526  0.348206  0.492528  1
  Lu  Lu4  1  0.777942  0.758712  0.750000  1
  Lu  Lu5  1  0.222058  0.980770  0.750000  1
  Lu  Lu6  1  0.000000  0.244640  0.750000  1
  Lu  Lu7  1  0.230045  0.239618  0.250000  1
  Lu  Lu8  1  0.769955  0.009573  0.250000  1
  Lu  Lu9  1  0.000000  0.760576  0.250000  1
  In  In10  1  0.599668  0.606628  0.250000  1
  In  In11  1  0.400332  0.006960  0.250000  1
  Ga  Ga12  1  0.000000  0.596075  0.750000  1
  Ga  Ga13  1  0.000000  0.395637  0.250000  1
  Bi  Bi14  1  0.399118  0.394076  0.750000  1
  Bi  Bi15  1  0.600882  0.994959  0.750000  1
