# generated using pymatgen
data_Hf6Ti3Re(Si3N)2
_symmetry_space_group_name_H-M   'P 1'
_cell_length_a   7.68558900
_cell_length_b   7.68558848
_cell_length_c   5.28151000
_cell_angle_alpha   90.00000000
_cell_angle_beta   90.00000000
_cell_angle_gamma   119.99999795
_symmetry_Int_Tables_number   1
_chemical_formula_structural   Hf6Ti3Re(Si3N)2
_chemical_formula_sum   'Hf6 Ti3 Re1 Si6 N2'
_cell_volume   270.17367462
_cell_formula_units_Z   1
loop_
 _symmetry_equiv_pos_site_id
 _symmetry_equiv_pos_as_xyz
  1  'x, y, z'
loop_
 _atom_site_type_symbol
 _atom_site_label
 _atom_site_symmetry_multiplicity
 _atom_site_fract_x
 _atom_site_fract_y
 _atom_site_fract_z
 _atom_site_occupancy
  Hf  Hf0  1  0.237129  0.999663  0.249594  1
  Hf  Hf1  1  0.762534  0.999663  0.750406  1
  Hf  Hf2  1  0.000337  0.237466  0.249594  1
  Hf  Hf3  1  0.000337  0.762871  0.750406  1
  Hf  Hf4  1  0.762534  0.762871  0.249594  1
  Hf  Hf5  1  0.237129  0.237466  0.750406  1
  Ti  Ti6  1  0.666667  0.333333  0.000000  1
  Ti  Ti7  1  0.666667  0.333333  0.500000  1
  Ti  Ti8  1  0.333333  0.666667  0.500000  1
  Re  Re9  1  0.333333  0.666667  0.000000  1
  Si  Si10  1  0.589230  0.998314  0.245940  1
  Si  Si11  1  0.409084  0.998314  0.754060  1
  Si  Si12  1  0.001686  0.590916  0.245940  1
  Si  Si13  1  0.001686  0.410770  0.754060  1
  Si  Si14  1  0.409084  0.410770  0.245940  1
  Si  Si15  1  0.589230  0.590916  0.754060  1
  N  N16  1  0.000000  0.000000  0.000000  1
  N  N17  1  0.000000  0.000000  0.500000  1
