# generated using pymatgen
data_Tb3Ce5(Ni2Sn)4
_symmetry_space_group_name_H-M   'P 1'
_cell_length_a   7.47457000
_cell_length_b   7.47456986
_cell_length_c   7.35796100
_cell_angle_alpha   90.00000000
_cell_angle_beta   90.00000000
_cell_angle_gamma   90.75379397
_symmetry_Int_Tables_number   1
_chemical_formula_structural   Tb3Ce5(Ni2Sn)4
_chemical_formula_sum   'Tb3 Ce5 Ni8 Sn4'
_cell_volume   411.04778687
_cell_formula_units_Z   1
loop_
 _symmetry_equiv_pos_site_id
 _symmetry_equiv_pos_as_xyz
  1  'x, y, z'
loop_
 _atom_site_type_symbol
 _atom_site_label
 _atom_site_symmetry_multiplicity
 _atom_site_fract_x
 _atom_site_fract_y
 _atom_site_fract_z
 _atom_site_occupancy
  Tb  Tb0  1  0.675029  0.321055  0.500000  1
  Tb  Tb1  1  0.321055  0.675029  0.500000  1
  Tb  Tb2  1  0.820639  0.820639  0.000000  1
  Ce  Ce3  1  0.180800  0.180800  0.000000  1
  Ce  Ce4  1  0.672894  0.327543  0.000000  1
  Ce  Ce5  1  0.827876  0.827876  0.500000  1
  Ce  Ce6  1  0.169782  0.169782  0.500000  1
  Ce  Ce7  1  0.327543  0.672894  0.000000  1
  Ni  Ni8  1  0.373358  0.373358  0.253598  1
  Ni  Ni9  1  0.881536  0.126743  0.765151  1
  Ni  Ni10  1  0.126743  0.881536  0.765151  1
  Ni  Ni11  1  0.622055  0.622055  0.261736  1
  Ni  Ni12  1  0.126743  0.881536  0.234849  1
  Ni  Ni13  1  0.881536  0.126743  0.234849  1
  Ni  Ni14  1  0.373358  0.373358  0.746402  1
  Ni  Ni15  1  0.622055  0.622055  0.738264  1
  Sn  Sn16  1  0.501736  0.996763  0.253232  1
  Sn  Sn17  1  0.501736  0.996763  0.746768  1
  Sn  Sn18  1  0.996763  0.501736  0.253232  1
  Sn  Sn19  1  0.996763  0.501736  0.746768  1
