# generated using pymatgen
data_Pr16NdTm3Pb16
_symmetry_space_group_name_H-M   'P 1'
_cell_length_a   8.42990800
_cell_length_b   8.54898600
_cell_length_c   16.28467900
_cell_angle_alpha   90.00000000
_cell_angle_beta   90.00000000
_cell_angle_gamma   89.99957107
_symmetry_Int_Tables_number   1
_chemical_formula_structural   Pr16NdTm3Pb16
_chemical_formula_sum   'Pr16 Nd1 Tm3 Pb16'
_cell_volume   1173.59065617
_cell_formula_units_Z   1
loop_
 _symmetry_equiv_pos_site_id
 _symmetry_equiv_pos_as_xyz
  1  'x, y, z'
loop_
 _atom_site_type_symbol
 _atom_site_label
 _atom_site_symmetry_multiplicity
 _atom_site_fract_x
 _atom_site_fract_y
 _atom_site_fract_z
 _atom_site_occupancy
  Pr  Pr0  1  0.378762  0.841794  0.881416  1
  Pr  Pr1  1  0.877028  0.659143  0.618464  1
  Pr  Pr2  1  0.622345  0.158571  0.380641  1
  Pr  Pr3  1  0.122236  0.341447  0.119988  1
  Pr  Pr4  1  0.622345  0.158571  0.119359  1
  Pr  Pr5  1  0.122236  0.341447  0.380012  1
  Pr  Pr6  1  0.378762  0.841794  0.618584  1
  Pr  Pr7  1  0.877028  0.659143  0.881536  1
  Pr  Pr8  1  0.533271  0.320865  0.899721  1
  Pr  Pr9  1  0.032454  0.176824  0.600511  1
  Pr  Pr10  1  0.466823  0.678030  0.398710  1
  Pr  Pr11  1  0.967057  0.821841  0.100732  1
  Pr  Pr12  1  0.466823  0.678030  0.101290  1
  Pr  Pr13  1  0.967057  0.821841  0.399268  1
  Pr  Pr14  1  0.533271  0.320865  0.600279  1
  Pr  Pr15  1  0.032454  0.176824  0.899489  1
  Nd  Nd16  1  0.208243  0.502398  0.750000  1
  Tm  Tm17  1  0.709476  0.995935  0.750000  1
  Tm  Tm18  1  0.790036  0.497050  0.250000  1
  Tm  Tm19  1  0.290394  0.003301  0.250000  1
  Pb  Pb20  1  0.281279  0.030819  0.046449  1
  Pb  Pb21  1  0.781475  0.469611  0.453561  1
  Pb  Pb22  1  0.719218  0.969676  0.545668  1
  Pb  Pb23  1  0.218681  0.532001  0.956249  1
  Pb  Pb24  1  0.719218  0.969676  0.954332  1
  Pb  Pb25  1  0.218681  0.532001  0.543751  1
  Pb  Pb26  1  0.281279  0.030819  0.453551  1
  Pb  Pb27  1  0.781475  0.469611  0.046439  1
  Pb  Pb28  1  0.576032  0.627419  0.750000  1
  Pb  Pb29  1  0.071131  0.878781  0.750000  1
  Pb  Pb30  1  0.428613  0.375005  0.250000  1
  Pb  Pb31  1  0.927959  0.124382  0.250000  1
  Pb  Pb32  1  0.344074  0.148016  0.750000  1
  Pb  Pb33  1  0.839688  0.345673  0.750000  1
  Pb  Pb34  1  0.656248  0.847180  0.250000  1
  Pb  Pb35  1  0.156851  0.653616  0.250000  1
