# generated using pymatgen
data_Cs4Na2CdSnSb4
_symmetry_space_group_name_H-M   'P 1'
_cell_length_a   10.20764622
_cell_length_b   10.20764456
_cell_length_c   10.20764644
_cell_angle_alpha   136.79391680
_cell_angle_beta   62.31917678
_cell_angle_gamma   137.36214219
_symmetry_Int_Tables_number   1
_chemical_formula_structural   Cs4Na2CdSnSb4
_chemical_formula_sum   'Cs4 Na2 Cd1 Sn1 Sb4'
_cell_volume   487.30531768
_cell_formula_units_Z   1
loop_
 _symmetry_equiv_pos_site_id
 _symmetry_equiv_pos_as_xyz
  1  'x, y, z'
loop_
 _atom_site_type_symbol
 _atom_site_label
 _atom_site_symmetry_multiplicity
 _atom_site_fract_x
 _atom_site_fract_y
 _atom_site_fract_z
 _atom_site_occupancy
  Cs  Cs0  1  0.332058  0.740256  0.065977  1
  Cs  Cs1  1  0.167942  0.233919  0.408197  1
  Cs  Cs2  1  0.825722  0.759745  0.591802  1
  Cs  Cs3  1  0.674279  0.266081  0.934024  1
  Na  Na4  1  0.250000  0.250000  0.000000  1
  Na  Na5  1  0.750000  0.750000  0.000000  1
  Cd  Cd6  1  0.749999  0.250000  0.500000  1
  Sn  Sn7  1  0.250000  0.750000  0.500000  1
  Sb  Sb8  1  0.914361  0.290876  0.189379  1
  Sb  Sb9  1  0.585640  0.775018  0.376514  1
  Sb  Sb10  1  0.398503  0.209125  0.623486  1
  Sb  Sb11  1  0.101496  0.724983  0.810621  1
