# generated using pymatgen
data_DyTm2Zr7Sn6
_symmetry_space_group_name_H-M   'P 1'
_cell_length_a   8.60517996
_cell_length_b   8.69108455
_cell_length_c   5.94354600
_cell_angle_alpha   90.00000000
_cell_angle_beta   90.00000000
_cell_angle_gamma   119.47450799
_symmetry_Int_Tables_number   1
_chemical_formula_structural   DyTm2Zr7Sn6
_chemical_formula_sum   'Dy1 Tm2 Zr7 Sn6'
_cell_volume   386.97739948
_cell_formula_units_Z   1
loop_
 _symmetry_equiv_pos_site_id
 _symmetry_equiv_pos_as_xyz
  1  'x, y, z'
loop_
 _atom_site_type_symbol
 _atom_site_label
 _atom_site_symmetry_multiplicity
 _atom_site_fract_x
 _atom_site_fract_y
 _atom_site_fract_z
 _atom_site_occupancy
  Dy  Dy0  1  0.233206  0.000980  0.250000  1
  Tm  Tm1  1  0.000401  0.755170  0.750000  1
  Tm  Tm2  1  0.764956  0.000988  0.750000  1
  Zr  Zr3  1  0.000057  0.248935  0.250000  1
  Zr  Zr4  1  0.746304  0.748023  0.250000  1
  Zr  Zr5  1  0.251278  0.252142  0.750000  1
  Zr  Zr6  1  0.334410  0.666295  0.499151  1
  Zr  Zr7  1  0.666139  0.331759  0.000705  1
  Zr  Zr8  1  0.666139  0.331759  0.499295  1
  Zr  Zr9  1  0.334410  0.666295  0.000849  1
  Sn  Sn10  1  0.396718  0.003117  0.750000  1
  Sn  Sn11  1  0.392971  0.395746  0.250000  1
  Sn  Sn12  1  0.996424  0.602348  0.250000  1
  Sn  Sn13  1  0.003249  0.394186  0.750000  1
  Sn  Sn14  1  0.602973  0.601877  0.750000  1
  Sn  Sn15  1  0.610368  0.000380  0.250000  1
