# generated using pymatgen
data_Y7Ho(LuSb)12
_symmetry_space_group_name_H-M   'P 1'
_cell_length_a   8.03963268
_cell_length_b   9.11271800
_cell_length_c   11.67378100
_cell_angle_alpha   90.00000000
_cell_angle_beta   90.02353225
_cell_angle_gamma   90.00000000
_symmetry_Int_Tables_number   1
_chemical_formula_structural   Y7Ho(LuSb)12
_chemical_formula_sum   'Y7 Ho1 Lu12 Sb12'
_cell_volume   855.25504115
_cell_formula_units_Z   1
loop_
 _symmetry_equiv_pos_site_id
 _symmetry_equiv_pos_as_xyz
  1  'x, y, z'
loop_
 _atom_site_type_symbol
 _atom_site_label
 _atom_site_symmetry_multiplicity
 _atom_site_fract_x
 _atom_site_fract_y
 _atom_site_fract_z
 _atom_site_occupancy
  Y  Y0  1  0.675450  0.250000  0.270966  1
  Y  Y1  1  0.824402  0.250000  0.770863  1
  Y  Y2  1  0.324441  0.750000  0.729109  1
  Y  Y3  1  0.658195  0.750000  0.290675  1
  Y  Y4  1  0.158342  0.250000  0.209262  1
  Y  Y5  1  0.341638  0.250000  0.709253  1
  Y  Y6  1  0.841469  0.750000  0.790806  1
  Ho  Ho7  1  0.176078  0.750000  0.229186  1
  Lu  Lu8  1  0.809843  0.938871  0.065801  1
  Lu  Lu9  1  0.309800  0.061096  0.434250  1
  Lu  Lu10  1  0.190129  0.438837  0.934174  1
  Lu  Lu11  1  0.690167  0.561200  0.565726  1
  Lu  Lu12  1  0.190129  0.061163  0.934174  1
  Lu  Lu13  1  0.690167  0.938800  0.565726  1
  Lu  Lu14  1  0.809843  0.561129  0.065801  1
  Lu  Lu15  1  0.309800  0.438904  0.434250  1
  Lu  Lu16  1  0.524461  0.250000  0.995689  1
  Lu  Lu17  1  0.024626  0.750000  0.504060  1
  Lu  Lu18  1  0.475378  0.750000  0.004453  1
  Lu  Lu19  1  0.975553  0.250000  0.495651  1
  Sb  Sb20  1  0.937833  0.990989  0.327113  1
  Sb  Sb21  1  0.436736  0.008391  0.172622  1
  Sb  Sb22  1  0.062758  0.491428  0.672536  1
  Sb  Sb23  1  0.562761  0.508641  0.827496  1
  Sb  Sb24  1  0.062758  0.008572  0.672536  1
  Sb  Sb25  1  0.562761  0.991359  0.827496  1
  Sb  Sb26  1  0.937833  0.509011  0.327113  1
  Sb  Sb27  1  0.436736  0.491609  0.172622  1
  Sb  Sb28  1  0.901294  0.250000  0.025174  1
  Sb  Sb29  1  0.401173  0.750000  0.474694  1
  Sb  Sb30  1  0.098690  0.750000  0.975489  1
  Sb  Sb31  1  0.598756  0.250000  0.525235  1
