# generated using pymatgen
data_TbHoTcC2
_symmetry_space_group_name_H-M   'P 1'
_cell_length_a   5.10280300
_cell_length_b   6.58667900
_cell_length_c   9.86847900
_cell_angle_alpha   90.00000000
_cell_angle_beta   90.00000000
_cell_angle_gamma   90.00000000
_symmetry_Int_Tables_number   1
_chemical_formula_structural   TbHoTcC2
_chemical_formula_sum   'Tb4 Ho4 Tc4 C8'
_cell_volume   331.68476371
_cell_formula_units_Z   4
loop_
 _symmetry_equiv_pos_site_id
 _symmetry_equiv_pos_as_xyz
  1  'x, y, z'
loop_
 _atom_site_type_symbol
 _atom_site_label
 _atom_site_symmetry_multiplicity
 _atom_site_fract_x
 _atom_site_fract_y
 _atom_site_fract_z
 _atom_site_occupancy
  Tb  Tb0  1  0.750000  0.468628  0.784611  1
  Tb  Tb1  1  0.250000  0.031372  0.284611  1
  Tb  Tb2  1  0.750000  0.968628  0.715389  1
  Tb  Tb3  1  0.250000  0.531372  0.215389  1
  Ho  Ho4  1  0.750000  0.822238  0.057251  1
  Ho  Ho5  1  0.250000  0.677762  0.557251  1
  Ho  Ho6  1  0.750000  0.322238  0.442749  1
  Ho  Ho7  1  0.250000  0.177762  0.942749  1
  Tc  Tc8  1  0.750000  0.278166  0.134665  1
  Tc  Tc9  1  0.250000  0.221834  0.634665  1
  Tc  Tc10  1  0.750000  0.778166  0.365335  1
  Tc  Tc11  1  0.250000  0.721834  0.865335  1
  C  C12  1  0.750000  0.176500  0.952021  1
  C  C13  1  0.250000  0.823500  0.047979  1
  C  C14  1  0.750000  0.676500  0.547979  1
  C  C15  1  0.250000  0.323500  0.452021  1
  C  C16  1  0.750000  0.045407  0.258991  1
  C  C17  1  0.250000  0.454593  0.758991  1
  C  C18  1  0.750000  0.545407  0.241009  1
  C  C19  1  0.250000  0.954593  0.741009  1
