# generated using pymatgen
data_Zr6Zn18GePd5
_symmetry_space_group_name_H-M   'P 1'
_cell_length_a   8.81672712
_cell_length_b   8.81672658
_cell_length_c   8.81672700
_cell_angle_alpha   59.78788857
_cell_angle_beta   59.78788308
_cell_angle_gamma   59.78788819
_symmetry_Int_Tables_number   1
_chemical_formula_structural   Zr6Zn18GePd5
_chemical_formula_sum   'Zr6 Zn18 Ge1 Pd5'
_cell_volume   482.29278342
_cell_formula_units_Z   1
loop_
 _symmetry_equiv_pos_site_id
 _symmetry_equiv_pos_as_xyz
  1  'x, y, z'
loop_
 _atom_site_type_symbol
 _atom_site_label
 _atom_site_symmetry_multiplicity
 _atom_site_fract_x
 _atom_site_fract_y
 _atom_site_fract_z
 _atom_site_occupancy
  Zr  Zr0  1  0.720106  0.284420  0.284420  1
  Zr  Zr1  1  0.279894  0.715580  0.715580  1
  Zr  Zr2  1  0.284420  0.720106  0.284420  1
  Zr  Zr3  1  0.715580  0.279894  0.715580  1
  Zr  Zr4  1  0.284420  0.284420  0.720106  1
  Zr  Zr5  1  0.715580  0.715580  0.279894  1
  Zn  Zn6  1  0.122906  0.122906  0.631608  1
  Zn  Zn7  1  0.122906  0.631608  0.122906  1
  Zn  Zn8  1  0.877094  0.877094  0.368392  1
  Zn  Zn9  1  0.877094  0.368392  0.877094  1
  Zn  Zn10  1  0.631608  0.122906  0.122906  1
  Zn  Zn11  1  0.368392  0.877094  0.877094  1
  Zn  Zn12  1  0.500000  0.000000  0.000000  1
  Zn  Zn13  1  0.000000  0.500000  0.000000  1
  Zn  Zn14  1  0.000000  0.000000  0.500000  1
  Zn  Zn15  1  0.339176  0.339176  0.339176  1
  Zn  Zn16  1  0.660824  0.660824  0.660824  1
  Zn  Zn17  1  0.333639  0.333639  0.995141  1
  Zn  Zn18  1  0.333639  0.995141  0.333639  1
  Zn  Zn19  1  0.666361  0.666361  0.004859  1
  Zn  Zn20  1  0.666361  0.004859  0.666361  1
  Zn  Zn21  1  0.995141  0.333639  0.333639  1
  Zn  Zn22  1  0.004859  0.666361  0.666361  1
  Zn  Zn23  1  0.000000  0.000000  0.000000  1
  Ge  Ge24  1  0.500000  0.500000  0.500000  1
  Pd  Pd25  1  0.119048  0.119048  0.119048  1
  Pd  Pd26  1  0.880952  0.880952  0.880952  1
  Pd  Pd27  1  0.000000  0.500000  0.500000  1
  Pd  Pd28  1  0.500000  0.000000  0.500000  1
  Pd  Pd29  1  0.500000  0.500000  0.000000  1
