# generated using pymatgen
data_Dy3Al2PtC
_symmetry_space_group_name_H-M   'P 1'
_cell_length_a   9.03052132
_cell_length_b   9.03063025
_cell_length_c   9.03051300
_cell_angle_alpha   59.99975183
_cell_angle_beta   59.99969712
_cell_angle_gamma   59.99973944
_symmetry_Int_Tables_number   1
_chemical_formula_structural   Dy3Al2PtC
_chemical_formula_sum   'Dy12 Al8 Pt4 C4'
_cell_volume   520.74564120
_cell_formula_units_Z   4
loop_
 _symmetry_equiv_pos_site_id
 _symmetry_equiv_pos_as_xyz
  1  'x, y, z'
loop_
 _atom_site_type_symbol
 _atom_site_label
 _atom_site_symmetry_multiplicity
 _atom_site_fract_x
 _atom_site_fract_y
 _atom_site_fract_z
 _atom_site_occupancy
  Dy  Dy0  1  0.552415  0.947587  0.552414  1
  Dy  Dy1  1  0.302406  0.697585  0.697598  1
  Dy  Dy2  1  0.697594  0.302409  0.302409  1
  Dy  Dy3  1  0.302404  0.697594  0.302407  1
  Dy  Dy4  1  0.697596  0.697586  0.302407  1
  Dy  Dy5  1  0.302411  0.302413  0.697593  1
  Dy  Dy6  1  0.552407  0.552418  0.947589  1
  Dy  Dy7  1  0.947590  0.552418  0.552406  1
  Dy  Dy8  1  0.552409  0.947587  0.947587  1
  Dy  Dy9  1  0.947585  0.947582  0.552412  1
  Dy  Dy10  1  0.697589  0.302409  0.697589  1
  Dy  Dy11  1  0.947591  0.552410  0.947589  1
  Al  Al12  1  0.923933  0.923941  0.923937  1
  Al  Al13  1  0.021807  0.326062  0.326070  1
  Al  Al14  1  0.326074  0.021793  0.326072  1
  Al  Al15  1  0.326073  0.326060  0.021809  1
  Al  Al16  1  0.923931  0.228193  0.923932  1
  Al  Al17  1  0.923932  0.923945  0.228177  1
  Al  Al18  1  0.228178  0.923943  0.923935  1
  Al  Al19  1  0.326072  0.326064  0.326068  1
  Pt  Pt20  1  0.125000  0.125000  0.125000  1
  Pt  Pt21  1  0.625001  0.125000  0.125000  1
  Pt  Pt22  1  0.125000  0.625000  0.125000  1
  Pt  Pt23  1  0.125000  0.125000  0.625000  1
  C  C24  1  0.625000  0.625000  0.625000  1
  C  C25  1  0.125001  0.625000  0.625000  1
  C  C26  1  0.625000  0.125001  0.625000  1
  C  C27  1  0.625000  0.625001  0.125000  1
