# generated using pymatgen
data_Ba2GaIrI
_symmetry_space_group_name_H-M   'P 1'
_cell_length_a   4.46816900
_cell_length_b   4.46816627
_cell_length_c   19.61969500
_cell_angle_alpha   90.00000000
_cell_angle_beta   90.00000000
_cell_angle_gamma   120.00001280
_symmetry_Int_Tables_number   1
_chemical_formula_structural   Ba2GaIrI
_chemical_formula_sum   'Ba4 Ga2 Ir2 I2'
_cell_volume   339.22023009
_cell_formula_units_Z   2
loop_
 _symmetry_equiv_pos_site_id
 _symmetry_equiv_pos_as_xyz
  1  'x, y, z'
loop_
 _atom_site_type_symbol
 _atom_site_label
 _atom_site_symmetry_multiplicity
 _atom_site_fract_x
 _atom_site_fract_y
 _atom_site_fract_z
 _atom_site_occupancy
  Ba  Ba0  1  0.000000  0.000000  0.387254  1
  Ba  Ba1  1  0.000000  0.000000  0.887254  1
  Ba  Ba2  1  0.000000  0.000000  0.613205  1
  Ba  Ba3  1  0.000000  0.000000  0.113205  1
  Ga  Ga4  1  0.333333  0.666667  0.500382  1
  Ga  Ga5  1  0.666667  0.333333  0.000382  1
  Ir  Ir6  1  0.666667  0.333333  0.499659  1
  Ir  Ir7  1  0.333333  0.666667  0.999659  1
  I  I8  1  0.333333  0.666667  0.249501  1
  I  I9  1  0.666667  0.333333  0.749501  1
