# generated using pymatgen
data_Ta4GaCo
_symmetry_space_group_name_H-M   'P 1'
_cell_length_a   6.25882600
_cell_length_b   6.25882600
_cell_length_c   5.03274700
_cell_angle_alpha   90.00000000
_cell_angle_beta   90.00000000
_cell_angle_gamma   90.00000000
_symmetry_Int_Tables_number   1
_chemical_formula_structural   Ta4GaCo
_chemical_formula_sum   'Ta8 Ga2 Co2'
_cell_volume   197.14730954
_cell_formula_units_Z   2
loop_
 _symmetry_equiv_pos_site_id
 _symmetry_equiv_pos_as_xyz
  1  'x, y, z'
loop_
 _atom_site_type_symbol
 _atom_site_label
 _atom_site_symmetry_multiplicity
 _atom_site_fract_x
 _atom_site_fract_y
 _atom_site_fract_z
 _atom_site_occupancy
  Ta  Ta0  1  0.669357  0.145384  0.000000  1
  Ta  Ta1  1  0.145384  0.330644  0.000000  1
  Ta  Ta2  1  0.854616  0.669357  0.000000  1
  Ta  Ta3  1  0.330644  0.854616  0.000000  1
  Ta  Ta4  1  0.330644  0.145384  0.500000  1
  Ta  Ta5  1  0.854616  0.330644  0.500000  1
  Ta  Ta6  1  0.145384  0.669357  0.500000  1
  Ta  Ta7  1  0.669357  0.854616  0.500000  1
  Ga  Ga8  1  0.500000  0.500000  0.250000  1
  Ga  Ga9  1  0.500000  0.500000  0.749999  1
  Co  Co10  1  0.000000  0.000000  0.250000  1
  Co  Co11  1  0.000000  0.000000  0.749999  1
