# generated using pymatgen
data_YEr3BBr6
_symmetry_space_group_name_H-M   'P 1'
_cell_length_a   3.93615500
_cell_length_b   13.09913841
_cell_length_c   13.55634565
_cell_angle_alpha   90.25895139
_cell_angle_beta   90.00000000
_cell_angle_gamma   90.00000000
_symmetry_Int_Tables_number   1
_chemical_formula_structural   YEr3BBr6
_chemical_formula_sum   'Y2 Er6 B2 Br12'
_cell_volume   698.96128504
_cell_formula_units_Z   2
loop_
 _symmetry_equiv_pos_site_id
 _symmetry_equiv_pos_as_xyz
  1  'x, y, z'
loop_
 _atom_site_type_symbol
 _atom_site_label
 _atom_site_symmetry_multiplicity
 _atom_site_fract_x
 _atom_site_fract_y
 _atom_site_fract_z
 _atom_site_occupancy
  Y  Y0  1  0.500000  0.123044  0.855430  1
  Y  Y1  1  0.500000  0.876956  0.144570  1
  Er  Er2  1  0.000000  0.100960  0.080418  1
  Er  Er3  1  0.000000  0.899040  0.919582  1
  Er  Er4  1  0.000000  0.600446  0.420119  1
  Er  Er5  1  0.000000  0.399554  0.579881  1
  Er  Er6  1  0.500000  0.622199  0.643594  1
  Er  Er7  1  0.500000  0.377801  0.356406  1
  B  B8  1  0.500000  0.000000  0.000000  1
  B  B9  1  0.500000  0.500000  0.500000  1
  Br  Br10  1  0.500000  0.269757  0.681017  1
  Br  Br11  1  0.500000  0.730243  0.318983  1
  Br  Br12  1  0.500000  0.768350  0.816991  1
  Br  Br13  1  0.500000  0.231650  0.183009  1
  Br  Br14  1  0.000000  0.262293  0.933686  1
  Br  Br15  1  0.000000  0.737707  0.066314  1
  Br  Br16  1  0.000000  0.479959  0.240080  1
  Br  Br17  1  0.000000  0.520041  0.759920  1
  Br  Br18  1  0.000000  0.983058  0.261660  1
  Br  Br19  1  0.000000  0.016942  0.738340  1
  Br  Br20  1  0.000000  0.239906  0.431058  1
  Br  Br21  1  0.000000  0.760094  0.568942  1
