# generated using pymatgen
data_Ca10DyReN10
_symmetry_space_group_name_H-M   'P 1'
_cell_length_a   7.09712257
_cell_length_b   7.09712199
_cell_length_c   8.95784772
_cell_angle_alpha   80.43078034
_cell_angle_beta   80.43077971
_cell_angle_gamma   59.82645260
_symmetry_Int_Tables_number   1
_chemical_formula_structural   Ca10DyReN10
_chemical_formula_sum   'Ca10 Dy1 Re1 N10'
_cell_volume   382.82370203
_cell_formula_units_Z   1
loop_
 _symmetry_equiv_pos_site_id
 _symmetry_equiv_pos_as_xyz
  1  'x, y, z'
loop_
 _atom_site_type_symbol
 _atom_site_label
 _atom_site_symmetry_multiplicity
 _atom_site_fract_x
 _atom_site_fract_y
 _atom_site_fract_z
 _atom_site_occupancy
  Ca  Ca0  1  0.873440  0.362844  0.823865  1
  Ca  Ca1  1  0.873398  0.873398  0.811312  1
  Ca  Ca2  1  0.737232  0.737232  0.530908  1
  Ca  Ca3  1  0.745276  0.259101  0.514948  1
  Ca  Ca4  1  0.622985  0.140273  0.150978  1
  Ca  Ca5  1  0.362844  0.873440  0.823865  1
  Ca  Ca6  1  0.259101  0.745276  0.514948  1
  Ca  Ca7  1  0.240389  0.240389  0.503672  1
  Ca  Ca8  1  0.141334  0.141334  0.160571  1
  Ca  Ca9  1  0.140273  0.622985  0.150978  1
  Dy  Dy10  1  0.369605  0.369605  0.784284  1
  Re  Re11  1  0.631792  0.631792  0.227246  1
  N  N12  1  0.897983  0.475441  0.313907  1
  N  N13  1  0.991526  0.991526  0.027571  1
  N  N14  1  0.673335  0.673335  0.021013  1
  N  N15  1  0.553629  0.553629  0.681927  1
  N  N16  1  0.475441  0.897983  0.313907  1
  N  N17  1  0.554448  0.064169  0.658913  1
  N  N18  1  0.478760  0.478760  0.296527  1
  N  N19  1  0.314895  0.314895  0.031924  1
  N  N20  1  0.060433  0.060433  0.643630  1
  N  N21  1  0.064169  0.554448  0.658913  1
