# generated using pymatgen
data_Nd10SnBi5Br2
_symmetry_space_group_name_H-M   'P 1'
_cell_length_a   9.60961812
_cell_length_b   9.60961861
_cell_length_c   6.73720500
_cell_angle_alpha   90.00000000
_cell_angle_beta   90.00000000
_cell_angle_gamma   119.81622392
_symmetry_Int_Tables_number   1
_chemical_formula_structural   Nd10SnBi5Br2
_chemical_formula_sum   'Nd10 Sn1 Bi5 Br2'
_cell_volume   539.78889801
_cell_formula_units_Z   1
loop_
 _symmetry_equiv_pos_site_id
 _symmetry_equiv_pos_as_xyz
  1  'x, y, z'
loop_
 _atom_site_type_symbol
 _atom_site_label
 _atom_site_symmetry_multiplicity
 _atom_site_fract_x
 _atom_site_fract_y
 _atom_site_fract_z
 _atom_site_occupancy
  Nd  Nd0  1  0.664908  0.333848  0.001199  1
  Nd  Nd1  1  0.333848  0.664908  0.498801  1
  Nd  Nd2  1  0.664908  0.333848  0.498801  1
  Nd  Nd3  1  0.333848  0.664908  0.001199  1
  Nd  Nd4  1  0.727944  0.999813  0.750000  1
  Nd  Nd5  1  0.724945  0.724945  0.250000  1
  Nd  Nd6  1  0.004962  0.273274  0.250000  1
  Nd  Nd7  1  0.999813  0.727944  0.750000  1
  Nd  Nd8  1  0.272696  0.272696  0.750000  1
  Nd  Nd9  1  0.273274  0.004962  0.250000  1
  Sn  Sn10  1  0.387447  0.387447  0.250000  1
  Bi  Bi11  1  0.612878  0.612878  0.750000  1
  Bi  Bi12  1  0.000876  0.614867  0.250000  1
  Bi  Bi13  1  0.614867  0.000876  0.250000  1
  Bi  Bi14  1  0.385890  0.999815  0.750000  1
  Bi  Bi15  1  0.999815  0.385890  0.750000  1
  Br  Br16  1  0.998541  0.998541  0.500382  1
  Br  Br17  1  0.998541  0.998541  0.999618  1
