# generated using pymatgen
data_Sr6TaNiRuO12
_symmetry_space_group_name_H-M   'P 1'
_cell_length_a   8.89820704
_cell_length_b   8.89820752
_cell_length_c   6.96905990
_cell_angle_alpha   67.52019695
_cell_angle_beta   67.52019593
_cell_angle_gamma   36.94068039
_symmetry_Int_Tables_number   1
_chemical_formula_structural   Sr6TaNiRuO12
_chemical_formula_sum   'Sr6 Ta1 Ni1 Ru1 O12'
_cell_volume   303.48352015
_cell_formula_units_Z   1
loop_
 _symmetry_equiv_pos_site_id
 _symmetry_equiv_pos_as_xyz
  1  'x, y, z'
loop_
 _atom_site_type_symbol
 _atom_site_label
 _atom_site_symmetry_multiplicity
 _atom_site_fract_x
 _atom_site_fract_y
 _atom_site_fract_z
 _atom_site_occupancy
  Sr  Sr0  1  0.205808  0.205808  0.705501  1
  Sr  Sr1  1  0.890173  0.890173  0.709216  1
  Sr  Sr2  1  0.546719  0.546719  0.711995  1
  Sr  Sr3  1  0.795486  0.795486  0.291000  1
  Sr  Sr4  1  0.449297  0.449297  0.288502  1
  Sr  Sr5  1  0.110201  0.110201  0.293555  1
  Ta  Ta6  1  0.665411  0.665411  0.001358  1
  Ni  Ni7  1  0.000907  0.000907  0.999891  1
  Ru  Ru8  1  0.335007  0.335007  0.998838  1
  O  O9  1  0.280574  0.280574  0.316903  1
  O  O10  1  0.943085  0.943085  0.334222  1
  O  O11  1  0.614215  0.614215  0.318454  1
  O  O12  1  0.720475  0.720475  0.681300  1
  O  O13  1  0.385745  0.385745  0.683391  1
  O  O14  1  0.055817  0.055817  0.666475  1
  O  O15  1  0.001585  0.499757  0.999799  1
  O  O16  1  0.656474  0.172198  0.000636  1
  O  O17  1  0.340699  0.830365  0.999264  1
  O  O18  1  0.499757  0.001585  0.999799  1
  O  O19  1  0.172198  0.656474  0.000636  1
  O  O20  1  0.830365  0.340699  0.999264  1
