# generated using pymatgen
data_Ti6NbAl5Ru12
_symmetry_space_group_name_H-M   'P 1'
_cell_length_a   4.32005700
_cell_length_b   6.15684000
_cell_length_c   12.97957900
_cell_angle_alpha   90.00000000
_cell_angle_beta   89.99825504
_cell_angle_gamma   90.00000000
_symmetry_Int_Tables_number   1
_chemical_formula_structural   Ti6NbAl5Ru12
_chemical_formula_sum   'Ti6 Nb1 Al5 Ru12'
_cell_volume   345.22954083
_cell_formula_units_Z   1
loop_
 _symmetry_equiv_pos_site_id
 _symmetry_equiv_pos_as_xyz
  1  'x, y, z'
loop_
 _atom_site_type_symbol
 _atom_site_label
 _atom_site_symmetry_multiplicity
 _atom_site_fract_x
 _atom_site_fract_y
 _atom_site_fract_z
 _atom_site_occupancy
  Ti  Ti0  1  0.000000  0.499999  0.000000  1
  Ti  Ti1  1  0.499868  0.000000  0.175989  1
  Ti  Ti2  1  0.999869  0.499999  0.336033  1
  Ti  Ti3  1  0.500000  0.000000  0.500000  1
  Ti  Ti4  1  0.000132  0.499999  0.663967  1
  Ti  Ti5  1  0.500133  0.000000  0.824011  1
  Nb  Nb6  1  0.000000  0.000000  0.000000  1
  Al  Al7  1  0.499834  0.499999  0.168038  1
  Al  Al8  1  0.999859  0.000000  0.335228  1
  Al  Al9  1  0.500000  0.499999  0.500000  1
  Al  Al10  1  0.000142  0.000000  0.664772  1
  Al  Al11  1  0.500166  0.499999  0.831962  1
  Ru  Ru12  1  0.500000  0.251950  0.000000  1
  Ru  Ru13  1  0.500000  0.748049  0.000000  1
  Ru  Ru14  1  0.999890  0.250326  0.165987  1
  Ru  Ru15  1  0.999890  0.749674  0.165987  1
  Ru  Ru16  1  0.499877  0.251277  0.333464  1
  Ru  Ru17  1  0.499877  0.748724  0.333464  1
  Ru  Ru18  1  0.000000  0.250621  0.500000  1
  Ru  Ru19  1  0.000000  0.749379  0.500000  1
  Ru  Ru20  1  0.500121  0.251277  0.666536  1
  Ru  Ru21  1  0.500121  0.748724  0.666536  1
  Ru  Ru22  1  0.000111  0.250326  0.834013  1
  Ru  Ru23  1  0.000111  0.749674  0.834013  1
