# generated using pymatgen
data_HoEr5(BCl3)2
_symmetry_space_group_name_H-M   'P 1'
_cell_length_a   9.35868995
_cell_length_b   9.35869023
_cell_length_c   9.35840320
_cell_angle_alpha   109.48762881
_cell_angle_beta   109.44746550
_cell_angle_gamma   109.47980884
_symmetry_Int_Tables_number   1
_chemical_formula_structural   HoEr5(BCl3)2
_chemical_formula_sum   'Ho2 Er10 B4 Cl12'
_cell_volume   630.96213317
_cell_formula_units_Z   2
loop_
 _symmetry_equiv_pos_site_id
 _symmetry_equiv_pos_as_xyz
  1  'x, y, z'
loop_
 _atom_site_type_symbol
 _atom_site_label
 _atom_site_symmetry_multiplicity
 _atom_site_fract_x
 _atom_site_fract_y
 _atom_site_fract_z
 _atom_site_occupancy
  Ho  Ho0  1  0.468583  0.484359  0.234315  1
  Ho  Ho1  1  0.750044  0.234268  0.265685  1
  Er  Er2  1  0.749939  0.015939  0.483877  1
  Er  Er3  1  0.233878  0.467762  0.483833  1
  Er  Er4  1  0.265988  0.749907  0.233892  1
  Er  Er5  1  0.032062  0.266061  0.016123  1
  Er  Er6  1  0.016015  0.032096  0.266108  1
  Er  Er7  1  0.483929  0.750045  0.016167  1
  Er  Er8  1  0.483780  0.233775  0.467749  1
  Er  Er9  1  0.016038  0.483937  0.749948  1
  Er  Er10  1  0.266025  0.016031  0.032251  1
  Er  Er11  1  0.233989  0.266090  0.750052  1
  B  B12  1  0.249688  0.249659  0.249990  1
  B  B13  1  0.499668  0.999697  0.250010  1
  B  B14  1  0.000322  0.250003  0.500349  1
  B  B15  1  0.249654  0.499973  0.999651  1
  Cl  Cl16  1  0.250004  0.755621  0.744304  1
  Cl  Cl17  1  0.511318  0.505700  0.755696  1
  Cl  Cl18  1  0.988639  0.744322  0.994315  1
  Cl  Cl19  1  0.744333  0.249975  0.755675  1
  Cl  Cl20  1  0.994300  0.988657  0.744325  1
  Cl  Cl21  1  0.250007  0.994325  0.505685  1
  Cl  Cl22  1  0.755943  0.511612  0.506329  1
  Cl  Cl23  1  0.505282  0.249614  0.993671  1
  Cl  Cl24  1  0.755967  0.744637  0.249977  1
  Cl  Cl25  1  0.744275  0.993947  0.988275  1
  Cl  Cl26  1  0.994660  0.505989  0.250023  1
  Cl  Cl27  1  0.505671  0.755999  0.511725  1
