# generated using pymatgen
data_Tb10Pr9ErPb16
_symmetry_space_group_name_H-M   'P 1'
_cell_length_a   8.34274590
_cell_length_b   8.42521233
_cell_length_c   15.96886000
_cell_angle_alpha   90.08828432
_cell_angle_beta   90.33181654
_cell_angle_gamma   90.46853797
_symmetry_Int_Tables_number   1
_chemical_formula_structural   Tb10Pr9ErPb16
_chemical_formula_sum   'Tb10 Pr9 Er1 Pb16'
_cell_volume   1122.38391082
_cell_formula_units_Z   1
loop_
 _symmetry_equiv_pos_site_id
 _symmetry_equiv_pos_as_xyz
  1  'x, y, z'
loop_
 _atom_site_type_symbol
 _atom_site_label
 _atom_site_symmetry_multiplicity
 _atom_site_fract_x
 _atom_site_fract_y
 _atom_site_fract_z
 _atom_site_occupancy
  Tb  Tb0  1  0.633525  0.158942  0.622655  1
  Tb  Tb1  1  0.134291  0.341549  0.878375  1
  Tb  Tb2  1  0.366403  0.841939  0.122078  1
  Tb  Tb3  1  0.866793  0.657700  0.378139  1
  Tb  Tb4  1  0.369637  0.842015  0.375833  1
  Tb  Tb5  1  0.865992  0.659194  0.122236  1
  Tb  Tb6  1  0.633003  0.158465  0.879460  1
  Tb  Tb7  1  0.799155  0.495045  0.751009  1
  Tb  Tb8  1  0.300534  0.004141  0.750512  1
  Tb  Tb9  1  0.200220  0.505217  0.249068  1
  Pr  Pr10  1  0.129932  0.339522  0.619437  1
  Pr  Pr11  1  0.473158  0.679009  0.598875  1
  Pr  Pr12  1  0.975476  0.822436  0.903899  1
  Pr  Pr13  1  0.524796  0.322413  0.097645  1
  Pr  Pr14  1  0.026979  0.176420  0.399740  1
  Pr  Pr15  1  0.524775  0.322508  0.401023  1
  Pr  Pr16  1  0.024422  0.177455  0.097807  1
  Pr  Pr17  1  0.476292  0.678555  0.902704  1
  Pr  Pr18  1  0.974459  0.822652  0.598377  1
  Er  Er19  1  0.701136  0.995167  0.250061  1
  Pb  Pb20  1  0.708532  0.961701  0.456075  1
  Pb  Pb21  1  0.205623  0.539483  0.043307  1
  Pb  Pb22  1  0.293908  0.040038  0.956898  1
  Pb  Pb23  1  0.783999  0.464455  0.543322  1
  Pb  Pb24  1  0.296917  0.033332  0.542552  1
  Pb  Pb25  1  0.794909  0.460829  0.956699  1
  Pb  Pb26  1  0.706248  0.960320  0.044617  1
  Pb  Pb27  1  0.208192  0.542009  0.453169  1
  Pb  Pb28  1  0.438789  0.370501  0.751791  1
  Pb  Pb29  1  0.935791  0.125502  0.752278  1
  Pb  Pb30  1  0.563377  0.628849  0.249136  1
  Pb  Pb31  1  0.061280  0.871167  0.249996  1
  Pb  Pb32  1  0.665485  0.851244  0.750942  1
  Pb  Pb33  1  0.164471  0.651642  0.752050  1
  Pb  Pb34  1  0.335492  0.149472  0.248896  1
  Pb  Pb35  1  0.836008  0.349114  0.249340  1
