# generated using pymatgen
data_Gd6TcSnPd
_symmetry_space_group_name_H-M   'P 1'
_cell_length_a   8.81319250
_cell_length_b   8.81319252
_cell_length_c   8.81319100
_cell_angle_alpha   103.21168481
_cell_angle_beta   111.32161165
_cell_angle_gamma   114.06972135
_symmetry_Int_Tables_number   1
_chemical_formula_structural   Gd6TcSnPd
_chemical_formula_sum   'Gd12 Tc2 Sn2 Pd2'
_cell_volume   521.97479814
_cell_formula_units_Z   2
loop_
 _symmetry_equiv_pos_site_id
 _symmetry_equiv_pos_as_xyz
  1  'x, y, z'
loop_
 _atom_site_type_symbol
 _atom_site_label
 _atom_site_symmetry_multiplicity
 _atom_site_fract_x
 _atom_site_fract_y
 _atom_site_fract_z
 _atom_site_occupancy
  Gd  Gd0  1  0.700376  0.266170  0.966544  1
  Gd  Gd1  1  0.299624  0.733830  0.033456  1
  Gd  Gd2  1  0.700376  0.733830  0.434206  1
  Gd  Gd3  1  0.299624  0.266170  0.565794  1
  Gd  Gd4  1  0.815180  0.155806  0.340627  1
  Gd  Gd5  1  0.815180  0.474553  0.659373  1
  Gd  Gd6  1  0.184820  0.844194  0.659373  1
  Gd  Gd7  1  0.184820  0.525447  0.340627  1
  Gd  Gd8  1  0.596443  0.780675  0.815769  1
  Gd  Gd9  1  0.964906  0.780675  0.184231  1
  Gd  Gd10  1  0.035094  0.219325  0.815769  1
  Gd  Gd11  1  0.403557  0.219325  0.184231  1
  Tc  Tc12  1  0.824678  0.500000  0.324678  1
  Tc  Tc13  1  0.175322  0.500000  0.675322  1
  Sn  Sn14  1  0.500000  0.500000  0.000000  1
  Sn  Sn15  1  0.500000  0.000000  0.500000  1
  Pd  Pd16  1  0.000000  0.128022  0.128022  1
  Pd  Pd17  1  0.000000  0.871978  0.871978  1
