# generated using pymatgen
data_Dy4HoHf2P12Ir17
_symmetry_space_group_name_H-M   'P 1'
_cell_length_a   12.65518600
_cell_length_b   12.89031696
_cell_length_c   3.97883300
_cell_angle_alpha   90.00000000
_cell_angle_beta   90.00000000
_cell_angle_gamma   119.39574567
_symmetry_Int_Tables_number   1
_chemical_formula_structural   Dy4HoHf2P12Ir17
_chemical_formula_sum   'Dy4 Ho1 Hf2 P12 Ir17'
_cell_volume   565.49759283
_cell_formula_units_Z   1
loop_
 _symmetry_equiv_pos_site_id
 _symmetry_equiv_pos_as_xyz
  1  'x, y, z'
loop_
 _atom_site_type_symbol
 _atom_site_label
 _atom_site_symmetry_multiplicity
 _atom_site_fract_x
 _atom_site_fract_y
 _atom_site_fract_z
 _atom_site_occupancy
  Dy  Dy0  1  0.668618  0.338454  0.500000  1
  Dy  Dy1  1  0.000146  0.815389  0.000000  1
  Dy  Dy2  1  0.184762  0.184596  0.000000  1
  Dy  Dy3  1  0.813075  0.000012  0.000000  1
  Ho  Ho4  1  0.330180  0.661420  0.500000  1
  Hf  Hf5  1  0.997499  0.446918  0.500000  1
  Hf  Hf6  1  0.550486  0.553167  0.500000  1
  P  P7  1  0.005330  0.651005  0.500000  1
  P  P8  1  0.354316  0.348902  0.500000  1
  P  P9  1  0.645405  0.000061  0.500000  1
  P  P10  1  0.514732  0.686075  0.000000  1
  P  P11  1  0.309655  0.824708  0.000000  1
  P  P12  1  0.164794  0.481199  0.000000  1
  P  P13  1  0.484763  0.175054  0.000000  1
  P  P14  1  0.683607  0.518991  0.000000  1
  P  P15  1  0.828914  0.314017  0.000000  1
  P  P16  1  0.999537  0.173914  0.500000  1
  P  P17  1  0.825581  0.826130  0.500000  1
  P  P18  1  0.181582  0.999957  0.500000  1
  Ir  Ir19  1  0.504789  0.864293  0.000000  1
  Ir  Ir20  1  0.127407  0.642614  0.000000  1
  Ir  Ir21  1  0.355939  0.496220  0.000000  1
  Ir  Ir22  1  0.484333  0.357389  0.000000  1
  Ir  Ir23  1  0.860199  0.504221  0.000000  1
  Ir  Ir24  1  0.640523  0.135395  0.000000  1
  Ir  Ir25  1  0.464978  0.999956  0.500000  1
  Ir  Ir26  1  0.997101  0.279616  0.000000  1
  Ir  Ir27  1  0.717403  0.720431  0.000000  1
  Ir  Ir28  1  0.290053  0.999934  0.000000  1
  Ir  Ir29  1  0.623748  0.807448  0.500000  1
  Ir  Ir30  1  0.204007  0.825268  0.500000  1
  Ir  Ir31  1  0.177486  0.367152  0.500000  1
  Ir  Ir32  1  0.378623  0.174616  0.500000  1
  Ir  Ir33  1  0.810306  0.632937  0.500000  1
  Ir  Ir34  1  0.816423  0.192554  0.500000  1
  Ir  Ir35  1  0.003700  0.999988  0.500000  1
