# generated using pymatgen
data_Y2Tm14In4OsRh3
_symmetry_space_group_name_H-M   'P 1'
_cell_length_a   9.55354245
_cell_length_b   9.52767212
_cell_length_c   9.56718395
_cell_angle_alpha   60.07735344
_cell_angle_beta   60.04715613
_cell_angle_gamma   59.91013684
_symmetry_Int_Tables_number   1
_chemical_formula_structural   Y2Tm14In4OsRh3
_chemical_formula_sum   'Y2 Tm14 In4 Os1 Rh3'
_cell_volume   615.93085628
_cell_formula_units_Z   1
loop_
 _symmetry_equiv_pos_site_id
 _symmetry_equiv_pos_as_xyz
  1  'x, y, z'
loop_
 _atom_site_type_symbol
 _atom_site_label
 _atom_site_symmetry_multiplicity
 _atom_site_fract_x
 _atom_site_fract_y
 _atom_site_fract_z
 _atom_site_occupancy
  Y  Y0  1  0.059202  0.060050  0.435875  1
  Y  Y1  1  0.444873  0.060050  0.435875  1
  Tm  Tm2  1  0.062663  0.439044  0.060419  1
  Tm  Tm3  1  0.046873  0.650615  0.651187  1
  Tm  Tm4  1  0.437875  0.439044  0.060419  1
  Tm  Tm5  1  0.651813  0.046332  0.650042  1
  Tm  Tm6  1  0.189530  0.808671  0.193139  1
  Tm  Tm7  1  0.190223  0.191962  0.809998  1
  Tm  Tm8  1  0.808660  0.808671  0.193139  1
  Tm  Tm9  1  0.440106  0.061538  0.058250  1
  Tm  Tm10  1  0.809089  0.189344  0.192478  1
  Tm  Tm11  1  0.056825  0.449586  0.436764  1
  Tm  Tm12  1  0.807818  0.191962  0.809998  1
  Tm  Tm13  1  0.190625  0.808222  0.810529  1
  Tm  Tm14  1  0.651400  0.649268  0.047934  1
  Tm  Tm15  1  0.651324  0.650615  0.651187  1
  In  In16  1  0.417465  0.417079  0.415630  1
  In  In17  1  0.749826  0.417079  0.415630  1
  In  In18  1  0.418086  0.747950  0.415878  1
  In  In19  1  0.417059  0.417412  0.748470  1
  Os  Os20  1  0.859826  0.855390  0.424957  1
  Rh  Rh21  1  0.857974  0.858315  0.861515  1
  Rh  Rh22  1  0.422197  0.858315  0.861515  1
  Rh  Rh23  1  0.858667  0.423489  0.859178  1
