# generated using pymatgen
data_Nd3Mg2CdPb2Au
_symmetry_space_group_name_H-M   'P 1'
_cell_length_a   7.80165700
_cell_length_b   7.75037567
_cell_length_c   4.62101900
_cell_angle_alpha   90.00000000
_cell_angle_beta   90.00000000
_cell_angle_gamma   120.21910581
_symmetry_Int_Tables_number   1
_chemical_formula_structural   Nd3Mg2CdPb2Au
_chemical_formula_sum   'Nd3 Mg2 Cd1 Pb2 Au1'
_cell_volume   241.44315216
_cell_formula_units_Z   1
loop_
 _symmetry_equiv_pos_site_id
 _symmetry_equiv_pos_as_xyz
  1  'x, y, z'
loop_
 _atom_site_type_symbol
 _atom_site_label
 _atom_site_symmetry_multiplicity
 _atom_site_fract_x
 _atom_site_fract_y
 _atom_site_fract_z
 _atom_site_occupancy
  Nd  Nd0  1  0.594369  0.000000  0.000000  1
  Nd  Nd1  1  0.002533  0.599910  0.000000  1
  Nd  Nd2  1  0.402623  0.400090  0.000000  1
  Mg  Mg3  1  0.000766  0.229766  0.500000  1
  Mg  Mg4  1  0.771000  0.770234  0.500000  1
  Cd  Cd5  1  0.234908  0.000000  0.500000  1
  Pb  Pb6  1  0.334224  0.663316  0.500000  1
  Pb  Pb7  1  0.670908  0.336684  0.500000  1
  Au  Au8  1  0.988668  0.000000  0.000000  1
