# generated using pymatgen
data_Nd4Ga10Cu5Ir
_symmetry_space_group_name_H-M   'P 1'
_cell_length_a   8.47491749
_cell_length_b   8.43013892
_cell_length_c   8.43013802
_cell_angle_alpha   138.68157661
_cell_angle_beta   105.87672020
_cell_angle_gamma   88.51382276
_symmetry_Int_Tables_number   1
_chemical_formula_structural   Nd4Ga10Cu5Ir
_chemical_formula_sum   'Nd4 Ga10 Cu5 Ir1'
_cell_volume   366.88567492
_cell_formula_units_Z   1
loop_
 _symmetry_equiv_pos_site_id
 _symmetry_equiv_pos_as_xyz
  1  'x, y, z'
loop_
 _atom_site_type_symbol
 _atom_site_label
 _atom_site_symmetry_multiplicity
 _atom_site_fract_x
 _atom_site_fract_y
 _atom_site_fract_z
 _atom_site_occupancy
  Nd  Nd0  1  0.866813  0.634588  0.232224  1
  Nd  Nd1  1  0.134012  0.369485  0.764528  1
  Nd  Nd2  1  0.402849  0.133061  0.269789  1
  Nd  Nd3  1  0.602115  0.864011  0.738104  1
  Ga  Ga4  1  0.495162  0.749714  0.257035  1
  Ga  Ga5  1  0.495162  0.238126  0.745448  1
  Ga  Ga6  1  0.225420  0.980682  0.750409  1
  Ga  Ga7  1  0.777932  0.520021  0.743837  1
  Ga  Ga8  1  0.777932  0.034095  0.257911  1
  Ga  Ga9  1  0.225420  0.475011  0.244738  1
  Ga  Ga10  1  0.048802  0.896101  0.152702  1
  Ga  Ga11  1  0.948262  0.105026  0.843235  1
  Ga  Ga12  1  0.743610  0.400580  0.343030  1
  Ga  Ga13  1  0.263201  0.607600  0.655601  1
  Cu  Cu14  1  0.000996  0.749084  0.746721  1
  Cu  Cu15  1  0.000996  0.254275  0.251912  1
  Cu  Cu16  1  0.245550  0.860001  0.385550  1
  Cu  Cu17  1  0.742456  0.134236  0.608220  1
  Cu  Cu18  1  0.472959  0.360509  0.112450  1
  Ir  Ir19  1  0.530353  0.633796  0.896556  1
