# generated using pymatgen
data_Ho4Al18Cu3Re2Pd
_symmetry_space_group_name_H-M   'P 1'
_cell_length_a   7.54274743
_cell_length_b   7.54274714
_cell_length_c   9.43641815
_cell_angle_alpha   89.93311086
_cell_angle_beta   89.93311031
_cell_angle_gamma   118.56368142
_symmetry_Int_Tables_number   1
_chemical_formula_structural   Ho4Al18Cu3Re2Pd
_chemical_formula_sum   'Ho4 Al18 Cu3 Re2 Pd1'
_cell_volume   471.52120883
_cell_formula_units_Z   1
loop_
 _symmetry_equiv_pos_site_id
 _symmetry_equiv_pos_as_xyz
  1  'x, y, z'
loop_
 _atom_site_type_symbol
 _atom_site_label
 _atom_site_symmetry_multiplicity
 _atom_site_fract_x
 _atom_site_fract_y
 _atom_site_fract_z
 _atom_site_occupancy
  Ho  Ho0  1  0.994306  0.680476  0.249137  1
  Ho  Ho1  1  0.006331  0.319902  0.751139  1
  Ho  Ho2  1  0.680098  0.993669  0.248861  1
  Ho  Ho3  1  0.319524  0.005694  0.750863  1
  Al  Al4  1  0.135689  0.135791  0.249595  1
  Al  Al5  1  0.864209  0.864311  0.750405  1
  Al  Al6  1  0.000609  0.337546  0.077395  1
  Al  Al7  1  0.999298  0.662925  0.922458  1
  Al  Al8  1  0.000022  0.663535  0.576980  1
  Al  Al9  1  0.336465  0.999978  0.423020  1
  Al  Al10  1  0.001407  0.336348  0.422911  1
  Al  Al11  1  0.663652  0.998593  0.577089  1
  Al  Al12  1  0.662454  0.999391  0.922605  1
  Al  Al13  1  0.337075  0.000702  0.077542  1
  Al  Al14  1  0.329552  0.330594  0.548767  1
  Al  Al15  1  0.669406  0.670449  0.451233  1
  Al  Al16  1  0.668317  0.668460  0.049978  1
  Al  Al17  1  0.331541  0.331683  0.950022  1
  Al  Al18  1  0.346480  0.558088  0.250179  1
  Al  Al19  1  0.653366  0.443252  0.751909  1
  Al  Al20  1  0.556748  0.346634  0.248091  1
  Al  Al21  1  0.441912  0.653520  0.749821  1
  Cu  Cu22  1  0.671893  0.328107  0.000000  1
  Cu  Cu23  1  0.328311  0.671689  0.000000  1
  Cu  Cu24  1  0.328521  0.671479  0.500000  1
  Re  Re25  1  0.999926  0.000074  0.000000  1
  Re  Re26  1  0.000700  0.999300  0.500000  1
  Pd  Pd27  1  0.672189  0.327811  0.500000  1
