# generated using pymatgen
data_Y2V3CoNi8As7
_symmetry_space_group_name_H-M   'P 1'
_cell_length_a   3.81077300
_cell_length_b   9.48678459
_cell_length_c   9.47570631
_cell_angle_alpha   119.93197643
_cell_angle_beta   90.00000000
_cell_angle_gamma   90.00000000
_symmetry_Int_Tables_number   1
_chemical_formula_structural   Y2V3CoNi8As7
_chemical_formula_sum   'Y2 V3 Co1 Ni8 As7'
_cell_volume   296.87362951
_cell_formula_units_Z   1
loop_
 _symmetry_equiv_pos_site_id
 _symmetry_equiv_pos_as_xyz
  1  'x, y, z'
loop_
 _atom_site_type_symbol
 _atom_site_label
 _atom_site_symmetry_multiplicity
 _atom_site_fract_x
 _atom_site_fract_y
 _atom_site_fract_z
 _atom_site_occupancy
  Y  Y0  1  0.000000  0.667566  0.335232  1
  Y  Y1  1  0.500000  0.333677  0.667320  1
  V  V2  1  0.500000  0.784065  0.897919  1
  V  V3  1  0.500000  0.114695  0.214929  1
  V  V4  1  0.500000  0.100148  0.884642  1
  Co  Co5  1  0.000000  0.845523  0.719699  1
  Ni  Ni6  1  0.000000  0.569220  0.939223  1
  Ni  Ni7  1  0.000000  0.371324  0.432084  1
  Ni  Ni8  1  0.000000  0.060511  0.629395  1
  Ni  Ni9  1  0.000000  0.873667  0.154213  1
  Ni  Ni10  1  0.000000  0.280021  0.126710  1
  Ni  Ni11  1  0.500000  0.946174  0.380843  1
  Ni  Ni12  1  0.500000  0.433366  0.053063  1
  Ni  Ni13  1  0.500000  0.620079  0.566368  1
  As  As14  1  0.000000  0.998789  0.998094  1
  As  As15  1  0.500000  0.707156  0.113134  1
  As  As16  1  0.500000  0.406478  0.292225  1
  As  As17  1  0.500000  0.885711  0.594851  1
  As  As18  1  0.000000  0.592304  0.705139  1
  As  As19  1  0.000000  0.114382  0.409405  1
  As  As20  1  0.000000  0.295143  0.885513  1
