# generated using pymatgen
data_Ho6VFeB14
_symmetry_space_group_name_H-M   'P 1'
_cell_length_a   8.05919937
_cell_length_b   8.05919828
_cell_length_c   9.31601200
_cell_angle_alpha   90.00000000
_cell_angle_beta   90.00000000
_cell_angle_gamma   155.50593298
_symmetry_Int_Tables_number   1
_chemical_formula_structural   Ho6VFeB14
_chemical_formula_sum   'Ho6 V1 Fe1 B14'
_cell_volume   250.86613834
_cell_formula_units_Z   1
loop_
 _symmetry_equiv_pos_site_id
 _symmetry_equiv_pos_as_xyz
  1  'x, y, z'
loop_
 _atom_site_type_symbol
 _atom_site_label
 _atom_site_symmetry_multiplicity
 _atom_site_fract_x
 _atom_site_fract_y
 _atom_site_fract_z
 _atom_site_occupancy
  Ho  Ho0  1  0.893858  0.106142  0.441918  1
  Ho  Ho1  1  0.105069  0.894931  0.562571  1
  Ho  Ho2  1  0.893858  0.106142  0.058082  1
  Ho  Ho3  1  0.105069  0.894931  0.937429  1
  Ho  Ho4  1  0.243461  0.756539  0.250000  1
  Ho  Ho5  1  0.758327  0.241673  0.750000  1
  V  V6  1  0.052239  0.947761  0.250000  1
  Fe  Fe7  1  0.945646  0.054354  0.750000  1
  B  B8  1  0.728149  0.271851  0.468308  1
  B  B9  1  0.273166  0.726834  0.534547  1
  B  B10  1  0.728149  0.271851  0.031692  1
  B  B11  1  0.273166  0.726834  0.965453  1
  B  B12  1  0.632990  0.367010  0.148942  1
  B  B13  1  0.370571  0.629429  0.846991  1
  B  B14  1  0.632990  0.367010  0.351058  1
  B  B15  1  0.370571  0.629429  0.653009  1
  B  B16  1  0.520245  0.479755  0.093004  1
  B  B17  1  0.478326  0.521674  0.902244  1
  B  B18  1  0.520245  0.479755  0.406996  1
  B  B19  1  0.478326  0.521674  0.597756  1
  B  B20  1  0.456674  0.543326  0.250000  1
  B  B21  1  0.538905  0.461095  0.750000  1
