# generated using pymatgen
data_Zr10TiBi5S
_symmetry_space_group_name_H-M   'P 1'
_cell_length_a   8.62382080
_cell_length_b   8.68450737
_cell_length_c   5.88668700
_cell_angle_alpha   90.01838715
_cell_angle_beta   89.96296691
_cell_angle_gamma   119.76911351
_symmetry_Int_Tables_number   1
_chemical_formula_structural   Zr10TiBi5S
_chemical_formula_sum   'Zr10 Ti1 Bi5 S1'
_cell_volume   382.69440915
_cell_formula_units_Z   1
loop_
 _symmetry_equiv_pos_site_id
 _symmetry_equiv_pos_as_xyz
  1  'x, y, z'
loop_
 _atom_site_type_symbol
 _atom_site_label
 _atom_site_symmetry_multiplicity
 _atom_site_fract_x
 _atom_site_fract_y
 _atom_site_fract_z
 _atom_site_occupancy
  Zr  Zr0  1  0.005493  0.761153  0.242378  1
  Zr  Zr1  1  0.244340  0.238847  0.242378  1
  Zr  Zr2  1  0.759005  0.000000  0.230677  1
  Zr  Zr3  1  0.979212  0.233812  0.760220  1
  Zr  Zr4  1  0.745400  0.766188  0.760220  1
  Zr  Zr5  1  0.247722  0.000000  0.758971  1
  Zr  Zr6  1  0.339707  0.672364  0.502349  1
  Zr  Zr7  1  0.667343  0.327636  0.502349  1
  Zr  Zr8  1  0.669090  0.326802  0.994060  1
  Zr  Zr9  1  0.342288  0.673198  0.994060  1
  Ti  Ti10  1  0.593658  0.000000  0.757299  1
  Bi  Bi11  1  0.004304  0.396972  0.251700  1
  Bi  Bi12  1  0.607332  0.603028  0.251700  1
  Bi  Bi13  1  0.408421  0.000000  0.247110  1
  Bi  Bi14  1  0.998418  0.611158  0.751829  1
  Bi  Bi15  1  0.387260  0.388842  0.751829  1
  S  S16  1  0.001009  0.000000  0.500871  1
