# generated using pymatgen
data_LiTb8Al(SiB4)4
_symmetry_space_group_name_H-M   'P 1'
_cell_length_a   7.16423400
_cell_length_b   7.16423400
_cell_length_c   7.84185900
_cell_angle_alpha   90.00000000
_cell_angle_beta   90.00000000
_cell_angle_gamma   90.00000000
_symmetry_Int_Tables_number   1
_chemical_formula_structural   LiTb8Al(SiB4)4
_chemical_formula_sum   'Li1 Tb8 Al1 Si4 B16'
_cell_volume   402.49320614
_cell_formula_units_Z   1
loop_
 _symmetry_equiv_pos_site_id
 _symmetry_equiv_pos_as_xyz
  1  'x, y, z'
loop_
 _atom_site_type_symbol
 _atom_site_label
 _atom_site_symmetry_multiplicity
 _atom_site_fract_x
 _atom_site_fract_y
 _atom_site_fract_z
 _atom_site_occupancy
  Li  Li0  1  0.500000  0.500000  0.500000  1
  Tb  Tb1  1  0.682679  0.184101  0.235045  1
  Tb  Tb2  1  0.317321  0.815899  0.764955  1
  Tb  Tb3  1  0.317321  0.815899  0.235045  1
  Tb  Tb4  1  0.815899  0.682679  0.235045  1
  Tb  Tb5  1  0.815899  0.682679  0.764955  1
  Tb  Tb6  1  0.682679  0.184101  0.764955  1
  Tb  Tb7  1  0.184101  0.317321  0.764955  1
  Tb  Tb8  1  0.184101  0.317321  0.235045  1
  Al  Al9  1  0.000000  0.000000  0.500000  1
  Si  Si10  1  0.114325  0.617065  0.500000  1
  Si  Si11  1  0.885675  0.382935  0.500000  1
  Si  Si12  1  0.382935  0.114325  0.500000  1
  Si  Si13  1  0.617065  0.885675  0.500000  1
  B  B14  1  0.173959  0.040154  0.000000  1
  B  B15  1  0.826041  0.959846  0.000000  1
  B  B16  1  0.959846  0.173959  0.000000  1
  B  B17  1  0.325814  0.539524  0.000000  1
  B  B18  1  0.040154  0.826041  0.000000  1
  B  B19  1  0.674186  0.460476  0.000000  1
  B  B20  1  0.539524  0.674186  0.000000  1
  B  B21  1  0.460476  0.325814  0.000000  1
  B  B22  1  0.089735  0.589110  0.000000  1
  B  B23  1  0.910265  0.410890  0.000000  1
  B  B24  1  0.410890  0.089735  0.000000  1
  B  B25  1  0.589110  0.910265  0.000000  1
  B  B26  1  0.000000  0.000000  0.162950  1
  B  B27  1  0.000000  0.000000  0.837050  1
  B  B28  1  0.500000  0.500000  0.840119  1
  B  B29  1  0.500000  0.500000  0.159881  1
