# generated using pymatgen
data_Pa4ZnGe3IrPt3
_symmetry_space_group_name_H-M   'P 1'
_cell_length_a   4.39339100
_cell_length_b   6.96837197
_cell_length_c   7.71910229
_cell_angle_alpha   90.27840217
_cell_angle_beta   90.00000000
_cell_angle_gamma   90.00000000
_symmetry_Int_Tables_number   1
_chemical_formula_structural   Pa4ZnGe3IrPt3
_chemical_formula_sum   'Pa4 Zn1 Ge3 Ir1 Pt3'
_cell_volume   236.31584933
_cell_formula_units_Z   1
loop_
 _symmetry_equiv_pos_site_id
 _symmetry_equiv_pos_as_xyz
  1  'x, y, z'
loop_
 _atom_site_type_symbol
 _atom_site_label
 _atom_site_symmetry_multiplicity
 _atom_site_fract_x
 _atom_site_fract_y
 _atom_site_fract_z
 _atom_site_occupancy
  Pa  Pa0  1  0.250000  0.004839  0.296877  1
  Pa  Pa1  1  0.250000  0.511724  0.206500  1
  Pa  Pa2  1  0.750000  0.996195  0.705796  1
  Pa  Pa3  1  0.750000  0.489934  0.789560  1
  Zn  Zn4  1  0.750000  0.818556  0.083890  1
  Ge  Ge5  1  0.250000  0.688213  0.587106  1
  Ge  Ge6  1  0.250000  0.189079  0.914700  1
  Ge  Ge7  1  0.750000  0.311719  0.414911  1
  Ir  Ir8  1  0.250000  0.269928  0.585507  1
  Pt  Pt9  1  0.250000  0.773430  0.914968  1
  Pt  Pt10  1  0.750000  0.720428  0.412632  1
  Pt  Pt11  1  0.750000  0.225956  0.087554  1
