# generated using pymatgen
data_SrHo3PtRh3O14
_symmetry_space_group_name_H-M   'P 1'
_cell_length_a   7.27985966
_cell_length_b   7.27985814
_cell_length_c   7.27985891
_cell_angle_alpha   59.99126006
_cell_angle_beta   59.99126421
_cell_angle_gamma   59.99125215
_symmetry_Int_Tables_number   1
_chemical_formula_structural   SrHo3PtRh3O14
_chemical_formula_sum   'Sr1 Ho3 Pt1 Rh3 O14'
_cell_volume   272.75191270
_cell_formula_units_Z   1
loop_
 _symmetry_equiv_pos_site_id
 _symmetry_equiv_pos_as_xyz
  1  'x, y, z'
loop_
 _atom_site_type_symbol
 _atom_site_label
 _atom_site_symmetry_multiplicity
 _atom_site_fract_x
 _atom_site_fract_y
 _atom_site_fract_z
 _atom_site_occupancy
  Sr  Sr0  1  0.625000  0.625000  0.625000  1
  Ho  Ho1  1  0.625000  0.625000  0.125000  1
  Ho  Ho2  1  0.625000  0.125000  0.625000  1
  Ho  Ho3  1  0.125000  0.625000  0.625000  1
  Pt  Pt4  1  0.125000  0.125000  0.125000  1
  Rh  Rh5  1  0.625000  0.125000  0.125000  1
  Rh  Rh6  1  0.125000  0.625000  0.125000  1
  Rh  Rh7  1  0.125000  0.125000  0.625000  1
  O  O8  1  0.057676  0.455284  0.455284  1
  O  O9  1  0.794716  0.794716  0.192324  1
  O  O10  1  0.789311  0.211637  0.211637  1
  O  O11  1  0.455284  0.057676  0.455284  1
  O  O12  1  0.757773  0.757773  0.757773  1
  O  O13  1  0.038363  0.038363  0.460689  1
  O  O14  1  0.038363  0.460689  0.038363  1
  O  O15  1  0.794716  0.192324  0.794716  1
  O  O16  1  0.211637  0.789311  0.211637  1
  O  O17  1  0.211637  0.211637  0.789311  1
  O  O18  1  0.492227  0.492227  0.492227  1
  O  O19  1  0.460689  0.038363  0.038363  1
  O  O20  1  0.455284  0.455284  0.057676  1
  O  O21  1  0.192324  0.794716  0.794716  1
