# generated using pymatgen
data_Tb3Y(Ga8Pt3)3
_symmetry_space_group_name_H-M   'P 1'
_cell_length_a   7.52115588
_cell_length_b   7.58889315
_cell_length_c   13.36207449
_cell_angle_alpha   84.74461711
_cell_angle_beta   79.49761692
_cell_angle_gamma   60.18232296
_symmetry_Int_Tables_number   1
_chemical_formula_structural   Tb3Y(Ga8Pt3)3
_chemical_formula_sum   'Tb3 Y1 Ga24 Pt9'
_cell_volume   650.61640273
_cell_formula_units_Z   1
loop_
 _symmetry_equiv_pos_site_id
 _symmetry_equiv_pos_as_xyz
  1  'x, y, z'
loop_
 _atom_site_type_symbol
 _atom_site_label
 _atom_site_symmetry_multiplicity
 _atom_site_fract_x
 _atom_site_fract_y
 _atom_site_fract_z
 _atom_site_occupancy
  Tb  Tb0  1  0.606974  0.831206  0.188488  1
  Tb  Tb1  1  0.732224  0.497212  0.811970  1
  Tb  Tb2  1  0.267721  0.502676  0.188108  1
  Y  Y3  1  0.392801  0.168884  0.811478  1
  Ga  Ga4  1  0.685384  0.834059  0.938531  1
  Ga  Ga5  1  0.314445  0.166218  0.061577  1
  Ga  Ga6  1  0.146133  0.832710  0.558673  1
  Ga  Ga7  1  0.853881  0.167274  0.441232  1
  Ga  Ga8  1  0.478310  0.166962  0.555845  1
  Ga  Ga9  1  0.521802  0.833142  0.444058  1
  Ga  Ga10  1  0.220883  0.165531  0.323761  1
  Ga  Ga11  1  0.779017  0.834624  0.676177  1
  Ga  Ga12  1  0.437780  0.503220  0.675088  1
  Ga  Ga13  1  0.562158  0.496661  0.324739  1
  Ga  Ga14  1  0.106778  0.163946  0.674621  1
  Ga  Ga15  1  0.893414  0.835907  0.325218  1
  Ga  Ga16  1  0.357196  0.498010  0.938742  1
  Ga  Ga17  1  0.642633  0.501862  0.061413  1
  Ga  Ga18  1  0.019907  0.169340  0.943597  1
  Ga  Ga19  1  0.980181  0.830550  0.056607  1
  Ga  Ga20  1  0.187124  0.499031  0.443014  1
  Ga  Ga21  1  0.813024  0.500944  0.556891  1
  Ga  Ga22  1  0.734493  0.163594  0.182215  1
  Ga  Ga23  1  0.266036  0.835934  0.817787  1
  Ga  Ga24  1  0.060485  0.631329  0.817171  1
  Ga  Ga25  1  0.938994  0.368977  0.182857  1
  Ga  Ga26  1  0.856382  0.040416  0.816965  1
  Ga  Ga27  1  0.143924  0.959874  0.183035  1
  Pt  Pt28  1  0.117414  0.496228  0.638937  1
  Pt  Pt29  1  0.882346  0.503834  0.361111  1
  Pt  Pt30  1  0.660015  0.169888  0.999386  1
  Pt  Pt31  1  0.340084  0.830024  0.000637  1
  Pt  Pt32  1  0.540947  0.166685  0.360251  1
  Pt  Pt33  1  0.459087  0.833106  0.639810  1
  Pt  Pt34  1  0.779784  0.171574  0.637187  1
  Pt  Pt35  1  0.220329  0.828480  0.362808  1
  Pt  Pt36  1  0.999913  0.500089  0.000012  1
