# generated using pymatgen
data_Tm8Si12Pd3Pt
_symmetry_space_group_name_H-M   'P 1'
_cell_length_a   8.13350200
_cell_length_b   8.13350256
_cell_length_c   7.77696600
_cell_angle_alpha   90.00000000
_cell_angle_beta   90.00000000
_cell_angle_gamma   119.99999772
_symmetry_Int_Tables_number   1
_chemical_formula_structural   Tm8Si12Pd3Pt
_chemical_formula_sum   'Tm8 Si12 Pd3 Pt1'
_cell_volume   445.54956850
_cell_formula_units_Z   1
loop_
 _symmetry_equiv_pos_site_id
 _symmetry_equiv_pos_as_xyz
  1  'x, y, z'
loop_
 _atom_site_type_symbol
 _atom_site_label
 _atom_site_symmetry_multiplicity
 _atom_site_fract_x
 _atom_site_fract_y
 _atom_site_fract_z
 _atom_site_occupancy
  Tm  Tm0  1  0.979886  0.489944  0.250079  1
  Tm  Tm1  1  0.510054  0.489948  0.250081  1
  Tm  Tm2  1  0.488647  0.977298  0.749683  1
  Tm  Tm3  1  0.022700  0.511353  0.749684  1
  Tm  Tm4  1  0.488650  0.511350  0.749682  1
  Tm  Tm5  1  0.510057  0.020114  0.250079  1
  Tm  Tm6  1  0.000000  0.000002  0.749355  1
  Tm  Tm7  1  0.000001  0.000000  0.250907  1
  Si  Si8  1  0.165374  0.834625  0.499765  1
  Si  Si9  1  0.165388  0.330775  0.499762  1
  Si  Si10  1  0.669229  0.834611  0.499761  1
  Si  Si11  1  0.331135  0.165574  0.999420  1
  Si  Si12  1  0.834422  0.668862  0.500772  1
  Si  Si13  1  0.834438  0.165568  0.999420  1
  Si  Si14  1  0.834429  0.668864  0.999421  1
  Si  Si15  1  0.165174  0.330336  0.001336  1
  Si  Si16  1  0.669664  0.834827  0.001335  1
  Si  Si17  1  0.331137  0.165578  0.500770  1
  Si  Si18  1  0.834435  0.165565  0.500770  1
  Si  Si19  1  0.165164  0.834838  0.001335  1
  Pd  Pd20  1  0.666709  0.333306  0.961480  1
  Pd  Pd21  1  0.666660  0.333293  0.538639  1
  Pd  Pd22  1  0.333308  0.666686  0.460743  1
  Pt  Pt23  1  0.333336  0.666684  0.035727  1
