# generated using pymatgen
data_PuU3B12MoW
_symmetry_space_group_name_H-M   'P 1'
_cell_length_a   3.69122100
_cell_length_b   9.29592251
_cell_length_c   11.38467304
_cell_angle_alpha   89.86798655
_cell_angle_beta   90.00000000
_cell_angle_gamma   90.00000000
_symmetry_Int_Tables_number   1
_chemical_formula_structural   PuU3B12MoW
_chemical_formula_sum   'Pu2 U6 B24 Mo2 W2'
_cell_volume   390.64471432
_cell_formula_units_Z   2
loop_
 _symmetry_equiv_pos_site_id
 _symmetry_equiv_pos_as_xyz
  1  'x, y, z'
loop_
 _atom_site_type_symbol
 _atom_site_label
 _atom_site_symmetry_multiplicity
 _atom_site_fract_x
 _atom_site_fract_y
 _atom_site_fract_z
 _atom_site_occupancy
  Pu  Pu0  1  0.000000  0.335723  0.407562  1
  Pu  Pu1  1  0.000000  0.664277  0.592438  1
  U  U2  1  0.000000  0.834989  0.092203  1
  U  U3  1  0.000000  0.165011  0.907797  1
  U  U4  1  0.000000  0.956134  0.394577  1
  U  U5  1  0.000000  0.043866  0.605423  1
  U  U6  1  0.000000  0.455858  0.105775  1
  U  U7  1  0.000000  0.544142  0.894225  1
  B  B8  1  0.500000  0.551352  0.432382  1
  B  B9  1  0.500000  0.448648  0.567618  1
  B  B10  1  0.500000  0.049904  0.066707  1
  B  B11  1  0.500000  0.950096  0.933293  1
  B  B12  1  0.500000  0.744494  0.423929  1
  B  B13  1  0.500000  0.255506  0.576071  1
  B  B14  1  0.500000  0.243391  0.075844  1
  B  B15  1  0.500000  0.756609  0.924156  1
  B  B16  1  0.500000  0.804320  0.272440  1
  B  B17  1  0.500000  0.195680  0.727560  1
  B  B18  1  0.500000  0.303311  0.226005  1
  B  B19  1  0.500000  0.696689  0.773995  1
  B  B20  1  0.500000  0.644797  0.186840  1
  B  B21  1  0.500000  0.355203  0.813160  1
  B  B22  1  0.500000  0.143491  0.311978  1
  B  B23  1  0.500000  0.856509  0.688022  1
  B  B24  1  0.500000  0.985985  0.218202  1
  B  B25  1  0.500000  0.014015  0.781798  1
  B  B26  1  0.500000  0.486753  0.280466  1
  B  B27  1  0.500000  0.513247  0.719534  1
  B  B28  1  0.500000  0.642186  0.039041  1
  B  B29  1  0.500000  0.357814  0.960959  1
  B  B30  1  0.500000  0.139734  0.460762  1
  B  B31  1  0.500000  0.860266  0.539238  1
  Mo  Mo32  1  0.000000  0.143168  0.177693  1
  Mo  Mo33  1  0.000000  0.856832  0.822307  1
  W  W34  1  0.000000  0.647230  0.317771  1
  W  W35  1  0.000000  0.352770  0.682229  1
