# generated using pymatgen
data_Hf6CI14
_symmetry_space_group_name_H-M   'P 1'
_cell_length_a   10.74942200
_cell_length_b   10.74942172
_cell_length_c   12.81792200
_cell_angle_alpha   90.00000000
_cell_angle_beta   90.00000000
_cell_angle_gamma   92.87381264
_symmetry_Int_Tables_number   1
_chemical_formula_structural   Hf6CI14
_chemical_formula_sum   'Hf12 C2 I28'
_cell_volume   1479.24910826
_cell_formula_units_Z   2
loop_
 _symmetry_equiv_pos_site_id
 _symmetry_equiv_pos_as_xyz
  1  'x, y, z'
loop_
 _atom_site_type_symbol
 _atom_site_label
 _atom_site_symmetry_multiplicity
 _atom_site_fract_x
 _atom_site_fract_y
 _atom_site_fract_z
 _atom_site_occupancy
  Hf  Hf0  1  0.627527  0.627527  0.092974  1
  Hf  Hf1  1  0.872473  0.872473  0.592974  1
  Hf  Hf2  1  0.127527  0.127527  0.407026  1
  Hf  Hf3  1  0.372473  0.372473  0.907026  1
  Hf  Hf4  1  0.665029  0.453344  0.891268  1
  Hf  Hf5  1  0.834971  0.046656  0.391268  1
  Hf  Hf6  1  0.953344  0.165029  0.608732  1
  Hf  Hf7  1  0.546656  0.334971  0.108732  1
  Hf  Hf8  1  0.334971  0.546656  0.108732  1
  Hf  Hf9  1  0.165029  0.953344  0.608732  1
  Hf  Hf10  1  0.046656  0.834971  0.391268  1
  Hf  Hf11  1  0.453344  0.665029  0.891268  1
  C  C12  1  0.500000  0.500000  0.000000  1
  C  C13  1  0.000000  0.000000  0.500000  1
  I  I14  1  0.358384  0.107763  0.511246  1
  I  I15  1  0.141616  0.392237  0.011246  1
  I  I16  1  0.605731  0.105731  0.250000  1
  I  I17  1  0.894269  0.394269  0.750000  1
  I  I18  1  0.394269  0.894269  0.750000  1
  I  I19  1  0.105731  0.605731  0.250000  1
  I  I20  1  0.144214  0.144214  0.765202  1
  I  I21  1  0.355786  0.355786  0.265202  1
  I  I22  1  0.644214  0.644214  0.734798  1
  I  I23  1  0.855786  0.855786  0.234798  1
  I  I24  1  0.245447  0.754553  0.000000  1
  I  I25  1  0.254553  0.745447  0.500000  1
  I  I26  1  0.754553  0.245447  0.000000  1
  I  I27  1  0.745447  0.254553  0.500000  1
  I  I28  1  0.892237  0.641616  0.488754  1
  I  I29  1  0.607763  0.858384  0.988754  1
  I  I30  1  0.858384  0.607763  0.988754  1
  I  I31  1  0.641616  0.892237  0.488754  1
  I  I32  1  0.107763  0.358384  0.511246  1
  I  I33  1  0.392237  0.141616  0.011246  1
  I  I34  1  0.966573  0.215484  0.251797  1
  I  I35  1  0.533427  0.284516  0.751797  1
  I  I36  1  0.715484  0.466573  0.248203  1
  I  I37  1  0.784516  0.033427  0.748203  1
  I  I38  1  0.033427  0.784516  0.748203  1
  I  I39  1  0.466573  0.715484  0.248203  1
  I  I40  1  0.284516  0.533427  0.751797  1
  I  I41  1  0.215484  0.966573  0.251797  1
