# generated using pymatgen
data_Tb9Y(Bi2Rh)2
_symmetry_space_group_name_H-M   'P 1'
_cell_length_a   8.07870449
_cell_length_b   9.01753800
_cell_length_c   12.52623175
_cell_angle_alpha   90.00000000
_cell_angle_beta   89.96023665
_cell_angle_gamma   90.00000000
_symmetry_Int_Tables_number   1
_chemical_formula_structural   Tb9Y(Bi2Rh)2
_chemical_formula_sum   'Tb18 Y2 Bi8 Rh4'
_cell_volume   912.53607289
_cell_formula_units_Z   2
loop_
 _symmetry_equiv_pos_site_id
 _symmetry_equiv_pos_as_xyz
  1  'x, y, z'
loop_
 _atom_site_type_symbol
 _atom_site_label
 _atom_site_symmetry_multiplicity
 _atom_site_fract_x
 _atom_site_fract_y
 _atom_site_fract_z
 _atom_site_occupancy
  Tb  Tb0  1  0.342266  0.250000  0.705647  1
  Tb  Tb1  1  0.657734  0.750000  0.294353  1
  Tb  Tb2  1  0.375709  0.750000  0.694673  1
  Tb  Tb3  1  0.624291  0.250000  0.305327  1
  Tb  Tb4  1  0.875591  0.250000  0.805345  1
  Tb  Tb5  1  0.124409  0.750000  0.194655  1
  Tb  Tb6  1  0.955155  0.750000  0.501253  1
  Tb  Tb7  1  0.044845  0.250000  0.498747  1
  Tb  Tb8  1  0.455104  0.250000  0.998797  1
  Tb  Tb9  1  0.544896  0.750000  0.001203  1
  Tb  Tb10  1  0.678648  0.039574  0.565725  1
  Tb  Tb11  1  0.321352  0.960426  0.434275  1
  Tb  Tb12  1  0.178624  0.960384  0.934401  1
  Tb  Tb13  1  0.321352  0.539574  0.434275  1
  Tb  Tb14  1  0.821376  0.039616  0.065599  1
  Tb  Tb15  1  0.678648  0.460426  0.565725  1
  Tb  Tb16  1  0.821376  0.460384  0.065599  1
  Tb  Tb17  1  0.178624  0.539616  0.934401  1
  Y  Y18  1  0.842039  0.750000  0.794001  1
  Y  Y19  1  0.157961  0.250000  0.205999  1
  Bi  Bi20  1  0.570688  0.491803  0.826342  1
  Bi  Bi21  1  0.429312  0.508197  0.173658  1
  Bi  Bi22  1  0.070365  0.508496  0.673697  1
  Bi  Bi23  1  0.429312  0.991803  0.173658  1
  Bi  Bi24  1  0.929635  0.491504  0.326303  1
  Bi  Bi25  1  0.570688  0.008197  0.826342  1
  Bi  Bi26  1  0.929635  0.008496  0.326303  1
  Bi  Bi27  1  0.070365  0.991504  0.673697  1
  Rh  Rh28  1  0.568890  0.750000  0.510235  1
  Rh  Rh29  1  0.431110  0.250000  0.489765  1
  Rh  Rh30  1  0.068653  0.250000  0.989355  1
  Rh  Rh31  1  0.931347  0.750000  0.010645  1
