# generated using pymatgen
data_TbI35
_symmetry_space_group_name_H-M   'P 1'
_cell_length_a   17.58017498
_cell_length_b   12.54030950
_cell_length_c   11.87107100
_cell_angle_alpha   88.81408644
_cell_angle_beta   66.02770740
_cell_angle_gamma   92.31545562
_symmetry_Int_Tables_number   1
_chemical_formula_structural   TbI35
_chemical_formula_sum   'Tb1 I35'
_cell_volume   2387.43274716
_cell_formula_units_Z   1
loop_
 _symmetry_equiv_pos_site_id
 _symmetry_equiv_pos_as_xyz
  1  'x, y, z'
loop_
 _atom_site_type_symbol
 _atom_site_label
 _atom_site_symmetry_multiplicity
 _atom_site_fract_x
 _atom_site_fract_y
 _atom_site_fract_z
 _atom_site_occupancy
  Tb  Tb0  1  0.230225  0.407827  0.448280  1
  I  I1  1  0.510160  0.307530  0.553034  1
  I  I2  1  0.721633  0.579621  0.615455  1
  I  I3  1  0.449280  0.703969  0.785987  1
  I  I4  1  0.073457  0.907221  0.778716  1
  I  I5  1  0.886816  0.144452  0.029324  1
  I  I6  1  0.641392  0.334234  0.297869  1
  I  I7  1  0.591667  0.308432  0.882283  1
  I  I8  1  0.321836  0.812345  0.732678  1
  I  I9  1  0.351958  0.545647  0.196067  1
  I  I10  1  0.646941  0.101251  0.843397  1
  I  I11  1  0.874560  0.566264  0.397996  1
  I  I12  1  0.065648  0.934655  0.540356  1
  I  I13  1  0.876589  0.114787  0.282288  1
  I  I14  1  0.890493  0.175980  0.785154  1
  I  I15  1  0.638967  0.064581  0.299536  1
  I  I16  1  0.061279  0.859660  0.031865  1
  I  I17  1  0.350674  0.035951  0.770328  1
  I  I18  1  0.875273  0.339712  0.342816  1
  I  I19  1  0.877648  0.898567  0.655760  1
  I  I20  1  0.987252  0.628357  0.747138  1
  I  I21  1  0.333160  0.027838  0.215510  1
  I  I22  1  0.334726  0.290348  0.208405  1
  I  I23  1  0.569426  0.588512  0.847324  1
  I  I24  1  0.093966  0.450281  0.385181  1
  I  I25  1  0.700835  0.868715  0.786995  1
  I  I26  1  0.929093  0.404176  0.767967  1
  I  I27  1  0.490254  0.039540  0.265285  1
  I  I28  1  0.188015  0.218889  0.602967  1
  I  I29  1  0.696791  0.800542  0.250930  1
  I  I30  1  0.879646  0.824632  0.145038  1
  I  I31  1  0.380146  0.264511  0.797310  1
  I  I32  1  0.340264  0.522989  0.561791  1
  I  I33  1  0.661271  0.564992  0.266054  1
  I  I34  1  0.164508  0.582270  0.659481  1
  I  I35  1  0.314155  0.780720  0.223437  1
