# generated using pymatgen
data_Dy3HfZn2Ir3
_symmetry_space_group_name_H-M   'P 1'
_cell_length_a   7.21307643
_cell_length_b   7.12072637
_cell_length_c   4.08089800
_cell_angle_alpha   90.00000000
_cell_angle_beta   90.00000000
_cell_angle_gamma   119.57737021
_symmetry_Int_Tables_number   1
_chemical_formula_structural   Dy3HfZn2Ir3
_chemical_formula_sum   'Dy3 Hf1 Zn2 Ir3'
_cell_volume   182.29091444
_cell_formula_units_Z   1
loop_
 _symmetry_equiv_pos_site_id
 _symmetry_equiv_pos_as_xyz
  1  'x, y, z'
loop_
 _atom_site_type_symbol
 _atom_site_label
 _atom_site_symmetry_multiplicity
 _atom_site_fract_x
 _atom_site_fract_y
 _atom_site_fract_z
 _atom_site_occupancy
  Dy  Dy0  1  0.568432  0.583123  0.000000  1
  Dy  Dy1  1  0.431568  0.014691  0.000000  1
  Dy  Dy2  1  0.000000  0.387015  0.000000  1
  Hf  Hf3  1  0.000000  0.760849  0.500000  1
  Zn  Zn4  1  0.251854  0.247552  0.500000  1
  Zn  Zn5  1  0.748146  0.995697  0.500000  1
  Ir  Ir6  1  0.000000  0.987712  0.000000  1
  Ir  Ir7  1  0.677636  0.350498  0.500000  1
  Ir  Ir8  1  0.322364  0.672863  0.500000  1
