# generated using pymatgen
data_InCl30
_symmetry_space_group_name_H-M   'P 1'
_cell_length_a   13.30175212
_cell_length_b   13.30175273
_cell_length_c   15.47023847
_cell_angle_alpha   82.90812666
_cell_angle_beta   82.90812292
_cell_angle_gamma   123.08313291
_symmetry_Int_Tables_number   1
_chemical_formula_structural   InCl30
_chemical_formula_sum   'In1 Cl30'
_cell_volume   2215.17303493
_cell_formula_units_Z   1
loop_
 _symmetry_equiv_pos_site_id
 _symmetry_equiv_pos_as_xyz
  1  'x, y, z'
loop_
 _atom_site_type_symbol
 _atom_site_label
 _atom_site_symmetry_multiplicity
 _atom_site_fract_x
 _atom_site_fract_y
 _atom_site_fract_z
 _atom_site_occupancy
  In  In0  1  0.000000  0.000000  0.000000  1
  Cl  Cl1  1  0.937757  0.937757  0.171013  1
  Cl  Cl2  1  0.062243  0.062243  0.828987  1
  Cl  Cl3  1  0.106938  0.224443  0.005466  1
  Cl  Cl4  1  0.893062  0.775557  0.994534  1
  Cl  Cl5  1  0.224443  0.106938  0.005466  1
  Cl  Cl6  1  0.775557  0.893062  0.994534  1
  Cl  Cl7  1  0.199466  0.741776  0.066900  1
  Cl  Cl8  1  0.800534  0.258224  0.933100  1
  Cl  Cl9  1  0.693507  0.079082  0.263965  1
  Cl  Cl10  1  0.258224  0.800534  0.933100  1
  Cl  Cl11  1  0.306493  0.920918  0.736035  1
  Cl  Cl12  1  0.741776  0.199466  0.066900  1
  Cl  Cl13  1  0.982441  0.200904  0.774195  1
  Cl  Cl14  1  0.920918  0.306493  0.736035  1
  Cl  Cl15  1  0.017559  0.799096  0.225805  1
  Cl  Cl16  1  0.079082  0.693507  0.263965  1
  Cl  Cl17  1  0.799096  0.017559  0.225805  1
  Cl  Cl18  1  0.200904  0.982441  0.774195  1
  Cl  Cl19  1  0.467028  0.552196  0.263160  1
  Cl  Cl20  1  0.532972  0.447804  0.736840  1
  Cl  Cl21  1  0.507698  0.203835  0.450537  1
  Cl  Cl22  1  0.447804  0.532972  0.736840  1
  Cl  Cl23  1  0.492302  0.796165  0.549463  1
  Cl  Cl24  1  0.552196  0.467028  0.263160  1
  Cl  Cl25  1  0.239350  0.428162  0.548431  1
  Cl  Cl26  1  0.796165  0.492302  0.549463  1
  Cl  Cl27  1  0.760650  0.571838  0.451569  1
  Cl  Cl28  1  0.203835  0.507698  0.450537  1
  Cl  Cl29  1  0.571838  0.760650  0.451569  1
  Cl  Cl30  1  0.428162  0.239350  0.548431  1
