# generated using pymatgen
data_Tb8Cd3HgAu8
_symmetry_space_group_name_H-M   'P 1'
_cell_length_a   8.04375000
_cell_length_b   8.04375000
_cell_length_c   7.42259700
_cell_angle_alpha   90.00000000
_cell_angle_beta   90.00000000
_cell_angle_gamma   90.00000000
_symmetry_Int_Tables_number   1
_chemical_formula_structural   Tb8Cd3HgAu8
_chemical_formula_sum   'Tb8 Cd3 Hg1 Au8'
_cell_volume   480.25623321
_cell_formula_units_Z   1
loop_
 _symmetry_equiv_pos_site_id
 _symmetry_equiv_pos_as_xyz
  1  'x, y, z'
loop_
 _atom_site_type_symbol
 _atom_site_label
 _atom_site_symmetry_multiplicity
 _atom_site_fract_x
 _atom_site_fract_y
 _atom_site_fract_z
 _atom_site_occupancy
  Tb  Tb0  1  0.842965  0.168204  0.499813  1
  Tb  Tb1  1  0.157035  0.831796  0.499813  1
  Tb  Tb2  1  0.331796  0.342965  0.000187  1
  Tb  Tb3  1  0.668204  0.657035  0.000187  1
  Tb  Tb4  1  0.684806  0.673986  0.499758  1
  Tb  Tb5  1  0.315194  0.326014  0.499758  1
  Tb  Tb6  1  0.173986  0.815194  0.000242  1
  Tb  Tb7  1  0.826014  0.184806  0.000242  1
  Cd  Cd8  1  0.500000  0.000000  0.250000  1
  Cd  Cd9  1  0.000000  0.500000  0.750000  1
  Cd  Cd10  1  0.500000  0.000000  0.750000  1
  Hg  Hg11  1  0.000000  0.500000  0.250000  1
  Au  Au12  1  0.621644  0.365893  0.267917  1
  Au  Au13  1  0.378356  0.634107  0.267917  1
  Au  Au14  1  0.131526  0.125485  0.767505  1
  Au  Au15  1  0.868474  0.874515  0.767505  1
  Au  Au16  1  0.374515  0.631526  0.732495  1
  Au  Au17  1  0.625485  0.368474  0.732495  1
  Au  Au18  1  0.865893  0.878356  0.232083  1
  Au  Au19  1  0.134107  0.121644  0.232083  1
