# generated using pymatgen
data_Tm(UNi6)2
_symmetry_space_group_name_H-M   'P 1'
_cell_length_a   4.81547874
_cell_length_b   4.82451898
_cell_length_c   10.14372200
_cell_angle_alpha   85.36324610
_cell_angle_beta   80.65133281
_cell_angle_gamma   60.05182430
_symmetry_Int_Tables_number   1
_chemical_formula_structural   Tm(UNi6)2
_chemical_formula_sum   'Tm1 U2 Ni12'
_cell_volume   201.48424402
_cell_formula_units_Z   1
loop_
 _symmetry_equiv_pos_site_id
 _symmetry_equiv_pos_as_xyz
  1  'x, y, z'
loop_
 _atom_site_type_symbol
 _atom_site_label
 _atom_site_symmetry_multiplicity
 _atom_site_fract_x
 _atom_site_fract_y
 _atom_site_fract_z
 _atom_site_occupancy
  Tm  Tm0  1  0.000000  0.000000  0.000000  1
  U  U1  1  0.132841  0.000165  0.647572  1
  U  U2  1  0.867159  0.999835  0.352428  1
  Ni  Ni3  1  0.568856  0.500772  0.799105  1
  Ni  Ni4  1  0.069795  0.499573  0.798980  1
  Ni  Ni5  1  0.431144  0.499228  0.200895  1
  Ni  Ni6  1  0.429874  0.999765  0.201163  1
  Ni  Ni7  1  0.930205  0.500427  0.201020  1
  Ni  Ni8  1  0.665373  0.669256  0.999886  1
  Ni  Ni9  1  0.570126  0.000235  0.798837  1
  Ni  Ni10  1  0.191289  0.326829  0.408722  1
  Ni  Ni11  1  0.808711  0.673171  0.591278  1
  Ni  Ni12  1  0.481888  0.327208  0.591094  1
  Ni  Ni13  1  0.518112  0.672792  0.408906  1
  Ni  Ni14  1  0.334627  0.330744  0.000114  1
