# generated using pymatgen
data_Yb5Sb4
_symmetry_space_group_name_H-M   'P 1'
_cell_length_a   8.21846100
_cell_length_b   8.20960800
_cell_length_c   16.15053600
_cell_angle_alpha   90.00000000
_cell_angle_beta   90.00000000
_cell_angle_gamma   90.00000000
_symmetry_Int_Tables_number   1
_chemical_formula_structural   Yb5Sb4
_chemical_formula_sum   'Yb20 Sb16'
_cell_volume   1089.68220635
_cell_formula_units_Z   4
loop_
 _symmetry_equiv_pos_site_id
 _symmetry_equiv_pos_as_xyz
  1  'x, y, z'
loop_
 _atom_site_type_symbol
 _atom_site_label
 _atom_site_symmetry_multiplicity
 _atom_site_fract_x
 _atom_site_fract_y
 _atom_site_fract_z
 _atom_site_occupancy
  Yb  Yb0  1  0.034550  0.184175  0.409116  1
  Yb  Yb1  1  0.883063  0.651870  0.387455  1
  Yb  Yb2  1  0.534550  0.315825  0.090884  1
  Yb  Yb3  1  0.116937  0.348130  0.612545  1
  Yb  Yb4  1  0.383063  0.848130  0.387455  1
  Yb  Yb5  1  0.116937  0.348130  0.887455  1
  Yb  Yb6  1  0.383063  0.848130  0.112545  1
  Yb  Yb7  1  0.219542  0.507694  0.250000  1
  Yb  Yb8  1  0.534550  0.315825  0.409116  1
  Yb  Yb9  1  0.780458  0.492306  0.750000  1
  Yb  Yb10  1  0.965450  0.815825  0.909116  1
  Yb  Yb11  1  0.965450  0.815825  0.590884  1
  Yb  Yb12  1  0.465450  0.684175  0.590884  1
  Yb  Yb13  1  0.616937  0.151870  0.612545  1
  Yb  Yb14  1  0.280458  0.007694  0.750000  1
  Yb  Yb15  1  0.616937  0.151870  0.887455  1
  Yb  Yb16  1  0.719542  0.992306  0.250000  1
  Yb  Yb17  1  0.883063  0.651870  0.112545  1
  Yb  Yb18  1  0.465450  0.684175  0.909116  1
  Yb  Yb19  1  0.034550  0.184175  0.090884  1
  Sb  Sb20  1  0.845473  0.359843  0.250000  1
  Sb  Sb21  1  0.406776  0.392885  0.750000  1
  Sb  Sb22  1  0.654527  0.859843  0.750000  1
  Sb  Sb23  1  0.773925  0.467109  0.547202  1
  Sb  Sb24  1  0.726075  0.967109  0.047202  1
  Sb  Sb25  1  0.773925  0.467109  0.952798  1
  Sb  Sb26  1  0.226075  0.532891  0.452798  1
  Sb  Sb27  1  0.226075  0.532891  0.047202  1
  Sb  Sb28  1  0.154527  0.640157  0.750000  1
  Sb  Sb29  1  0.345473  0.140157  0.250000  1
  Sb  Sb30  1  0.593224  0.607115  0.250000  1
  Sb  Sb31  1  0.093224  0.892885  0.250000  1
  Sb  Sb32  1  0.273925  0.032891  0.952798  1
  Sb  Sb33  1  0.906776  0.107115  0.750000  1
  Sb  Sb34  1  0.726075  0.967109  0.452798  1
  Sb  Sb35  1  0.273925  0.032891  0.547202  1
