# generated using pymatgen
data_Dy3Ho3Th2(MgRu)2
_symmetry_space_group_name_H-M   'P 1'
_cell_length_a   9.74014301
_cell_length_b   9.74014285
_cell_length_c   9.74014200
_cell_angle_alpha   59.99999610
_cell_angle_beta   59.99999665
_cell_angle_gamma   59.99999721
_symmetry_Int_Tables_number   1
_chemical_formula_structural   Dy3Ho3Th2(MgRu)2
_chemical_formula_sum   'Dy6 Ho6 Th4 Mg4 Ru4'
_cell_volume   653.40268918
_cell_formula_units_Z   2
loop_
 _symmetry_equiv_pos_site_id
 _symmetry_equiv_pos_as_xyz
  1  'x, y, z'
loop_
 _atom_site_type_symbol
 _atom_site_label
 _atom_site_symmetry_multiplicity
 _atom_site_fract_x
 _atom_site_fract_y
 _atom_site_fract_z
 _atom_site_occupancy
  Dy  Dy0  1  0.935394  0.564606  0.564606  1
  Dy  Dy1  1  0.564606  0.935394  0.935394  1
  Dy  Dy2  1  0.564606  0.935394  0.564606  1
  Dy  Dy3  1  0.935394  0.564606  0.935394  1
  Dy  Dy4  1  0.564606  0.564606  0.935394  1
  Dy  Dy5  1  0.935394  0.935394  0.564606  1
  Ho  Ho6  1  0.813961  0.186039  0.186039  1
  Ho  Ho7  1  0.186039  0.813961  0.813961  1
  Ho  Ho8  1  0.186039  0.813961  0.186039  1
  Ho  Ho9  1  0.813961  0.186039  0.813961  1
  Ho  Ho10  1  0.186039  0.186039  0.813961  1
  Ho  Ho11  1  0.813961  0.813961  0.186039  1
  Th  Th12  1  0.346403  0.346403  0.346403  1
  Th  Th13  1  0.346403  0.346403  0.960792  1
  Th  Th14  1  0.346403  0.960792  0.346403  1
  Th  Th15  1  0.960792  0.346403  0.346403  1
  Mg  Mg16  1  0.579803  0.579803  0.579803  1
  Mg  Mg17  1  0.579803  0.579803  0.260592  1
  Mg  Mg18  1  0.579803  0.260592  0.579803  1
  Mg  Mg19  1  0.260592  0.579803  0.579803  1
  Ru  Ru20  1  0.143335  0.143335  0.143335  1
  Ru  Ru21  1  0.143335  0.143335  0.569995  1
  Ru  Ru22  1  0.143335  0.569995  0.143335  1
  Ru  Ru23  1  0.569995  0.143335  0.143335  1
