# generated using pymatgen
data_Dy5Y3Cd3SnAu8
_symmetry_space_group_name_H-M   'P 1'
_cell_length_a   8.02512913
_cell_length_b   8.02343412
_cell_length_c   7.39794701
_cell_angle_alpha   89.99822948
_cell_angle_beta   90.00583337
_cell_angle_gamma   90.08332022
_symmetry_Int_Tables_number   1
_chemical_formula_structural   Dy5Y3Cd3SnAu8
_chemical_formula_sum   'Dy5 Y3 Cd3 Sn1 Au8'
_cell_volume   476.34660582
_cell_formula_units_Z   1
loop_
 _symmetry_equiv_pos_site_id
 _symmetry_equiv_pos_as_xyz
  1  'x, y, z'
loop_
 _atom_site_type_symbol
 _atom_site_label
 _atom_site_symmetry_multiplicity
 _atom_site_fract_x
 _atom_site_fract_y
 _atom_site_fract_z
 _atom_site_occupancy
  Dy  Dy0  1  0.667509  0.655656  0.000063  1
  Dy  Dy1  1  0.685168  0.673910  0.500033  1
  Dy  Dy2  1  0.314798  0.326094  0.499976  1
  Dy  Dy3  1  0.173960  0.814860  0.000011  1
  Dy  Dy4  1  0.826141  0.185258  0.999986  1
  Y  Y5  1  0.844195  0.167656  0.499927  1
  Y  Y6  1  0.155718  0.832236  0.499987  1
  Y  Y7  1  0.332358  0.344338  0.000063  1
  Cd  Cd8  1  0.499995  0.999997  0.250004  1
  Cd  Cd9  1  0.999916  0.500057  0.749996  1
  Cd  Cd10  1  0.500022  0.999998  0.750016  1
  Sn  Sn11  1  0.000016  0.499944  0.249955  1
  Au  Au12  1  0.621328  0.365266  0.268751  1
  Au  Au13  1  0.379099  0.635122  0.268653  1
  Au  Au14  1  0.132394  0.124912  0.768087  1
  Au  Au15  1  0.867261  0.874691  0.768443  1
  Au  Au16  1  0.375356  0.632560  0.732234  1
  Au  Au17  1  0.625074  0.367804  0.732215  1
  Au  Au18  1  0.864761  0.878462  0.230613  1
  Au  Au19  1  0.134932  0.121180  0.230986  1
