# generated using pymatgen
data_PrEu3(Pd2Pb)2
_symmetry_space_group_name_H-M   'P 1'
_cell_length_a   8.00619980
_cell_length_b   8.00576880
_cell_length_c   3.88194200
_cell_angle_alpha   90.00000000
_cell_angle_beta   90.00000000
_cell_angle_gamma   89.72057669
_symmetry_Int_Tables_number   1
_chemical_formula_structural   PrEu3(Pd2Pb)2
_chemical_formula_sum   'Pr1 Eu3 Pd4 Pb2'
_cell_volume   248.81315934
_cell_formula_units_Z   1
loop_
 _symmetry_equiv_pos_site_id
 _symmetry_equiv_pos_as_xyz
  1  'x, y, z'
loop_
 _atom_site_type_symbol
 _atom_site_label
 _atom_site_symmetry_multiplicity
 _atom_site_fract_x
 _atom_site_fract_y
 _atom_site_fract_z
 _atom_site_occupancy
  Pr  Pr0  1  0.175803  0.324204  0.500000  1
  Eu  Eu1  1  0.324637  0.824110  0.500000  1
  Eu  Eu2  1  0.675893  0.175356  0.500000  1
  Eu  Eu3  1  0.823047  0.676958  0.500000  1
  Pd  Pd4  1  0.878883  0.375231  0.000000  1
  Pd  Pd5  1  0.622980  0.877005  0.000000  1
  Pd  Pd6  1  0.374400  0.125595  0.000000  1
  Pd  Pd7  1  0.124767  0.621119  0.000000  1
  Pb  Pb8  1  0.500324  0.500749  0.000000  1
  Pb  Pb9  1  0.999266  0.999674  0.000000  1
