# generated using pymatgen
data_Li3Tm3Ge2Pb
_symmetry_space_group_name_H-M   'P 1'
_cell_length_a   7.04976900
_cell_length_b   7.04976971
_cell_length_c   4.33605200
_cell_angle_alpha   90.00000000
_cell_angle_beta   90.00000000
_cell_angle_gamma   120.00001074
_symmetry_Int_Tables_number   1
_chemical_formula_structural   Li3Tm3Ge2Pb
_chemical_formula_sum   'Li3 Tm3 Ge2 Pb1'
_cell_volume   186.62717567
_cell_formula_units_Z   1
loop_
 _symmetry_equiv_pos_site_id
 _symmetry_equiv_pos_as_xyz
  1  'x, y, z'
loop_
 _atom_site_type_symbol
 _atom_site_label
 _atom_site_symmetry_multiplicity
 _atom_site_fract_x
 _atom_site_fract_y
 _atom_site_fract_z
 _atom_site_occupancy
  Li  Li0  1  0.245869  0.000000  0.500000  1
  Li  Li1  1  0.000000  0.245869  0.500000  1
  Li  Li2  1  0.754131  0.754131  0.500000  1
  Tm  Tm3  1  0.555145  0.000000  0.000000  1
  Tm  Tm4  1  0.000000  0.555145  0.000000  1
  Tm  Tm5  1  0.444855  0.444855  0.000000  1
  Ge  Ge6  1  0.333333  0.666667  0.500000  1
  Ge  Ge7  1  0.666667  0.333333  0.500000  1
  Pb  Pb8  1  0.000000  0.000000  0.000000  1
