# generated using pymatgen
data_Ce4As(PtRh2)4
_symmetry_space_group_name_H-M   'P 1'
_cell_length_a   7.29800854
_cell_length_b   7.29309088
_cell_length_c   7.29800927
_cell_angle_alpha   109.09119759
_cell_angle_beta   110.26087777
_cell_angle_gamma   109.09120861
_symmetry_Int_Tables_number   1
_chemical_formula_structural   Ce4As(PtRh2)4
_chemical_formula_sum   'Ce4 As1 Pt4 Rh8'
_cell_volume   298.87820866
_cell_formula_units_Z   1
loop_
 _symmetry_equiv_pos_site_id
 _symmetry_equiv_pos_as_xyz
  1  'x, y, z'
loop_
 _atom_site_type_symbol
 _atom_site_label
 _atom_site_symmetry_multiplicity
 _atom_site_fract_x
 _atom_site_fract_y
 _atom_site_fract_z
 _atom_site_occupancy
  Ce  Ce0  1  0.997123  0.994247  0.497123  1
  Ce  Ce1  1  0.010057  0.506596  0.010057  1
  Ce  Ce2  1  0.497123  0.994247  0.997123  1
  Ce  Ce3  1  0.496539  0.506596  0.496539  1
  As  As4  1  0.000165  0.000330  0.000165  1
  Pt  Pt5  1  0.750370  0.251017  0.500647  1
  Pt  Pt6  1  0.749573  0.499147  0.249573  1
  Pt  Pt7  1  0.500647  0.251017  0.750370  1
  Pt  Pt8  1  0.249573  0.499147  0.749573  1
  Rh  Rh9  1  0.248984  0.749378  0.500394  1
  Rh  Rh10  1  0.500394  0.749378  0.248984  1
  Rh  Rh11  1  0.718865  0.718186  0.999320  1
  Rh  Rh12  1  0.284361  0.001063  0.284361  1
  Rh  Rh13  1  0.998837  0.280202  0.281365  1
  Rh  Rh14  1  0.281365  0.280202  0.998837  1
  Rh  Rh15  1  0.716702  0.001063  0.716702  1
  Rh  Rh16  1  0.999320  0.718186  0.718865  1
