# generated using pymatgen
data_Sr4Sn16Ir3Pt5
_symmetry_space_group_name_H-M   'P 1'
_cell_length_a   4.57915400
_cell_length_b   7.38583793
_cell_length_c   19.08041990
_cell_angle_alpha   90.08243969
_cell_angle_beta   90.00000000
_cell_angle_gamma   90.00000000
_symmetry_Int_Tables_number   1
_chemical_formula_structural   Sr4Sn16Ir3Pt5
_chemical_formula_sum   'Sr4 Sn16 Ir3 Pt5'
_cell_volume   645.31610090
_cell_formula_units_Z   1
loop_
 _symmetry_equiv_pos_site_id
 _symmetry_equiv_pos_as_xyz
  1  'x, y, z'
loop_
 _atom_site_type_symbol
 _atom_site_label
 _atom_site_symmetry_multiplicity
 _atom_site_fract_x
 _atom_site_fract_y
 _atom_site_fract_z
 _atom_site_occupancy
  Sr  Sr0  1  0.250000  0.993849  0.857247  1
  Sr  Sr1  1  0.250000  0.505727  0.358025  1
  Sr  Sr2  1  0.750000  0.005879  0.142660  1
  Sr  Sr3  1  0.750000  0.493693  0.642778  1
  Sn  Sn4  1  0.250000  0.305149  0.183003  1
  Sn  Sn5  1  0.250000  0.197015  0.685709  1
  Sn  Sn6  1  0.750000  0.698010  0.814495  1
  Sn  Sn7  1  0.750000  0.799498  0.315220  1
  Sn  Sn8  1  0.250000  0.719660  0.194136  1
  Sn  Sn9  1  0.250000  0.777552  0.695976  1
  Sn  Sn10  1  0.750000  0.277064  0.804318  1
  Sn  Sn11  1  0.750000  0.226795  0.304634  1
  Sn  Sn12  1  0.250000  0.862046  0.032012  1
  Sn  Sn13  1  0.250000  0.637422  0.533226  1
  Sn  Sn14  1  0.750000  0.138494  0.967109  1
  Sn  Sn15  1  0.750000  0.362153  0.467975  1
  Sn  Sn16  1  0.250000  0.519414  0.929547  1
  Sn  Sn17  1  0.250000  0.979049  0.432051  1
  Sn  Sn18  1  0.750000  0.480728  0.069792  1
  Sn  Sn19  1  0.750000  0.019273  0.570452  1
  Ir  Ir20  1  0.250000  0.484695  0.787428  1
  Ir  Ir21  1  0.750000  0.984900  0.712050  1
  Ir  Ir22  1  0.750000  0.515073  0.212404  1
  Pt  Pt23  1  0.250000  0.254908  0.034459  1
  Pt  Pt24  1  0.250000  0.245337  0.534947  1
  Pt  Pt25  1  0.750000  0.744635  0.965771  1
  Pt  Pt26  1  0.750000  0.755056  0.465051  1
  Pt  Pt27  1  0.250000  0.016926  0.287525  1
