# generated using pymatgen
data_Pr10ThIn9Pd4
_symmetry_space_group_name_H-M   'P 1'
_cell_length_a   13.59513900
_cell_length_b   13.59513955
_cell_length_c   3.83634800
_cell_angle_alpha   90.00000000
_cell_angle_beta   90.00000000
_cell_angle_gamma   112.54876067
_symmetry_Int_Tables_number   1
_chemical_formula_structural   Pr10ThIn9Pd4
_chemical_formula_sum   'Pr10 Th1 In9 Pd4'
_cell_volume   654.85837516
_cell_formula_units_Z   1
loop_
 _symmetry_equiv_pos_site_id
 _symmetry_equiv_pos_as_xyz
  1  'x, y, z'
loop_
 _atom_site_type_symbol
 _atom_site_label
 _atom_site_symmetry_multiplicity
 _atom_site_fract_x
 _atom_site_fract_y
 _atom_site_fract_z
 _atom_site_occupancy
  Pr  Pr0  1  0.416686  0.068407  0.000000  1
  Pr  Pr1  1  0.583368  0.933261  0.000000  1
  Pr  Pr2  1  0.068407  0.416686  0.000000  1
  Pr  Pr3  1  0.933261  0.583368  0.000000  1
  Pr  Pr4  1  0.159096  0.839453  0.000000  1
  Pr  Pr5  1  0.839453  0.159096  0.000000  1
  Pr  Pr6  1  0.370225  0.628136  0.000000  1
  Pr  Pr7  1  0.628136  0.370225  0.000000  1
  Pr  Pr8  1  0.306960  0.306960  0.000000  1
  Pr  Pr9  1  0.999327  0.999327  0.000000  1
  Th  Th10  1  0.691370  0.691370  0.000000  1
  In  In11  1  0.367489  0.837828  0.500000  1
  In  In12  1  0.633361  0.161968  0.500000  1
  In  In13  1  0.837828  0.367489  0.500000  1
  In  In14  1  0.161968  0.633361  0.500000  1
  In  In15  1  0.219664  0.076463  0.500000  1
  In  In16  1  0.779874  0.923676  0.500000  1
  In  In17  1  0.076463  0.219664  0.500000  1
  In  In18  1  0.923676  0.779874  0.500000  1
  In  In19  1  0.499542  0.499542  0.500000  1
  Pd  Pd20  1  0.448199  0.247292  0.500000  1
  Pd  Pd21  1  0.558873  0.749483  0.500000  1
  Pd  Pd22  1  0.247292  0.448199  0.500000  1
  Pd  Pd23  1  0.749483  0.558873  0.500000  1
