# generated using pymatgen
data_La5Nd3(Sc3Si4)4
_symmetry_space_group_name_H-M   'P 1'
_cell_length_a   7.28853543
_cell_length_b   7.56918845
_cell_length_c   14.29678194
_cell_angle_alpha   90.07803586
_cell_angle_beta   90.03866319
_cell_angle_gamma   90.02686355
_symmetry_Int_Tables_number   1
_chemical_formula_structural   La5Nd3(Sc3Si4)4
_chemical_formula_sum   'La5 Nd3 Sc12 Si16'
_cell_volume   788.72813165
_cell_formula_units_Z   1
loop_
 _symmetry_equiv_pos_site_id
 _symmetry_equiv_pos_as_xyz
  1  'x, y, z'
loop_
 _atom_site_type_symbol
 _atom_site_label
 _atom_site_symmetry_multiplicity
 _atom_site_fract_x
 _atom_site_fract_y
 _atom_site_fract_z
 _atom_site_occupancy
  La  La0  1  0.486979  0.670620  0.596651  1
  La  La1  1  0.987294  0.829008  0.596910  1
  La  La2  1  0.988652  0.829630  0.902562  1
  La  La3  1  0.511877  0.329020  0.097756  1
  La  La4  1  0.012857  0.169845  0.098001  1
  Nd  Nd5  1  0.011885  0.172853  0.400860  1
  Nd  Nd6  1  0.511733  0.327281  0.401088  1
  Nd  Nd7  1  0.488686  0.672557  0.901280  1
  Sc  Sc8  1  0.330068  0.176018  0.625225  1
  Sc  Sc9  1  0.669666  0.824694  0.374910  1
  Sc  Sc10  1  0.659285  0.003980  0.750274  1
  Sc  Sc11  1  0.169121  0.675555  0.374914  1
  Sc  Sc12  1  0.830148  0.325274  0.875126  1
  Sc  Sc13  1  0.830046  0.324021  0.625058  1
  Sc  Sc14  1  0.840690  0.502280  0.251015  1
  Sc  Sc15  1  0.341131  0.997529  0.251138  1
  Sc  Sc16  1  0.331163  0.175504  0.874740  1
  Sc  Sc17  1  0.170305  0.675283  0.126257  1
  Sc  Sc18  1  0.669130  0.823977  0.126289  1
  Sc  Sc19  1  0.159029  0.497066  0.750275  1
  Si  Si20  1  0.290061  0.884903  0.750365  1
  Si  Si21  1  0.465858  0.626024  0.251015  1
  Si  Si22  1  0.034522  0.128412  0.749935  1
  Si  Si23  1  0.534267  0.373756  0.750379  1
  Si  Si24  1  0.150130  0.460282  0.538373  1
  Si  Si25  1  0.965838  0.873559  0.250922  1
  Si  Si26  1  0.711582  0.115840  0.251454  1
  Si  Si27  1  0.849312  0.537520  0.039867  1
  Si  Si28  1  0.350657  0.960197  0.039508  1
  Si  Si29  1  0.152496  0.463875  0.959748  1
  Si  Si30  1  0.650402  0.039658  0.538394  1
  Si  Si31  1  0.348091  0.966194  0.458801  1
  Si  Si32  1  0.848054  0.533889  0.458817  1
  Si  Si33  1  0.787790  0.614809  0.750735  1
  Si  Si34  1  0.211310  0.383890  0.251558  1
  Si  Si35  1  0.649886  0.035198  0.959798  1
