# generated using pymatgen
data_La2TbNd7(Al2Ru3)2
_symmetry_space_group_name_H-M   'P 1'
_cell_length_a   8.49564372
_cell_length_b   8.63183643
_cell_length_c   8.56759798
_cell_angle_alpha   109.37628342
_cell_angle_beta   109.44160758
_cell_angle_gamma   109.51985546
_symmetry_Int_Tables_number   1
_chemical_formula_structural   La2TbNd7(Al2Ru3)2
_chemical_formula_sum   'La2 Tb1 Nd7 Al4 Ru6'
_cell_volume   484.10814872
_cell_formula_units_Z   1
loop_
 _symmetry_equiv_pos_site_id
 _symmetry_equiv_pos_as_xyz
  1  'x, y, z'
loop_
 _atom_site_type_symbol
 _atom_site_label
 _atom_site_symmetry_multiplicity
 _atom_site_fract_x
 _atom_site_fract_y
 _atom_site_fract_z
 _atom_site_occupancy
  La  La0  1  0.752042  0.811029  0.060337  1
  La  La1  1  0.439388  0.246219  0.688253  1
  Tb  Tb2  1  0.249311  0.681371  0.432751  1
  Nd  Nd3  1  0.689377  0.436613  0.254804  1
  Nd  Nd4  1  0.065449  0.749420  0.811138  1
  Nd  Nd5  1  0.815653  0.063317  0.748954  1
  Nd  Nd6  1  0.216929  0.217900  0.214132  1
  Nd  Nd7  1  0.494502  0.994533  0.282444  1
  Nd  Nd8  1  0.287377  0.502644  0.002996  1
  Nd  Nd9  1  0.002411  0.286869  0.503082  1
  Al  Al10  1  0.584967  0.589327  0.586665  1
  Al  Al11  1  0.502937  0.002781  0.912464  1
  Al  Al12  1  0.915981  0.498814  0.002509  1
  Al  Al13  1  0.998403  0.906272  0.498339  1
  Ru  Ru14  1  0.253774  0.125802  0.863285  1
  Ru  Ru15  1  0.737392  0.376659  0.630825  1
  Ru  Ru16  1  0.874505  0.256369  0.122990  1
  Ru  Ru17  1  0.105521  0.862125  0.242417  1
  Ru  Ru18  1  0.625477  0.748080  0.382631  1
  Ru  Ru19  1  0.388604  0.643855  0.758985  1
