# generated using pymatgen
data_Ta4V4SiGe2P
_symmetry_space_group_name_H-M   'P 1'
_cell_length_a   3.43633300
_cell_length_b   6.59692349
_cell_length_c   7.91871448
_cell_angle_alpha   89.78635793
_cell_angle_beta   90.00000000
_cell_angle_gamma   90.00000000
_symmetry_Int_Tables_number   1
_chemical_formula_structural   Ta4V4SiGe2P
_chemical_formula_sum   'Ta4 V4 Si1 Ge2 P1'
_cell_volume   179.50987934
_cell_formula_units_Z   1
loop_
 _symmetry_equiv_pos_site_id
 _symmetry_equiv_pos_as_xyz
  1  'x, y, z'
loop_
 _atom_site_type_symbol
 _atom_site_label
 _atom_site_symmetry_multiplicity
 _atom_site_fract_x
 _atom_site_fract_y
 _atom_site_fract_z
 _atom_site_occupancy
  Ta  Ta0  1  0.250000  0.551905  0.169602  1
  Ta  Ta1  1  0.750000  0.446903  0.826425  1
  Ta  Ta2  1  0.750000  0.971505  0.661379  1
  Ta  Ta3  1  0.250000  0.035063  0.339124  1
  V  V4  1  0.250000  0.624368  0.558837  1
  V  V5  1  0.750000  0.367753  0.446366  1
  V  V6  1  0.750000  0.867828  0.063291  1
  V  V7  1  0.250000  0.134218  0.933645  1
  Si  Si8  1  0.750000  0.741967  0.364629  1
  Ge  Ge9  1  0.250000  0.755462  0.858324  1
  Ge  Ge10  1  0.750000  0.245723  0.141401  1
  P  P11  1  0.250000  0.257307  0.636977  1
