# generated using pymatgen
data_Eu4Ga10AgPt5
_symmetry_space_group_name_H-M   'P 1'
_cell_length_a   8.69360580
_cell_length_b   8.69360634
_cell_length_c   8.69360500
_cell_angle_alpha   138.78164288
_cell_angle_beta   106.41142304
_cell_angle_gamma   88.00933431
_symmetry_Int_Tables_number   1
_chemical_formula_structural   Eu4Ga10AgPt5
_chemical_formula_sum   'Eu4 Ga10 Ag1 Pt5'
_cell_volume   398.54566131
_cell_formula_units_Z   1
loop_
 _symmetry_equiv_pos_site_id
 _symmetry_equiv_pos_as_xyz
  1  'x, y, z'
loop_
 _atom_site_type_symbol
 _atom_site_label
 _atom_site_symmetry_multiplicity
 _atom_site_fract_x
 _atom_site_fract_y
 _atom_site_fract_z
 _atom_site_occupancy
  Eu  Eu0  1  0.863347  0.634725  0.233306  1
  Eu  Eu1  1  0.136653  0.369960  0.771379  1
  Eu  Eu2  1  0.401419  0.130040  0.266694  1
  Eu  Eu3  1  0.598581  0.865275  0.728621  1
  Ga  Ga4  1  0.500000  0.750000  0.250000  1
  Ga  Ga5  1  0.500000  0.250000  0.750000  1
  Ga  Ga6  1  0.225279  0.975279  0.750000  1
  Ga  Ga7  1  0.774721  0.524721  0.750000  1
  Ga  Ga8  1  0.778340  0.028340  0.250000  1
  Ga  Ga9  1  0.221660  0.471660  0.250000  1
  Ga  Ga10  1  0.050828  0.903318  0.167012  1
  Ga  Ga11  1  0.949172  0.116184  0.852490  1
  Ga  Ga12  1  0.736305  0.383816  0.332988  1
  Ga  Ga13  1  0.263695  0.596682  0.647510  1
  Ag  Ag14  1  0.000000  0.750000  0.750000  1
  Pt  Pt15  1  0.000000  0.250000  0.250000  1
  Pt  Pt16  1  0.254585  0.859856  0.391142  1
  Pt  Pt17  1  0.745415  0.136555  0.605269  1
  Pt  Pt18  1  0.468713  0.363445  0.108858  1
  Pt  Pt19  1  0.531287  0.640144  0.894731  1
