# generated using pymatgen
data_Yb3(ScGe2)2
_symmetry_space_group_name_H-M   'P 1'
_cell_length_a   7.20135000
_cell_length_b   7.72044800
_cell_length_c   14.67048800
_cell_angle_alpha   90.00000000
_cell_angle_beta   90.00000000
_cell_angle_gamma   90.00000000
_symmetry_Int_Tables_number   1
_chemical_formula_structural   Yb3(ScGe2)2
_chemical_formula_sum   'Yb12 Sc8 Ge16'
_cell_volume   815.64463082
_cell_formula_units_Z   4
loop_
 _symmetry_equiv_pos_site_id
 _symmetry_equiv_pos_as_xyz
  1  'x, y, z'
loop_
 _atom_site_type_symbol
 _atom_site_label
 _atom_site_symmetry_multiplicity
 _atom_site_fract_x
 _atom_site_fract_y
 _atom_site_fract_z
 _atom_site_occupancy
  Yb  Yb0  1  0.987652  0.817275  0.407260  1
  Yb  Yb1  1  0.487652  0.682725  0.092740  1
  Yb  Yb2  1  0.512348  0.317275  0.592740  1
  Yb  Yb3  1  0.012348  0.182725  0.907260  1
  Yb  Yb4  1  0.012348  0.182725  0.592740  1
  Yb  Yb5  1  0.512348  0.317275  0.907260  1
  Yb  Yb6  1  0.487652  0.682725  0.407260  1
  Yb  Yb7  1  0.987652  0.817275  0.092740  1
  Yb  Yb8  1  0.339680  0.017621  0.750000  1
  Yb  Yb9  1  0.839680  0.482379  0.750000  1
  Yb  Yb10  1  0.160320  0.517621  0.250000  1
  Yb  Yb11  1  0.660320  0.982379  0.250000  1
  Sc  Sc12  1  0.320483  0.171849  0.121768  1
  Sc  Sc13  1  0.820483  0.328151  0.378232  1
  Sc  Sc14  1  0.179517  0.671849  0.878232  1
  Sc  Sc15  1  0.679517  0.828151  0.621768  1
  Sc  Sc16  1  0.320483  0.171849  0.378232  1
  Sc  Sc17  1  0.820483  0.328151  0.121768  1
  Sc  Sc18  1  0.179517  0.671849  0.621768  1
  Sc  Sc19  1  0.679517  0.828151  0.878232  1
  Ge  Ge20  1  0.841599  0.537749  0.539050  1
  Ge  Ge21  1  0.341599  0.962251  0.960950  1
  Ge  Ge22  1  0.658401  0.037749  0.460950  1
  Ge  Ge23  1  0.158401  0.462251  0.039050  1
  Ge  Ge24  1  0.158401  0.462251  0.460950  1
  Ge  Ge25  1  0.658401  0.037749  0.039050  1
  Ge  Ge26  1  0.341599  0.962251  0.539050  1
  Ge  Ge27  1  0.841599  0.537749  0.960950  1
  Ge  Ge28  1  0.971905  0.864965  0.750000  1
  Ge  Ge29  1  0.471905  0.635035  0.750000  1
  Ge  Ge30  1  0.528095  0.364965  0.250000  1
  Ge  Ge31  1  0.028095  0.135035  0.250000  1
  Ge  Ge32  1  0.234697  0.391998  0.750000  1
  Ge  Ge33  1  0.734697  0.108002  0.750000  1
  Ge  Ge34  1  0.265303  0.891998  0.250000  1
  Ge  Ge35  1  0.765303  0.608002  0.250000  1
