# generated using pymatgen
data_Th3Cd3C
_symmetry_space_group_name_H-M   'P 1'
_cell_length_a   9.88247222
_cell_length_b   9.87869556
_cell_length_c   9.87520375
_cell_angle_alpha   120.29606693
_cell_angle_beta   89.45339481
_cell_angle_gamma   120.31323113
_symmetry_Int_Tables_number   1
_chemical_formula_structural   Th3Cd3C
_chemical_formula_sum   'Th12 Cd12 C4'
_cell_volume   678.65021169
_cell_formula_units_Z   4
loop_
 _symmetry_equiv_pos_site_id
 _symmetry_equiv_pos_as_xyz
  1  'x, y, z'
loop_
 _atom_site_type_symbol
 _atom_site_label
 _atom_site_symmetry_multiplicity
 _atom_site_fract_x
 _atom_site_fract_y
 _atom_site_fract_z
 _atom_site_occupancy
  Th  Th0  1  0.937524  0.375106  0.187566  1
  Th  Th1  1  0.936869  0.749964  0.186941  1
  Th  Th2  1  0.312562  0.750003  0.187513  1
  Th  Th3  1  0.686981  0.250021  0.437013  1
  Th  Th4  1  0.687516  0.875049  0.437529  1
  Th  Th5  1  0.062546  0.250064  0.437568  1
  Th  Th6  1  0.312470  0.124926  0.562456  1
  Th  Th7  1  0.313032  0.749981  0.563003  1
  Th  Th8  1  0.937439  0.749937  0.562442  1
  Th  Th9  1  0.687454  0.250002  0.812483  1
  Th  Th10  1  0.062490  0.624922  0.812446  1
  Th  Th11  1  0.063129  0.250039  0.813050  1
  Cd  Cd12  1  0.000002  0.000008  0.000003  1
  Cd  Cd13  1  0.500007  0.000009  0.000006  1
  Cd  Cd14  1  0.499990  0.499986  0.999987  1
  Cd  Cd15  1  0.705701  0.910965  0.116853  1
  Cd  Cd16  1  0.294807  0.089148  0.205807  1
  Cd  Cd17  1  0.294357  0.410991  0.205250  1
  Cd  Cd18  1  0.616405  0.410832  0.205601  1
  Cd  Cd19  1  0.499995  0.499993  0.500001  1
  Cd  Cd20  1  0.383595  0.589151  0.794386  1
  Cd  Cd21  1  0.705624  0.588992  0.794742  1
  Cd  Cd22  1  0.705204  0.910875  0.794220  1
  Cd  Cd23  1  0.294304  0.089043  0.883139  1
  C  C24  1  0.000016  0.500014  0.000003  1
  C  C25  1  0.999994  0.999992  0.499998  1
  C  C26  1  0.499998  0.999989  0.499989  1
  C  C27  1  0.999998  0.500010  0.500012  1
