# generated using pymatgen
data_Sr3Er(Al3Pd)6
_symmetry_space_group_name_H-M   'P 1'
_cell_length_a   7.72711707
_cell_length_b   7.73609817
_cell_length_c   9.66790400
_cell_angle_alpha   90.00000000
_cell_angle_beta   90.00000000
_cell_angle_gamma   119.43515571
_symmetry_Int_Tables_number   1
_chemical_formula_structural   Sr3Er(Al3Pd)6
_chemical_formula_sum   'Sr3 Er1 Al18 Pd6'
_cell_volume   503.32243165
_cell_formula_units_Z   1
loop_
 _symmetry_equiv_pos_site_id
 _symmetry_equiv_pos_as_xyz
  1  'x, y, z'
loop_
 _atom_site_type_symbol
 _atom_site_label
 _atom_site_symmetry_multiplicity
 _atom_site_fract_x
 _atom_site_fract_y
 _atom_site_fract_z
 _atom_site_occupancy
  Sr  Sr0  1  0.994580  0.669473  0.250000  1
  Sr  Sr1  1  0.002811  0.330404  0.750000  1
  Sr  Sr2  1  0.670969  0.995565  0.250000  1
  Er  Er3  1  0.329633  0.002619  0.750000  1
  Al  Al4  1  0.137994  0.135360  0.250000  1
  Al  Al5  1  0.871237  0.867256  0.750000  1
  Al  Al6  1  0.005934  0.335064  0.072166  1
  Al  Al7  1  0.000053  0.668583  0.921037  1
  Al  Al8  1  0.000053  0.668583  0.578963  1
  Al  Al9  1  0.334629  0.003899  0.432020  1
  Al  Al10  1  0.005934  0.335064  0.427834  1
  Al  Al11  1  0.661575  0.996945  0.578912  1
  Al  Al12  1  0.661575  0.996945  0.921088  1
  Al  Al13  1  0.334629  0.003899  0.067980  1
  Al  Al14  1  0.334447  0.331286  0.558438  1
  Al  Al15  1  0.663420  0.663496  0.455169  1
  Al  Al16  1  0.663420  0.663496  0.044831  1
  Al  Al17  1  0.334447  0.331286  0.941562  1
  Al  Al18  1  0.341471  0.542914  0.250000  1
  Al  Al19  1  0.652333  0.451736  0.750000  1
  Al  Al20  1  0.540514  0.339028  0.250000  1
  Al  Al21  1  0.458021  0.666531  0.750000  1
  Pd  Pd22  1  0.670337  0.328455  0.997529  1
  Pd  Pd23  1  0.328742  0.671304  0.997255  1
  Pd  Pd24  1  0.328742  0.671304  0.502745  1
  Pd  Pd25  1  0.670337  0.328455  0.502471  1
  Pd  Pd26  1  0.001080  0.000525  0.997063  1
  Pd  Pd27  1  0.001080  0.000525  0.502937  1
