# generated using pymatgen
data_Tb5Bi2Ru
_symmetry_space_group_name_H-M   'P 1'
_cell_length_a   8.01507700
_cell_length_b   9.05669900
_cell_length_c   12.49941500
_cell_angle_alpha   90.00000000
_cell_angle_beta   90.00000000
_cell_angle_gamma   90.00000000
_symmetry_Int_Tables_number   1
_chemical_formula_structural   Tb5Bi2Ru
_chemical_formula_sum   'Tb20 Bi8 Ru4'
_cell_volume   907.33428290
_cell_formula_units_Z   4
loop_
 _symmetry_equiv_pos_site_id
 _symmetry_equiv_pos_as_xyz
  1  'x, y, z'
loop_
 _atom_site_type_symbol
 _atom_site_label
 _atom_site_symmetry_multiplicity
 _atom_site_fract_x
 _atom_site_fract_y
 _atom_site_fract_z
 _atom_site_occupancy
  Tb  Tb0  1  0.843730  0.750000  0.793294  1
  Tb  Tb1  1  0.156270  0.250000  0.206706  1
  Tb  Tb2  1  0.343730  0.250000  0.706706  1
  Tb  Tb3  1  0.656270  0.750000  0.293294  1
  Tb  Tb4  1  0.375159  0.750000  0.692648  1
  Tb  Tb5  1  0.624841  0.250000  0.307352  1
  Tb  Tb6  1  0.875159  0.250000  0.807352  1
  Tb  Tb7  1  0.124841  0.750000  0.192648  1
  Tb  Tb8  1  0.946298  0.750000  0.504578  1
  Tb  Tb9  1  0.053702  0.250000  0.495422  1
  Tb  Tb10  1  0.446298  0.250000  0.995422  1
  Tb  Tb11  1  0.553702  0.750000  0.004578  1
  Tb  Tb12  1  0.676081  0.041271  0.564118  1
  Tb  Tb13  1  0.323919  0.958729  0.435882  1
  Tb  Tb14  1  0.176081  0.958729  0.935882  1
  Tb  Tb15  1  0.323919  0.541271  0.435882  1
  Tb  Tb16  1  0.823919  0.041271  0.064118  1
  Tb  Tb17  1  0.676081  0.458729  0.564118  1
  Tb  Tb18  1  0.823919  0.458729  0.064118  1
  Tb  Tb19  1  0.176081  0.541271  0.935882  1
  Bi  Bi20  1  0.570563  0.493816  0.827458  1
  Bi  Bi21  1  0.429437  0.506184  0.172542  1
  Bi  Bi22  1  0.070563  0.506184  0.672542  1
  Bi  Bi23  1  0.429437  0.993816  0.172542  1
  Bi  Bi24  1  0.929437  0.493816  0.327458  1
  Bi  Bi25  1  0.570563  0.006184  0.827458  1
  Bi  Bi26  1  0.929437  0.006184  0.327458  1
  Bi  Bi27  1  0.070563  0.993816  0.672542  1
  Ru  Ru28  1  0.574833  0.750000  0.511763  1
  Ru  Ru29  1  0.425167  0.250000  0.488237  1
  Ru  Ru30  1  0.074833  0.250000  0.988237  1
  Ru  Ru31  1  0.925167  0.750000  0.011763  1
