# generated using pymatgen
data_Tb7DyRe(B8Os)3
_symmetry_space_group_name_H-M   'P 1'
_cell_length_a   3.68194100
_cell_length_b   9.19015215
_cell_length_c   11.57541806
_cell_angle_alpha   90.09486712
_cell_angle_beta   90.00000000
_cell_angle_gamma   90.00000000
_symmetry_Int_Tables_number   1
_chemical_formula_structural   Tb7DyRe(B8Os)3
_chemical_formula_sum   'Tb7 Dy1 Re1 B24 Os3'
_cell_volume   391.68380600
_cell_formula_units_Z   1
loop_
 _symmetry_equiv_pos_site_id
 _symmetry_equiv_pos_as_xyz
  1  'x, y, z'
loop_
 _atom_site_type_symbol
 _atom_site_label
 _atom_site_symmetry_multiplicity
 _atom_site_fract_x
 _atom_site_fract_y
 _atom_site_fract_z
 _atom_site_occupancy
  Tb  Tb0  1  0.000000  0.323030  0.414792  1
  Tb  Tb1  1  0.000000  0.679418  0.588220  1
  Tb  Tb2  1  0.000000  0.823077  0.083799  1
  Tb  Tb3  1  0.000000  0.176063  0.913107  1
  Tb  Tb4  1  0.000000  0.943252  0.371776  1
  Tb  Tb5  1  0.000000  0.056026  0.627749  1
  Tb  Tb6  1  0.000000  0.442986  0.127799  1
  Dy  Dy7  1  0.000000  0.556513  0.872668  1
  Re  Re8  1  0.000000  0.862169  0.821462  1
  B  B9  1  0.500000  0.553946  0.432843  1
  B  B10  1  0.500000  0.446193  0.567571  1
  B  B11  1  0.500000  0.053740  0.067675  1
  B  B12  1  0.500000  0.946905  0.932716  1
  B  B13  1  0.500000  0.747589  0.419167  1
  B  B14  1  0.500000  0.252565  0.580703  1
  B  B15  1  0.500000  0.247342  0.080973  1
  B  B16  1  0.500000  0.752060  0.919032  1
  B  B17  1  0.500000  0.789777  0.266563  1
  B  B18  1  0.500000  0.209785  0.732733  1
  B  B19  1  0.500000  0.290275  0.233498  1
  B  B20  1  0.500000  0.708803  0.766589  1
  B  B21  1  0.500000  0.631479  0.186055  1
  B  B22  1  0.500000  0.368269  0.813725  1
  B  B23  1  0.500000  0.132124  0.314142  1
  B  B24  1  0.500000  0.868150  0.686167  1
  B  B25  1  0.500000  0.984257  0.212549  1
  B  B26  1  0.500000  0.016770  0.787340  1
  B  B27  1  0.500000  0.483914  0.287908  1
  B  B28  1  0.500000  0.516237  0.712905  1
  B  B29  1  0.500000  0.606981  0.030120  1
  B  B30  1  0.500000  0.391712  0.970039  1
  B  B31  1  0.500000  0.108532  0.469514  1
  B  B32  1  0.500000  0.892078  0.529427  1
  Os  Os33  1  0.000000  0.637293  0.321644  1
  Os  Os34  1  0.000000  0.362937  0.678083  1
  Os  Os35  1  0.000000  0.137753  0.178944  1
