# generated using pymatgen
data_BaFeP3N5O2
_symmetry_space_group_name_H-M   'P 1'
_cell_length_a   6.79943600
_cell_length_b   7.19298102
_cell_length_c   14.44987549
_cell_angle_alpha   60.44497850
_cell_angle_beta   90.00000000
_cell_angle_gamma   90.00000000
_symmetry_Int_Tables_number   1
_chemical_formula_structural   BaFeP3N5O2
_chemical_formula_sum   'Ba4 Fe4 P12 N20 O8'
_cell_volume   614.76121765
_cell_formula_units_Z   4
loop_
 _symmetry_equiv_pos_site_id
 _symmetry_equiv_pos_as_xyz
  1  'x, y, z'
loop_
 _atom_site_type_symbol
 _atom_site_label
 _atom_site_symmetry_multiplicity
 _atom_site_fract_x
 _atom_site_fract_y
 _atom_site_fract_z
 _atom_site_occupancy
  Ba  Ba0  1  0.750110  0.508662  0.613310  1
  Ba  Ba1  1  0.250110  0.491338  0.886690  1
  Ba  Ba2  1  0.249890  0.491338  0.386690  1
  Ba  Ba3  1  0.749890  0.508662  0.113310  1
  Fe  Fe4  1  0.510247  0.995530  0.877899  1
  Fe  Fe5  1  0.010247  0.004470  0.622101  1
  Fe  Fe6  1  0.489753  0.004470  0.122101  1
  Fe  Fe7  1  0.989753  0.995530  0.377899  1
  P  P8  1  0.015164  0.953424  0.875940  1
  P  P9  1  0.515164  0.046576  0.624060  1
  P  P10  1  0.984836  0.046576  0.124060  1
  P  P11  1  0.484836  0.953424  0.375940  1
  P  P12  1  0.282919  0.740576  0.584973  1
  P  P13  1  0.782919  0.259424  0.915027  1
  P  P14  1  0.717081  0.259424  0.415027  1
  P  P15  1  0.217081  0.740576  0.084973  1
  P  P16  1  0.764574  0.727683  0.795800  1
  P  P17  1  0.264574  0.272317  0.704200  1
  P  P18  1  0.235426  0.272317  0.204200  1
  P  P19  1  0.735426  0.727683  0.295800  1
  N  N20  1  0.313445  0.923490  0.620775  1
  N  N21  1  0.813445  0.076510  0.879225  1
  N  N22  1  0.686555  0.076510  0.379225  1
  N  N23  1  0.186555  0.923490  0.120775  1
  N  N24  1  0.704491  0.883362  0.668939  1
  N  N25  1  0.204491  0.116638  0.831061  1
  N  N26  1  0.295509  0.116638  0.331061  1
  N  N27  1  0.795509  0.883362  0.168939  1
  N  N28  1  0.970539  0.842664  0.802284  1
  N  N29  1  0.470539  0.157336  0.697716  1
  N  N30  1  0.029461  0.157336  0.197716  1
  N  N31  1  0.529461  0.842664  0.302284  1
  N  N32  1  0.814572  0.493447  0.809924  1
  N  N33  1  0.314572  0.506553  0.690076  1
  N  N34  1  0.185428  0.506553  0.190076  1
  N  N35  1  0.685428  0.493447  0.309924  1
  N  N36  1  0.572305  0.246580  0.507251  1
  N  N37  1  0.072305  0.753420  0.992749  1
  N  N38  1  0.427695  0.753420  0.492749  1
  N  N39  1  0.927695  0.246580  0.007251  1
  O  O40  1  0.062273  0.780638  0.547309  1
  O  O41  1  0.562273  0.219362  0.952691  1
  O  O42  1  0.937727  0.219362  0.452691  1
  O  O43  1  0.437727  0.780638  0.047309  1
  O  O44  1  0.603334  0.712294  0.875880  1
  O  O45  1  0.103334  0.287706  0.624120  1
  O  O46  1  0.396666  0.287706  0.124120  1
  O  O47  1  0.896666  0.712294  0.375880  1
