# generated using pymatgen
data_Ta12Mn3Al4Cr5N4
_symmetry_space_group_name_H-M   'P 1'
_cell_length_a   8.16201093
_cell_length_b   8.16201083
_cell_length_c   8.16201043
_cell_angle_alpha   59.60176426
_cell_angle_beta   59.60176719
_cell_angle_gamma   59.60176073
_symmetry_Int_Tables_number   1
_chemical_formula_structural   Ta12Mn3Al4Cr5N4
_chemical_formula_sum   'Ta12 Mn3 Al4 Cr5 N4'
_cell_volume   381.00233755
_cell_formula_units_Z   1
loop_
 _symmetry_equiv_pos_site_id
 _symmetry_equiv_pos_as_xyz
  1  'x, y, z'
loop_
 _atom_site_type_symbol
 _atom_site_label
 _atom_site_symmetry_multiplicity
 _atom_site_fract_x
 _atom_site_fract_y
 _atom_site_fract_z
 _atom_site_occupancy
  Ta  Ta0  1  0.807515  0.807515  0.191854  1
  Ta  Ta1  1  0.195915  0.195915  0.804991  1
  Ta  Ta2  1  0.807515  0.191854  0.807515  1
  Ta  Ta3  1  0.195915  0.804991  0.195915  1
  Ta  Ta4  1  0.191854  0.807515  0.807515  1
  Ta  Ta5  1  0.804991  0.195915  0.195915  1
  Ta  Ta6  1  0.442419  0.442419  0.053382  1
  Ta  Ta7  1  0.057260  0.057260  0.442379  1
  Ta  Ta8  1  0.442419  0.053382  0.442419  1
  Ta  Ta9  1  0.057260  0.442379  0.057260  1
  Ta  Ta10  1  0.053382  0.442419  0.442419  1
  Ta  Ta11  1  0.442379  0.057260  0.057260  1
  Mn  Mn12  1  0.731819  0.422564  0.422564  1
  Mn  Mn13  1  0.422564  0.731819  0.422564  1
  Mn  Mn14  1  0.422564  0.422564  0.731819  1
  Al  Al15  1  0.416865  0.416865  0.416865  1
  Al  Al16  1  0.502953  0.832596  0.832596  1
  Al  Al17  1  0.832596  0.502953  0.832596  1
  Al  Al18  1  0.832596  0.832596  0.502953  1
  Cr  Cr19  1  0.132740  0.631437  0.631437  1
  Cr  Cr20  1  0.631437  0.132740  0.631437  1
  Cr  Cr21  1  0.631437  0.631437  0.132740  1
  Cr  Cr22  1  0.616171  0.616171  0.616171  1
  Cr  Cr23  1  0.828073  0.828073  0.828073  1
  N  N24  1  0.625618  0.123987  0.123987  1
  N  N25  1  0.123987  0.625618  0.123987  1
  N  N26  1  0.123987  0.123987  0.625618  1
  N  N27  1  0.125768  0.125768  0.125768  1
