# generated using pymatgen
data_Ce5ZnSb3
_symmetry_space_group_name_H-M   'P 1'
_cell_length_a   9.42224000
_cell_length_b   9.42223983
_cell_length_c   6.42350700
_cell_angle_alpha   90.00000000
_cell_angle_beta   90.00000000
_cell_angle_gamma   120.00000061
_symmetry_Int_Tables_number   1
_chemical_formula_structural   Ce5ZnSb3
_chemical_formula_sum   'Ce10 Zn2 Sb6'
_cell_volume   493.86829579
_cell_formula_units_Z   2
loop_
 _symmetry_equiv_pos_site_id
 _symmetry_equiv_pos_as_xyz
  1  'x, y, z'
loop_
 _atom_site_type_symbol
 _atom_site_label
 _atom_site_symmetry_multiplicity
 _atom_site_fract_x
 _atom_site_fract_y
 _atom_site_fract_z
 _atom_site_occupancy
  Ce  Ce0  1  0.276549  0.276549  0.750000  1
  Ce  Ce1  1  0.276549  0.000000  0.250000  1
  Ce  Ce2  1  0.723451  0.000000  0.750000  1
  Ce  Ce3  1  0.000000  0.723451  0.750000  1
  Ce  Ce4  1  0.000000  0.276549  0.250000  1
  Ce  Ce5  1  0.723451  0.723451  0.250000  1
  Ce  Ce6  1  0.333333  0.666667  0.500000  1
  Ce  Ce7  1  0.333333  0.666667  0.000000  1
  Ce  Ce8  1  0.666667  0.333333  0.500000  1
  Ce  Ce9  1  0.666667  0.333333  0.000000  1
  Zn  Zn10  1  0.000000  0.000000  0.500000  1
  Zn  Zn11  1  0.000000  0.000000  0.000000  1
  Sb  Sb12  1  0.000000  0.374229  0.750000  1
  Sb  Sb13  1  0.000000  0.625771  0.250000  1
  Sb  Sb14  1  0.374229  0.374229  0.250000  1
  Sb  Sb15  1  0.374229  0.000000  0.750000  1
  Sb  Sb16  1  0.625771  0.625771  0.750000  1
  Sb  Sb17  1  0.625771  0.000000  0.250000  1
