# generated using pymatgen
data_Lu12Fe3Sn2
_symmetry_space_group_name_H-M   'P 1'
_cell_length_a   8.16025397
_cell_length_b   8.16025459
_cell_length_c   8.16025464
_cell_angle_alpha   108.56943268
_cell_angle_beta   108.56943430
_cell_angle_gamma   111.29024507
_symmetry_Int_Tables_number   1
_chemical_formula_structural   Lu12Fe3Sn2
_chemical_formula_sum   'Lu12 Fe3 Sn2'
_cell_volume   417.98398417
_cell_formula_units_Z   1
loop_
 _symmetry_equiv_pos_site_id
 _symmetry_equiv_pos_as_xyz
  1  'x, y, z'
loop_
 _atom_site_type_symbol
 _atom_site_label
 _atom_site_symmetry_multiplicity
 _atom_site_fract_x
 _atom_site_fract_y
 _atom_site_fract_z
 _atom_site_occupancy
  Lu  Lu0  1  0.307599  0.307599  0.615198  1
  Lu  Lu1  1  0.692401  0.692401  0.384802  1
  Lu  Lu2  1  0.692401  0.307599  0.000000  1
  Lu  Lu3  1  0.307599  0.692401  0.000000  1
  Lu  Lu4  1  0.192646  0.428003  0.235358  1
  Lu  Lu5  1  0.807354  0.571997  0.764642  1
  Lu  Lu6  1  0.192646  0.957287  0.764642  1
  Lu  Lu7  1  0.957287  0.192646  0.764642  1
  Lu  Lu8  1  0.807354  0.042713  0.235358  1
  Lu  Lu9  1  0.042713  0.807354  0.235358  1
  Lu  Lu10  1  0.428003  0.192646  0.235358  1
  Lu  Lu11  1  0.571997  0.807354  0.764642  1
  Fe  Fe12  1  0.382319  0.382319  0.000000  1
  Fe  Fe13  1  0.617681  0.617681  0.000000  1
  Fe  Fe14  1  0.000000  0.000000  0.000000  1
  Sn  Sn15  1  0.000000  0.500000  0.500000  1
  Sn  Sn16  1  0.500000  0.000000  0.500000  1
