# generated using pymatgen
data_Tb16DyLu3Sn16
_symmetry_space_group_name_H-M   'P 1'
_cell_length_a   8.01810318
_cell_length_b   8.17595518
_cell_length_c   15.48308200
_cell_angle_alpha   90.00000000
_cell_angle_beta   90.00000000
_cell_angle_gamma   90.02417207
_symmetry_Int_Tables_number   1
_chemical_formula_structural   Tb16DyLu3Sn16
_chemical_formula_sum   'Tb16 Dy1 Lu3 Sn16'
_cell_volume   1015.00344872
_cell_formula_units_Z   1
loop_
 _symmetry_equiv_pos_site_id
 _symmetry_equiv_pos_as_xyz
  1  'x, y, z'
loop_
 _atom_site_type_symbol
 _atom_site_label
 _atom_site_symmetry_multiplicity
 _atom_site_fract_x
 _atom_site_fract_y
 _atom_site_fract_z
 _atom_site_occupancy
  Tb  Tb0  1  0.367641  0.836514  0.878231  1
  Tb  Tb1  1  0.867169  0.663873  0.621772  1
  Tb  Tb2  1  0.632526  0.163698  0.378188  1
  Tb  Tb3  1  0.132523  0.336343  0.121861  1
  Tb  Tb4  1  0.632526  0.163698  0.121812  1
  Tb  Tb5  1  0.132523  0.336343  0.378139  1
  Tb  Tb6  1  0.367641  0.836514  0.621769  1
  Tb  Tb7  1  0.867169  0.663873  0.878228  1
  Tb  Tb8  1  0.520227  0.319904  0.902505  1
  Tb  Tb9  1  0.019988  0.179907  0.597514  1
  Tb  Tb10  1  0.479876  0.679989  0.402430  1
  Tb  Tb11  1  0.979933  0.819981  0.097531  1
  Tb  Tb12  1  0.479876  0.679989  0.097570  1
  Tb  Tb13  1  0.979933  0.819981  0.402469  1
  Tb  Tb14  1  0.520227  0.319904  0.597495  1
  Tb  Tb15  1  0.019988  0.179907  0.902486  1
  Dy  Dy16  1  0.198087  0.502352  0.750000  1
  Lu  Lu17  1  0.698481  0.997526  0.750000  1
  Lu  Lu18  1  0.801593  0.497582  0.250000  1
  Lu  Lu19  1  0.301604  0.002366  0.250000  1
  Sn  Sn20  1  0.292536  0.034651  0.042869  1
  Sn  Sn21  1  0.792529  0.465399  0.457138  1
  Sn  Sn22  1  0.707469  0.965320  0.542810  1
  Sn  Sn23  1  0.207442  0.534667  0.957488  1
  Sn  Sn24  1  0.707469  0.965320  0.957190  1
  Sn  Sn25  1  0.207442  0.534667  0.542512  1
  Sn  Sn26  1  0.292536  0.034651  0.457131  1
  Sn  Sn27  1  0.792529  0.465399  0.042862  1
  Sn  Sn28  1  0.564748  0.618681  0.750000  1
  Sn  Sn29  1  0.063843  0.881842  0.750000  1
  Sn  Sn30  1  0.436135  0.381516  0.250000  1
  Sn  Sn31  1  0.936035  0.118437  0.250000  1
  Sn  Sn32  1  0.328648  0.146978  0.750000  1
  Sn  Sn33  1  0.828342  0.352037  0.750000  1
  Sn  Sn34  1  0.671453  0.852229  0.250000  1
  Sn  Sn35  1  0.171313  0.647962  0.250000  1
