# generated using pymatgen
data_Tb5Dy(BCl3)2
_symmetry_space_group_name_H-M   'P 1'
_cell_length_a   9.49049047
_cell_length_b   9.49049486
_cell_length_c   9.49180026
_cell_angle_alpha   109.48872054
_cell_angle_beta   109.44749080
_cell_angle_gamma   109.47187192
_symmetry_Int_Tables_number   1
_chemical_formula_structural   Tb5Dy(BCl3)2
_chemical_formula_sum   'Tb10 Dy2 B4 Cl12'
_cell_volume   658.16391769
_cell_formula_units_Z   2
loop_
 _symmetry_equiv_pos_site_id
 _symmetry_equiv_pos_as_xyz
  1  'x, y, z'
loop_
 _atom_site_type_symbol
 _atom_site_label
 _atom_site_symmetry_multiplicity
 _atom_site_fract_x
 _atom_site_fract_y
 _atom_site_fract_z
 _atom_site_occupancy
  Tb  Tb0  1  0.749983  0.014915  0.484904  1
  Tb  Tb1  1  0.235207  0.470361  0.485313  1
  Tb  Tb2  1  0.264960  0.750231  0.235110  1
  Tb  Tb3  1  0.030011  0.265079  0.015096  1
  Tb  Tb4  1  0.015120  0.029848  0.264889  1
  Tb  Tb5  1  0.485048  0.749894  0.014687  1
  Tb  Tb6  1  0.484896  0.235110  0.470204  1
  Tb  Tb7  1  0.015357  0.485393  0.750283  1
  Tb  Tb8  1  0.264906  0.014692  0.029796  1
  Tb  Tb9  1  0.235110  0.265075  0.749718  1
  Dy  Dy10  1  0.469070  0.484609  0.234590  1
  Dy  Dy11  1  0.750019  0.234479  0.265410  1
  B  B12  1  0.250506  0.250540  0.249909  1
  B  B13  1  0.500630  0.000596  0.250090  1
  B  B14  1  0.999416  0.249952  0.499565  1
  B  B15  1  0.250388  0.499851  0.000435  1
  Cl  Cl16  1  0.250061  0.755238  0.744846  1
  Cl  Cl17  1  0.510391  0.505214  0.755154  1
  Cl  Cl18  1  0.989654  0.744819  0.994866  1
  Cl  Cl19  1  0.744905  0.249986  0.755010  1
  Cl  Cl20  1  0.994976  0.989895  0.744990  1
  Cl  Cl21  1  0.249953  0.994787  0.505134  1
  Cl  Cl22  1  0.754641  0.509668  0.503927  1
  Cl  Cl23  1  0.505741  0.250715  0.996073  1
  Cl  Cl24  1  0.754621  0.744377  0.250027  1
  Cl  Cl25  1  0.744892  0.995508  0.990320  1
  Cl  Cl26  1  0.994350  0.504594  0.249973  1
  Cl  Cl27  1  0.505188  0.754573  0.509680  1
