# generated using pymatgen
data_Sc4Al4IrPt3
_symmetry_space_group_name_H-M   'P 1'
_cell_length_a   4.34298400
_cell_length_b   6.41373937
_cell_length_c   7.59047998
_cell_angle_alpha   90.15979374
_cell_angle_beta   90.00000000
_cell_angle_gamma   90.00000000
_symmetry_Int_Tables_number   1
_chemical_formula_structural   Sc4Al4IrPt3
_chemical_formula_sum   'Sc4 Al4 Ir1 Pt3'
_cell_volume   211.43023254
_cell_formula_units_Z   1
loop_
 _symmetry_equiv_pos_site_id
 _symmetry_equiv_pos_as_xyz
  1  'x, y, z'
loop_
 _atom_site_type_symbol
 _atom_site_label
 _atom_site_symmetry_multiplicity
 _atom_site_fract_x
 _atom_site_fract_y
 _atom_site_fract_z
 _atom_site_occupancy
  Sc  Sc0  1  0.250000  0.974493  0.315286  1
  Sc  Sc1  1  0.250000  0.472334  0.179752  1
  Sc  Sc2  1  0.750000  0.026613  0.688030  1
  Sc  Sc3  1  0.750000  0.517709  0.815970  1
  Al  Al4  1  0.250000  0.345559  0.562580  1
  Al  Al5  1  0.250000  0.850742  0.937312  1
  Al  Al6  1  0.750000  0.653508  0.437963  1
  Al  Al7  1  0.750000  0.154760  0.061475  1
  Ir  Ir8  1  0.250000  0.242639  0.887427  1
  Pt  Pt9  1  0.250000  0.737817  0.613065  1
  Pt  Pt10  1  0.750000  0.762764  0.114033  1
  Pt  Pt11  1  0.750000  0.261063  0.387108  1
