# generated using pymatgen
data_PrErTm3(In2Pt)2
_symmetry_space_group_name_H-M   'P 1'
_cell_length_a   3.60114200
_cell_length_b   8.18086259
_cell_length_c   18.30811758
_cell_angle_alpha   89.92842108
_cell_angle_beta   90.00000000
_cell_angle_gamma   90.00000000
_symmetry_Int_Tables_number   1
_chemical_formula_structural   PrErTm3(In2Pt)2
_chemical_formula_sum   'Pr2 Er2 Tm6 In8 Pt4'
_cell_volume   539.36492280
_cell_formula_units_Z   2
loop_
 _symmetry_equiv_pos_site_id
 _symmetry_equiv_pos_as_xyz
  1  'x, y, z'
loop_
 _atom_site_type_symbol
 _atom_site_label
 _atom_site_symmetry_multiplicity
 _atom_site_fract_x
 _atom_site_fract_y
 _atom_site_fract_z
 _atom_site_occupancy
  Pr  Pr0  1  0.000000  0.000000  0.000000  1
  Pr  Pr1  1  0.000000  0.500000  0.500000  1
  Er  Er2  1  0.000000  0.258357  0.719433  1
  Er  Er3  1  0.000000  0.741643  0.280567  1
  Tm  Tm4  1  0.000000  0.120363  0.413086  1
  Tm  Tm5  1  0.000000  0.879637  0.586914  1
  Tm  Tm6  1  0.000000  0.379983  0.913151  1
  Tm  Tm7  1  0.000000  0.620017  0.086849  1
  Tm  Tm8  1  0.000000  0.241671  0.219463  1
  Tm  Tm9  1  0.000000  0.758329  0.780537  1
  In  In10  1  0.500000  0.420199  0.347501  1
  In  In11  1  0.500000  0.579801  0.652499  1
  In  In12  1  0.500000  0.079037  0.847663  1
  In  In13  1  0.500000  0.920963  0.152337  1
  In  In14  1  0.500000  0.301898  0.067675  1
  In  In15  1  0.500000  0.698102  0.932325  1
  In  In16  1  0.500000  0.197472  0.567510  1
  In  In17  1  0.500000  0.802528  0.432490  1
  Pt  Pt18  1  0.500000  0.026026  0.303447  1
  Pt  Pt19  1  0.500000  0.973974  0.696553  1
  Pt  Pt20  1  0.500000  0.476035  0.803788  1
  Pt  Pt21  1  0.500000  0.523965  0.196212  1
