# generated using pymatgen
data_TbCe8Y11(CoBi2)4
_symmetry_space_group_name_H-M   'P 1'
_cell_length_a   7.97959215
_cell_length_b   9.06796700
_cell_length_c   12.24566037
_cell_angle_alpha   90.00000000
_cell_angle_beta   90.08461706
_cell_angle_gamma   90.00000000
_symmetry_Int_Tables_number   1
_chemical_formula_structural   TbCe8Y11(CoBi2)4
_chemical_formula_sum   'Tb1 Ce8 Y11 Co4 Bi8'
_cell_volume   886.07883343
_cell_formula_units_Z   1
loop_
 _symmetry_equiv_pos_site_id
 _symmetry_equiv_pos_as_xyz
  1  'x, y, z'
loop_
 _atom_site_type_symbol
 _atom_site_label
 _atom_site_symmetry_multiplicity
 _atom_site_fract_x
 _atom_site_fract_y
 _atom_site_fract_z
 _atom_site_occupancy
  Tb  Tb0  1  0.520453  0.750000  0.999962  1
  Ce  Ce1  1  0.654406  0.012062  0.550781  1
  Ce  Ce2  1  0.345638  0.987992  0.449139  1
  Ce  Ce3  1  0.154701  0.988056  0.948990  1
  Ce  Ce4  1  0.345638  0.512008  0.449139  1
  Ce  Ce5  1  0.845120  0.012211  0.050885  1
  Ce  Ce6  1  0.654406  0.487938  0.550781  1
  Ce  Ce7  1  0.845120  0.487789  0.050885  1
  Ce  Ce8  1  0.154701  0.511944  0.948990  1
  Y  Y9  1  0.835754  0.750000  0.789915  1
  Y  Y10  1  0.164195  0.250000  0.209921  1
  Y  Y11  1  0.335832  0.250000  0.709757  1
  Y  Y12  1  0.663977  0.750000  0.290340  1
  Y  Y13  1  0.365788  0.750000  0.701388  1
  Y  Y14  1  0.634204  0.250000  0.298508  1
  Y  Y15  1  0.865626  0.250000  0.798280  1
  Y  Y16  1  0.134293  0.750000  0.201936  1
  Y  Y17  1  0.980165  0.750000  0.499912  1
  Y  Y18  1  0.019832  0.250000  0.500108  1
  Y  Y19  1  0.480159  0.250000  0.000183  1
  Co  Co20  1  0.630004  0.750000  0.539131  1
  Co  Co21  1  0.370000  0.250000  0.461150  1
  Co  Co22  1  0.130112  0.250000  0.961059  1
  Co  Co23  1  0.869842  0.750000  0.038940  1
  Bi  Bi24  1  0.566291  0.493816  0.825228  1
  Bi  Bi25  1  0.433697  0.505710  0.174720  1
  Bi  Bi26  1  0.066164  0.505950  0.674521  1
  Bi  Bi27  1  0.433697  0.994290  0.174720  1
  Bi  Bi28  1  0.933864  0.494094  0.325492  1
  Bi  Bi29  1  0.566291  0.006184  0.825228  1
  Bi  Bi30  1  0.933864  0.005906  0.325492  1
  Bi  Bi31  1  0.066164  0.994050  0.674521  1
