# generated using pymatgen
data_Dy3Ho7Cd3Rh
_symmetry_space_group_name_H-M   'P 1'
_cell_length_a   9.54653600
_cell_length_b   9.54655591
_cell_length_c   9.73100600
_cell_angle_alpha   90.00000000
_cell_angle_beta   90.00000000
_cell_angle_gamma   120.00039534
_symmetry_Int_Tables_number   1
_chemical_formula_structural   Dy3Ho7Cd3Rh
_chemical_formula_sum   'Dy6 Ho14 Cd6 Rh2'
_cell_volume   768.03175525
_cell_formula_units_Z   2
loop_
 _symmetry_equiv_pos_site_id
 _symmetry_equiv_pos_as_xyz
  1  'x, y, z'
loop_
 _atom_site_type_symbol
 _atom_site_label
 _atom_site_symmetry_multiplicity
 _atom_site_fract_x
 _atom_site_fract_y
 _atom_site_fract_z
 _atom_site_occupancy
  Dy  Dy0  1  0.542670  0.457329  0.250000  1
  Dy  Dy1  1  0.542669  0.085341  0.250000  1
  Dy  Dy2  1  0.914659  0.457332  0.250000  1
  Dy  Dy3  1  0.457330  0.542671  0.750000  1
  Dy  Dy4  1  0.457331  0.914659  0.750000  1
  Dy  Dy5  1  0.085341  0.542668  0.750000  1
  Ho  Ho6  1  0.000000  0.000000  0.500000  1
  Ho  Ho7  1  0.000000  0.000000  0.000000  1
  Ho  Ho8  1  0.209125  0.790875  0.440569  1
  Ho  Ho9  1  0.209127  0.418255  0.440569  1
  Ho  Ho10  1  0.581747  0.790873  0.440569  1
  Ho  Ho11  1  0.790875  0.209125  0.559431  1
  Ho  Ho12  1  0.790873  0.581745  0.559431  1
  Ho  Ho13  1  0.418253  0.209127  0.559431  1
  Ho  Ho14  1  0.790875  0.209125  0.940569  1
  Ho  Ho15  1  0.790873  0.581745  0.940569  1
  Ho  Ho16  1  0.418253  0.209127  0.940569  1
  Ho  Ho17  1  0.209125  0.790875  0.059431  1
  Ho  Ho18  1  0.209127  0.418255  0.059431  1
  Ho  Ho19  1  0.581747  0.790873  0.059431  1
  Cd  Cd20  1  0.885493  0.114505  0.250000  1
  Cd  Cd21  1  0.885482  0.771002  0.250000  1
  Cd  Cd22  1  0.229000  0.114518  0.250000  1
  Cd  Cd23  1  0.114507  0.885495  0.750000  1
  Cd  Cd24  1  0.114518  0.228998  0.750000  1
  Cd  Cd25  1  0.771000  0.885482  0.750000  1
  Rh  Rh26  1  0.333324  0.666664  0.250000  1
  Rh  Rh27  1  0.666676  0.333336  0.750000  1
