# generated using pymatgen
data_GdCuAu(SO4)4
_symmetry_space_group_name_H-M   'P 1'
_cell_length_a   6.37221498
_cell_length_b   6.37221881
_cell_length_c   8.79003040
_cell_angle_alpha   74.86984813
_cell_angle_beta   74.86975554
_cell_angle_gamma   88.66440937
_symmetry_Int_Tables_number   1
_chemical_formula_structural   GdCuAu(SO4)4
_chemical_formula_sum   'Gd1 Cu1 Au1 S4 O16'
_cell_volume   332.21930006
_cell_formula_units_Z   1
loop_
 _symmetry_equiv_pos_site_id
 _symmetry_equiv_pos_as_xyz
  1  'x, y, z'
loop_
 _atom_site_type_symbol
 _atom_site_label
 _atom_site_symmetry_multiplicity
 _atom_site_fract_x
 _atom_site_fract_y
 _atom_site_fract_z
 _atom_site_occupancy
  Gd  Gd0  1  0.000000  0.000000  0.000000  1
  Cu  Cu1  1  0.500000  0.500000  0.500000  1
  Au  Au2  1  0.000000  0.000000  0.500000  1
  S  S3  1  0.091068  0.588038  0.742266  1
  S  S4  1  0.588037  0.091068  0.742266  1
  S  S5  1  0.908932  0.411962  0.257734  1
  S  S6  1  0.411963  0.908932  0.257734  1
  O  O7  1  0.330035  0.625726  0.670507  1
  O  O8  1  0.625725  0.330035  0.670507  1
  O  O9  1  0.669965  0.374274  0.329493  1
  O  O10  1  0.374275  0.669965  0.329493  1
  O  O11  1  0.021447  0.709060  0.866121  1
  O  O12  1  0.709060  0.021448  0.866120  1
  O  O13  1  0.978553  0.290940  0.133879  1
  O  O14  1  0.290940  0.978552  0.133880  1
  O  O15  1  0.975916  0.672898  0.604698  1
  O  O16  1  0.672897  0.975917  0.604698  1
  O  O17  1  0.024084  0.327102  0.395302  1
  O  O18  1  0.327103  0.024083  0.395302  1
  O  O19  1  0.026475  0.355329  0.801931  1
  O  O20  1  0.355329  0.026476  0.801932  1
  O  O21  1  0.973525  0.644671  0.198069  1
  O  O22  1  0.644671  0.973524  0.198068  1
