# generated using pymatgen
data_La4Bi4Sb2Rh7
_symmetry_space_group_name_H-M   'P 1'
_cell_length_a   7.93587182
_cell_length_b   7.93026663
_cell_length_c   7.93026490
_cell_angle_alpha   110.06809665
_cell_angle_beta   109.15952141
_cell_angle_gamma   109.15952995
_symmetry_Int_Tables_number   1
_chemical_formula_structural   La4Bi4Sb2Rh7
_chemical_formula_sum   'La4 Bi4 Sb2 Rh7'
_cell_volume   384.29336894
_cell_formula_units_Z   1
loop_
 _symmetry_equiv_pos_site_id
 _symmetry_equiv_pos_as_xyz
  1  'x, y, z'
loop_
 _atom_site_type_symbol
 _atom_site_label
 _atom_site_symmetry_multiplicity
 _atom_site_fract_x
 _atom_site_fract_y
 _atom_site_fract_z
 _atom_site_occupancy
  La  La0  1  0.473740  0.001706  0.001706  1
  La  La1  1  0.001823  0.500912  0.000912  1
  La  La2  1  0.001823  0.000912  0.500912  1
  La  La3  1  0.473740  0.472034  0.472034  1
  Bi  Bi4  1  0.983588  0.309598  0.309598  1
  Bi  Bi5  1  0.683653  0.991764  0.691889  1
  Bi  Bi6  1  0.683653  0.691889  0.991764  1
  Bi  Bi7  1  0.983588  0.673989  0.673989  1
  Sb  Sb8  1  0.330728  0.992340  0.338388  1
  Sb  Sb9  1  0.330728  0.338388  0.992340  1
  Rh  Rh10  1  0.094179  0.047090  0.047090  1
  Rh  Rh11  1  0.496692  0.748346  0.248346  1
  Rh  Rh12  1  0.738814  0.499171  0.239642  1
  Rh  Rh13  1  0.243874  0.745109  0.498764  1
  Rh  Rh14  1  0.243874  0.498764  0.745109  1
  Rh  Rh15  1  0.496692  0.248346  0.748346  1
  Rh  Rh16  1  0.738814  0.239642  0.499171  1
