# generated using pymatgen
data_Hf6CrCo17P12
_symmetry_space_group_name_H-M   'P 1'
_cell_length_a   3.60351400
_cell_length_b   10.28032900
_cell_length_c   11.90752600
_cell_angle_alpha   90.00000000
_cell_angle_beta   90.00000000
_cell_angle_gamma   90.00000000
_symmetry_Int_Tables_number   1
_chemical_formula_structural   Hf6CrCo17P12
_chemical_formula_sum   'Hf6 Cr1 Co17 P12'
_cell_volume   441.11798576
_cell_formula_units_Z   1
loop_
 _symmetry_equiv_pos_site_id
 _symmetry_equiv_pos_as_xyz
  1  'x, y, z'
loop_
 _atom_site_type_symbol
 _atom_site_label
 _atom_site_symmetry_multiplicity
 _atom_site_fract_x
 _atom_site_fract_y
 _atom_site_fract_z
 _atom_site_occupancy
  Hf  Hf0  1  0.750000  0.250000  0.472112  1
  Hf  Hf1  1  0.250000  0.750000  0.526814  1
  Hf  Hf2  1  0.250000  0.929579  0.791408  1
  Hf  Hf3  1  0.250000  0.570421  0.791408  1
  Hf  Hf4  1  0.750000  0.071526  0.206856  1
  Hf  Hf5  1  0.750000  0.428474  0.206856  1
  Cr  Cr6  1  0.250000  0.250000  0.840004  1
  Co  Co7  1  0.750000  0.750000  0.164732  1
  Co  Co8  1  0.250000  0.250000  0.297486  1
  Co  Co9  1  0.750000  0.750000  0.703128  1
  Co  Co10  1  0.750000  0.250000  0.011549  1
  Co  Co11  1  0.250000  0.750000  0.985659  1
  Co  Co12  1  0.250000  0.417237  0.007996  1
  Co  Co13  1  0.250000  0.082763  0.007996  1
  Co  Co14  1  0.750000  0.582319  0.992286  1
  Co  Co15  1  0.750000  0.917681  0.992286  1
  Co  Co16  1  0.250000  0.449811  0.567410  1
  Co  Co17  1  0.250000  0.050189  0.567410  1
  Co  Co18  1  0.750000  0.550061  0.433228  1
  Co  Co19  1  0.750000  0.949939  0.433228  1
  Co  Co20  1  0.250000  0.875120  0.292500  1
  Co  Co21  1  0.250000  0.624880  0.292500  1
  Co  Co22  1  0.750000  0.126323  0.707186  1
  Co  Co23  1  0.750000  0.373677  0.707186  1
  P  P24  1  0.250000  0.250000  0.121716  1
  P  P25  1  0.750000  0.750000  0.878577  1
  P  P26  1  0.250000  0.250000  0.648417  1
  P  P27  1  0.750000  0.750000  0.352596  1
  P  P28  1  0.250000  0.432567  0.382433  1
  P  P29  1  0.250000  0.067433  0.382433  1
  P  P30  1  0.750000  0.567613  0.617468  1
  P  P31  1  0.750000  0.932387  0.617468  1
  P  P32  1  0.250000  0.904014  0.111418  1
  P  P33  1  0.250000  0.595986  0.111418  1
  P  P34  1  0.750000  0.093870  0.888418  1
  P  P35  1  0.750000  0.406130  0.888418  1
