# generated using pymatgen
data_CeDy2(RhPb)3
_symmetry_space_group_name_H-M   'P 1'
_cell_length_a   7.72181119
_cell_length_b   7.79474905
_cell_length_c   3.90297800
_cell_angle_alpha   90.00000000
_cell_angle_beta   90.00000000
_cell_angle_gamma   120.31295010
_symmetry_Int_Tables_number   1
_chemical_formula_structural   CeDy2(RhPb)3
_chemical_formula_sum   'Ce1 Dy2 Rh3 Pb3'
_cell_volume   202.80088719
_cell_formula_units_Z   1
loop_
 _symmetry_equiv_pos_site_id
 _symmetry_equiv_pos_as_xyz
  1  'x, y, z'
loop_
 _atom_site_type_symbol
 _atom_site_label
 _atom_site_symmetry_multiplicity
 _atom_site_fract_x
 _atom_site_fract_y
 _atom_site_fract_z
 _atom_site_occupancy
  Ce  Ce0  1  0.000000  0.590113  0.500000  1
  Dy  Dy1  1  0.404456  0.404400  0.500000  1
  Dy  Dy2  1  0.595544  0.999944  0.500000  1
  Rh  Rh3  1  0.000000  0.995973  0.500000  1
  Rh  Rh4  1  0.680080  0.344869  0.000000  1
  Rh  Rh5  1  0.319920  0.664789  0.000000  1
  Pb  Pb6  1  0.731235  0.737241  0.000000  1
  Pb  Pb7  1  0.268765  0.006006  0.000000  1
  Pb  Pb8  1  0.000000  0.256664  0.000000  1
