# generated using pymatgen
data_Hf8FeReBi4
_symmetry_space_group_name_H-M   'P 1'
_cell_length_a   8.31935956
_cell_length_b   8.31937632
_cell_length_c   8.31936064
_cell_angle_alpha   96.00864389
_cell_angle_beta   96.01072248
_cell_angle_gamma   142.24207725
_symmetry_Int_Tables_number   1
_chemical_formula_structural   Hf8FeReBi4
_chemical_formula_sum   'Hf8 Fe1 Re1 Bi4'
_cell_volume   333.61004873
_cell_formula_units_Z   1
loop_
 _symmetry_equiv_pos_site_id
 _symmetry_equiv_pos_as_xyz
  1  'x, y, z'
loop_
 _atom_site_type_symbol
 _atom_site_label
 _atom_site_symmetry_multiplicity
 _atom_site_fract_x
 _atom_site_fract_y
 _atom_site_fract_z
 _atom_site_occupancy
  Hf  Hf0  1  0.580239  0.694786  0.279787  1
  Hf  Hf1  1  0.919764  0.199557  0.114538  1
  Hf  Hf2  1  0.300439  0.580226  0.885449  1
  Hf  Hf3  1  0.805223  0.919774  0.720212  1
  Hf  Hf4  1  0.694771  0.414984  0.114546  1
  Hf  Hf5  1  0.085001  0.805214  0.885453  1
  Hf  Hf6  1  0.414981  0.300443  0.720207  1
  Hf  Hf7  1  0.199562  0.085016  0.279787  1
  Fe  Fe8  1  0.249999  0.250000  0.999999  1
  Re  Re9  1  0.750030  0.750000  0.000030  1
  Bi  Bi10  1  0.361586  0.861587  0.223167  1
  Bi  Bi11  1  0.138412  0.361583  0.499997  1
  Bi  Bi12  1  0.638414  0.138417  0.776828  1
  Bi  Bi13  1  0.861579  0.638413  0.499999  1
