# generated using pymatgen
data_Y7Tm9MgAl(Co2Ag)2
_symmetry_space_group_name_H-M   'P 1'
_cell_length_a   9.37006081
_cell_length_b   9.38669160
_cell_length_c   9.38197900
_cell_angle_alpha   60.01660281
_cell_angle_beta   59.95791197
_cell_angle_gamma   60.06313479
_symmetry_Int_Tables_number   1
_chemical_formula_structural   Y7Tm9MgAl(Co2Ag)2
_chemical_formula_sum   'Y7 Tm9 Mg1 Al1 Co4 Ag2'
_cell_volume   583.65636666
_cell_formula_units_Z   1
loop_
 _symmetry_equiv_pos_site_id
 _symmetry_equiv_pos_as_xyz
  1  'x, y, z'
loop_
 _atom_site_type_symbol
 _atom_site_label
 _atom_site_symmetry_multiplicity
 _atom_site_fract_x
 _atom_site_fract_y
 _atom_site_fract_z
 _atom_site_occupancy
  Y  Y0  1  0.809542  0.809802  0.190019  1
  Y  Y1  1  0.935944  0.561227  0.563128  1
  Y  Y2  1  0.559004  0.940839  0.939767  1
  Y  Y3  1  0.559683  0.940244  0.563327  1
  Y  Y4  1  0.938399  0.560081  0.940970  1
  Y  Y5  1  0.560206  0.562002  0.940375  1
  Y  Y6  1  0.938046  0.941472  0.560815  1
  Tm  Tm7  1  0.344560  0.345370  0.345351  1
  Tm  Tm8  1  0.347368  0.347671  0.961254  1
  Tm  Tm9  1  0.346947  0.962018  0.347401  1
  Tm  Tm10  1  0.953811  0.349766  0.350255  1
  Tm  Tm11  1  0.809735  0.189227  0.188162  1
  Tm  Tm12  1  0.189177  0.810843  0.811236  1
  Tm  Tm13  1  0.185886  0.812962  0.185611  1
  Tm  Tm14  1  0.808603  0.191313  0.809738  1
  Tm  Tm15  1  0.184263  0.185386  0.814111  1
  Mg  Mg16  1  0.284695  0.570581  0.570533  1
  Al  Al17  1  0.585604  0.577251  0.577385  1
  Co  Co18  1  0.137767  0.142465  0.143472  1
  Co  Co19  1  0.138751  0.140985  0.577452  1
  Co  Co20  1  0.142270  0.575283  0.140535  1
  Co  Co21  1  0.574610  0.144230  0.140257  1
  Ag  Ag22  1  0.582425  0.581804  0.256863  1
  Ag  Ag23  1  0.582703  0.257178  0.581982  1
