# generated using pymatgen
data_Er6Si5GeRu2
_symmetry_space_group_name_H-M   'P 1'
_cell_length_a   5.66956310
_cell_length_b   5.66956129
_cell_length_c   13.54147528
_cell_angle_alpha   70.91535255
_cell_angle_beta   70.91535848
_cell_angle_gamma   43.40017235
_symmetry_Int_Tables_number   1
_chemical_formula_structural   Er6Si5GeRu2
_chemical_formula_sum   'Er6 Si5 Ge1 Ru2'
_cell_volume   279.94401179
_cell_formula_units_Z   1
loop_
 _symmetry_equiv_pos_site_id
 _symmetry_equiv_pos_as_xyz
  1  'x, y, z'
loop_
 _atom_site_type_symbol
 _atom_site_label
 _atom_site_symmetry_multiplicity
 _atom_site_fract_x
 _atom_site_fract_y
 _atom_site_fract_z
 _atom_site_occupancy
  Er  Er0  1  0.743851  0.743851  0.772260  1
  Er  Er1  1  0.397069  0.397069  0.923060  1
  Er  Er2  1  0.601569  0.601569  0.080861  1
  Er  Er3  1  0.480333  0.480333  0.374790  1
  Er  Er4  1  0.254260  0.254260  0.227728  1
  Er  Er5  1  0.521149  0.521149  0.621712  1
  Si  Si6  1  0.136649  0.136649  0.455854  1
  Si  Si7  1  0.865924  0.865924  0.542550  1
  Si  Si8  1  0.948998  0.948998  0.237782  1
  Si  Si9  1  0.886325  0.886325  0.075267  1
  Si  Si10  1  0.115595  0.115595  0.928722  1
  Ge  Ge11  1  0.044060  0.044060  0.762879  1
  Ru  Ru12  1  0.753175  0.753175  0.412766  1
  Ru  Ru13  1  0.251044  0.251044  0.583768  1
