# generated using pymatgen
data_Pr4Zn4Co12B3C
_symmetry_space_group_name_H-M   'P 1'
_cell_length_a   5.20527200
_cell_length_b   5.20527182
_cell_length_c   13.60607400
_cell_angle_alpha   90.00000000
_cell_angle_beta   90.00000000
_cell_angle_gamma   120.00001386
_symmetry_Int_Tables_number   1
_chemical_formula_structural   Pr4Zn4Co12B3C
_chemical_formula_sum   'Pr4 Zn4 Co12 B3 C1'
_cell_volume   319.26421383
_cell_formula_units_Z   1
loop_
 _symmetry_equiv_pos_site_id
 _symmetry_equiv_pos_as_xyz
  1  'x, y, z'
loop_
 _atom_site_type_symbol
 _atom_site_label
 _atom_site_symmetry_multiplicity
 _atom_site_fract_x
 _atom_site_fract_y
 _atom_site_fract_z
 _atom_site_occupancy
  Pr  Pr0  1  0.666667  0.333333  0.249076  1
  Pr  Pr1  1  0.666667  0.333333  0.750924  1
  Pr  Pr2  1  0.666667  0.333333  0.000000  1
  Pr  Pr3  1  0.666667  0.333333  0.500000  1
  Zn  Zn4  1  0.000000  0.000000  0.751433  1
  Zn  Zn5  1  0.000000  0.000000  0.248567  1
  Zn  Zn6  1  0.333333  0.666667  0.246670  1
  Zn  Zn7  1  0.333333  0.666667  0.753330  1
  Co  Co8  1  0.672587  0.836293  0.096694  1
  Co  Co9  1  0.666296  0.833147  0.601449  1
  Co  Co10  1  0.163707  0.836293  0.096694  1
  Co  Co11  1  0.166853  0.833147  0.601449  1
  Co  Co12  1  0.163707  0.327413  0.096694  1
  Co  Co13  1  0.166853  0.333704  0.601449  1
  Co  Co14  1  0.672587  0.836293  0.903306  1
  Co  Co15  1  0.666296  0.833147  0.398551  1
  Co  Co16  1  0.163707  0.836293  0.903306  1
  Co  Co17  1  0.166853  0.833147  0.398551  1
  Co  Co18  1  0.163707  0.327413  0.903306  1
  Co  Co19  1  0.166853  0.333704  0.398551  1
  B  B20  1  0.000000  0.000000  0.500000  1
  B  B21  1  0.333333  0.666667  0.000000  1
  B  B22  1  0.333333  0.666667  0.500000  1
  C  C23  1  0.000000  0.000000  0.000000  1
