# generated using pymatgen
data_HgBi2Ru4PbO14
_symmetry_space_group_name_H-M   'P 1'
_cell_length_a   7.29638272
_cell_length_b   7.29638301
_cell_length_c   7.27307381
_cell_angle_alpha   61.02227220
_cell_angle_beta   61.02226869
_cell_angle_gamma   61.15010898
_symmetry_Int_Tables_number   1
_chemical_formula_structural   HgBi2Ru4PbO14
_chemical_formula_sum   'Hg1 Bi2 Ru4 Pb1 O14'
_cell_volume   280.35385095
_cell_formula_units_Z   1
loop_
 _symmetry_equiv_pos_site_id
 _symmetry_equiv_pos_as_xyz
  1  'x, y, z'
loop_
 _atom_site_type_symbol
 _atom_site_label
 _atom_site_symmetry_multiplicity
 _atom_site_fract_x
 _atom_site_fract_y
 _atom_site_fract_z
 _atom_site_occupancy
  Hg  Hg0  1  0.125000  0.125000  0.125000  1
  Bi  Bi1  1  0.125000  0.625000  0.125000  1
  Bi  Bi2  1  0.625000  0.125000  0.125000  1
  Ru  Ru3  1  0.625000  0.625000  0.125000  1
  Ru  Ru4  1  0.625000  0.125000  0.625000  1
  Ru  Ru5  1  0.125000  0.625000  0.625000  1
  Ru  Ru6  1  0.625000  0.625000  0.625000  1
  Pb  Pb7  1  0.125000  0.125000  0.625000  1
  O  O8  1  0.247584  0.247584  0.232621  1
  O  O9  1  0.002416  0.002416  0.017379  1
  O  O10  1  0.553875  0.948920  0.542837  1
  O  O11  1  0.305440  0.682564  0.303847  1
  O  O12  1  0.545519  0.545519  0.952762  1
  O  O13  1  0.948920  0.553875  0.542837  1
  O  O14  1  0.567436  0.944560  0.946153  1
  O  O15  1  0.942512  0.942512  0.564308  1
  O  O16  1  0.944560  0.567436  0.946153  1
  O  O17  1  0.682564  0.305440  0.303847  1
  O  O18  1  0.301080  0.696125  0.707163  1
  O  O19  1  0.696125  0.301080  0.707163  1
  O  O20  1  0.307488  0.307488  0.685692  1
  O  O21  1  0.704481  0.704481  0.297238  1
