# generated using pymatgen
data_Tb4Nd16Bi3Pb13
_symmetry_space_group_name_H-M   'P 1'
_cell_length_a   8.43067131
_cell_length_b   8.44948449
_cell_length_c   16.10356500
_cell_angle_alpha   90.06966780
_cell_angle_beta   89.69903963
_cell_angle_gamma   89.91116336
_symmetry_Int_Tables_number   1
_chemical_formula_structural   Tb4Nd16Bi3Pb13
_chemical_formula_sum   'Tb4 Nd16 Bi3 Pb13'
_cell_volume   1147.11659374
_cell_formula_units_Z   1
loop_
 _symmetry_equiv_pos_site_id
 _symmetry_equiv_pos_as_xyz
  1  'x, y, z'
loop_
 _atom_site_type_symbol
 _atom_site_label
 _atom_site_symmetry_multiplicity
 _atom_site_fract_x
 _atom_site_fract_y
 _atom_site_fract_z
 _atom_site_occupancy
  Tb  Tb0  1  0.786158  0.497809  0.749146  1
  Tb  Tb1  1  0.286320  0.001808  0.746341  1
  Tb  Tb2  1  0.214405  0.501634  0.253201  1
  Tb  Tb3  1  0.714012  0.998227  0.248686  1
  Nd  Nd4  1  0.620103  0.158569  0.619058  1
  Nd  Nd5  1  0.116318  0.343682  0.880956  1
  Nd  Nd6  1  0.382764  0.844196  0.119319  1
  Nd  Nd7  1  0.880084  0.655136  0.380710  1
  Nd  Nd8  1  0.376310  0.842504  0.380800  1
  Nd  Nd9  1  0.878748  0.658039  0.118854  1
  Nd  Nd10  1  0.620773  0.157647  0.881528  1
  Nd  Nd11  1  0.120661  0.342930  0.619480  1
  Nd  Nd12  1  0.455714  0.670200  0.603645  1
  Nd  Nd13  1  0.948986  0.828612  0.894566  1
  Nd  Nd14  1  0.550876  0.329395  0.105452  1
  Nd  Nd15  1  0.044788  0.174695  0.397203  1
  Nd  Nd16  1  0.539940  0.327640  0.397806  1
  Nd  Nd17  1  0.040215  0.172727  0.103872  1
  Nd  Nd18  1  0.460148  0.672918  0.896253  1
  Nd  Nd19  1  0.963127  0.822586  0.602305  1
  Bi  Bi20  1  0.723934  0.973955  0.452068  1
  Bi  Bi21  1  0.227048  0.523112  0.048510  1
  Bi  Bi22  1  0.272736  0.022354  0.951393  1
  Pb  Pb23  1  0.776005  0.473636  0.546561  1
  Pb  Pb24  1  0.277338  0.028074  0.546265  1
  Pb  Pb25  1  0.775378  0.473990  0.952851  1
  Pb  Pb26  1  0.724382  0.974400  0.047133  1
  Pb  Pb27  1  0.221710  0.528604  0.453990  1
  Pb  Pb28  1  0.424581  0.371539  0.751776  1
  Pb  Pb29  1  0.924285  0.127931  0.749687  1
  Pb  Pb30  1  0.575225  0.628644  0.250497  1
  Pb  Pb31  1  0.075217  0.872063  0.249397  1
  Pb  Pb32  1  0.650061  0.849616  0.748838  1
  Pb  Pb33  1  0.150856  0.650859  0.751264  1
  Pb  Pb34  1  0.350313  0.151427  0.249511  1
  Pb  Pb35  1  0.850483  0.348837  0.251077  1
