# generated using pymatgen
data_Tb3Dy3Mn2(Co4P3)4
_symmetry_space_group_name_H-M   'P 1'
_cell_length_a   3.69505800
_cell_length_b   10.54754501
_cell_length_c   12.20877901
_cell_angle_alpha   89.99583580
_cell_angle_beta   90.00000469
_cell_angle_gamma   89.99994183
_symmetry_Int_Tables_number   1
_chemical_formula_structural   Tb3Dy3Mn2(Co4P3)4
_chemical_formula_sum   'Tb3 Dy3 Mn2 Co16 P12'
_cell_volume   475.82239478
_cell_formula_units_Z   1
loop_
 _symmetry_equiv_pos_site_id
 _symmetry_equiv_pos_as_xyz
  1  'x, y, z'
loop_
 _atom_site_type_symbol
 _atom_site_label
 _atom_site_symmetry_multiplicity
 _atom_site_fract_x
 _atom_site_fract_y
 _atom_site_fract_z
 _atom_site_occupancy
  Tb  Tb0  1  0.000000  0.499964  0.522769  1
  Tb  Tb1  1  0.500000  0.000064  0.477278  1
  Tb  Tb2  1  0.500000  0.817974  0.205128  1
  Dy  Dy3  1  0.500000  0.182173  0.205115  1
  Dy  Dy4  1  0.000000  0.682022  0.794930  1
  Dy  Dy5  1  0.000001  0.317965  0.794902  1
  Mn  Mn6  1  0.499997  0.499945  0.158907  1
  Mn  Mn7  1  0.999995  0.999989  0.841087  1
  Co  Co8  1  0.500000  0.499979  0.703112  1
  Co  Co9  1  0.000001  0.000303  0.297085  1
  Co  Co10  1  0.000000  0.499910  0.986123  1
  Co  Co11  1  0.500001  0.000084  0.013762  1
  Co  Co12  1  0.500000  0.333295  0.993958  1
  Co  Co13  1  0.500000  0.666638  0.993857  1
  Co  Co14  1  0.000000  0.166893  0.006018  1
  Co  Co15  1  0.000001  0.833202  0.005832  1
  Co  Co16  1  0.500000  0.296442  0.430342  1
  Co  Co17  1  0.500001  0.703494  0.430460  1
  Co  Co18  1  0.000000  0.203554  0.569667  1
  Co  Co19  1  0.999999  0.796460  0.569675  1
  Co  Co20  1  0.500000  0.879586  0.709419  1
  Co  Co21  1  0.500000  0.120454  0.709391  1
  Co  Co22  1  0.000001  0.620149  0.290719  1
  Co  Co23  1  0.000000  0.379563  0.290593  1
  P  P24  1  0.499999  0.499986  0.882786  1
  P  P25  1  0.000000  0.000295  0.117000  1
  P  P26  1  0.500000  0.500029  0.344703  1
  P  P27  1  0.000000  0.999995  0.655268  1
  P  P28  1  0.500000  0.310552  0.616099  1
  P  P29  1  0.500000  0.689414  0.616120  1
  P  P30  1  0.000001  0.189472  0.383897  1
  P  P31  1  0.000000  0.810465  0.384271  1
  P  P32  1  0.500000  0.847369  0.893116  1
  P  P33  1  0.500000  0.152645  0.893083  1
  P  P34  1  0.000000  0.652243  0.106645  1
  P  P35  1  0.000000  0.347433  0.106884  1
