# generated using pymatgen
data_Tb2Dy9YRh4
_symmetry_space_group_name_H-M   'P 1'
_cell_length_a   6.27918779
_cell_length_b   7.17237070
_cell_length_c   9.51942800
_cell_angle_alpha   90.00000000
_cell_angle_beta   90.00000000
_cell_angle_gamma   89.83702788
_symmetry_Int_Tables_number   1
_chemical_formula_structural   Tb2Dy9YRh4
_chemical_formula_sum   'Tb2 Dy9 Y1 Rh4'
_cell_volume   428.72153180
_cell_formula_units_Z   1
loop_
 _symmetry_equiv_pos_site_id
 _symmetry_equiv_pos_as_xyz
  1  'x, y, z'
loop_
 _atom_site_type_symbol
 _atom_site_label
 _atom_site_symmetry_multiplicity
 _atom_site_fract_x
 _atom_site_fract_y
 _atom_site_fract_z
 _atom_site_occupancy
  Tb  Tb0  1  0.866116  0.532737  0.250000  1
  Tb  Tb1  1  0.634027  0.032801  0.250000  1
  Dy  Dy2  1  0.330278  0.676906  0.062933  1
  Dy  Dy3  1  0.170281  0.176673  0.437083  1
  Dy  Dy4  1  0.669758  0.323091  0.563253  1
  Dy  Dy5  1  0.829311  0.823806  0.937146  1
  Dy  Dy6  1  0.669758  0.323091  0.936747  1
  Dy  Dy7  1  0.829311  0.823806  0.562854  1
  Dy  Dy8  1  0.330278  0.676906  0.437067  1
  Dy  Dy9  1  0.170281  0.176673  0.062917  1
  Dy  Dy10  1  0.365313  0.966300  0.750000  1
  Y  Y11  1  0.133831  0.467682  0.750000  1
  Rh  Rh12  1  0.061286  0.882689  0.250000  1
  Rh  Rh13  1  0.438569  0.382252  0.250000  1
  Rh  Rh14  1  0.938894  0.115974  0.750000  1
  Rh  Rh15  1  0.562709  0.618611  0.750000  1
