# generated using pymatgen
data_Li2SnAsIr2
_symmetry_space_group_name_H-M   'P 1'
_cell_length_a   4.16862200
_cell_length_b   4.16862200
_cell_length_c   6.22472800
_cell_angle_alpha   90.00000000
_cell_angle_beta   90.00000000
_cell_angle_gamma   90.00000000
_symmetry_Int_Tables_number   1
_chemical_formula_structural   Li2SnAsIr2
_chemical_formula_sum   'Li2 Sn1 As1 Ir2'
_cell_volume   108.16964673
_cell_formula_units_Z   1
loop_
 _symmetry_equiv_pos_site_id
 _symmetry_equiv_pos_as_xyz
  1  'x, y, z'
loop_
 _atom_site_type_symbol
 _atom_site_label
 _atom_site_symmetry_multiplicity
 _atom_site_fract_x
 _atom_site_fract_y
 _atom_site_fract_z
 _atom_site_occupancy
  Li  Li0  1  0.500000  0.000000  0.307890  1
  Li  Li1  1  0.000000  0.500000  0.703696  1
  Sn  Sn2  1  0.000000  0.500000  0.256551  1
  As  As3  1  0.500000  0.000000  0.765994  1
  Ir  Ir4  1  0.000000  0.000000  0.982935  1
  Ir  Ir5  1  0.500000  0.500000  0.982935  1
