# generated using pymatgen
data_LaCdGaPd2
_symmetry_space_group_name_H-M   'P 1'
_cell_length_a   4.35860500
_cell_length_b   4.35860500
_cell_length_c   11.24131000
_cell_angle_alpha   90.00000000
_cell_angle_beta   90.00000000
_cell_angle_gamma   90.00000000
_symmetry_Int_Tables_number   1
_chemical_formula_structural   LaCdGaPd2
_chemical_formula_sum   'La2 Cd2 Ga2 Pd4'
_cell_volume   213.55608466
_cell_formula_units_Z   2
loop_
 _symmetry_equiv_pos_site_id
 _symmetry_equiv_pos_as_xyz
  1  'x, y, z'
loop_
 _atom_site_type_symbol
 _atom_site_label
 _atom_site_symmetry_multiplicity
 _atom_site_fract_x
 _atom_site_fract_y
 _atom_site_fract_z
 _atom_site_occupancy
  La  La0  1  0.000000  0.500000  0.233443  1
  La  La1  1  0.500000  0.000000  0.766557  1
  Cd  Cd2  1  0.000000  0.000000  0.500000  1
  Cd  Cd3  1  0.500000  0.500000  0.500000  1
  Ga  Ga4  1  0.000000  0.500000  0.885340  1
  Ga  Ga5  1  0.500000  0.000000  0.114660  1
  Pd  Pd6  1  0.000000  0.000000  0.000000  1
  Pd  Pd7  1  0.500000  0.500000  0.000000  1
  Pd  Pd8  1  0.000000  0.500000  0.663771  1
  Pd  Pd9  1  0.500000  0.000000  0.336229  1
