# generated using pymatgen
data_Li3Hf(Ta2N3)4
_symmetry_space_group_name_H-M   'P 1'
_cell_length_a   5.25712900
_cell_length_b   5.25712765
_cell_length_c   10.39080900
_cell_angle_alpha   90.00000000
_cell_angle_beta   90.00000000
_cell_angle_gamma   120.00000217
_symmetry_Int_Tables_number   1
_chemical_formula_structural   Li3Hf(Ta2N3)4
_chemical_formula_sum   'Li3 Hf1 Ta8 N12'
_cell_volume   248.70077620
_cell_formula_units_Z   1
loop_
 _symmetry_equiv_pos_site_id
 _symmetry_equiv_pos_as_xyz
  1  'x, y, z'
loop_
 _atom_site_type_symbol
 _atom_site_label
 _atom_site_symmetry_multiplicity
 _atom_site_fract_x
 _atom_site_fract_y
 _atom_site_fract_z
 _atom_site_occupancy
  Li  Li0  1  0.333333  0.666667  0.500000  1
  Li  Li1  1  0.666667  0.333333  0.500000  1
  Li  Li2  1  0.666667  0.333333  0.000000  1
  Hf  Hf3  1  0.333333  0.666667  0.000000  1
  Ta  Ta4  1  0.997227  0.340780  0.252459  1
  Ta  Ta5  1  0.659220  0.002773  0.747541  1
  Ta  Ta6  1  0.343553  0.340780  0.747541  1
  Ta  Ta7  1  0.000000  0.000000  0.500000  1
  Ta  Ta8  1  0.000000  0.000000  0.000000  1
  Ta  Ta9  1  0.659220  0.656447  0.252459  1
  Ta  Ta10  1  0.343553  0.002773  0.252459  1
  Ta  Ta11  1  0.997227  0.656447  0.747541  1
  N  N12  1  0.675835  0.677090  0.623362  1
  N  N13  1  0.673174  0.669931  0.878381  1
  N  N14  1  0.330069  0.326826  0.121619  1
  N  N15  1  0.322910  0.324165  0.376638  1
  N  N16  1  0.330069  0.003243  0.878381  1
  N  N17  1  0.322910  0.998745  0.623362  1
  N  N18  1  0.001255  0.677090  0.376638  1
  N  N19  1  0.996757  0.669931  0.121619  1
  N  N20  1  0.673174  0.003243  0.121619  1
  N  N21  1  0.675835  0.998745  0.376638  1
  N  N22  1  0.996757  0.326826  0.878381  1
  N  N23  1  0.001255  0.324165  0.623362  1
