# generated using pymatgen
data_Cs2Sm(SbSe2)5
_symmetry_space_group_name_H-M   'P 1'
_cell_length_a   4.13408900
_cell_length_b   12.43800000
_cell_length_c   22.89971600
_cell_angle_alpha   90.00000000
_cell_angle_beta   90.00000000
_cell_angle_gamma   90.00000000
_symmetry_Int_Tables_number   1
_chemical_formula_structural   Cs2Sm(SbSe2)5
_chemical_formula_sum   'Cs4 Sm2 Sb10 Se20'
_cell_volume   1177.49879346
_cell_formula_units_Z   2
loop_
 _symmetry_equiv_pos_site_id
 _symmetry_equiv_pos_as_xyz
  1  'x, y, z'
loop_
 _atom_site_type_symbol
 _atom_site_label
 _atom_site_symmetry_multiplicity
 _atom_site_fract_x
 _atom_site_fract_y
 _atom_site_fract_z
 _atom_site_occupancy
  Cs  Cs0  1  0.250000  0.990483  0.287480  1
  Cs  Cs1  1  0.750000  0.490779  0.212824  1
  Cs  Cs2  1  0.750000  0.009221  0.712824  1
  Cs  Cs3  1  0.250000  0.509517  0.787480  1
  Sm  Sm4  1  0.750000  0.362813  0.023139  1
  Sm  Sm5  1  0.750000  0.137187  0.523139  1
  Sb  Sb6  1  0.750000  0.809018  0.119406  1
  Sb  Sb7  1  0.250000  0.406932  0.571315  1
  Sb  Sb8  1  0.250000  0.189630  0.879775  1
  Sb  Sb9  1  0.750000  0.595446  0.430009  1
  Sb  Sb10  1  0.250000  0.093068  0.071315  1
  Sb  Sb11  1  0.250000  0.634415  0.976712  1
  Sb  Sb12  1  0.250000  0.310370  0.379775  1
  Sb  Sb13  1  0.250000  0.865585  0.476712  1
  Sb  Sb14  1  0.750000  0.904554  0.930009  1
  Sb  Sb15  1  0.750000  0.690982  0.619406  1
  Se  Se16  1  0.250000  0.746559  0.692948  1
  Se  Se17  1  0.750000  0.139918  0.982116  1
  Se  Se18  1  0.250000  0.299927  0.109140  1
  Se  Se19  1  0.750000  0.586466  0.059950  1
  Se  Se20  1  0.250000  0.080319  0.438483  1
  Se  Se21  1  0.750000  0.913534  0.559950  1
  Se  Se22  1  0.250000  0.419681  0.938483  1
  Se  Se23  1  0.250000  0.860422  0.018267  1
  Se  Se24  1  0.750000  0.360082  0.482116  1
  Se  Se25  1  0.750000  0.244738  0.806663  1
  Se  Se26  1  0.250000  0.523202  0.348761  1
  Se  Se27  1  0.250000  0.976798  0.848761  1
  Se  Se28  1  0.750000  0.800012  0.391858  1
  Se  Se29  1  0.750000  0.475157  0.651156  1
  Se  Se30  1  0.250000  0.200073  0.609140  1
  Se  Se31  1  0.250000  0.753441  0.192948  1
  Se  Se32  1  0.750000  0.024843  0.151156  1
  Se  Se33  1  0.750000  0.255262  0.306663  1
  Se  Se34  1  0.750000  0.699988  0.891858  1
  Se  Se35  1  0.250000  0.639578  0.518267  1
