# generated using pymatgen
data_Ta2TiRe3Si2B
_symmetry_space_group_name_H-M   'P 1'
_cell_length_a   6.74426600
_cell_length_b   6.72070524
_cell_length_c   3.20120600
_cell_angle_alpha   90.00000000
_cell_angle_beta   90.00000000
_cell_angle_gamma   119.88451067
_symmetry_Int_Tables_number   1
_chemical_formula_structural   Ta2TiRe3Si2B
_chemical_formula_sum   'Ta2 Ti1 Re3 Si2 B1'
_cell_volume   125.80503610
_cell_formula_units_Z   1
loop_
 _symmetry_equiv_pos_site_id
 _symmetry_equiv_pos_as_xyz
  1  'x, y, z'
loop_
 _atom_site_type_symbol
 _atom_site_label
 _atom_site_symmetry_multiplicity
 _atom_site_fract_x
 _atom_site_fract_y
 _atom_site_fract_z
 _atom_site_occupancy
  Ta  Ta0  1  0.605174  0.997665  0.000000  1
  Ta  Ta1  1  0.394826  0.392492  0.000000  1
  Ti  Ti2  1  0.000000  0.608892  0.000000  1
  Re  Re3  1  0.243464  0.999236  0.500000  1
  Re  Re4  1  0.756536  0.755772  0.500000  1
  Re  Re5  1  0.000000  0.243567  0.500000  1
  Si  Si6  1  0.325750  0.664539  0.500000  1
  Si  Si7  1  0.674250  0.338789  0.500000  1
  B  B8  1  0.000000  0.999050  0.000000  1
