# generated using pymatgen
data_Lu2Sc2(Ga8Pt3)3
_symmetry_space_group_name_H-M   'P 1'
_cell_length_a   7.53105597
_cell_length_b   7.52257537
_cell_length_c   13.22655036
_cell_angle_alpha   84.59477318
_cell_angle_beta   79.09315253
_cell_angle_gamma   59.99156973
_symmetry_Int_Tables_number   1
_chemical_formula_structural   Lu2Sc2(Ga8Pt3)3
_chemical_formula_sum   'Lu2 Sc2 Ga24 Pt9'
_cell_volume   637.15620850
_cell_formula_units_Z   1
loop_
 _symmetry_equiv_pos_site_id
 _symmetry_equiv_pos_as_xyz
  1  'x, y, z'
loop_
 _atom_site_type_symbol
 _atom_site_label
 _atom_site_symmetry_multiplicity
 _atom_site_fract_x
 _atom_site_fract_y
 _atom_site_fract_z
 _atom_site_occupancy
  Lu  Lu0  1  0.393293  0.167109  0.809831  1
  Lu  Lu1  1  0.606707  0.832891  0.190169  1
  Sc  Sc2  1  0.730715  0.498727  0.809934  1
  Sc  Sc3  1  0.269285  0.501273  0.190066  1
  Ga  Ga4  1  0.681497  0.831431  0.935844  1
  Ga  Ga5  1  0.318503  0.168569  0.064156  1
  Ga  Ga6  1  0.146543  0.833968  0.560898  1
  Ga  Ga7  1  0.853457  0.166032  0.439102  1
  Ga  Ga8  1  0.480297  0.167306  0.557344  1
  Ga  Ga9  1  0.519703  0.832694  0.442656  1
  Ga  Ga10  1  0.224353  0.167684  0.318858  1
  Ga  Ga11  1  0.775647  0.832316  0.681142  1
  Ga  Ga12  1  0.438227  0.503063  0.681112  1
  Ga  Ga13  1  0.561773  0.496937  0.318888  1
  Ga  Ga14  1  0.102902  0.166156  0.682141  1
  Ga  Ga15  1  0.897098  0.833844  0.317859  1
  Ga  Ga16  1  0.363114  0.493329  0.936020  1
  Ga  Ga17  1  0.636886  0.506671  0.063980  1
  Ga  Ga18  1  0.017961  0.175268  0.938993  1
  Ga  Ga19  1  0.982039  0.824732  0.061007  1
  Ga  Ga20  1  0.185470  0.500017  0.442028  1
  Ga  Ga21  1  0.814530  0.499983  0.557972  1
  Ga  Ga22  1  0.732970  0.166056  0.182003  1
  Ga  Ga23  1  0.267030  0.833944  0.817997  1
  Ga  Ga24  1  0.059361  0.629246  0.817453  1
  Ga  Ga25  1  0.940639  0.370754  0.182547  1
  Ga  Ga26  1  0.852959  0.042927  0.817474  1
  Ga  Ga27  1  0.147041  0.957073  0.182526  1
  Pt  Pt28  1  0.119600  0.493619  0.640211  1
  Pt  Pt29  1  0.880400  0.506381  0.359789  1
  Pt  Pt30  1  0.662954  0.168538  0.999861  1
  Pt  Pt31  1  0.337046  0.831462  0.000139  1
  Pt  Pt32  1  0.539422  0.166025  0.359597  1
  Pt  Pt33  1  0.460578  0.833975  0.640403  1
  Pt  Pt34  1  0.779345  0.173834  0.638676  1
  Pt  Pt35  1  0.220655  0.826166  0.361324  1
  Pt  Pt36  1  0.000000  0.500000  0.000000  1
