# generated using pymatgen
data_CeY2Ni9
_symmetry_space_group_name_H-M   'P 1'
_cell_length_a   4.97365800
_cell_length_b   4.97365785
_cell_length_c   16.23203100
_cell_angle_alpha   90.00000000
_cell_angle_beta   90.00000000
_cell_angle_gamma   120.00000102
_symmetry_Int_Tables_number   1
_chemical_formula_structural   CeY2Ni9
_chemical_formula_sum   'Ce2 Y4 Ni18'
_cell_volume   347.74053263
_cell_formula_units_Z   2
loop_
 _symmetry_equiv_pos_site_id
 _symmetry_equiv_pos_as_xyz
  1  'x, y, z'
loop_
 _atom_site_type_symbol
 _atom_site_label
 _atom_site_symmetry_multiplicity
 _atom_site_fract_x
 _atom_site_fract_y
 _atom_site_fract_z
 _atom_site_occupancy
  Ce  Ce0  1  0.333333  0.666667  0.250000  1
  Ce  Ce1  1  0.666667  0.333333  0.750000  1
  Y  Y2  1  0.333333  0.666667  0.459062  1
  Y  Y3  1  0.666667  0.333333  0.959062  1
  Y  Y4  1  0.666667  0.333333  0.540938  1
  Y  Y5  1  0.333333  0.666667  0.040938  1
  Ni  Ni6  1  0.833067  0.166933  0.373831  1
  Ni  Ni7  1  0.166933  0.833067  0.873831  1
  Ni  Ni8  1  0.833067  0.666135  0.126169  1
  Ni  Ni9  1  0.166933  0.333865  0.626169  1
  Ni  Ni10  1  0.000000  0.000000  0.500000  1
  Ni  Ni11  1  0.666135  0.833067  0.873831  1
  Ni  Ni12  1  0.833067  0.666135  0.373831  1
  Ni  Ni13  1  0.166933  0.333865  0.873831  1
  Ni  Ni14  1  0.333865  0.166933  0.126169  1
  Ni  Ni15  1  0.666667  0.333333  0.250000  1
  Ni  Ni16  1  0.833067  0.166933  0.126169  1
  Ni  Ni17  1  0.000000  0.000000  0.750000  1
  Ni  Ni18  1  0.666135  0.833067  0.626169  1
  Ni  Ni19  1  0.333865  0.166933  0.373831  1
  Ni  Ni20  1  0.000000  0.000000  0.000000  1
  Ni  Ni21  1  0.166933  0.833067  0.626169  1
  Ni  Ni22  1  0.333333  0.666667  0.750000  1
  Ni  Ni23  1  0.000000  0.000000  0.250000  1
