# generated using pymatgen
data_Tb16CdHg3IrRh3
_symmetry_space_group_name_H-M   'P 1'
_cell_length_a   9.63552039
_cell_length_b   9.63551884
_cell_length_c   9.65744006
_cell_angle_alpha   60.03097593
_cell_angle_beta   60.03098135
_cell_angle_gamma   59.93011481
_symmetry_Int_Tables_number   1
_chemical_formula_structural   Tb16CdHg3IrRh3
_chemical_formula_sum   'Tb16 Cd1 Hg3 Ir1 Rh3'
_cell_volume   633.97244815
_cell_formula_units_Z   1
loop_
 _symmetry_equiv_pos_site_id
 _symmetry_equiv_pos_as_xyz
  1  'x, y, z'
loop_
 _atom_site_type_symbol
 _atom_site_label
 _atom_site_symmetry_multiplicity
 _atom_site_fract_x
 _atom_site_fract_y
 _atom_site_fract_z
 _atom_site_occupancy
  Tb  Tb0  1  0.300987  0.899435  0.898691  1
  Tb  Tb1  1  0.688317  0.311674  0.686407  1
  Tb  Tb2  1  0.312902  0.687183  0.313039  1
  Tb  Tb3  1  0.061836  0.438976  0.439522  1
  Tb  Tb4  1  0.687183  0.312902  0.313039  1
  Tb  Tb5  1  0.438976  0.061836  0.439522  1
  Tb  Tb6  1  0.440392  0.060287  0.059471  1
  Tb  Tb7  1  0.899205  0.899205  0.899261  1
  Tb  Tb8  1  0.060287  0.440392  0.059471  1
  Tb  Tb9  1  0.899435  0.300987  0.898691  1
  Tb  Tb10  1  0.311674  0.688317  0.686407  1
  Tb  Tb11  1  0.898878  0.898878  0.302121  1
  Tb  Tb12  1  0.439135  0.439135  0.061604  1
  Tb  Tb13  1  0.312348  0.312348  0.687468  1
  Tb  Tb14  1  0.686509  0.686509  0.312395  1
  Tb  Tb15  1  0.059954  0.059954  0.440351  1
  Cd  Cd16  1  0.670747  0.670747  0.670521  1
  Hg  Hg17  1  0.005722  0.664276  0.663904  1
  Hg  Hg18  1  0.664276  0.005722  0.663904  1
  Hg  Hg19  1  0.664118  0.664118  0.005987  1
  Ir  Ir20  1  0.106472  0.106472  0.676659  1
  Rh  Rh21  1  0.106298  0.676654  0.106955  1
  Rh  Rh22  1  0.107694  0.107694  0.107651  1
  Rh  Rh23  1  0.676654  0.106298  0.106955  1
