# generated using pymatgen
data_LiY16Cd3(CoNi)2
_symmetry_space_group_name_H-M   'P 1'
_cell_length_a   9.57925767
_cell_length_b   9.57925776
_cell_length_c   9.59127511
_cell_angle_alpha   59.83273703
_cell_angle_beta   59.83273604
_cell_angle_gamma   59.77708882
_symmetry_Int_Tables_number   1
_chemical_formula_structural   LiY16Cd3(CoNi)2
_chemical_formula_sum   'Li1 Y16 Cd3 Co2 Ni2'
_cell_volume   619.71096089
_cell_formula_units_Z   1
loop_
 _symmetry_equiv_pos_site_id
 _symmetry_equiv_pos_as_xyz
  1  'x, y, z'
loop_
 _atom_site_type_symbol
 _atom_site_label
 _atom_site_symmetry_multiplicity
 _atom_site_fract_x
 _atom_site_fract_y
 _atom_site_fract_z
 _atom_site_occupancy
  Li  Li0  1  0.820163  0.820163  0.820346  1
  Y  Y1  1  0.596594  0.596594  0.600815  1
  Y  Y2  1  0.597224  0.597224  0.206471  1
  Y  Y3  1  0.594703  0.209859  0.598029  1
  Y  Y4  1  0.209859  0.594703  0.598029  1
  Y  Y5  1  0.063704  0.440024  0.440497  1
  Y  Y6  1  0.435561  0.066860  0.060688  1
  Y  Y7  1  0.440024  0.063704  0.440497  1
  Y  Y8  1  0.066860  0.435561  0.060688  1
  Y  Y9  1  0.439520  0.439520  0.061244  1
  Y  Y10  1  0.063005  0.063005  0.436642  1
  Y  Y11  1  0.187062  0.812337  0.814943  1
  Y  Y12  1  0.812995  0.187106  0.187193  1
  Y  Y13  1  0.812337  0.187062  0.814943  1
  Y  Y14  1  0.187106  0.812995  0.187193  1
  Y  Y15  1  0.813627  0.813627  0.187918  1
  Y  Y16  1  0.187344  0.187344  0.813962  1
  Cd  Cd17  1  0.831082  0.831082  0.506722  1
  Cd  Cd18  1  0.831428  0.506292  0.831268  1
  Cd  Cd19  1  0.506292  0.831428  0.831268  1
  Co  Co20  1  0.393332  0.393332  0.392091  1
  Co  Co21  1  0.392742  0.392742  0.825329  1
  Ni  Ni22  1  0.392410  0.825023  0.391610  1
  Ni  Ni23  1  0.825023  0.392410  0.391610  1
