# generated using pymatgen
data_Lu12Os3Rh
_symmetry_space_group_name_H-M   'P 1'
_cell_length_a   7.24984323
_cell_length_b   8.83742600
_cell_length_c   6.19786454
_cell_angle_alpha   90.00000000
_cell_angle_beta   90.12312387
_cell_angle_gamma   90.00000000
_symmetry_Int_Tables_number   1
_chemical_formula_structural   Lu12Os3Rh
_chemical_formula_sum   'Lu12 Os3 Rh1'
_cell_volume   397.09597321
_cell_formula_units_Z   1
loop_
 _symmetry_equiv_pos_site_id
 _symmetry_equiv_pos_as_xyz
  1  'x, y, z'
loop_
 _atom_site_type_symbol
 _atom_site_label
 _atom_site_symmetry_multiplicity
 _atom_site_fract_x
 _atom_site_fract_y
 _atom_site_fract_z
 _atom_site_occupancy
  Lu  Lu0  1  0.672250  0.059701  0.334682  1
  Lu  Lu1  1  0.178687  0.439437  0.167781  1
  Lu  Lu2  1  0.324664  0.561768  0.669044  1
  Lu  Lu3  1  0.822743  0.934366  0.828408  1
  Lu  Lu4  1  0.324664  0.938232  0.669044  1
  Lu  Lu5  1  0.822743  0.565634  0.828408  1
  Lu  Lu6  1  0.672250  0.440299  0.334682  1
  Lu  Lu7  1  0.178687  0.060563  0.167781  1
  Lu  Lu8  1  0.539486  0.250000  0.874169  1
  Lu  Lu9  1  0.038179  0.250000  0.628053  1
  Lu  Lu10  1  0.462157  0.750000  0.123472  1
  Lu  Lu11  1  0.962652  0.750000  0.372734  1
  Os  Os12  1  0.383060  0.250000  0.464409  1
  Os  Os13  1  0.115743  0.750000  0.963629  1
  Os  Os14  1  0.616181  0.750000  0.534374  1
  Rh  Rh15  1  0.885855  0.250000  0.039330  1
