# generated using pymatgen
data_HoErB6Rh
_symmetry_space_group_name_H-M   'P 1'
_cell_length_a   3.64274600
_cell_length_b   9.15267500
_cell_length_c   11.48281600
_cell_angle_alpha   90.00000000
_cell_angle_beta   90.00000000
_cell_angle_gamma   90.00000000
_symmetry_Int_Tables_number   1
_chemical_formula_structural   HoErB6Rh
_chemical_formula_sum   'Ho4 Er4 B24 Rh4'
_cell_volume   382.84707831
_cell_formula_units_Z   4
loop_
 _symmetry_equiv_pos_site_id
 _symmetry_equiv_pos_as_xyz
  1  'x, y, z'
loop_
 _atom_site_type_symbol
 _atom_site_label
 _atom_site_symmetry_multiplicity
 _atom_site_fract_x
 _atom_site_fract_y
 _atom_site_fract_z
 _atom_site_occupancy
  Ho  Ho0  1  0.500000  0.322291  0.413609  1
  Ho  Ho1  1  0.500000  0.677709  0.586391  1
  Ho  Ho2  1  0.500000  0.177709  0.913609  1
  Ho  Ho3  1  0.500000  0.822291  0.086391  1
  Er  Er4  1  0.500000  0.444416  0.126725  1
  Er  Er5  1  0.500000  0.555584  0.873275  1
  Er  Er6  1  0.500000  0.055584  0.626725  1
  Er  Er7  1  0.500000  0.944416  0.373275  1
  B  B8  1  0.000000  0.110030  0.470099  1
  B  B9  1  0.000000  0.889970  0.529901  1
  B  B10  1  0.000000  0.389970  0.970099  1
  B  B11  1  0.000000  0.610030  0.029901  1
  B  B12  1  0.000000  0.133301  0.316014  1
  B  B13  1  0.000000  0.866699  0.683986  1
  B  B14  1  0.000000  0.366699  0.816014  1
  B  B15  1  0.000000  0.633301  0.183986  1
  B  B16  1  0.000000  0.054017  0.065407  1
  B  B17  1  0.000000  0.945983  0.934593  1
  B  B18  1  0.000000  0.445983  0.565407  1
  B  B19  1  0.000000  0.554017  0.434593  1
  B  B20  1  0.000000  0.482937  0.286627  1
  B  B21  1  0.000000  0.517063  0.713373  1
  B  B22  1  0.000000  0.017063  0.786627  1
  B  B23  1  0.000000  0.982937  0.213373  1
  B  B24  1  0.000000  0.249565  0.079261  1
  B  B25  1  0.000000  0.750435  0.920739  1
  B  B26  1  0.000000  0.250435  0.579261  1
  B  B27  1  0.000000  0.749565  0.420739  1
  B  B28  1  0.000000  0.294480  0.235673  1
  B  B29  1  0.000000  0.705520  0.764327  1
  B  B30  1  0.000000  0.205520  0.735673  1
  B  B31  1  0.000000  0.794480  0.264327  1
  Rh  Rh32  1  0.500000  0.139801  0.178894  1
  Rh  Rh33  1  0.500000  0.860199  0.821106  1
  Rh  Rh34  1  0.500000  0.360199  0.678894  1
  Rh  Rh35  1  0.500000  0.639801  0.321106  1
