# generated using pymatgen
data_Co2Ni9As8
_symmetry_space_group_name_H-M   'P 1'
_cell_length_a   6.86805881
_cell_length_b   6.86805852
_cell_length_c   11.24389257
_cell_angle_alpha   81.18459867
_cell_angle_beta   81.18459982
_cell_angle_gamma   89.78319940
_symmetry_Int_Tables_number   1
_chemical_formula_structural   Co2Ni9As8
_chemical_formula_sum   'Co4 Ni18 As16'
_cell_volume   517.81513140
_cell_formula_units_Z   2
loop_
 _symmetry_equiv_pos_site_id
 _symmetry_equiv_pos_as_xyz
  1  'x, y, z'
loop_
 _atom_site_type_symbol
 _atom_site_label
 _atom_site_symmetry_multiplicity
 _atom_site_fract_x
 _atom_site_fract_y
 _atom_site_fract_z
 _atom_site_occupancy
  Co  Co0  1  0.468373  0.149982  0.906228  1
  Co  Co1  1  0.850018  0.531627  0.593772  1
  Co  Co2  1  0.531627  0.850018  0.093772  1
  Co  Co3  1  0.149982  0.468373  0.406228  1
  Ni  Ni4  1  0.086625  0.649389  0.907129  1
  Ni  Ni5  1  0.350611  0.913375  0.592871  1
  Ni  Ni6  1  0.913375  0.350611  0.092871  1
  Ni  Ni7  1  0.649389  0.086625  0.407129  1
  Ni  Ni8  1  0.460627  0.648372  0.906002  1
  Ni  Ni9  1  0.351628  0.539373  0.593998  1
  Ni  Ni10  1  0.539373  0.351628  0.093998  1
  Ni  Ni11  1  0.648372  0.460627  0.406002  1
  Ni  Ni12  1  0.803173  0.682518  0.787319  1
  Ni  Ni13  1  0.317482  0.196827  0.712681  1
  Ni  Ni14  1  0.196827  0.317482  0.212681  1
  Ni  Ni15  1  0.682518  0.803173  0.287319  1
  Ni  Ni16  1  0.073886  0.147791  0.905732  1
  Ni  Ni17  1  0.852209  0.926114  0.594268  1
  Ni  Ni18  1  0.147791  0.073886  0.405732  1
  Ni  Ni19  1  0.926114  0.852209  0.094268  1
  Ni  Ni20  1  0.815815  0.184185  0.750000  1
  Ni  Ni21  1  0.184185  0.815815  0.250000  1
  As  As22  1  0.748828  0.628458  0.001915  1
  As  As23  1  0.371542  0.251172  0.498085  1
  As  As24  1  0.251172  0.371542  0.998085  1
  As  As25  1  0.628458  0.748828  0.501915  1
  As  As26  1  0.877147  0.253652  0.506475  1
  As  As27  1  0.746348  0.122853  0.993525  1
  As  As28  1  0.122853  0.746348  0.493525  1
  As  As29  1  0.253653  0.877147  0.006475  1
  As  As30  1  0.067228  0.932772  0.750000  1
  As  As31  1  0.932772  0.067228  0.250000  1
  As  As32  1  0.560358  0.439642  0.750000  1
  As  As33  1  0.439642  0.560358  0.250000  1
  As  As34  1  0.553809  0.937558  0.753572  1
  As  As35  1  0.062442  0.446191  0.746428  1
  As  As36  1  0.446191  0.062442  0.246428  1
  As  As37  1  0.937558  0.553809  0.253572  1
