# generated using pymatgen
data_Sm4Ga9SiAu6
_symmetry_space_group_name_H-M   'P 1'
_cell_length_a   8.70834876
_cell_length_b   8.70970493
_cell_length_c   8.70970500
_cell_angle_alpha   138.38391430
_cell_angle_beta   103.25499561
_cell_angle_gamma   91.32608166
_symmetry_Int_Tables_number   1
_chemical_formula_structural   Sm4Ga9SiAu6
_chemical_formula_sum   'Sm4 Ga9 Si1 Au6'
_cell_volume   407.24409419
_cell_formula_units_Z   1
loop_
 _symmetry_equiv_pos_site_id
 _symmetry_equiv_pos_as_xyz
  1  'x, y, z'
loop_
 _atom_site_type_symbol
 _atom_site_label
 _atom_site_symmetry_multiplicity
 _atom_site_fract_x
 _atom_site_fract_y
 _atom_site_fract_z
 _atom_site_occupancy
  Sm  Sm0  1  0.866932  0.623922  0.243011  1
  Sm  Sm1  1  0.134225  0.373755  0.760469  1
  Sm  Sm2  1  0.614250  0.874032  0.740216  1
  Sm  Sm3  1  0.388428  0.128307  0.260121  1
  Ga  Ga4  1  0.499404  0.747570  0.246290  1
  Ga  Ga5  1  0.499404  0.253114  0.751834  1
  Ga  Ga6  1  0.235866  0.986620  0.749957  1
  Ga  Ga7  1  0.764658  0.510953  0.745807  1
  Ga  Ga8  1  0.764658  0.018850  0.253704  1
  Ga  Ga9  1  0.235866  0.485909  0.249246  1
  Ga  Ga10  1  0.027396  0.882504  0.144892  1
  Ga  Ga11  1  0.974168  0.118053  0.856114  1
  Ga  Ga12  1  0.262023  0.617776  0.644247  1
  Si  Si13  1  0.737611  0.382404  0.355207  1
  Au  Au14  1  0.510182  0.635429  0.874752  1
  Au  Au15  1  0.498120  0.367195  0.130926  1
  Au  Au16  1  0.992938  0.742305  0.741996  1
  Au  Au17  1  0.992938  0.250941  0.250632  1
  Au  Au18  1  0.244130  0.868654  0.375475  1
  Au  Au19  1  0.756805  0.131705  0.625099  1
