# generated using pymatgen
data_Hf16TaNb3Si16
_symmetry_space_group_name_H-M   'P 1'
_cell_length_a   7.00883601
_cell_length_b   7.00883601
_cell_length_c   12.81001800
_cell_angle_alpha   90.00131144
_cell_angle_beta   90.00131144
_cell_angle_gamma   90.00650713
_symmetry_Int_Tables_number   1
_chemical_formula_structural   Hf16TaNb3Si16
_chemical_formula_sum   'Hf16 Ta1 Nb3 Si16'
_cell_volume   629.27653041
_cell_formula_units_Z   1
loop_
 _symmetry_equiv_pos_site_id
 _symmetry_equiv_pos_as_xyz
  1  'x, y, z'
loop_
 _atom_site_type_symbol
 _atom_site_label
 _atom_site_symmetry_multiplicity
 _atom_site_fract_x
 _atom_site_fract_y
 _atom_site_fract_z
 _atom_site_occupancy
  Hf  Hf0  1  0.497756  0.153210  0.531886  1
  Hf  Hf1  1  0.502274  0.846806  0.031777  1
  Hf  Hf2  1  0.653172  0.002292  0.281794  1
  Hf  Hf3  1  0.346907  0.997721  0.781777  1
  Hf  Hf4  1  0.846790  0.502244  0.968114  1
  Hf  Hf5  1  0.153194  0.497726  0.468223  1
  Hf  Hf6  1  0.002279  0.653093  0.718223  1
  Hf  Hf7  1  0.997708  0.346828  0.218206  1
  Hf  Hf8  1  0.497100  0.354988  0.126163  1
  Hf  Hf9  1  0.502912  0.645137  0.626176  1
  Hf  Hf10  1  0.854895  0.002873  0.876147  1
  Hf  Hf11  1  0.145083  0.997082  0.376183  1
  Hf  Hf12  1  0.645012  0.502900  0.373837  1
  Hf  Hf13  1  0.354863  0.497088  0.873824  1
  Hf  Hf14  1  0.002918  0.854917  0.123817  1
  Hf  Hf15  1  0.997127  0.145105  0.623853  1
  Ta  Ta16  1  0.675281  0.324719  0.750000  1
  Nb  Nb17  1  0.324780  0.675220  0.250000  1
  Nb  Nb18  1  0.824741  0.824743  0.500035  1
  Nb  Nb19  1  0.175257  0.175259  0.999965  1
  Si  Si20  1  0.796996  0.146999  0.072362  1
  Si  Si21  1  0.203043  0.852988  0.572338  1
  Si  Si22  1  0.647032  0.702815  0.822317  1
  Si  Si23  1  0.352987  0.296970  0.322342  1
  Si  Si24  1  0.853001  0.203004  0.427638  1
  Si  Si25  1  0.147012  0.796957  0.927662  1
  Si  Si26  1  0.703030  0.647013  0.177658  1
  Si  Si27  1  0.297185  0.352968  0.677683  1
  Si  Si28  1  0.548053  0.197840  0.935282  1
  Si  Si29  1  0.451967  0.802252  0.435423  1
  Si  Si30  1  0.697699  0.952202  0.685439  1
  Si  Si31  1  0.302248  0.048006  0.185425  1
  Si  Si32  1  0.802160  0.451947  0.564718  1
  Si  Si33  1  0.197748  0.548033  0.064577  1
  Si  Si34  1  0.951994  0.697752  0.314575  1
  Si  Si35  1  0.047798  0.302301  0.814561  1
