# generated using pymatgen
data_Hf2Tc5B4
_symmetry_space_group_name_H-M   'P 1'
_cell_length_a   3.11614000
_cell_length_b   8.64180584
_cell_length_c   9.97719237
_cell_angle_alpha   90.00961710
_cell_angle_beta   90.00000000
_cell_angle_gamma   90.00000000
_symmetry_Int_Tables_number   1
_chemical_formula_structural   Hf2Tc5B4
_chemical_formula_sum   'Hf4 Tc10 B8'
_cell_volume   268.67657648
_cell_formula_units_Z   2
loop_
 _symmetry_equiv_pos_site_id
 _symmetry_equiv_pos_as_xyz
  1  'x, y, z'
loop_
 _atom_site_type_symbol
 _atom_site_label
 _atom_site_symmetry_multiplicity
 _atom_site_fract_x
 _atom_site_fract_y
 _atom_site_fract_z
 _atom_site_occupancy
  Hf  Hf0  1  0.500000  0.834859  0.181433  1
  Hf  Hf1  1  0.500000  0.165141  0.818567  1
  Hf  Hf2  1  0.500000  0.665127  0.681349  1
  Hf  Hf3  1  0.500000  0.334873  0.318651  1
  Tc  Tc4  1  0.000000  0.659668  0.955412  1
  Tc  Tc5  1  0.000000  0.340332  0.044588  1
  Tc  Tc6  1  0.000000  0.840343  0.455418  1
  Tc  Tc7  1  0.000000  0.159657  0.544582  1
  Tc  Tc8  1  0.000000  0.000000  0.000000  1
  Tc  Tc9  1  0.000000  0.410337  0.759701  1
  Tc  Tc10  1  0.000000  0.589663  0.240299  1
  Tc  Tc11  1  0.000000  0.500000  0.500000  1
  Tc  Tc12  1  0.000000  0.910324  0.740273  1
  Tc  Tc13  1  0.000000  0.089676  0.259727  1
  B  B14  1  0.500000  0.968973  0.588037  1
  B  B15  1  0.500000  0.031027  0.411963  1
  B  B16  1  0.500000  0.848828  0.901738  1
  B  B17  1  0.500000  0.151172  0.098262  1
  B  B18  1  0.500000  0.651155  0.401765  1
  B  B19  1  0.500000  0.348845  0.598235  1
  B  B20  1  0.500000  0.468985  0.911967  1
  B  B21  1  0.500000  0.531015  0.088033  1
