# generated using pymatgen
data_Sr2In3Ag
_symmetry_space_group_name_H-M   'P 1'
_cell_length_a   5.00092082
_cell_length_b   6.48643826
_cell_length_c   6.44648964
_cell_angle_alpha   94.51089384
_cell_angle_beta   112.82261784
_cell_angle_gamma   67.32581038
_symmetry_Int_Tables_number   1
_chemical_formula_structural   Sr2In3Ag
_chemical_formula_sum   'Sr2 In3 Ag1'
_cell_volume   177.22568597
_cell_formula_units_Z   1
loop_
 _symmetry_equiv_pos_site_id
 _symmetry_equiv_pos_as_xyz
  1  'x, y, z'
loop_
 _atom_site_type_symbol
 _atom_site_label
 _atom_site_symmetry_multiplicity
 _atom_site_fract_x
 _atom_site_fract_y
 _atom_site_fract_z
 _atom_site_occupancy
  Sr  Sr0  1  0.750856  0.704761  0.206471  1
  Sr  Sr1  1  0.249137  0.297456  0.795730  1
  In  In2  1  0.450691  0.703611  0.604995  1
  In  In3  1  0.060430  0.111639  0.232497  1
  In  In4  1  0.937680  0.900636  0.775996  1
  Ag  Ag5  1  0.551207  0.281897  0.384310  1
