# generated using pymatgen
data_Sm3Er7(SiHg)4
_symmetry_space_group_name_H-M   'P 1'
_cell_length_a   9.14722141
_cell_length_b   8.56078688
_cell_length_c   7.57577700
_cell_angle_alpha   89.77497353
_cell_angle_beta   90.11178897
_cell_angle_gamma   129.04379363
_symmetry_Int_Tables_number   1
_chemical_formula_structural   Sm3Er7(SiHg)4
_chemical_formula_sum   'Sm3 Er7 Si4 Hg4'
_cell_volume   460.74453018
_cell_formula_units_Z   1
loop_
 _symmetry_equiv_pos_site_id
 _symmetry_equiv_pos_as_xyz
  1  'x, y, z'
loop_
 _atom_site_type_symbol
 _atom_site_label
 _atom_site_symmetry_multiplicity
 _atom_site_fract_x
 _atom_site_fract_y
 _atom_site_fract_z
 _atom_site_occupancy
  Sm  Sm0  1  0.067855  0.340366  0.321531  1
  Sm  Sm1  1  0.932379  0.659752  0.678660  1
  Sm  Sm2  1  0.431232  0.159227  0.824371  1
  Er  Er3  1  0.779593  0.537875  0.175353  1
  Er  Er4  1  0.568283  0.833307  0.174244  1
  Er  Er5  1  0.223433  0.467739  0.824065  1
  Er  Er6  1  0.719681  0.962154  0.674918  1
  Er  Er7  1  0.276263  0.037935  0.326222  1
  Er  Er8  1  0.000282  0.002710  0.999391  1
  Er  Er9  1  0.499464  0.500886  0.499123  1
  Si  Si10  1  0.379891  0.385018  0.122297  1
  Si  Si11  1  0.621668  0.618514  0.878226  1
  Si  Si12  1  0.120936  0.119094  0.623570  1
  Si  Si13  1  0.875811  0.882060  0.376139  1
  Hg  Hg14  1  0.819947  0.253165  0.974428  1
  Hg  Hg15  1  0.180787  0.739430  0.038208  1
  Hg  Hg16  1  0.675211  0.239879  0.469726  1
  Hg  Hg17  1  0.327280  0.760892  0.519529  1
