# generated using pymatgen
data_HfScH4
_symmetry_space_group_name_H-M   'P 1'
_cell_length_a   5.80323660
_cell_length_b   5.80323759
_cell_length_c   5.80323754
_cell_angle_alpha   33.59428750
_cell_angle_beta   33.59427514
_cell_angle_gamma   33.59429910
_symmetry_Int_Tables_number   1
_chemical_formula_structural   HfScH4
_chemical_formula_sum   'Hf1 Sc1 H4'
_cell_volume   53.29850308
_cell_formula_units_Z   1
loop_
 _symmetry_equiv_pos_site_id
 _symmetry_equiv_pos_as_xyz
  1  'x, y, z'
loop_
 _atom_site_type_symbol
 _atom_site_label
 _atom_site_symmetry_multiplicity
 _atom_site_fract_x
 _atom_site_fract_y
 _atom_site_fract_z
 _atom_site_occupancy
  Hf  Hf0  1  0.000000  0.000000  0.000000  1
  Sc  Sc1  1  0.500000  0.500000  0.500000  1
  H  H2  1  0.626703  0.626703  0.626703  1
  H  H3  1  0.123689  0.123689  0.123689  1
  H  H4  1  0.876311  0.876311  0.876311  1
  H  H5  1  0.373297  0.373297  0.373297  1
