# generated using pymatgen
data_DyHo3Si4RuRh3
_symmetry_space_group_name_H-M   'P 1'
_cell_length_a   4.29277700
_cell_length_b   6.93056761
_cell_length_c   7.27252108
_cell_angle_alpha   90.05803207
_cell_angle_beta   90.00000000
_cell_angle_gamma   90.00000000
_symmetry_Int_Tables_number   1
_chemical_formula_structural   DyHo3Si4RuRh3
_chemical_formula_sum   'Dy1 Ho3 Si4 Ru1 Rh3'
_cell_volume   216.36743618
_cell_formula_units_Z   1
loop_
 _symmetry_equiv_pos_site_id
 _symmetry_equiv_pos_as_xyz
  1  'x, y, z'
loop_
 _atom_site_type_symbol
 _atom_site_label
 _atom_site_symmetry_multiplicity
 _atom_site_fract_x
 _atom_site_fract_y
 _atom_site_fract_z
 _atom_site_occupancy
  Dy  Dy0  1  0.250000  0.990775  0.812194  1
  Ho  Ho1  1  0.750000  0.007396  0.189766  1
  Ho  Ho2  1  0.250000  0.495546  0.686554  1
  Ho  Ho3  1  0.750000  0.505676  0.313045  1
  Si  Si4  1  0.250000  0.300863  0.105039  1
  Si  Si5  1  0.750000  0.700796  0.900676  1
  Si  Si6  1  0.250000  0.796944  0.386907  1
  Si  Si7  1  0.750000  0.202399  0.607315  1
  Ru  Ru8  1  0.250000  0.652816  0.066822  1
  Rh  Rh9  1  0.750000  0.845242  0.567851  1
  Rh  Rh10  1  0.250000  0.156507  0.431545  1
  Rh  Rh11  1  0.750000  0.345039  0.932285  1
