# generated using pymatgen
data_Tm4Ge6Pt2Rh5
_symmetry_space_group_name_H-M   'P 1'
_cell_length_a   7.25067840
_cell_length_b   7.25067856
_cell_length_c   7.25362401
_cell_angle_alpha   109.48231589
_cell_angle_beta   109.48232478
_cell_angle_gamma   109.43256266
_symmetry_Int_Tables_number   1
_chemical_formula_structural   Tm4Ge6Pt2Rh5
_chemical_formula_sum   'Tm4 Ge6 Pt2 Rh5'
_cell_volume   293.61520758
_cell_formula_units_Z   1
loop_
 _symmetry_equiv_pos_site_id
 _symmetry_equiv_pos_as_xyz
  1  'x, y, z'
loop_
 _atom_site_type_symbol
 _atom_site_label
 _atom_site_symmetry_multiplicity
 _atom_site_fract_x
 _atom_site_fract_y
 _atom_site_fract_z
 _atom_site_occupancy
  Tm  Tm0  1  0.498795  0.501205  0.500000  1
  Tm  Tm1  1  0.003216  0.501089  0.000000  1
  Tm  Tm2  1  0.498911  0.996784  0.000000  1
  Tm  Tm3  1  0.998795  0.001205  0.500000  1
  Ge  Ge4  1  0.682495  0.996840  0.679334  1
  Ge  Ge5  1  0.681575  0.687341  0.000000  1
  Ge  Ge6  1  0.312659  0.318425  0.000000  1
  Ge  Ge7  1  0.003453  0.682679  0.686131  1
  Ge  Ge8  1  0.003160  0.317505  0.320666  1
  Ge  Ge9  1  0.317321  0.996547  0.313869  1
  Pt  Pt10  1  0.750115  0.500479  0.250594  1
  Pt  Pt11  1  0.499521  0.249885  0.749406  1
  Rh  Rh12  1  0.749752  0.250248  0.500000  1
  Rh  Rh13  1  0.249752  0.750248  0.500000  1
  Rh  Rh14  1  0.250386  0.499995  0.750381  1
  Rh  Rh15  1  0.500005  0.749614  0.249619  1
  Rh  Rh16  1  0.000091  0.999909  0.000000  1
