# generated using pymatgen
data_Tb2Th2Tc5Os3
_symmetry_space_group_name_H-M   'P 1'
_cell_length_a   5.34470991
_cell_length_b   5.22908286
_cell_length_c   9.34595463
_cell_angle_alpha   90.00000217
_cell_angle_beta   89.94315321
_cell_angle_gamma   119.28687873
_symmetry_Int_Tables_number   1
_chemical_formula_structural   Tb2Th2Tc5Os3
_chemical_formula_sum   'Tb2 Th2 Tc5 Os3'
_cell_volume   227.81369692
_cell_formula_units_Z   1
loop_
 _symmetry_equiv_pos_site_id
 _symmetry_equiv_pos_as_xyz
  1  'x, y, z'
loop_
 _atom_site_type_symbol
 _atom_site_label
 _atom_site_symmetry_multiplicity
 _atom_site_fract_x
 _atom_site_fract_y
 _atom_site_fract_z
 _atom_site_occupancy
  Tb  Tb0  1  0.669753  0.334876  0.436102  1
  Tb  Tb1  1  0.332389  0.666195  0.562063  1
  Th  Th2  1  0.334930  0.667466  0.935022  1
  Th  Th3  1  0.668365  0.334182  0.065612  1
  Tc  Tc4  1  0.164040  0.828258  0.256686  1
  Tc  Tc5  1  0.164040  0.335782  0.256686  1
  Tc  Tc6  1  0.338539  0.169270  0.745101  1
  Tc  Tc7  1  0.830907  0.171323  0.744263  1
  Tc  Tc8  1  0.830907  0.659583  0.744263  1
  Os  Os9  1  0.005793  0.002896  0.499126  1
  Os  Os10  1  0.008424  0.004211  0.001218  1
  Os  Os11  1  0.651915  0.825957  0.253858  1
