# generated using pymatgen
data_AcY(SbTe)2
_symmetry_space_group_name_H-M   'P 1'
_cell_length_a   4.38723000
_cell_length_b   4.41614100
_cell_length_c   19.39692000
_cell_angle_alpha   90.00000000
_cell_angle_beta   90.00000000
_cell_angle_gamma   90.00000000
_symmetry_Int_Tables_number   1
_chemical_formula_structural   AcY(SbTe)2
_chemical_formula_sum   'Ac2 Y2 Sb4 Te4'
_cell_volume   375.80807597
_cell_formula_units_Z   2
loop_
 _symmetry_equiv_pos_site_id
 _symmetry_equiv_pos_as_xyz
  1  'x, y, z'
loop_
 _atom_site_type_symbol
 _atom_site_label
 _atom_site_symmetry_multiplicity
 _atom_site_fract_x
 _atom_site_fract_y
 _atom_site_fract_z
 _atom_site_occupancy
  Ac  Ac0  1  0.250000  0.738117  0.630547  1
  Ac  Ac1  1  0.750000  0.238117  0.869453  1
  Y  Y2  1  0.250000  0.765295  0.145913  1
  Y  Y3  1  0.750000  0.265295  0.354087  1
  Sb  Sb4  1  0.250000  0.275142  0.016296  1
  Sb  Sb5  1  0.750000  0.775142  0.483704  1
  Sb  Sb6  1  0.250000  0.221473  0.486375  1
  Sb  Sb7  1  0.750000  0.721473  0.013625  1
  Te  Te8  1  0.750000  0.261581  0.191347  1
  Te  Te9  1  0.250000  0.761581  0.308653  1
  Te  Te10  1  0.750000  0.238391  0.686586  1
  Te  Te11  1  0.250000  0.738391  0.813414  1
