# generated using pymatgen
data_TbMgFe2Ni2P3
_symmetry_space_group_name_H-M   'P 1'
_cell_length_a   3.75965500
_cell_length_b   10.48702400
_cell_length_c   12.18676100
_cell_angle_alpha   90.00000000
_cell_angle_beta   90.00000000
_cell_angle_gamma   90.00000000
_symmetry_Int_Tables_number   1
_chemical_formula_structural   TbMgFe2Ni2P3
_chemical_formula_sum   'Tb4 Mg4 Fe8 Ni8 P12'
_cell_volume   480.49464315
_cell_formula_units_Z   4
loop_
 _symmetry_equiv_pos_site_id
 _symmetry_equiv_pos_as_xyz
  1  'x, y, z'
loop_
 _atom_site_type_symbol
 _atom_site_label
 _atom_site_symmetry_multiplicity
 _atom_site_fract_x
 _atom_site_fract_y
 _atom_site_fract_z
 _atom_site_occupancy
  Tb  Tb0  1  0.250000  0.580350  0.707814  1
  Tb  Tb1  1  0.250000  0.919650  0.207814  1
  Tb  Tb2  1  0.750000  0.419650  0.292186  1
  Tb  Tb3  1  0.750000  0.080350  0.792186  1
  Mg  Mg4  1  0.250000  0.702883  0.992751  1
  Mg  Mg5  1  0.250000  0.797117  0.492751  1
  Mg  Mg6  1  0.750000  0.297117  0.007249  1
  Mg  Mg7  1  0.750000  0.202883  0.507249  1
  Fe  Fe8  1  0.250000  0.875372  0.704747  1
  Fe  Fe9  1  0.250000  0.624628  0.204747  1
  Fe  Fe10  1  0.750000  0.124628  0.295253  1
  Fe  Fe11  1  0.750000  0.375372  0.795253  1
  Fe  Fe12  1  0.250000  0.462766  0.931427  1
  Fe  Fe13  1  0.250000  0.037234  0.431427  1
  Fe  Fe14  1  0.750000  0.537234  0.068573  1
  Fe  Fe15  1  0.750000  0.962766  0.568573  1
  Ni  Ni16  1  0.250000  0.408567  0.488672  1
  Ni  Ni17  1  0.250000  0.091433  0.988672  1
  Ni  Ni18  1  0.750000  0.591433  0.511328  1
  Ni  Ni19  1  0.750000  0.908567  0.011328  1
  Ni  Ni20  1  0.250000  0.225010  0.167900  1
  Ni  Ni21  1  0.250000  0.274990  0.667900  1
  Ni  Ni22  1  0.750000  0.774990  0.832100  1
  Ni  Ni23  1  0.750000  0.725010  0.332100  1
  P  P24  1  0.250000  0.437359  0.113998  1
  P  P25  1  0.250000  0.062641  0.613998  1
  P  P26  1  0.750000  0.562641  0.886002  1
  P  P27  1  0.750000  0.937359  0.386002  1
  P  P28  1  0.250000  0.275685  0.851231  1
  P  P29  1  0.250000  0.224315  0.351231  1
  P  P30  1  0.750000  0.724315  0.148769  1
  P  P31  1  0.750000  0.775685  0.648769  1
  P  P32  1  0.250000  0.594322  0.387247  1
  P  P33  1  0.250000  0.905678  0.887247  1
  P  P34  1  0.750000  0.405678  0.612753  1
  P  P35  1  0.750000  0.094322  0.112753  1
