# generated using pymatgen
data_Ce4TmAl2Os3
_symmetry_space_group_name_H-M   'P 1'
_cell_length_a   8.42515279
_cell_length_b   8.44914389
_cell_length_c   8.33436300
_cell_angle_alpha   109.73909926
_cell_angle_beta   109.46465495
_cell_angle_gamma   110.34495171
_symmetry_Int_Tables_number   1
_chemical_formula_structural   Ce4TmAl2Os3
_chemical_formula_sum   'Ce8 Tm2 Al4 Os6'
_cell_volume   450.17854561
_cell_formula_units_Z   2
loop_
 _symmetry_equiv_pos_site_id
 _symmetry_equiv_pos_as_xyz
  1  'x, y, z'
loop_
 _atom_site_type_symbol
 _atom_site_label
 _atom_site_symmetry_multiplicity
 _atom_site_fract_x
 _atom_site_fract_y
 _atom_site_fract_z
 _atom_site_occupancy
  Ce  Ce0  1  0.753827  0.315356  0.561385  1
  Ce  Ce1  1  0.562313  0.752472  0.310859  1
  Ce  Ce2  1  0.712538  0.501373  0.997078  1
  Ce  Ce3  1  0.007536  0.719040  0.510186  1
  Ce  Ce4  1  0.507462  0.001985  0.716800  1
  Ce  Ce5  1  0.244518  0.185999  0.937054  1
  Ce  Ce6  1  0.938108  0.248387  0.186664  1
  Ce  Ce7  1  0.186659  0.937748  0.245949  1
  Tm  Tm8  1  0.771369  0.775312  0.775268  1
  Tm  Tm9  1  0.319809  0.568326  0.751744  1
  Al  Al10  1  0.400436  0.398840  0.403330  1
  Al  Al11  1  0.102215  0.501313  0.997749  1
  Al  Al12  1  0.004635  0.105386  0.503041  1
  Al  Al13  1  0.494728  0.996300  0.095589  1
  Os  Os14  1  0.875756  0.124570  0.749684  1
  Os  Os15  1  0.745639  0.878600  0.126267  1
  Os  Os16  1  0.116315  0.751225  0.881206  1
  Os  Os17  1  0.255416  0.622296  0.377587  1
  Os  Os18  1  0.375774  0.240029  0.621503  1
  Os  Os19  1  0.624946  0.375444  0.251056  1
