# generated using pymatgen
data_Sm3YBeCo3I2
_symmetry_space_group_name_H-M   'P 1'
_cell_length_a   3.97978300
_cell_length_b   3.97978223
_cell_length_c   17.39103900
_cell_angle_alpha   90.00000000
_cell_angle_beta   90.00000000
_cell_angle_gamma   120.00001472
_symmetry_Int_Tables_number   1
_chemical_formula_structural   Sm3YBeCo3I2
_chemical_formula_sum   'Sm3 Y1 Be1 Co3 I2'
_cell_volume   238.54746030
_cell_formula_units_Z   1
loop_
 _symmetry_equiv_pos_site_id
 _symmetry_equiv_pos_as_xyz
  1  'x, y, z'
loop_
 _atom_site_type_symbol
 _atom_site_label
 _atom_site_symmetry_multiplicity
 _atom_site_fract_x
 _atom_site_fract_y
 _atom_site_fract_z
 _atom_site_occupancy
  Sm  Sm0  1  0.000000  0.000000  0.105106  1
  Sm  Sm1  1  0.000000  0.000000  0.895749  1
  Sm  Sm2  1  0.000000  0.000000  0.601825  1
  Y  Y3  1  0.000000  0.000000  0.397736  1
  Be  Be4  1  0.333333  0.666667  0.497776  1
  Co  Co5  1  0.666667  0.333333  0.497108  1
  Co  Co6  1  0.666667  0.333333  0.001785  1
  Co  Co7  1  0.333333  0.666667  0.999686  1
  I  I8  1  0.333333  0.666667  0.254002  1
  I  I9  1  0.666667  0.333333  0.749226  1
