# generated using pymatgen
data_Li2Tm3Si3Ag
_symmetry_space_group_name_H-M   'P 1'
_cell_length_a   6.93288495
_cell_length_b   6.90966215
_cell_length_c   4.18558700
_cell_angle_alpha   90.00000000
_cell_angle_beta   90.00000000
_cell_angle_gamma   119.88925693
_symmetry_Int_Tables_number   1
_chemical_formula_structural   Li2Tm3Si3Ag
_chemical_formula_sum   'Li2 Tm3 Si3 Ag1'
_cell_volume   173.83665988
_cell_formula_units_Z   1
loop_
 _symmetry_equiv_pos_site_id
 _symmetry_equiv_pos_as_xyz
  1  'x, y, z'
loop_
 _atom_site_type_symbol
 _atom_site_label
 _atom_site_symmetry_multiplicity
 _atom_site_fract_x
 _atom_site_fract_y
 _atom_site_fract_z
 _atom_site_occupancy
  Li  Li0  1  0.764018  0.767820  0.000000  1
  Li  Li1  1  0.235982  0.003802  0.000000  1
  Tm  Tm2  1  0.423940  0.423657  0.500000  1
  Tm  Tm3  1  0.576060  0.999717  0.500000  1
  Tm  Tm4  1  0.000000  0.572274  0.500000  1
  Si  Si5  1  0.664965  0.331906  0.000000  1
  Si  Si6  1  0.335035  0.666942  0.000000  1
  Si  Si7  1  0.000000  0.996193  0.500000  1
  Ag  Ag8  1  0.000000  0.237690  0.000000  1
