# generated using pymatgen
data_Cs4NbRhBr12
_symmetry_space_group_name_H-M   'P 1'
_cell_length_a   7.87455600
_cell_length_b   7.87455600
_cell_length_c   11.43123000
_cell_angle_alpha   90.00000000
_cell_angle_beta   90.00000000
_cell_angle_gamma   90.00000000
_symmetry_Int_Tables_number   1
_chemical_formula_structural   Cs4NbRhBr12
_chemical_formula_sum   'Cs4 Nb1 Rh1 Br12'
_cell_volume   708.83493663
_cell_formula_units_Z   1
loop_
 _symmetry_equiv_pos_site_id
 _symmetry_equiv_pos_as_xyz
  1  'x, y, z'
loop_
 _atom_site_type_symbol
 _atom_site_label
 _atom_site_symmetry_multiplicity
 _atom_site_fract_x
 _atom_site_fract_y
 _atom_site_fract_z
 _atom_site_occupancy
  Cs  Cs0  1  0.500000  0.000000  0.784136  1
  Cs  Cs1  1  0.000000  0.500000  0.215864  1
  Cs  Cs2  1  0.500000  0.000000  0.215864  1
  Cs  Cs3  1  0.000000  0.500000  0.784136  1
  Nb  Nb4  1  0.500000  0.500000  0.500000  1
  Rh  Rh5  1  0.000000  0.000000  0.000000  1
  Br  Br6  1  0.000000  0.000000  0.778421  1
  Br  Br7  1  0.500000  0.500000  0.274820  1
  Br  Br8  1  0.729085  0.729085  0.500000  1
  Br  Br9  1  0.227222  0.227222  0.000000  1
  Br  Br10  1  0.729085  0.270915  0.500000  1
  Br  Br11  1  0.227222  0.772778  0.000000  1
  Br  Br12  1  0.000000  0.000000  0.221579  1
  Br  Br13  1  0.500000  0.500000  0.725180  1
  Br  Br14  1  0.270915  0.270915  0.500000  1
  Br  Br15  1  0.772778  0.772778  0.000000  1
  Br  Br16  1  0.270915  0.729085  0.500000  1
  Br  Br17  1  0.772778  0.227222  0.000000  1
