# generated using pymatgen
data_Sm3Th(B10Pt)2
_symmetry_space_group_name_H-M   'P 1'
_cell_length_a   4.20546400
_cell_length_b   5.74236902
_cell_length_c   11.44401403
_cell_angle_alpha   90.00879602
_cell_angle_beta   90.00000000
_cell_angle_gamma   90.00000000
_symmetry_Int_Tables_number   1
_chemical_formula_structural   Sm3Th(B10Pt)2
_chemical_formula_sum   'Sm3 Th1 B20 Pt2'
_cell_volume   276.36522440
_cell_formula_units_Z   1
loop_
 _symmetry_equiv_pos_site_id
 _symmetry_equiv_pos_as_xyz
  1  'x, y, z'
loop_
 _atom_site_type_symbol
 _atom_site_label
 _atom_site_symmetry_multiplicity
 _atom_site_fract_x
 _atom_site_fract_y
 _atom_site_fract_z
 _atom_site_occupancy
  Sm  Sm0  1  0.500000  0.809652  0.641019  1
  Sm  Sm1  1  0.500000  0.309232  0.860275  1
  Sm  Sm2  1  0.500000  0.690740  0.139551  1
  Th  Th3  1  0.500000  0.192691  0.360554  1
  B  B4  1  0.000000  0.383332  0.043815  1
  B  B5  1  0.000000  0.616705  0.955889  1
  B  B6  1  0.000000  0.116934  0.544047  1
  B  B7  1  0.000000  0.884210  0.455827  1
  B  B8  1  0.000000  0.360837  0.197708  1
  B  B9  1  0.000000  0.639367  0.802411  1
  B  B10  1  0.000000  0.139836  0.698115  1
  B  B11  1  0.000000  0.861389  0.302185  1
  B  B12  1  0.000000  0.054037  0.193602  1
  B  B13  1  0.000000  0.945812  0.806293  1
  B  B14  1  0.000000  0.445914  0.694158  1
  B  B15  1  0.000000  0.553148  0.306403  1
  B  B16  1  0.302078  0.219451  0.119555  1
  B  B17  1  0.697655  0.780718  0.879679  1
  B  B18  1  0.302345  0.780718  0.879679  1
  B  B19  1  0.697091  0.280613  0.620526  1
  B  B20  1  0.697922  0.219451  0.119555  1
  B  B21  1  0.302675  0.717072  0.379109  1
  B  B22  1  0.697325  0.717072  0.379109  1
  B  B23  1  0.302909  0.280613  0.620526  1
  Pt  Pt24  1  0.000000  0.000112  0.999622  1
  Pt  Pt25  1  0.000000  0.500345  0.500785  1
