# generated using pymatgen
data_Pr8Hg3Ir
_symmetry_space_group_name_H-M   'P 1'
_cell_length_a   10.67137900
_cell_length_b   10.67137985
_cell_length_c   7.41352100
_cell_angle_alpha   90.00000000
_cell_angle_beta   90.00000000
_cell_angle_gamma   120.00000047
_symmetry_Int_Tables_number   1
_chemical_formula_structural   Pr8Hg3Ir
_chemical_formula_sum   'Pr16 Hg6 Ir2'
_cell_volume   731.13281266
_cell_formula_units_Z   2
loop_
 _symmetry_equiv_pos_site_id
 _symmetry_equiv_pos_as_xyz
  1  'x, y, z'
loop_
 _atom_site_type_symbol
 _atom_site_label
 _atom_site_symmetry_multiplicity
 _atom_site_fract_x
 _atom_site_fract_y
 _atom_site_fract_z
 _atom_site_occupancy
  Pr  Pr0  1  0.170397  0.829603  0.983130  1
  Pr  Pr1  1  0.340791  0.170397  0.483130  1
  Pr  Pr2  1  0.829603  0.659209  0.483130  1
  Pr  Pr3  1  0.170397  0.340791  0.983130  1
  Pr  Pr4  1  0.659209  0.829603  0.983130  1
  Pr  Pr5  1  0.829603  0.170397  0.483130  1
  Pr  Pr6  1  0.333333  0.666667  0.672829  1
  Pr  Pr7  1  0.666667  0.333333  0.172829  1
  Pr  Pr8  1  0.461993  0.538007  0.293965  1
  Pr  Pr9  1  0.923986  0.461993  0.793965  1
  Pr  Pr10  1  0.538007  0.076014  0.793965  1
  Pr  Pr11  1  0.461993  0.923986  0.293965  1
  Pr  Pr12  1  0.076014  0.538007  0.293965  1
  Pr  Pr13  1  0.538007  0.461993  0.793965  1
  Pr  Pr14  1  0.000000  0.000000  0.283533  1
  Pr  Pr15  1  0.000000  0.000000  0.783533  1
  Hg  Hg16  1  0.166835  0.833165  0.540959  1
  Hg  Hg17  1  0.333669  0.166835  0.040959  1
  Hg  Hg18  1  0.833165  0.666331  0.040959  1
  Hg  Hg19  1  0.166835  0.333669  0.540959  1
  Hg  Hg20  1  0.666331  0.833165  0.540959  1
  Hg  Hg21  1  0.833165  0.166835  0.040959  1
  Ir  Ir22  1  0.333333  0.666667  0.052475  1
  Ir  Ir23  1  0.666667  0.333333  0.552475  1
