# generated using pymatgen
data_Ca4Pr15DySn16
_symmetry_space_group_name_H-M   'P 1'
_cell_length_a   8.12266696
_cell_length_b   8.51403784
_cell_length_c   16.21406600
_cell_angle_alpha   90.14659703
_cell_angle_beta   89.83678864
_cell_angle_gamma   90.04830499
_symmetry_Int_Tables_number   1
_chemical_formula_structural   Ca4Pr15DySn16
_chemical_formula_sum   'Ca4 Pr15 Dy1 Sn16'
_cell_volume   1121.30258688
_cell_formula_units_Z   1
loop_
 _symmetry_equiv_pos_site_id
 _symmetry_equiv_pos_as_xyz
  1  'x, y, z'
loop_
 _atom_site_type_symbol
 _atom_site_label
 _atom_site_symmetry_multiplicity
 _atom_site_fract_x
 _atom_site_fract_y
 _atom_site_fract_z
 _atom_site_occupancy
  Ca  Ca0  1  0.169261  0.494452  0.750024  1
  Ca  Ca1  1  0.669858  0.005374  0.750070  1
  Ca  Ca2  1  0.831004  0.504825  0.250238  1
  Ca  Ca3  1  0.331131  0.993527  0.249461  1
  Pr  Pr4  1  0.840278  0.671396  0.625588  1
  Pr  Pr5  1  0.658174  0.171075  0.375573  1
  Pr  Pr6  1  0.162138  0.327430  0.122472  1
  Pr  Pr7  1  0.662908  0.171161  0.123250  1
  Pr  Pr8  1  0.159106  0.328189  0.375587  1
  Pr  Pr9  1  0.342108  0.829152  0.625438  1
  Pr  Pr10  1  0.839238  0.673485  0.876276  1
  Pr  Pr11  1  0.494716  0.319643  0.904133  1
  Pr  Pr12  1  0.996382  0.182277  0.597522  1
  Pr  Pr13  1  0.505131  0.683387  0.404223  1
  Pr  Pr14  1  0.006114  0.815112  0.095638  1
  Pr  Pr15  1  0.504202  0.681026  0.094560  1
  Pr  Pr16  1  0.004629  0.818264  0.404054  1
  Pr  Pr17  1  0.495309  0.317023  0.597335  1
  Pr  Pr18  1  0.993934  0.183596  0.903671  1
  Dy  Dy19  1  0.336343  0.828881  0.874215  1
  Sn  Sn20  1  0.322792  0.034030  0.033929  1
  Sn  Sn21  1  0.819937  0.462175  0.463738  1
  Sn  Sn22  1  0.683598  0.961380  0.536662  1
  Sn  Sn23  1  0.182407  0.541691  0.961196  1
  Sn  Sn24  1  0.667155  0.962221  0.960321  1
  Sn  Sn25  1  0.180217  0.538425  0.537211  1
  Sn  Sn26  1  0.318125  0.039056  0.464322  1
  Sn  Sn27  1  0.822397  0.462733  0.036720  1
  Sn  Sn28  1  0.534761  0.607553  0.752282  1
  Sn  Sn29  1  0.039441  0.895980  0.752769  1
  Sn  Sn30  1  0.463069  0.395794  0.249731  1
  Sn  Sn31  1  0.963476  0.102474  0.249481  1
  Sn  Sn32  1  0.299647  0.138828  0.752280  1
  Sn  Sn33  1  0.796736  0.360368  0.751504  1
  Sn  Sn34  1  0.702232  0.858218  0.249325  1
  Sn  Sn35  1  0.202046  0.639805  0.249204  1
