# generated using pymatgen
data_Yb3TmNi13Pt
_symmetry_space_group_name_H-M   'P 1'
_cell_length_a   4.90609692
_cell_length_b   4.90609680
_cell_length_c   12.42610287
_cell_angle_alpha   78.61439950
_cell_angle_beta   78.61440029
_cell_angle_gamma   59.99999692
_symmetry_Int_Tables_number   1
_chemical_formula_structural   Yb3TmNi13Pt
_chemical_formula_sum   'Yb3 Tm1 Ni13 Pt1'
_cell_volume   252.20331891
_cell_formula_units_Z   1
loop_
 _symmetry_equiv_pos_site_id
 _symmetry_equiv_pos_as_xyz
  1  'x, y, z'
loop_
 _atom_site_type_symbol
 _atom_site_label
 _atom_site_symmetry_multiplicity
 _atom_site_fract_x
 _atom_site_fract_y
 _atom_site_fract_z
 _atom_site_occupancy
  Yb  Yb0  1  0.051550  0.051550  0.845349  1
  Yb  Yb1  1  0.852521  0.852521  0.442434  1
  Yb  Yb2  1  0.146570  0.146570  0.560293  1
  Tm  Tm3  1  0.949503  0.949503  0.151491  1
  Ni  Ni4  1  0.720867  0.720867  0.837396  1
  Ni  Ni5  1  0.279240  0.279240  0.162283  1
  Ni  Ni6  1  0.612809  0.612809  0.161572  1
  Ni  Ni7  1  0.387151  0.387151  0.838547  1
  Ni  Ni8  1  0.000082  0.500280  0.999357  1
  Ni  Ni9  1  0.500280  0.000082  0.999357  1
  Ni  Ni10  1  0.500280  0.500280  0.999357  1
  Ni  Ni11  1  0.390620  0.390620  0.323351  1
  Ni  Ni12  1  0.895407  0.390620  0.323351  1
  Ni  Ni13  1  0.390620  0.895407  0.323351  1
  Ni  Ni14  1  0.609174  0.609174  0.677339  1
  Ni  Ni15  1  0.104314  0.609174  0.677339  1
  Ni  Ni16  1  0.609174  0.104314  0.677339  1
  Pt  Pt17  1  0.499836  0.499836  0.500493  1
