# generated using pymatgen
data_Ca2Pr8Ga5Si
_symmetry_space_group_name_H-M   'P 1'
_cell_length_a   7.91783347
_cell_length_b   7.91783407
_cell_length_c   9.19152564
_cell_angle_alpha   115.42777523
_cell_angle_beta   115.42777986
_cell_angle_gamma   90.17836609
_symmetry_Int_Tables_number   1
_chemical_formula_structural   Ca2Pr8Ga5Si
_chemical_formula_sum   'Ca2 Pr8 Ga5 Si1'
_cell_volume   457.41669706
_cell_formula_units_Z   1
loop_
 _symmetry_equiv_pos_site_id
 _symmetry_equiv_pos_as_xyz
  1  'x, y, z'
loop_
 _atom_site_type_symbol
 _atom_site_label
 _atom_site_symmetry_multiplicity
 _atom_site_fract_x
 _atom_site_fract_y
 _atom_site_fract_z
 _atom_site_occupancy
  Ca  Ca0  1  0.497465  0.500810  0.000000  1
  Ca  Ca1  1  0.000810  0.997465  0.000000  1
  Pr  Pr2  1  0.976832  0.821035  0.294424  1
  Pr  Pr3  1  0.321035  0.476832  0.294424  1
  Pr  Pr4  1  0.823758  0.323758  0.296884  1
  Pr  Pr5  1  0.468948  0.968948  0.293207  1
  Pr  Pr6  1  0.026612  0.182408  0.705576  1
  Pr  Pr7  1  0.682408  0.526612  0.705576  1
  Pr  Pr8  1  0.175741  0.675741  0.706793  1
  Pr  Pr9  1  0.526874  0.026874  0.703116  1
  Ga  Ga10  1  0.750060  0.750060  0.500000  1
  Ga  Ga11  1  0.250060  0.250060  0.500000  1
  Ga  Ga12  1  0.616243  0.883332  0.000000  1
  Ga  Ga13  1  0.383332  0.116243  0.000000  1
  Ga  Ga14  1  0.884868  0.384868  0.000000  1
  Si  Si15  1  0.114957  0.614957  0.000000  1
