# generated using pymatgen
data_Nd2YAg(Ir2O7)2
_symmetry_space_group_name_H-M   'P 1'
_cell_length_a   7.41369235
_cell_length_b   7.43018646
_cell_length_c   7.23328640
_cell_angle_alpha   59.09537726
_cell_angle_beta   59.24078002
_cell_angle_gamma   59.92638792
_symmetry_Int_Tables_number   1
_chemical_formula_structural   Nd2YAg(Ir2O7)2
_chemical_formula_sum   'Nd2 Y1 Ag1 Ir4 O14'
_cell_volume   277.99729554
_cell_formula_units_Z   1
loop_
 _symmetry_equiv_pos_site_id
 _symmetry_equiv_pos_as_xyz
  1  'x, y, z'
loop_
 _atom_site_type_symbol
 _atom_site_label
 _atom_site_symmetry_multiplicity
 _atom_site_fract_x
 _atom_site_fract_y
 _atom_site_fract_z
 _atom_site_occupancy
  Nd  Nd0  1  0.125000  0.625000  0.125000  1
  Nd  Nd1  1  0.125000  0.125000  0.125000  1
  Y  Y2  1  0.625000  0.125000  0.125000  1
  Ag  Ag3  1  0.125000  0.125000  0.625000  1
  Ir  Ir4  1  0.125000  0.625000  0.625000  1
  Ir  Ir5  1  0.625000  0.125000  0.625000  1
  Ir  Ir6  1  0.625000  0.625000  0.125000  1
  Ir  Ir7  1  0.625000  0.625000  0.625000  1
  O  O8  1  0.704504  0.713547  0.288309  1
  O  O9  1  0.302979  0.301886  0.701645  1
  O  O10  1  0.689344  0.300898  0.708859  1
  O  O11  1  0.294183  0.709057  0.287703  1
  O  O12  1  0.302979  0.693489  0.701645  1
  O  O13  1  0.704504  0.293640  0.288309  1
  O  O14  1  0.545496  0.536453  0.961691  1
  O  O15  1  0.947021  0.948114  0.548355  1
  O  O16  1  0.560656  0.949102  0.541141  1
  O  O17  1  0.955817  0.540943  0.962297  1
  O  O18  1  0.947021  0.556511  0.548355  1
  O  O19  1  0.545496  0.956360  0.961691  1
  O  O20  1  0.259146  0.243180  0.254495  1
  O  O21  1  0.990854  0.006820  0.995505  1
