# generated using pymatgen
data_Er3Lu2Hf5(Si5Ir2)4
_symmetry_space_group_name_H-M   'P 1'
_cell_length_a   12.44929630
_cell_length_b   12.45190530
_cell_length_c   4.15340200
_cell_angle_alpha   90.00000000
_cell_angle_beta   90.00000000
_cell_angle_gamma   89.94759414
_symmetry_Int_Tables_number   1
_chemical_formula_structural   Er3Lu2Hf5(Si5Ir2)4
_chemical_formula_sum   'Er3 Lu2 Hf5 Si20 Ir8'
_cell_volume   643.84955339
_cell_formula_units_Z   1
loop_
 _symmetry_equiv_pos_site_id
 _symmetry_equiv_pos_as_xyz
  1  'x, y, z'
loop_
 _atom_site_type_symbol
 _atom_site_label
 _atom_site_symmetry_multiplicity
 _atom_site_fract_x
 _atom_site_fract_y
 _atom_site_fract_z
 _atom_site_occupancy
  Er  Er0  1  0.116223  0.616204  0.500000  1
  Er  Er1  1  0.383740  0.116133  0.500000  1
  Er  Er2  1  0.616090  0.883787  0.500000  1
  Lu  Lu3  1  0.999894  0.000205  0.000000  1
  Lu  Lu4  1  0.883919  0.383805  0.500000  1
  Hf  Hf5  1  0.500064  0.499776  0.000000  1
  Hf  Hf6  1  0.674182  0.175069  0.500000  1
  Hf  Hf7  1  0.325876  0.824891  0.500000  1
  Hf  Hf8  1  0.174747  0.326103  0.500000  1
  Hf  Hf9  1  0.825180  0.673822  0.500000  1
  Si  Si10  1  0.565839  0.067290  0.000000  1
  Si  Si11  1  0.434063  0.932507  0.000000  1
  Si  Si12  1  0.067265  0.434343  0.000000  1
  Si  Si13  1  0.932756  0.565702  0.000000  1
  Si  Si14  1  0.665860  0.700830  0.000000  1
  Si  Si15  1  0.334254  0.298734  0.000000  1
  Si  Si16  1  0.163833  0.800888  0.000000  1
  Si  Si17  1  0.835936  0.199316  0.000000  1
  Si  Si18  1  0.298807  0.665648  0.000000  1
  Si  Si19  1  0.701362  0.334171  0.000000  1
  Si  Si20  1  0.198787  0.164138  0.000000  1
  Si  Si21  1  0.800760  0.836016  0.000000  1
  Si  Si22  1  0.651524  0.508506  0.500000  1
  Si  Si23  1  0.348778  0.491701  0.500000  1
  Si  Si24  1  0.154399  0.991729  0.500000  1
  Si  Si25  1  0.845453  0.008790  0.500000  1
  Si  Si26  1  0.491689  0.651036  0.500000  1
  Si  Si27  1  0.508843  0.348738  0.500000  1
  Si  Si28  1  0.008380  0.154980  0.500000  1
  Si  Si29  1  0.991765  0.845479  0.500000  1
  Ir  Ir30  1  0.743293  0.520450  0.000000  1
  Ir  Ir31  1  0.257345  0.478757  0.000000  1
  Ir  Ir32  1  0.245672  0.978502  0.000000  1
  Ir  Ir33  1  0.754162  0.021641  0.000000  1
  Ir  Ir34  1  0.478930  0.742333  0.000000  1
  Ir  Ir35  1  0.521222  0.257279  0.000000  1
  Ir  Ir36  1  0.020825  0.246627  0.000000  1
  Ir  Ir37  1  0.978285  0.754074  0.000000  1
