# generated using pymatgen
data_DyTm5ScCo17P12
_symmetry_space_group_name_H-M   'P 1'
_cell_length_a   3.68899800
_cell_length_b   10.54418100
_cell_length_c   12.21399000
_cell_angle_alpha   90.00000000
_cell_angle_beta   90.00000000
_cell_angle_gamma   90.00000000
_symmetry_Int_Tables_number   1
_chemical_formula_structural   DyTm5ScCo17P12
_chemical_formula_sum   'Dy1 Tm5 Sc1 Co17 P12'
_cell_volume   475.09321947
_cell_formula_units_Z   1
loop_
 _symmetry_equiv_pos_site_id
 _symmetry_equiv_pos_as_xyz
  1  'x, y, z'
loop_
 _atom_site_type_symbol
 _atom_site_label
 _atom_site_symmetry_multiplicity
 _atom_site_fract_x
 _atom_site_fract_y
 _atom_site_fract_z
 _atom_site_occupancy
  Dy  Dy0  1  0.500000  0.000000  0.477082  1
  Tm  Tm1  1  0.000000  0.500000  0.528081  1
  Tm  Tm2  1  0.500000  0.821711  0.207271  1
  Tm  Tm3  1  0.500000  0.178289  0.207271  1
  Tm  Tm4  1  0.000000  0.682158  0.795628  1
  Tm  Tm5  1  0.000000  0.317842  0.795628  1
  Sc  Sc6  1  0.500000  0.500000  0.153174  1
  Co  Co7  1  0.000000  0.000000  0.837191  1
  Co  Co8  1  0.500000  0.500000  0.703023  1
  Co  Co9  1  0.000000  0.000000  0.295396  1
  Co  Co10  1  0.000000  0.500000  0.984089  1
  Co  Co11  1  0.500000  0.000000  0.013667  1
  Co  Co12  1  0.500000  0.326778  0.989217  1
  Co  Co13  1  0.500000  0.673222  0.989217  1
  Co  Co14  1  0.000000  0.162287  0.001493  1
  Co  Co15  1  0.000000  0.837713  0.001493  1
  Co  Co16  1  0.500000  0.295177  0.434383  1
  Co  Co17  1  0.500000  0.704823  0.434383  1
  Co  Co18  1  0.000000  0.202462  0.570857  1
  Co  Co19  1  0.000000  0.797538  0.570857  1
  Co  Co20  1  0.500000  0.879491  0.707935  1
  Co  Co21  1  0.500000  0.120509  0.707935  1
  Co  Co22  1  0.000000  0.623164  0.296212  1
  Co  Co23  1  0.000000  0.376836  0.296212  1
  P  P24  1  0.500000  0.500000  0.882022  1
  P  P25  1  0.000000  0.000000  0.116900  1
  P  P26  1  0.500000  0.500000  0.359377  1
  P  P27  1  0.000000  0.000000  0.654634  1
  P  P28  1  0.500000  0.310535  0.618445  1
  P  P29  1  0.500000  0.689465  0.618445  1
  P  P30  1  0.000000  0.188480  0.385349  1
  P  P31  1  0.000000  0.811520  0.385349  1
  P  P32  1  0.500000  0.851173  0.888452  1
  P  P33  1  0.500000  0.148827  0.888452  1
  P  P34  1  0.000000  0.664074  0.102439  1
  P  P35  1  0.000000  0.335926  0.102439  1
