# generated using pymatgen
data_Er4CrFeOs6
_symmetry_space_group_name_H-M   'P 1'
_cell_length_a   5.18864288
_cell_length_b   5.18864250
_cell_length_c   8.76570700
_cell_angle_alpha   90.00000000
_cell_angle_beta   90.00000000
_cell_angle_gamma   117.74684024
_symmetry_Int_Tables_number   1
_chemical_formula_structural   Er4CrFeOs6
_chemical_formula_sum   'Er4 Cr1 Fe1 Os6'
_cell_volume   208.85471450
_cell_formula_units_Z   1
loop_
 _symmetry_equiv_pos_site_id
 _symmetry_equiv_pos_as_xyz
  1  'x, y, z'
loop_
 _atom_site_type_symbol
 _atom_site_label
 _atom_site_symmetry_multiplicity
 _atom_site_fract_x
 _atom_site_fract_y
 _atom_site_fract_z
 _atom_site_occupancy
  Er  Er0  1  0.330252  0.669748  0.436896  1
  Er  Er1  1  0.667998  0.332002  0.565244  1
  Er  Er2  1  0.667998  0.332002  0.934756  1
  Er  Er3  1  0.330252  0.669748  0.063104  1
  Cr  Cr4  1  0.835363  0.164637  0.250000  1
  Fe  Fe5  1  0.166412  0.833588  0.750000  1
  Os  Os6  1  0.995903  0.004097  0.498750  1
  Os  Os7  1  0.995903  0.004097  0.001250  1
  Os  Os8  1  0.826534  0.648911  0.250000  1
  Os  Os9  1  0.351089  0.173466  0.250000  1
  Os  Os10  1  0.176580  0.344279  0.750000  1
  Os  Os11  1  0.655721  0.823420  0.750000  1
