# generated using pymatgen
data_ZrSc3(Fe3Ge)2
_symmetry_space_group_name_H-M   'P 1'
_cell_length_a   5.02161200
_cell_length_b   5.02161238
_cell_length_c   8.07995300
_cell_angle_alpha   90.00000000
_cell_angle_beta   90.00000000
_cell_angle_gamma   119.99999749
_symmetry_Int_Tables_number   1
_chemical_formula_structural   ZrSc3(Fe3Ge)2
_chemical_formula_sum   'Zr1 Sc3 Fe6 Ge2'
_cell_volume   176.45168791
_cell_formula_units_Z   1
loop_
 _symmetry_equiv_pos_site_id
 _symmetry_equiv_pos_as_xyz
  1  'x, y, z'
loop_
 _atom_site_type_symbol
 _atom_site_label
 _atom_site_symmetry_multiplicity
 _atom_site_fract_x
 _atom_site_fract_y
 _atom_site_fract_z
 _atom_site_occupancy
  Zr  Zr0  1  0.333333  0.666667  0.065992  1
  Sc  Sc1  1  0.666667  0.333333  0.933390  1
  Sc  Sc2  1  0.333333  0.666667  0.438889  1
  Sc  Sc3  1  0.666667  0.333333  0.562923  1
  Fe  Fe4  1  0.825944  0.651888  0.249428  1
  Fe  Fe5  1  0.173695  0.826305  0.750382  1
  Fe  Fe6  1  0.652609  0.826305  0.750382  1
  Fe  Fe7  1  0.348112  0.174056  0.249428  1
  Fe  Fe8  1  0.825944  0.174056  0.249428  1
  Fe  Fe9  1  0.173695  0.347391  0.750382  1
  Ge  Ge10  1  0.000000  0.000000  0.499867  1
  Ge  Ge11  1  0.000000  0.000000  0.999509  1
