# generated using pymatgen
data_Tm6Al24Ir2PdRu2Rh3
_symmetry_space_group_name_H-M   'P 1'
_cell_length_a   8.78627217
_cell_length_b   8.78627284
_cell_length_c   9.48646700
_cell_angle_alpha   89.95131379
_cell_angle_beta   90.04868622
_cell_angle_gamma   119.93001453
_symmetry_Int_Tables_number   1
_chemical_formula_structural   Tm6Al24Ir2PdRu2Rh3
_chemical_formula_sum   'Tm6 Al24 Ir2 Pd1 Ru2 Rh3'
_cell_volume   634.67311469
_cell_formula_units_Z   1
loop_
 _symmetry_equiv_pos_site_id
 _symmetry_equiv_pos_as_xyz
  1  'x, y, z'
loop_
 _atom_site_type_symbol
 _atom_site_label
 _atom_site_symmetry_multiplicity
 _atom_site_fract_x
 _atom_site_fract_y
 _atom_site_fract_z
 _atom_site_occupancy
  Tm  Tm0  1  0.806482  0.193518  0.750413  1
  Tm  Tm1  1  0.193518  0.806482  0.249587  1
  Tm  Tm2  1  0.385768  0.191237  0.750676  1
  Tm  Tm3  1  0.614232  0.808763  0.249324  1
  Tm  Tm4  1  0.808763  0.614232  0.750676  1
  Tm  Tm5  1  0.191237  0.385768  0.249324  1
  Al  Al6  1  0.667846  0.332154  0.970164  1
  Al  Al7  1  0.332154  0.667846  0.029836  1
  Al  Al8  1  0.333368  0.666632  0.470089  1
  Al  Al9  1  0.666632  0.333368  0.529911  1
  Al  Al10  1  0.836728  0.163272  0.422009  1
  Al  Al11  1  0.163272  0.836728  0.577991  1
  Al  Al12  1  0.325926  0.163116  0.422058  1
  Al  Al13  1  0.163206  0.836794  0.921853  1
  Al  Al14  1  0.674074  0.836884  0.577942  1
  Al  Al15  1  0.836794  0.163206  0.078147  1
  Al  Al16  1  0.836884  0.674074  0.422058  1
  Al  Al17  1  0.675385  0.840703  0.920494  1
  Al  Al18  1  0.163116  0.325926  0.577942  1
  Al  Al19  1  0.324615  0.159297  0.079506  1
  Al  Al20  1  0.159297  0.324615  0.920494  1
  Al  Al21  1  0.840703  0.675385  0.079506  1
  Al  Al22  1  0.438031  0.561969  0.747583  1
  Al  Al23  1  0.561969  0.438031  0.252417  1
  Al  Al24  1  0.124133  0.562097  0.749194  1
  Al  Al25  1  0.875867  0.437903  0.250806  1
  Al  Al26  1  0.437903  0.875867  0.749194  1
  Al  Al27  1  0.562097  0.124133  0.250806  1
  Al  Al28  1  0.000122  0.999878  0.750034  1
  Al  Al29  1  0.999878  0.000122  0.249966  1
  Ir  Ir30  1  0.000000  0.500000  0.000000  1
  Ir  Ir31  1  0.500000  0.000000  0.000000  1
  Pd  Pd32  1  0.500000  0.500000  0.000000  1
  Ru  Ru33  1  0.000000  0.000000  0.000000  1
  Ru  Ru34  1  0.000000  0.000000  0.500000  1
  Rh  Rh35  1  0.500000  0.500000  0.500000  1
  Rh  Rh36  1  0.000000  0.500000  0.500000  1
  Rh  Rh37  1  0.500000  0.000000  0.500000  1
