# generated using pymatgen
data_AcCe(MgIr)2
_symmetry_space_group_name_H-M   'P 1'
_cell_length_a   4.18174900
_cell_length_b   7.39872116
_cell_length_c   8.83308120
_cell_angle_alpha   89.54364933
_cell_angle_beta   90.00000000
_cell_angle_gamma   90.00000000
_symmetry_Int_Tables_number   1
_chemical_formula_structural   AcCe(MgIr)2
_chemical_formula_sum   'Ac2 Ce2 Mg4 Ir4'
_cell_volume   273.28328460
_cell_formula_units_Z   2
loop_
 _symmetry_equiv_pos_site_id
 _symmetry_equiv_pos_as_xyz
  1  'x, y, z'
loop_
 _atom_site_type_symbol
 _atom_site_label
 _atom_site_symmetry_multiplicity
 _atom_site_fract_x
 _atom_site_fract_y
 _atom_site_fract_z
 _atom_site_occupancy
  Ac  Ac0  1  0.250000  0.539484  0.185560  1
  Ac  Ac1  1  0.750000  0.460516  0.814440  1
  Ce  Ce2  1  0.750000  0.961057  0.680057  1
  Ce  Ce3  1  0.250000  0.038943  0.319943  1
  Mg  Mg4  1  0.250000  0.644102  0.555889  1
  Mg  Mg5  1  0.750000  0.355898  0.444111  1
  Mg  Mg6  1  0.750000  0.874183  0.055405  1
  Mg  Mg7  1  0.250000  0.125817  0.944595  1
  Ir  Ir8  1  0.250000  0.765730  0.859002  1
  Ir  Ir9  1  0.750000  0.234270  0.140998  1
  Ir  Ir10  1  0.750000  0.768979  0.377526  1
  Ir  Ir11  1  0.250000  0.231021  0.622474  1
