# generated using pymatgen
data_HoTaNb5Cl18
_symmetry_space_group_name_H-M   'P 1'
_cell_length_a   10.16699478
_cell_length_b   10.16873138
_cell_length_c   10.16963606
_cell_angle_alpha   55.98041196
_cell_angle_beta   55.97758621
_cell_angle_gamma   55.98594589
_symmetry_Int_Tables_number   1
_chemical_formula_structural   HoTaNb5Cl18
_chemical_formula_sum   'Ho1 Ta1 Nb5 Cl18'
_cell_volume   674.22504251
_cell_formula_units_Z   1
loop_
 _symmetry_equiv_pos_site_id
 _symmetry_equiv_pos_as_xyz
  1  'x, y, z'
loop_
 _atom_site_type_symbol
 _atom_site_label
 _atom_site_symmetry_multiplicity
 _atom_site_fract_x
 _atom_site_fract_y
 _atom_site_fract_z
 _atom_site_occupancy
  Ho  Ho0  1  0.999385  0.999816  0.000314  1
  Ta  Ta1  1  0.408056  0.300196  0.650003  1
  Nb  Nb2  1  0.349800  0.592329  0.700084  1
  Nb  Nb3  1  0.700444  0.349907  0.591893  1
  Nb  Nb4  1  0.299864  0.650553  0.407739  1
  Nb  Nb5  1  0.650493  0.408140  0.299538  1
  Nb  Nb6  1  0.592453  0.700753  0.349244  1
  Cl  Cl7  1  0.566621  0.160994  0.444619  1
  Cl  Cl8  1  0.224526  0.368744  0.907409  1
  Cl  Cl9  1  0.909120  0.223237  0.370556  1
  Cl  Cl10  1  0.370498  0.908965  0.223526  1
  Cl  Cl11  1  0.776653  0.629410  0.090947  1
  Cl  Cl12  1  0.090816  0.776550  0.629596  1
  Cl  Cl13  1  0.704636  0.958596  0.159073  1
  Cl  Cl14  1  0.958101  0.158784  0.705037  1
  Cl  Cl15  1  0.159374  0.704712  0.958196  1
  Cl  Cl16  1  0.296579  0.044935  0.838516  1
  Cl  Cl17  1  0.041944  0.840510  0.295195  1
  Cl  Cl18  1  0.840720  0.294704  0.042204  1
  Cl  Cl19  1  0.558076  0.431294  0.839269  1
  Cl  Cl20  1  0.162618  0.439341  0.570260  1
  Cl  Cl21  1  0.441840  0.568538  0.160843  1
  Cl  Cl22  1  0.431355  0.839095  0.558162  1
  Cl  Cl23  1  0.839220  0.558063  0.431405  1
  Cl  Cl24  1  0.626808  0.091836  0.776370  1
