# generated using pymatgen
data_Tb6YbFeI12
_symmetry_space_group_name_H-M   'P 1'
_cell_length_a   9.77488044
_cell_length_b   9.77488013
_cell_length_c   9.77487961
_cell_angle_alpha   107.13418352
_cell_angle_beta   107.13418429
_cell_angle_gamma   107.13416977
_symmetry_Int_Tables_number   1
_chemical_formula_structural   Tb6YbFeI12
_chemical_formula_sum   'Tb6 Yb1 Fe1 I12'
_cell_volume   774.95698260
_cell_formula_units_Z   1
loop_
 _symmetry_equiv_pos_site_id
 _symmetry_equiv_pos_as_xyz
  1  'x, y, z'
loop_
 _atom_site_type_symbol
 _atom_site_label
 _atom_site_symmetry_multiplicity
 _atom_site_fract_x
 _atom_site_fract_y
 _atom_site_fract_z
 _atom_site_occupancy
  Tb  Tb0  1  0.094429  0.292165  0.024343  1
  Tb  Tb1  1  0.024343  0.094429  0.292165  1
  Tb  Tb2  1  0.292165  0.024343  0.094429  1
  Tb  Tb3  1  0.905571  0.707835  0.975657  1
  Tb  Tb4  1  0.975657  0.905571  0.707835  1
  Tb  Tb5  1  0.707835  0.975657  0.905571  1
  Yb  Yb6  1  0.500000  0.500000  0.500000  1
  Fe  Fe7  1  0.000000  0.000000  0.000000  1
  I  I8  1  0.457833  0.379909  0.150879  1
  I  I9  1  0.150879  0.457833  0.379909  1
  I  I10  1  0.379909  0.150879  0.457833  1
  I  I11  1  0.542167  0.620091  0.849121  1
  I  I12  1  0.849121  0.542167  0.620091  1
  I  I13  1  0.620091  0.849121  0.542167  1
  I  I14  1  0.774968  0.317926  0.927497  1
  I  I15  1  0.927497  0.774968  0.317926  1
  I  I16  1  0.317926  0.927497  0.774968  1
  I  I17  1  0.225032  0.682074  0.072503  1
  I  I18  1  0.072503  0.225032  0.682074  1
  I  I19  1  0.682074  0.072503  0.225032  1
