# generated using pymatgen
data_Sr3YbRuO6
_symmetry_space_group_name_H-M   'P 1'
_cell_length_a   6.84271157
_cell_length_b   6.84271181
_cell_length_c   6.84271090
_cell_angle_alpha   92.20611669
_cell_angle_beta   92.20611284
_cell_angle_gamma   92.20612502
_symmetry_Int_Tables_number   1
_chemical_formula_structural   Sr3YbRuO6
_chemical_formula_sum   'Sr6 Yb2 Ru2 O12'
_cell_volume   319.66295791
_cell_formula_units_Z   2
loop_
 _symmetry_equiv_pos_site_id
 _symmetry_equiv_pos_as_xyz
  1  'x, y, z'
loop_
 _atom_site_type_symbol
 _atom_site_label
 _atom_site_symmetry_multiplicity
 _atom_site_fract_x
 _atom_site_fract_y
 _atom_site_fract_z
 _atom_site_occupancy
  Sr  Sr0  1  0.888443  0.611557  0.250000  1
  Sr  Sr1  1  0.611557  0.250000  0.888443  1
  Sr  Sr2  1  0.750000  0.111557  0.388443  1
  Sr  Sr3  1  0.388443  0.750000  0.111557  1
  Sr  Sr4  1  0.111557  0.388443  0.750000  1
  Sr  Sr5  1  0.250000  0.888443  0.611557  1
  Yb  Yb6  1  0.250000  0.250000  0.250000  1
  Yb  Yb7  1  0.750000  0.750000  0.750000  1
  Ru  Ru8  1  0.000000  0.000000  0.000000  1
  Ru  Ru9  1  0.500000  0.500000  0.500000  1
  O  O10  1  0.785096  0.451150  0.582993  1
  O  O11  1  0.917007  0.048850  0.714904  1
  O  O12  1  0.714904  0.917007  0.048850  1
  O  O13  1  0.048850  0.714904  0.917007  1
  O  O14  1  0.582993  0.785096  0.451150  1
  O  O15  1  0.451150  0.582993  0.785096  1
  O  O16  1  0.417007  0.214904  0.548850  1
  O  O17  1  0.548850  0.417007  0.214904  1
  O  O18  1  0.951150  0.285096  0.082993  1
  O  O19  1  0.285096  0.082993  0.951150  1
  O  O20  1  0.082993  0.951150  0.285096  1
  O  O21  1  0.214904  0.548850  0.417007  1
