# generated using pymatgen
data_Cs4HoNbCl12
_symmetry_space_group_name_H-M   'P 1'
_cell_length_a   12.91916095
_cell_length_b   12.91916154
_cell_length_c   12.91916100
_cell_angle_alpha   131.79378550
_cell_angle_beta   131.79378784
_cell_angle_gamma   70.55491667
_symmetry_Int_Tables_number   1
_chemical_formula_structural   Cs4HoNbCl12
_chemical_formula_sum   'Cs8 Ho2 Nb2 Cl24'
_cell_volume   1174.29194483
_cell_formula_units_Z   2
loop_
 _symmetry_equiv_pos_site_id
 _symmetry_equiv_pos_as_xyz
  1  'x, y, z'
loop_
 _atom_site_type_symbol
 _atom_site_label
 _atom_site_symmetry_multiplicity
 _atom_site_fract_x
 _atom_site_fract_y
 _atom_site_fract_z
 _atom_site_occupancy
  Cs  Cs0  1  0.375000  0.902015  0.027015  1
  Cs  Cs1  1  0.652015  0.625000  0.527015  1
  Cs  Cs2  1  0.875000  0.902015  0.527015  1
  Cs  Cs3  1  0.652015  0.125000  0.027015  1
  Cs  Cs4  1  0.875000  0.347985  0.972985  1
  Cs  Cs5  1  0.097985  0.125000  0.472985  1
  Cs  Cs6  1  0.375000  0.347985  0.472985  1
  Cs  Cs7  1  0.097985  0.625000  0.972985  1
  Ho  Ho8  1  0.000000  0.000000  0.000000  1
  Ho  Ho9  1  0.750000  0.250000  0.500000  1
  Nb  Nb10  1  0.500000  0.500000  0.000000  1
  Nb  Nb11  1  0.250000  0.750000  0.500000  1
  Cl  Cl12  1  0.728311  0.502134  0.226178  1
  Cl  Cl13  1  0.497866  0.271689  0.773822  1
  Cl  Cl14  1  0.386957  0.386957  0.000000  1
  Cl  Cl15  1  0.136957  0.636957  0.500000  1
  Cl  Cl16  1  0.363043  0.863043  0.500000  1
  Cl  Cl17  1  0.613043  0.613043  0.000000  1
  Cl  Cl18  1  0.124532  0.124532  0.000000  1
  Cl  Cl19  1  0.874532  0.374532  0.500000  1
  Cl  Cl20  1  0.625468  0.125468  0.500000  1
  Cl  Cl21  1  0.875468  0.875468  0.000000  1
  Cl  Cl22  1  0.244715  0.995854  0.248861  1
  Cl  Cl23  1  0.745854  0.996993  0.251139  1
  Cl  Cl24  1  0.497866  0.724043  0.226178  1
  Cl  Cl25  1  0.505285  0.254146  0.251139  1
  Cl  Cl26  1  0.003007  0.254146  0.748861  1
  Cl  Cl27  1  0.004146  0.253007  0.248861  1
  Cl  Cl28  1  0.004146  0.755285  0.751139  1
  Cl  Cl29  1  0.746993  0.995854  0.751139  1
  Cl  Cl30  1  0.745854  0.494715  0.748861  1
  Cl  Cl31  1  0.252134  0.525957  0.273822  1
  Cl  Cl32  1  0.252134  0.978311  0.726178  1
  Cl  Cl33  1  0.021689  0.747866  0.273822  1
  Cl  Cl34  1  0.474043  0.747866  0.726178  1
  Cl  Cl35  1  0.275957  0.502134  0.773822  1
