# generated using pymatgen
data_SrLa2Yb5(Si3Pd)4
_symmetry_space_group_name_H-M   'P 1'
_cell_length_a   8.28882452
_cell_length_b   8.28882350
_cell_length_c   8.54067700
_cell_angle_alpha   90.00000000
_cell_angle_beta   90.00000000
_cell_angle_gamma   119.95453652
_symmetry_Int_Tables_number   1
_chemical_formula_structural   SrLa2Yb5(Si3Pd)4
_chemical_formula_sum   'Sr1 La2 Yb5 Si12 Pd4'
_cell_volume   508.40234323
_cell_formula_units_Z   1
loop_
 _symmetry_equiv_pos_site_id
 _symmetry_equiv_pos_as_xyz
  1  'x, y, z'
loop_
 _atom_site_type_symbol
 _atom_site_label
 _atom_site_symmetry_multiplicity
 _atom_site_fract_x
 _atom_site_fract_y
 _atom_site_fract_z
 _atom_site_occupancy
  Sr  Sr0  1  0.499011  0.500989  0.750000  1
  La  La1  1  0.999993  0.000007  0.250000  1
  La  La2  1  0.000141  0.999859  0.750000  1
  Yb  Yb3  1  0.501103  0.002017  0.250000  1
  Yb  Yb4  1  0.499004  0.998294  0.750000  1
  Yb  Yb5  1  0.997983  0.498897  0.250000  1
  Yb  Yb6  1  0.001706  0.500996  0.750000  1
  Yb  Yb7  1  0.500944  0.499056  0.250000  1
  Si  Si8  1  0.164139  0.331027  0.005223  1
  Si  Si9  1  0.835850  0.668994  0.003776  1
  Si  Si10  1  0.668973  0.835861  0.005223  1
  Si  Si11  1  0.835850  0.668994  0.496224  1
  Si  Si12  1  0.331006  0.164150  0.003776  1
  Si  Si13  1  0.164139  0.331027  0.494777  1
  Si  Si14  1  0.165800  0.834200  0.001529  1
  Si  Si15  1  0.331006  0.164150  0.496224  1
  Si  Si16  1  0.834266  0.165734  0.999749  1
  Si  Si17  1  0.668973  0.835861  0.494777  1
  Si  Si18  1  0.834266  0.165734  0.500251  1
  Si  Si19  1  0.165800  0.834200  0.498471  1
  Pd  Pd20  1  0.332009  0.667991  0.010001  1
  Pd  Pd21  1  0.668015  0.331985  0.006901  1
  Pd  Pd22  1  0.668015  0.331985  0.493099  1
  Pd  Pd23  1  0.332009  0.667991  0.489999  1
