# generated using pymatgen
data_La14Rh5Au
_symmetry_space_group_name_H-M   'P 1'
_cell_length_a   10.27858000
_cell_length_b   10.26211632
_cell_length_c   6.60859255
_cell_angle_alpha   90.29293803
_cell_angle_beta   90.00000000
_cell_angle_gamma   120.05309100
_symmetry_Int_Tables_number   1
_chemical_formula_structural   La14Rh5Au
_chemical_formula_sum   'La14 Rh5 Au1'
_cell_volume   603.35025044
_cell_formula_units_Z   1
loop_
 _symmetry_equiv_pos_site_id
 _symmetry_equiv_pos_as_xyz
  1  'x, y, z'
loop_
 _atom_site_type_symbol
 _atom_site_label
 _atom_site_symmetry_multiplicity
 _atom_site_fract_x
 _atom_site_fract_y
 _atom_site_fract_z
 _atom_site_occupancy
  La  La0  1  0.665637  0.331272  0.559376  1
  La  La1  1  0.337285  0.674571  0.070971  1
  La  La2  1  0.877554  0.755108  0.782921  1
  La  La3  1  0.258462  0.117781  0.783103  1
  La  La4  1  0.859319  0.117781  0.783103  1
  La  La5  1  0.125357  0.250714  0.300714  1
  La  La6  1  0.751721  0.876017  0.281610  1
  La  La7  1  0.124296  0.876017  0.281610  1
  La  La8  1  0.457703  0.915406  0.589652  1
  La  La9  1  0.067618  0.544517  0.594101  1
  La  La10  1  0.476898  0.544517  0.594101  1
  La  La11  1  0.538601  0.077200  0.101427  1
  La  La12  1  0.920826  0.462545  0.095632  1
  La  La13  1  0.541720  0.462545  0.095632  1
  Rh  Rh14  1  0.623815  0.808070  0.830998  1
  Rh  Rh15  1  0.184255  0.808070  0.830998  1
  Rh  Rh16  1  0.812207  0.624416  0.336355  1
  Rh  Rh17  1  0.374427  0.190127  0.332319  1
  Rh  Rh18  1  0.815699  0.190127  0.332319  1
  Au  Au19  1  0.186600  0.373199  0.838108  1
