# generated using pymatgen
data_Ho4GaCuRu6
_symmetry_space_group_name_H-M   'P 1'
_cell_length_a   5.34324321
_cell_length_b   5.35224409
_cell_length_c   8.60850642
_cell_angle_alpha   90.02632078
_cell_angle_beta   90.00141621
_cell_angle_gamma   119.93153009
_symmetry_Int_Tables_number   1
_chemical_formula_structural   Ho4GaCuRu6
_chemical_formula_sum   'Ho4 Ga1 Cu1 Ru6'
_cell_volume   213.35285385
_cell_formula_units_Z   1
loop_
 _symmetry_equiv_pos_site_id
 _symmetry_equiv_pos_as_xyz
  1  'x, y, z'
loop_
 _atom_site_type_symbol
 _atom_site_label
 _atom_site_symmetry_multiplicity
 _atom_site_fract_x
 _atom_site_fract_y
 _atom_site_fract_z
 _atom_site_occupancy
  Ho  Ho0  1  0.668027  0.335993  0.569493  1
  Ho  Ho1  1  0.336428  0.672885  0.428724  1
  Ho  Ho2  1  0.331530  0.663184  0.062248  1
  Ho  Ho3  1  0.665227  0.330451  0.935523  1
  Ga  Ga4  1  0.995337  0.990660  0.498160  1
  Cu  Cu5  1  0.168603  0.336961  0.749941  1
  Ru  Ru6  1  0.995393  0.990919  0.005864  1
  Ru  Ru7  1  0.178839  0.837454  0.748541  1
  Ru  Ru8  1  0.658717  0.837516  0.748547  1
  Ru  Ru9  1  0.828798  0.657705  0.245286  1
  Ru  Ru10  1  0.828221  0.173106  0.253837  1
  Ru  Ru11  1  0.344879  0.173167  0.253837  1
