# generated using pymatgen
data_Ho5ErTcRu
_symmetry_space_group_name_H-M   'P 1'
_cell_length_a   6.26176004
_cell_length_b   7.35224900
_cell_length_c   9.08638906
_cell_angle_alpha   90.00000000
_cell_angle_beta   90.01310307
_cell_angle_gamma   90.00000000
_symmetry_Int_Tables_number   1
_chemical_formula_structural   Ho5ErTcRu
_chemical_formula_sum   'Ho10 Er2 Tc2 Ru2'
_cell_volume   418.31934121
_cell_formula_units_Z   2
loop_
 _symmetry_equiv_pos_site_id
 _symmetry_equiv_pos_as_xyz
  1  'x, y, z'
loop_
 _atom_site_type_symbol
 _atom_site_label
 _atom_site_symmetry_multiplicity
 _atom_site_fract_x
 _atom_site_fract_y
 _atom_site_fract_z
 _atom_site_occupancy
  Ho  Ho0  1  0.333892  0.676330  0.063279  1
  Ho  Ho1  1  0.166108  0.176330  0.436721  1
  Ho  Ho2  1  0.664474  0.324051  0.562395  1
  Ho  Ho3  1  0.835526  0.824051  0.937605  1
  Ho  Ho4  1  0.664538  0.323967  0.937607  1
  Ho  Ho5  1  0.835462  0.823967  0.562393  1
  Ho  Ho6  1  0.874151  0.539272  0.250008  1
  Ho  Ho7  1  0.625849  0.039272  0.249992  1
  Ho  Ho8  1  0.131593  0.457528  0.749995  1
  Ho  Ho9  1  0.368407  0.957528  0.750005  1
  Er  Er10  1  0.333941  0.676354  0.436792  1
  Er  Er11  1  0.166059  0.176354  0.063208  1
  Tc  Tc12  1  0.038772  0.885913  0.250017  1
  Tc  Tc13  1  0.461228  0.385913  0.249983  1
  Ru  Ru14  1  0.960714  0.116586  0.750083  1
  Ru  Ru15  1  0.539286  0.616586  0.749917  1
