# generated using pymatgen
data_Er8Be4Si11B
_symmetry_space_group_name_H-M   'P 1'
_cell_length_a   7.71304799
_cell_length_b   7.71298677
_cell_length_c   8.01136603
_cell_angle_alpha   90.00868215
_cell_angle_beta   89.99234498
_cell_angle_gamma   120.31436935
_symmetry_Int_Tables_number   1
_chemical_formula_structural   Er8Be4Si11B
_chemical_formula_sum   'Er8 Be4 Si11 B1'
_cell_volume   411.43509113
_cell_formula_units_Z   1
loop_
 _symmetry_equiv_pos_site_id
 _symmetry_equiv_pos_as_xyz
  1  'x, y, z'
loop_
 _atom_site_type_symbol
 _atom_site_label
 _atom_site_symmetry_multiplicity
 _atom_site_fract_x
 _atom_site_fract_y
 _atom_site_fract_z
 _atom_site_occupancy
  Er  Er0  1  0.002909  0.504102  0.252092  1
  Er  Er1  1  0.501576  0.498429  0.252466  1
  Er  Er2  1  0.494933  0.995313  0.747805  1
  Er  Er3  1  0.004685  0.505063  0.747802  1
  Er  Er4  1  0.500803  0.499197  0.747716  1
  Er  Er5  1  0.495898  0.997094  0.252072  1
  Er  Er6  1  0.001445  0.998557  0.748601  1
  Er  Er7  1  0.001560  0.998425  0.251446  1
  Be  Be8  1  0.333720  0.666282  0.003239  1
  Be  Be9  1  0.667295  0.332703  0.996652  1
  Be  Be10  1  0.664623  0.335375  0.502550  1
  Be  Be11  1  0.319187  0.680817  0.497944  1
  Si  Si12  1  0.177219  0.347267  0.499763  1
  Si  Si13  1  0.652727  0.822780  0.499764  1
  Si  Si14  1  0.345718  0.173125  0.999868  1
  Si  Si15  1  0.853161  0.668398  0.500213  1
  Si  Si16  1  0.826761  0.173237  0.999797  1
  Si  Si17  1  0.826874  0.654279  0.999864  1
  Si  Si18  1  0.172816  0.345513  0.000174  1
  Si  Si19  1  0.654485  0.827185  0.000178  1
  Si  Si20  1  0.331610  0.146847  0.500214  1
  Si  Si21  1  0.827111  0.172890  0.500203  1
  Si  Si22  1  0.173005  0.826999  0.000082  1
  B  B23  1  0.169879  0.830122  0.499495  1
