# generated using pymatgen
data_Er10GaSi4Sb
_symmetry_space_group_name_H-M   'P 1'
_cell_length_a   8.43742900
_cell_length_b   8.43742664
_cell_length_c   6.29870000
_cell_angle_alpha   90.00000000
_cell_angle_beta   90.00000000
_cell_angle_gamma   120.30074864
_symmetry_Int_Tables_number   1
_chemical_formula_structural   Er10GaSi4Sb
_chemical_formula_sum   'Er10 Ga1 Si4 Sb1'
_cell_volume   387.14847728
_cell_formula_units_Z   1
loop_
 _symmetry_equiv_pos_site_id
 _symmetry_equiv_pos_as_xyz
  1  'x, y, z'
loop_
 _atom_site_type_symbol
 _atom_site_label
 _atom_site_symmetry_multiplicity
 _atom_site_fract_x
 _atom_site_fract_y
 _atom_site_fract_z
 _atom_site_occupancy
  Er  Er0  1  0.675376  0.330487  0.503675  1
  Er  Er1  1  0.330487  0.675376  0.503675  1
  Er  Er2  1  0.330487  0.675376  0.996325  1
  Er  Er3  1  0.675376  0.330487  0.996325  1
  Er  Er4  1  0.767573  0.767573  0.250000  1
  Er  Er5  1  0.239952  0.988127  0.250000  1
  Er  Er6  1  0.988127  0.239952  0.250000  1
  Er  Er7  1  0.238311  0.238311  0.750000  1
  Er  Er8  1  0.756609  0.999835  0.750000  1
  Er  Er9  1  0.999835  0.756609  0.750000  1
  Ga  Ga10  1  0.603601  0.603601  0.750000  1
  Si  Si11  1  0.604090  0.998980  0.250000  1
  Si  Si12  1  0.998980  0.604090  0.250000  1
  Si  Si13  1  0.394051  0.002738  0.750000  1
  Si  Si14  1  0.002738  0.394051  0.750000  1
  Sb  Sb15  1  0.394402  0.394402  0.250000  1
