# generated using pymatgen
data_La8Bi(SbO4)2
_symmetry_space_group_name_H-M   'P 1'
_cell_length_a   7.37201685
_cell_length_b   7.37201610
_cell_length_c   15.90952406
_cell_angle_alpha   73.43826615
_cell_angle_beta   73.43826743
_cell_angle_gamma   31.74074004
_symmetry_Int_Tables_number   1
_chemical_formula_structural   La8Bi(SbO4)2
_chemical_formula_sum   'La8 Bi1 Sb2 O8'
_cell_volume   434.42918545
_cell_formula_units_Z   1
loop_
 _symmetry_equiv_pos_site_id
 _symmetry_equiv_pos_as_xyz
  1  'x, y, z'
loop_
 _atom_site_type_symbol
 _atom_site_label
 _atom_site_symmetry_multiplicity
 _atom_site_fract_x
 _atom_site_fract_y
 _atom_site_fract_z
 _atom_site_occupancy
  La  La0  1  0.452294  0.458038  0.831097  1
  La  La1  1  0.541962  0.547706  0.168903  1
  La  La2  1  0.640166  0.644412  0.570001  1
  La  La3  1  0.355588  0.359834  0.429999  1
  La  La4  1  0.875267  0.880082  0.653509  1
  La  La5  1  0.119918  0.124733  0.346491  1
  La  La6  1  0.716574  0.722696  0.910734  1
  La  La7  1  0.277304  0.283426  0.089266  1
  Bi  Bi8  1  0.996797  0.003203  0.000000  1
  Sb  Sb9  1  0.170153  0.175445  0.732928  1
  Sb  Sb10  1  0.824555  0.829847  0.267072  1
  O  O11  1  0.292932  0.299000  0.933793  1
  O  O12  1  0.701000  0.707068  0.066207  1
  O  O13  1  0.880433  0.886210  0.800343  1
  O  O14  1  0.113790  0.119567  0.199657  1
  O  O15  1  0.163007  0.167299  0.487136  1
  O  O16  1  0.832701  0.836993  0.512864  1
  O  O17  1  0.466592  0.471432  0.635232  1
  O  O18  1  0.528568  0.533408  0.364768  1
