# generated using pymatgen
data_Ho9Lu7(InIr)4
_symmetry_space_group_name_H-M   'P 1'
_cell_length_a   9.56310635
_cell_length_b   9.56310621
_cell_length_c   9.56310520
_cell_angle_alpha   59.95317060
_cell_angle_beta   59.95316897
_cell_angle_gamma   59.95316861
_symmetry_Int_Tables_number   1
_chemical_formula_structural   Ho9Lu7(InIr)4
_chemical_formula_sum   'Ho9 Lu7 In4 Ir4'
_cell_volume   617.76087544
_cell_formula_units_Z   1
loop_
 _symmetry_equiv_pos_site_id
 _symmetry_equiv_pos_as_xyz
  1  'x, y, z'
loop_
 _atom_site_type_symbol
 _atom_site_label
 _atom_site_symmetry_multiplicity
 _atom_site_fract_x
 _atom_site_fract_y
 _atom_site_fract_z
 _atom_site_occupancy
  Ho  Ho0  1  0.349513  0.349513  0.951522  1
  Ho  Ho1  1  0.951522  0.349513  0.349513  1
  Ho  Ho2  1  0.349513  0.951522  0.349513  1
  Ho  Ho3  1  0.940305  0.559947  0.559947  1
  Ho  Ho4  1  0.560416  0.939705  0.939705  1
  Ho  Ho5  1  0.559947  0.940305  0.559947  1
  Ho  Ho6  1  0.559947  0.559947  0.940305  1
  Ho  Ho7  1  0.939705  0.560416  0.939705  1
  Ho  Ho8  1  0.939705  0.939705  0.560416  1
  Lu  Lu9  1  0.810316  0.189448  0.189448  1
  Lu  Lu10  1  0.189112  0.810958  0.810958  1
  Lu  Lu11  1  0.189448  0.810316  0.189448  1
  Lu  Lu12  1  0.189448  0.189448  0.810316  1
  Lu  Lu13  1  0.810958  0.189112  0.810958  1
  Lu  Lu14  1  0.810958  0.810958  0.189112  1
  Lu  Lu15  1  0.348974  0.348974  0.348974  1
  In  In16  1  0.583172  0.583172  0.583172  1
  In  In17  1  0.582908  0.582908  0.250064  1
  In  In18  1  0.250064  0.582908  0.582908  1
  In  In19  1  0.582908  0.250064  0.582908  1
  Ir  Ir20  1  0.140251  0.140251  0.140251  1
  Ir  Ir21  1  0.141372  0.141372  0.578162  1
  Ir  Ir22  1  0.578162  0.141372  0.141372  1
  Ir  Ir23  1  0.141372  0.578162  0.141372  1
