# generated using pymatgen
data_Ba3SmTm3O9
_symmetry_space_group_name_H-M   'P 1'
_cell_length_a   9.18306557
_cell_length_b   9.18306559
_cell_length_c   9.18306608
_cell_angle_alpha   38.94848550
_cell_angle_beta   38.94848847
_cell_angle_gamma   38.94848961
_symmetry_Int_Tables_number   1
_chemical_formula_structural   Ba3SmTm3O9
_chemical_formula_sum   'Ba3 Sm1 Tm3 O9'
_cell_volume   275.17665050
_cell_formula_units_Z   1
loop_
 _symmetry_equiv_pos_site_id
 _symmetry_equiv_pos_as_xyz
  1  'x, y, z'
loop_
 _atom_site_type_symbol
 _atom_site_label
 _atom_site_symmetry_multiplicity
 _atom_site_fract_x
 _atom_site_fract_y
 _atom_site_fract_z
 _atom_site_occupancy
  Ba  Ba0  1  0.000405  0.000405  0.000405  1
  Ba  Ba1  1  0.834142  0.834142  0.834142  1
  Ba  Ba2  1  0.404214  0.404214  0.404214  1
  Sm  Sm3  1  0.574609  0.574609  0.574609  1
  Tm  Tm4  1  0.136124  0.136124  0.136124  1
  Tm  Tm5  1  0.261014  0.261014  0.261014  1
  Tm  Tm6  1  0.701114  0.701114  0.701114  1
  O  O7  1  0.511965  0.449343  0.971803  1
  O  O8  1  0.449343  0.971803  0.511965  1
  O  O9  1  0.971803  0.511965  0.449343  1
  O  O10  1  0.426115  0.273576  0.892787  1
  O  O11  1  0.273576  0.892787  0.426115  1
  O  O12  1  0.892787  0.426115  0.273576  1
  O  O13  1  0.973511  0.414196  0.865583  1
  O  O14  1  0.865583  0.973511  0.414196  1
  O  O15  1  0.414196  0.865583  0.973511  1
