# generated using pymatgen
data_Ce2Hf3Ge4
_symmetry_space_group_name_H-M   'P 1'
_cell_length_a   7.33449300
_cell_length_b   7.41032200
_cell_length_c   14.01107300
_cell_angle_alpha   90.00000000
_cell_angle_beta   90.00000000
_cell_angle_gamma   90.00000000
_symmetry_Int_Tables_number   1
_chemical_formula_structural   Ce2Hf3Ge4
_chemical_formula_sum   'Ce8 Hf12 Ge16'
_cell_volume   761.51519584
_cell_formula_units_Z   4
loop_
 _symmetry_equiv_pos_site_id
 _symmetry_equiv_pos_as_xyz
  1  'x, y, z'
loop_
 _atom_site_type_symbol
 _atom_site_label
 _atom_site_symmetry_multiplicity
 _atom_site_fract_x
 _atom_site_fract_y
 _atom_site_fract_z
 _atom_site_occupancy
  Ce  Ce0  1  0.011497  0.323522  0.904511  1
  Ce  Ce1  1  0.511497  0.176478  0.595489  1
  Ce  Ce2  1  0.488503  0.823522  0.095489  1
  Ce  Ce3  1  0.988503  0.676478  0.404511  1
  Ce  Ce4  1  0.011497  0.323522  0.595489  1
  Ce  Ce5  1  0.511497  0.176478  0.904511  1
  Ce  Ce6  1  0.488503  0.823522  0.404511  1
  Ce  Ce7  1  0.988503  0.676478  0.095489  1
  Hf  Hf8  1  0.854486  0.834084  0.874793  1
  Hf  Hf9  1  0.354486  0.665916  0.625207  1
  Hf  Hf10  1  0.645514  0.334084  0.125207  1
  Hf  Hf11  1  0.145514  0.165916  0.374793  1
  Hf  Hf12  1  0.145514  0.165916  0.125207  1
  Hf  Hf13  1  0.645514  0.334084  0.374793  1
  Hf  Hf14  1  0.354486  0.665916  0.874793  1
  Hf  Hf15  1  0.854486  0.834084  0.625207  1
  Hf  Hf16  1  0.182662  0.000145  0.750000  1
  Hf  Hf17  1  0.682662  0.499855  0.750000  1
  Hf  Hf18  1  0.317338  0.500145  0.250000  1
  Hf  Hf19  1  0.817338  0.999855  0.250000  1
  Ge  Ge20  1  0.689214  0.541661  0.954893  1
  Ge  Ge21  1  0.189214  0.958339  0.545107  1
  Ge  Ge22  1  0.810786  0.041661  0.045107  1
  Ge  Ge23  1  0.310786  0.458339  0.454893  1
  Ge  Ge24  1  0.310786  0.458339  0.045107  1
  Ge  Ge25  1  0.810786  0.041661  0.454893  1
  Ge  Ge26  1  0.189214  0.958339  0.954893  1
  Ge  Ge27  1  0.689214  0.541661  0.545107  1
  Ge  Ge28  1  0.319856  0.363038  0.750000  1
  Ge  Ge29  1  0.819856  0.136962  0.750000  1
  Ge  Ge30  1  0.180144  0.863038  0.250000  1
  Ge  Ge31  1  0.680144  0.636962  0.250000  1
  Ge  Ge32  1  0.055367  0.626967  0.750000  1
  Ge  Ge33  1  0.555367  0.873033  0.750000  1
  Ge  Ge34  1  0.444633  0.126967  0.250000  1
  Ge  Ge35  1  0.944633  0.373033  0.250000  1
