# generated using pymatgen
data_Sc19UTc6
_symmetry_space_group_name_H-M   'P 1'
_cell_length_a   8.87039700
_cell_length_b   8.87039749
_cell_length_c   8.12342000
_cell_angle_alpha   90.00000000
_cell_angle_beta   90.00000000
_cell_angle_gamma   119.99999444
_symmetry_Int_Tables_number   1
_chemical_formula_structural   Sc19UTc6
_chemical_formula_sum   'Sc19 U1 Tc6'
_cell_volume   553.54853120
_cell_formula_units_Z   1
loop_
 _symmetry_equiv_pos_site_id
 _symmetry_equiv_pos_as_xyz
  1  'x, y, z'
loop_
 _atom_site_type_symbol
 _atom_site_label
 _atom_site_symmetry_multiplicity
 _atom_site_fract_x
 _atom_site_fract_y
 _atom_site_fract_z
 _atom_site_occupancy
  Sc  Sc0  1  0.410271  0.205136  0.055568  1
  Sc  Sc1  1  0.794864  0.205136  0.055568  1
  Sc  Sc2  1  0.794863  0.589728  0.055568  1
  Sc  Sc3  1  0.095365  0.547683  0.250016  1
  Sc  Sc4  1  0.452317  0.547683  0.250016  1
  Sc  Sc5  1  0.452317  0.904636  0.250016  1
  Sc  Sc6  1  0.404789  0.202394  0.446002  1
  Sc  Sc7  1  0.797606  0.202394  0.446002  1
  Sc  Sc8  1  0.797605  0.595210  0.446002  1
  Sc  Sc9  1  0.000000  0.000000  0.500000  1
  Sc  Sc10  1  0.202394  0.404790  0.553999  1
  Sc  Sc11  1  0.202393  0.797606  0.553999  1
  Sc  Sc12  1  0.595211  0.797606  0.553999  1
  Sc  Sc13  1  0.547682  0.095364  0.749985  1
  Sc  Sc14  1  0.547683  0.452317  0.749985  1
  Sc  Sc15  1  0.904636  0.452317  0.749985  1
  Sc  Sc16  1  0.205136  0.410272  0.944431  1
  Sc  Sc17  1  0.205135  0.794864  0.944431  1
  Sc  Sc18  1  0.589729  0.794864  0.944431  1
  U  U19  1  0.000000  0.000000  0.000000  1
  Tc  Tc20  1  0.114194  0.228388  0.243814  1
  Tc  Tc21  1  0.114193  0.885806  0.243814  1
  Tc  Tc22  1  0.771613  0.885806  0.243814  1
  Tc  Tc23  1  0.228388  0.114194  0.756187  1
  Tc  Tc24  1  0.885806  0.114194  0.756187  1
  Tc  Tc25  1  0.885805  0.771612  0.756187  1
