# generated using pymatgen
data_Pr4Er9Th3(CdIr)4
_symmetry_space_group_name_H-M   'P 1'
_cell_length_a   9.74383393
_cell_length_b   9.76156033
_cell_length_c   9.76156116
_cell_angle_alpha   60.16511457
_cell_angle_beta   60.00346158
_cell_angle_gamma   60.00345678
_symmetry_Int_Tables_number   1
_chemical_formula_structural   Pr4Er9Th3(CdIr)4
_chemical_formula_sum   'Pr4 Er9 Th3 Cd4 Ir4'
_cell_volume   657.37800169
_cell_formula_units_Z   1
loop_
 _symmetry_equiv_pos_site_id
 _symmetry_equiv_pos_as_xyz
  1  'x, y, z'
loop_
 _atom_site_type_symbol
 _atom_site_label
 _atom_site_symmetry_multiplicity
 _atom_site_fract_x
 _atom_site_fract_y
 _atom_site_fract_z
 _atom_site_occupancy
  Pr  Pr0  1  0.564986  0.935382  0.565885  1
  Pr  Pr1  1  0.938398  0.562582  0.935497  1
  Pr  Pr2  1  0.564986  0.565885  0.935382  1
  Pr  Pr3  1  0.938398  0.935497  0.562582  1
  Er  Er4  1  0.950522  0.349934  0.349934  1
  Er  Er5  1  0.813675  0.187150  0.187150  1
  Er  Er6  1  0.185692  0.815482  0.815482  1
  Er  Er7  1  0.186447  0.813938  0.185936  1
  Er  Er8  1  0.813553  0.184966  0.812473  1
  Er  Er9  1  0.186447  0.185936  0.813938  1
  Er  Er10  1  0.813553  0.812473  0.184966  1
  Er  Er11  1  0.944534  0.556483  0.556483  1
  Er  Er12  1  0.555705  0.943074  0.943074  1
  Th  Th13  1  0.346796  0.348587  0.348587  1
  Th  Th14  1  0.346436  0.350648  0.954229  1
  Th  Th15  1  0.346436  0.954229  0.350648  1
  Cd  Cd16  1  0.584571  0.577575  0.577575  1
  Cd  Cd17  1  0.580328  0.582270  0.259213  1
  Cd  Cd18  1  0.580328  0.259213  0.582270  1
  Cd  Cd19  1  0.257485  0.579258  0.579258  1
  Ir  Ir20  1  0.146610  0.139955  0.139955  1
  Ir  Ir21  1  0.141238  0.144273  0.573525  1
  Ir  Ir22  1  0.141238  0.573525  0.144273  1
  Ir  Ir23  1  0.571632  0.141680  0.141680  1
