# generated using pymatgen
data_Ca7Yb3(Bi3Br)2
_symmetry_space_group_name_H-M   'P 1'
_cell_length_a   9.39146700
_cell_length_b   9.39117244
_cell_length_c   7.21947400
_cell_angle_alpha   90.00000000
_cell_angle_beta   90.00000000
_cell_angle_gamma   120.00104815
_symmetry_Int_Tables_number   1
_chemical_formula_structural   Ca7Yb3(Bi3Br)2
_chemical_formula_sum   'Ca7 Yb3 Bi6 Br2'
_cell_volume   551.42296999
_cell_formula_units_Z   1
loop_
 _symmetry_equiv_pos_site_id
 _symmetry_equiv_pos_as_xyz
  1  'x, y, z'
loop_
 _atom_site_type_symbol
 _atom_site_label
 _atom_site_symmetry_multiplicity
 _atom_site_fract_x
 _atom_site_fract_y
 _atom_site_fract_z
 _atom_site_occupancy
  Ca  Ca0  1  0.738538  0.000000  0.750000  1
  Ca  Ca1  1  0.000070  0.261488  0.250000  1
  Ca  Ca2  1  0.738582  0.738512  0.250000  1
  Ca  Ca3  1  0.333228  0.666668  0.500147  1
  Ca  Ca4  1  0.333228  0.666668  0.999853  1
  Ca  Ca5  1  0.666561  0.333332  0.500147  1
  Ca  Ca6  1  0.666561  0.333332  0.999853  1
  Yb  Yb7  1  0.260002  0.000000  0.250000  1
  Yb  Yb8  1  0.260024  0.259947  0.750000  1
  Yb  Yb9  1  0.000077  0.740053  0.750000  1
  Bi  Bi10  1  0.391396  0.000000  0.750000  1
  Bi  Bi11  1  0.607675  0.000000  0.250000  1
  Bi  Bi12  1  0.000110  0.608567  0.250000  1
  Bi  Bi13  1  0.607852  0.607741  0.750000  1
  Bi  Bi14  1  0.000111  0.392259  0.750000  1
  Bi  Bi15  1  0.391542  0.391433  0.250000  1
  Br  Br16  1  0.002222  0.000000  0.500895  1
  Br  Br17  1  0.002222  0.000000  0.999105  1
