# generated using pymatgen
data_PrY2(SiRh2)3
_symmetry_space_group_name_H-M   'P 1'
_cell_length_a   5.63334000
_cell_length_b   5.63333903
_cell_length_c   15.03193600
_cell_angle_alpha   90.00000000
_cell_angle_beta   90.00000000
_cell_angle_gamma   119.99999398
_symmetry_Int_Tables_number   1
_chemical_formula_structural   PrY2(SiRh2)3
_chemical_formula_sum   'Pr2 Y4 Si6 Rh12'
_cell_volume   413.12114916
_cell_formula_units_Z   2
loop_
 _symmetry_equiv_pos_site_id
 _symmetry_equiv_pos_as_xyz
  1  'x, y, z'
loop_
 _atom_site_type_symbol
 _atom_site_label
 _atom_site_symmetry_multiplicity
 _atom_site_fract_x
 _atom_site_fract_y
 _atom_site_fract_z
 _atom_site_occupancy
  Pr  Pr0  1  0.666667  0.333333  0.750000  1
  Pr  Pr1  1  0.333333  0.666667  0.250000  1
  Y  Y2  1  0.666667  0.333333  0.963775  1
  Y  Y3  1  0.666667  0.333333  0.536225  1
  Y  Y4  1  0.333333  0.666667  0.036225  1
  Y  Y5  1  0.333333  0.666667  0.463775  1
  Si  Si6  1  0.666667  0.333333  0.250000  1
  Si  Si7  1  0.000000  0.000000  0.500000  1
  Si  Si8  1  0.000000  0.000000  0.250000  1
  Si  Si9  1  0.000000  0.000000  0.750000  1
  Si  Si10  1  0.333333  0.666667  0.750000  1
  Si  Si11  1  0.000000  0.000000  0.000000  1
  Rh  Rh12  1  0.166452  0.332905  0.869459  1
  Rh  Rh13  1  0.166452  0.332905  0.630541  1
  Rh  Rh14  1  0.667095  0.833548  0.869459  1
  Rh  Rh15  1  0.332905  0.166452  0.369459  1
  Rh  Rh16  1  0.833548  0.667095  0.369459  1
  Rh  Rh17  1  0.833548  0.166452  0.369459  1
  Rh  Rh18  1  0.833548  0.166452  0.130541  1
  Rh  Rh19  1  0.332905  0.166452  0.130541  1
  Rh  Rh20  1  0.667095  0.833548  0.630541  1
  Rh  Rh21  1  0.166452  0.833548  0.630541  1
  Rh  Rh22  1  0.833548  0.667095  0.130541  1
  Rh  Rh23  1  0.166452  0.833548  0.869459  1
