# generated using pymatgen
data_Dy3TmAl8
_symmetry_space_group_name_H-M   'P 1'
_cell_length_a   9.62654065
_cell_length_b   9.62654043
_cell_length_c   9.62654081
_cell_angle_alpha   33.51554286
_cell_angle_beta   33.51554202
_cell_angle_gamma   33.51554943
_symmetry_Int_Tables_number   1
_chemical_formula_structural   Dy3TmAl8
_chemical_formula_sum   'Dy3 Tm1 Al8'
_cell_volume   242.24721301
_cell_formula_units_Z   1
loop_
 _symmetry_equiv_pos_site_id
 _symmetry_equiv_pos_as_xyz
  1  'x, y, z'
loop_
 _atom_site_type_symbol
 _atom_site_label
 _atom_site_symmetry_multiplicity
 _atom_site_fract_x
 _atom_site_fract_y
 _atom_site_fract_z
 _atom_site_occupancy
  Dy  Dy0  1  0.312562  0.312562  0.312562  1
  Dy  Dy1  1  0.687550  0.687550  0.687550  1
  Dy  Dy2  1  0.187373  0.187373  0.187373  1
  Tm  Tm3  1  0.812506  0.812506  0.812506  1
  Al  Al4  1  0.499970  0.499970  0.499970  1
  Al  Al5  1  0.000031  0.000031  0.000031  1
  Al  Al6  1  0.250027  0.250027  0.750043  1
  Al  Al7  1  0.749956  0.749956  0.250000  1
  Al  Al8  1  0.250027  0.750043  0.250027  1
  Al  Al9  1  0.749956  0.250000  0.749956  1
  Al  Al10  1  0.750043  0.250027  0.250027  1
  Al  Al11  1  0.250000  0.749956  0.749956  1
