# generated using pymatgen
data_Tb7Y9Cd4Os3Pd
_symmetry_space_group_name_H-M   'P 1'
_cell_length_a   9.65197882
_cell_length_b   9.77556834
_cell_length_c   9.78150875
_cell_angle_alpha   59.73216910
_cell_angle_beta   59.35646505
_cell_angle_gamma   59.41338761
_symmetry_Int_Tables_number   1
_chemical_formula_structural   Tb7Y9Cd4Os3Pd
_chemical_formula_sum   'Tb7 Y9 Cd4 Os3 Pd1'
_cell_volume   645.17589972
_cell_formula_units_Z   1
loop_
 _symmetry_equiv_pos_site_id
 _symmetry_equiv_pos_as_xyz
  1  'x, y, z'
loop_
 _atom_site_type_symbol
 _atom_site_label
 _atom_site_symmetry_multiplicity
 _atom_site_fract_x
 _atom_site_fract_y
 _atom_site_fract_z
 _atom_site_occupancy
  Tb  Tb0  1  0.347228  0.351484  0.351872  1
  Tb  Tb1  1  0.345357  0.351468  0.953732  1
  Tb  Tb2  1  0.346751  0.952632  0.351522  1
  Tb  Tb3  1  0.968399  0.344758  0.343573  1
  Tb  Tb4  1  0.814477  0.190340  0.190117  1
  Tb  Tb5  1  0.183423  0.810658  0.810263  1
  Tb  Tb6  1  0.186797  0.810878  0.191182  1
  Y  Y7  1  0.814363  0.190236  0.802745  1
  Y  Y8  1  0.186356  0.191689  0.810598  1
  Y  Y9  1  0.814029  0.803138  0.189956  1
  Y  Y10  1  0.936828  0.561079  0.560583  1
  Y  Y11  1  0.554600  0.939522  0.939512  1
  Y  Y12  1  0.553285  0.939422  0.567765  1
  Y  Y13  1  0.935813  0.561155  0.939279  1
  Y  Y14  1  0.552986  0.567319  0.940085  1
  Y  Y15  1  0.936518  0.939883  0.560144  1
  Cd  Cd16  1  0.581318  0.579147  0.579160  1
  Cd  Cd17  1  0.581195  0.579658  0.258905  1
  Cd  Cd18  1  0.580692  0.258875  0.579944  1
  Cd  Cd19  1  0.255673  0.580837  0.581685  1
  Os  Os20  1  0.146700  0.136592  0.139458  1
  Os  Os21  1  0.150147  0.137811  0.577261  1
  Os  Os22  1  0.150815  0.578325  0.138159  1
  Pd  Pd23  1  0.576250  0.143092  0.142499  1
