# generated using pymatgen
data_Y2Er3Nb3(Ni4As3)4
_symmetry_space_group_name_H-M   'P 1'
_cell_length_a   12.65834900
_cell_length_b   12.65834855
_cell_length_c   3.87913200
_cell_angle_alpha   90.00000000
_cell_angle_beta   90.00000000
_cell_angle_gamma   120.00000378
_symmetry_Int_Tables_number   1
_chemical_formula_structural   Y2Er3Nb3(Ni4As3)4
_chemical_formula_sum   'Y2 Er3 Nb3 Ni16 As12'
_cell_volume   538.29368959
_cell_formula_units_Z   1
loop_
 _symmetry_equiv_pos_site_id
 _symmetry_equiv_pos_as_xyz
  1  'x, y, z'
loop_
 _atom_site_type_symbol
 _atom_site_label
 _atom_site_symmetry_multiplicity
 _atom_site_fract_x
 _atom_site_fract_y
 _atom_site_fract_z
 _atom_site_occupancy
  Y  Y0  1  0.333333  0.666667  0.000000  1
  Y  Y1  1  0.666667  0.333333  0.000000  1
  Er  Er2  1  0.185562  0.185562  0.500000  1
  Er  Er3  1  0.814438  0.000000  0.500000  1
  Er  Er4  1  0.000000  0.814438  0.500000  1
  Nb  Nb5  1  0.562094  0.562094  0.000000  1
  Nb  Nb6  1  0.437906  0.000000  0.000000  1
  Nb  Nb7  1  0.000000  0.437906  0.000000  1
  Ni  Ni8  1  0.721909  0.721909  0.500000  1
  Ni  Ni9  1  0.278091  0.000000  0.500000  1
  Ni  Ni10  1  0.000000  0.278091  0.500000  1
  Ni  Ni11  1  0.181884  0.374195  0.000000  1
  Ni  Ni12  1  0.625805  0.807690  0.000000  1
  Ni  Ni13  1  0.192310  0.818116  0.000000  1
  Ni  Ni14  1  0.807690  0.625805  0.000000  1
  Ni  Ni15  1  0.818116  0.192310  0.000000  1
  Ni  Ni16  1  0.374195  0.181884  0.000000  1
  Ni  Ni17  1  0.360877  0.482839  0.500000  1
  Ni  Ni18  1  0.517161  0.878039  0.500000  1
  Ni  Ni19  1  0.121961  0.639123  0.500000  1
  Ni  Ni20  1  0.878039  0.517161  0.500000  1
  Ni  Ni21  1  0.639123  0.121961  0.500000  1
  Ni  Ni22  1  0.482839  0.360877  0.500000  1
  Ni  Ni23  1  0.000000  0.000000  0.000000  1
  As  As24  1  0.822692  0.822692  0.000000  1
  As  As25  1  0.177308  0.000000  0.000000  1
  As  As26  1  0.000000  0.177308  0.000000  1
  As  As27  1  0.169070  0.479906  0.500000  1
  As  As28  1  0.520094  0.689164  0.500000  1
  As  As29  1  0.310836  0.830930  0.500000  1
  As  As30  1  0.689164  0.520094  0.500000  1
  As  As31  1  0.830930  0.310836  0.500000  1
  As  As32  1  0.479906  0.169070  0.500000  1
  As  As33  1  0.360551  0.360551  0.000000  1
  As  As34  1  0.639449  0.000000  0.000000  1
  As  As35  1  0.000000  0.639449  0.000000  1
