# generated using pymatgen
data_Tb3GdOsI4
_symmetry_space_group_name_H-M   'P 1'
_cell_length_a   11.44114023
_cell_length_b   11.42603988
_cell_length_c   6.21138100
_cell_angle_alpha   90.01582574
_cell_angle_beta   90.02652170
_cell_angle_gamma   88.37281735
_symmetry_Int_Tables_number   1
_chemical_formula_structural   Tb3GdOsI4
_chemical_formula_sum   'Tb6 Gd2 Os2 I8'
_cell_volume   811.66718773
_cell_formula_units_Z   2
loop_
 _symmetry_equiv_pos_site_id
 _symmetry_equiv_pos_as_xyz
  1  'x, y, z'
loop_
 _atom_site_type_symbol
 _atom_site_label
 _atom_site_symmetry_multiplicity
 _atom_site_fract_x
 _atom_site_fract_y
 _atom_site_fract_z
 _atom_site_occupancy
  Tb  Tb0  1  0.801852  0.084441  0.999424  1
  Tb  Tb1  1  0.083517  0.802254  0.499311  1
  Tb  Tb2  1  0.078414  0.195793  0.000074  1
  Tb  Tb3  1  0.195788  0.078786  0.500000  1
  Tb  Tb4  1  0.921991  0.804381  0.000083  1
  Tb  Tb5  1  0.915966  0.198038  0.500545  1
  Gd  Gd6  1  0.201113  0.914880  0.000514  1
  Gd  Gd7  1  0.801229  0.920561  0.499987  1
  Os  Os8  1  0.999953  0.000067  0.250346  1
  Os  Os9  1  0.000103  0.999902  0.749706  1
  I  I10  1  0.644033  0.153962  0.508756  1
  I  I11  1  0.858430  0.647320  0.505149  1
  I  I12  1  0.351764  0.143723  0.994868  1
  I  I13  1  0.141953  0.351436  0.494951  1
  I  I14  1  0.648871  0.857939  0.004773  1
  I  I15  1  0.355296  0.847806  0.491559  1
  I  I16  1  0.151827  0.643138  0.008762  1
  I  I17  1  0.847901  0.355572  0.991192  1
