# generated using pymatgen
data_DyGa4(Fe3Ge)2
_symmetry_space_group_name_H-M   'P 1'
_cell_length_a   5.03247957
_cell_length_b   6.54984181
_cell_length_c   6.54984201
_cell_angle_alpha   80.21374153
_cell_angle_beta   67.40790671
_cell_angle_gamma   67.40790631
_symmetry_Int_Tables_number   1
_chemical_formula_structural   DyGa4(Fe3Ge)2
_chemical_formula_sum   'Dy1 Ga4 Fe6 Ge2'
_cell_volume   183.96910666
_cell_formula_units_Z   1
loop_
 _symmetry_equiv_pos_site_id
 _symmetry_equiv_pos_as_xyz
  1  'x, y, z'
loop_
 _atom_site_type_symbol
 _atom_site_label
 _atom_site_symmetry_multiplicity
 _atom_site_fract_x
 _atom_site_fract_y
 _atom_site_fract_z
 _atom_site_occupancy
  Dy  Dy0  1  0.000000  0.000000  0.000000  1
  Ga  Ga1  1  0.341480  0.658520  0.658520  1
  Ga  Ga2  1  0.658520  0.341480  0.341480  1
  Ga  Ga3  1  0.323859  0.176141  0.176141  1
  Ga  Ga4  1  0.676141  0.823859  0.823859  1
  Fe  Fe5  1  0.500000  0.247043  0.752957  1
  Fe  Fe6  1  0.500000  0.752957  0.247043  1
  Fe  Fe7  1  0.000000  0.500000  0.000000  1
  Fe  Fe8  1  0.500000  0.500000  0.000000  1
  Fe  Fe9  1  0.000000  0.000000  0.500000  1
  Fe  Fe10  1  0.500000  0.000000  0.500000  1
  Ge  Ge11  1  0.000000  0.655882  0.344118  1
  Ge  Ge12  1  0.000000  0.344118  0.655882  1
