# generated using pymatgen
data_Na5Li3(P3Ir4)4
_symmetry_space_group_name_H-M   'P 1'
_cell_length_a   12.67372300
_cell_length_b   12.67372218
_cell_length_c   3.91748400
_cell_angle_alpha   90.00000000
_cell_angle_beta   90.00000000
_cell_angle_gamma   119.99999430
_symmetry_Int_Tables_number   1
_chemical_formula_structural   Na5Li3(P3Ir4)4
_chemical_formula_sum   'Na5 Li3 P12 Ir16'
_cell_volume   544.93698134
_cell_formula_units_Z   1
loop_
 _symmetry_equiv_pos_site_id
 _symmetry_equiv_pos_as_xyz
  1  'x, y, z'
loop_
 _atom_site_type_symbol
 _atom_site_label
 _atom_site_symmetry_multiplicity
 _atom_site_fract_x
 _atom_site_fract_y
 _atom_site_fract_z
 _atom_site_occupancy
  Na  Na0  1  0.333333  0.666667  0.500000  1
  Na  Na1  1  0.666667  0.333333  0.500000  1
  Na  Na2  1  0.000000  0.814310  0.000000  1
  Na  Na3  1  0.185690  0.185690  0.000000  1
  Na  Na4  1  0.814310  0.000000  0.000000  1
  Li  Li5  1  0.000000  0.440329  0.500000  1
  Li  Li6  1  0.559671  0.559671  0.500000  1
  Li  Li7  1  0.440329  0.000000  0.500000  1
  P  P8  1  0.000000  0.627450  0.500000  1
  P  P9  1  0.372550  0.372550  0.500000  1
  P  P10  1  0.627450  0.000000  0.500000  1
  P  P11  1  0.516076  0.689735  0.000000  1
  P  P12  1  0.310265  0.826341  0.000000  1
  P  P13  1  0.173659  0.483924  0.000000  1
  P  P14  1  0.483924  0.173659  0.000000  1
  P  P15  1  0.689735  0.516076  0.000000  1
  P  P16  1  0.826341  0.310265  0.000000  1
  P  P17  1  0.000000  0.180172  0.500000  1
  P  P18  1  0.819828  0.819828  0.500000  1
  P  P19  1  0.180172  0.000000  0.500000  1
  Ir  Ir20  1  0.510732  0.872057  0.000000  1
  Ir  Ir21  1  0.127943  0.638675  0.000000  1
  Ir  Ir22  1  0.361325  0.489268  0.000000  1
  Ir  Ir23  1  0.489268  0.361325  0.000000  1
  Ir  Ir24  1  0.872057  0.510732  0.000000  1
  Ir  Ir25  1  0.638675  0.127943  0.000000  1
  Ir  Ir26  1  0.000000  0.279869  0.000000  1
  Ir  Ir27  1  0.720131  0.720131  0.000000  1
  Ir  Ir28  1  0.279869  0.000000  0.000000  1
  Ir  Ir29  1  0.622191  0.803047  0.500000  1
  Ir  Ir30  1  0.196953  0.819144  0.500000  1
  Ir  Ir31  1  0.180856  0.377809  0.500000  1
  Ir  Ir32  1  0.377809  0.180856  0.500000  1
  Ir  Ir33  1  0.803047  0.622191  0.500000  1
  Ir  Ir34  1  0.819144  0.196953  0.500000  1
  Ir  Ir35  1  0.000000  0.000000  0.500000  1
