# generated using pymatgen
data_Ho11ErGa2(CoRu)2
_symmetry_space_group_name_H-M   'P 1'
_cell_length_a   8.28630485
_cell_length_b   8.28643678
_cell_length_c   8.28631170
_cell_angle_alpha   105.64927459
_cell_angle_beta   110.55750454
_cell_angle_gamma   112.27769248
_symmetry_Int_Tables_number   1
_chemical_formula_structural   Ho11ErGa2(CoRu)2
_chemical_formula_sum   'Ho11 Er1 Ga2 Co2 Ru2'
_cell_volume   436.44214135
_cell_formula_units_Z   1
loop_
 _symmetry_equiv_pos_site_id
 _symmetry_equiv_pos_as_xyz
  1  'x, y, z'
loop_
 _atom_site_type_symbol
 _atom_site_label
 _atom_site_symmetry_multiplicity
 _atom_site_fract_x
 _atom_site_fract_y
 _atom_site_fract_z
 _atom_site_occupancy
  Ho  Ho0  1  0.693189  0.255180  0.948522  1
  Ho  Ho1  1  0.306784  0.744992  0.051627  1
  Ho  Ho2  1  0.693190  0.744673  0.438007  1
  Ho  Ho3  1  0.306778  0.255160  0.561795  1
  Ho  Ho4  1  0.814721  0.139064  0.324094  1
  Ho  Ho5  1  0.814720  0.490618  0.675653  1
  Ho  Ho6  1  0.185203  0.861037  0.675968  1
  Ho  Ho7  1  0.185213  0.509239  0.324169  1
  Ho  Ho8  1  0.600091  0.780519  0.819564  1
  Ho  Ho9  1  0.960968  0.780577  0.180377  1
  Ho  Ho10  1  0.039147  0.219394  0.819750  1
  Er  Er11  1  0.399920  0.219638  0.180301  1
  Ga  Ga12  1  0.499915  0.499842  0.000072  1
  Ga  Ga13  1  0.500002  0.999992  0.500013  1
  Co  Co14  1  0.000187  0.113051  0.112990  1
  Co  Co15  1  0.000190  0.887185  0.887140  1
  Ru  Ru16  1  0.826386  0.499862  0.326535  1
  Ru  Ru17  1  0.173396  0.499977  0.673422  1
