# generated using pymatgen
data_NiBiI18
_symmetry_space_group_name_H-M   'P 1'
_cell_length_a   10.32903347
_cell_length_b   10.12877011
_cell_length_c   10.03218364
_cell_angle_alpha   87.83318703
_cell_angle_beta   86.84510026
_cell_angle_gamma   87.14837379
_symmetry_Int_Tables_number   1
_chemical_formula_structural   NiBiI18
_chemical_formula_sum   'Ni1 Bi1 I18'
_cell_volume   1046.03523196
_cell_formula_units_Z   1
loop_
 _symmetry_equiv_pos_site_id
 _symmetry_equiv_pos_as_xyz
  1  'x, y, z'
loop_
 _atom_site_type_symbol
 _atom_site_label
 _atom_site_symmetry_multiplicity
 _atom_site_fract_x
 _atom_site_fract_y
 _atom_site_fract_z
 _atom_site_occupancy
  Ni  Ni0  1  0.500000  0.500000  0.500000  1
  Bi  Bi1  1  0.000000  0.000000  0.000000  1
  I  I2  1  0.764002  0.470034  0.492180  1
  I  I3  1  0.493879  0.766957  0.471412  1
  I  I4  1  0.473839  0.491839  0.758441  1
  I  I5  1  0.235998  0.529966  0.507820  1
  I  I6  1  0.506121  0.233043  0.528588  1
  I  I7  1  0.526161  0.508161  0.241559  1
  I  I8  1  0.878566  0.389668  0.739844  1
  I  I9  1  0.737649  0.881482  0.390563  1
  I  I10  1  0.388723  0.741277  0.877837  1
  I  I11  1  0.121434  0.610332  0.260156  1
  I  I12  1  0.262351  0.118518  0.609437  1
  I  I13  1  0.611277  0.258723  0.122163  1
  I  I14  1  0.023944  0.973793  0.690674  1
  I  I15  1  0.698347  0.022381  0.970278  1
  I  I16  1  0.973561  0.693188  0.020859  1
  I  I17  1  0.976056  0.026207  0.309326  1
  I  I18  1  0.301653  0.977619  0.029722  1
  I  I19  1  0.026439  0.306812  0.979141  1
