# generated using pymatgen
data_TmLu11Co4SnRh
_symmetry_space_group_name_H-M   'P 1'
_cell_length_a   8.11345703
_cell_length_b   8.10989691
_cell_length_c   8.10989603
_cell_angle_alpha   111.10726366
_cell_angle_beta   110.94762463
_cell_angle_gamma   106.38497044
_symmetry_Int_Tables_number   1
_chemical_formula_structural   TmLu11Co4SnRh
_chemical_formula_sum   'Tm1 Lu11 Co4 Sn1 Rh1'
_cell_volume   409.98619099
_cell_formula_units_Z   1
loop_
 _symmetry_equiv_pos_site_id
 _symmetry_equiv_pos_as_xyz
  1  'x, y, z'
loop_
 _atom_site_type_symbol
 _atom_site_label
 _atom_site_symmetry_multiplicity
 _atom_site_fract_x
 _atom_site_fract_y
 _atom_site_fract_z
 _atom_site_occupancy
  Tm  Tm0  1  0.414586  0.218946  0.195639  1
  Lu  Lu1  1  0.585019  0.780992  0.804027  1
  Lu  Lu2  1  0.022811  0.218957  0.803854  1
  Lu  Lu3  1  0.976694  0.780907  0.195787  1
  Lu  Lu4  1  0.184447  0.285429  0.470296  1
  Lu  Lu5  1  0.816004  0.715313  0.530830  1
  Lu  Lu6  1  0.184447  0.714152  0.899017  1
  Lu  Lu7  1  0.816004  0.285173  0.100692  1
  Lu  Lu8  1  0.314942  0.622406  0.306897  1
  Lu  Lu9  1  0.685361  0.378157  0.693629  1
  Lu  Lu10  1  0.314942  0.008045  0.692536  1
  Lu  Lu11  1  0.685361  0.991732  0.307204  1
  Co  Co12  1  0.371404  0.999656  0.371748  1
  Co  Co13  1  0.628938  0.000205  0.628733  1
  Co  Co14  1  0.112952  0.613043  0.499910  1
  Co  Co15  1  0.887723  0.387130  0.500594  1
  Sn  Sn16  1  0.499818  0.500441  0.999378  1
  Rh  Rh17  1  0.998547  0.999317  0.999230  1
