# generated using pymatgen
data_TaNb3Co2(B3Mo)2
_symmetry_space_group_name_H-M   'P 1'
_cell_length_a   3.23414800
_cell_length_b   4.60603357
_cell_length_c   11.02302164
_cell_angle_alpha   90.03653364
_cell_angle_beta   90.00000000
_cell_angle_gamma   110.55322403
_symmetry_Int_Tables_number   1
_chemical_formula_structural   TaNb3Co2(B3Mo)2
_chemical_formula_sum   'Ta1 Nb3 Co2 B6 Mo2'
_cell_volume   153.75318585
_cell_formula_units_Z   1
loop_
 _symmetry_equiv_pos_site_id
 _symmetry_equiv_pos_as_xyz
  1  'x, y, z'
loop_
 _atom_site_type_symbol
 _atom_site_label
 _atom_site_symmetry_multiplicity
 _atom_site_fract_x
 _atom_site_fract_y
 _atom_site_fract_z
 _atom_site_occupancy
  Ta  Ta0  1  0.792067  0.584135  0.893933  1
  Nb  Nb1  1  0.208283  0.416564  0.393510  1
  Nb  Nb2  1  0.791609  0.583220  0.606455  1
  Nb  Nb3  1  0.208206  0.416412  0.106567  1
  Co  Co4  1  0.500055  0.000111  0.500083  1
  Co  Co5  1  0.499661  0.999323  0.999578  1
  B  B6  1  0.913102  0.826204  0.393912  1
  B  B7  1  0.086894  0.173787  0.606074  1
  B  B8  1  0.912786  0.825572  0.105684  1
  B  B9  1  0.087211  0.174423  0.894102  1
  B  B10  1  0.796220  0.592440  0.250068  1
  B  B11  1  0.204366  0.408731  0.750356  1
  Mo  Mo12  1  0.497371  0.994739  0.249674  1
  Mo  Mo13  1  0.502169  0.004340  0.750004  1
