# generated using pymatgen
data_Sr4Al12GaAu9
_symmetry_space_group_name_H-M   'P 1'
_cell_length_a   11.95319300
_cell_length_b   11.95319120
_cell_length_c   4.28794100
_cell_angle_alpha   90.00000000
_cell_angle_beta   90.00000000
_cell_angle_gamma   120.00000222
_symmetry_Int_Tables_number   1
_chemical_formula_structural   Sr4Al12GaAu9
_chemical_formula_sum   'Sr4 Al12 Ga1 Au9'
_cell_volume   530.57553553
_cell_formula_units_Z   1
loop_
 _symmetry_equiv_pos_site_id
 _symmetry_equiv_pos_as_xyz
  1  'x, y, z'
loop_
 _atom_site_type_symbol
 _atom_site_label
 _atom_site_symmetry_multiplicity
 _atom_site_fract_x
 _atom_site_fract_y
 _atom_site_fract_z
 _atom_site_occupancy
  Sr  Sr0  1  0.205955  0.794045  0.500000  1
  Sr  Sr1  1  0.588091  0.794045  0.500000  1
  Sr  Sr2  1  0.205955  0.411909  0.500000  1
  Sr  Sr3  1  0.666667  0.333333  0.000000  1
  Al  Al4  1  0.945684  0.289955  0.000000  1
  Al  Al5  1  0.710045  0.655728  0.000000  1
  Al  Al6  1  0.945684  0.655728  0.000000  1
  Al  Al7  1  0.344272  0.054316  0.000000  1
  Al  Al8  1  0.163210  0.081605  0.500000  1
  Al  Al9  1  0.918395  0.836790  0.500000  1
  Al  Al10  1  0.710045  0.054316  0.000000  1
  Al  Al11  1  0.532975  0.065950  0.500000  1
  Al  Al12  1  0.918395  0.081605  0.500000  1
  Al  Al13  1  0.344272  0.289955  0.000000  1
  Al  Al14  1  0.532975  0.467025  0.500000  1
  Al  Al15  1  0.934050  0.467025  0.500000  1
  Ga  Ga16  1  0.333333  0.666667  0.000000  1
  Au  Au17  1  0.459681  0.540319  0.000000  1
  Au  Au18  1  0.828532  0.914267  0.000000  1
  Au  Au19  1  0.459681  0.919362  0.000000  1
  Au  Au20  1  0.085733  0.171468  0.000000  1
  Au  Au21  1  0.085733  0.914267  0.000000  1
  Au  Au22  1  0.792210  0.584419  0.500000  1
  Au  Au23  1  0.080638  0.540319  0.000000  1
  Au  Au24  1  0.792210  0.207790  0.500000  1
  Au  Au25  1  0.415581  0.207790  0.500000  1
