# generated using pymatgen
data_IrRh4
_symmetry_space_group_name_H-M   'P 1'
_cell_length_a   11.15810358
_cell_length_b   11.15810370
_cell_length_c   11.15810189
_cell_angle_alpha   14.09677289
_cell_angle_beta   14.09676883
_cell_angle_gamma   14.09676861
_symmetry_Int_Tables_number   1
_chemical_formula_structural   IrRh4
_chemical_formula_sum   'Ir1 Rh4'
_cell_volume   71.72986095
_cell_formula_units_Z   1
loop_
 _symmetry_equiv_pos_site_id
 _symmetry_equiv_pos_as_xyz
  1  'x, y, z'
loop_
 _atom_site_type_symbol
 _atom_site_label
 _atom_site_symmetry_multiplicity
 _atom_site_fract_x
 _atom_site_fract_y
 _atom_site_fract_z
 _atom_site_occupancy
  Ir  Ir0  1  0.000000  0.000000  0.000000  1
  Rh  Rh1  1  0.600279  0.600279  0.600279  1
  Rh  Rh2  1  0.199944  0.199944  0.199944  1
  Rh  Rh3  1  0.800056  0.800056  0.800056  1
  Rh  Rh4  1  0.399721  0.399721  0.399721  1
