# generated using pymatgen
data_CePa(MnAl5)4
_symmetry_space_group_name_H-M   'P 1'
_cell_length_a   6.81517144
_cell_length_b   6.81517089
_cell_length_c   9.02653000
_cell_angle_alpha   90.00000000
_cell_angle_beta   90.00000000
_cell_angle_gamma   97.63611782
_symmetry_Int_Tables_number   1
_chemical_formula_structural   CePa(MnAl5)4
_chemical_formula_sum   'Ce1 Pa1 Mn4 Al20'
_cell_volume   415.53331765
_cell_formula_units_Z   1
loop_
 _symmetry_equiv_pos_site_id
 _symmetry_equiv_pos_as_xyz
  1  'x, y, z'
loop_
 _atom_site_type_symbol
 _atom_site_label
 _atom_site_symmetry_multiplicity
 _atom_site_fract_x
 _atom_site_fract_y
 _atom_site_fract_z
 _atom_site_occupancy
  Ce  Ce0  1  0.125930  0.874070  0.250000  1
  Pa  Pa1  1  0.870836  0.129164  0.750000  1
  Mn  Mn2  1  0.504246  0.000617  0.997519  1
  Mn  Mn3  1  0.999383  0.495754  0.997519  1
  Mn  Mn4  1  0.504246  0.000617  0.502481  1
  Mn  Mn5  1  0.999383  0.495754  0.502481  1
  Al  Al6  1  0.409595  0.131213  0.750000  1
  Al  Al7  1  0.130378  0.406747  0.250000  1
  Al  Al8  1  0.593253  0.869622  0.250000  1
  Al  Al9  1  0.868787  0.590405  0.750000  1
  Al  Al10  1  0.524383  0.781702  0.750000  1
  Al  Al11  1  0.781219  0.524432  0.250000  1
  Al  Al12  1  0.475568  0.218781  0.250000  1
  Al  Al13  1  0.218298  0.475617  0.750000  1
  Al  Al14  1  0.839504  0.160496  0.403542  1
  Al  Al15  1  0.157341  0.842659  0.597976  1
  Al  Al16  1  0.839504  0.160496  0.096458  1
  Al  Al17  1  0.157341  0.842659  0.902024  1
  Al  Al18  1  0.623595  0.376405  0.949434  1
  Al  Al19  1  0.375227  0.624773  0.043130  1
  Al  Al20  1  0.623595  0.376405  0.550566  1
  Al  Al21  1  0.375227  0.624773  0.456870  1
  Al  Al22  1  0.772909  0.771330  0.999166  1
  Al  Al23  1  0.772909  0.771330  0.500834  1
  Al  Al24  1  0.228670  0.227091  0.999166  1
  Al  Al25  1  0.228670  0.227091  0.500834  1
