# generated using pymatgen
data_Nb3Tc2Ge3Ru
_symmetry_space_group_name_H-M   'P 1'
_cell_length_a   6.70689386
_cell_length_b   7.38011298
_cell_length_c   7.62798913
_cell_angle_alpha   118.93075368
_cell_angle_beta   116.07989494
_cell_angle_gamma   89.99999603
_symmetry_Int_Tables_number   1
_chemical_formula_structural   Nb3Tc2Ge3Ru
_chemical_formula_sum   'Nb6 Tc4 Ge6 Ru2'
_cell_volume   285.73511217
_cell_formula_units_Z   2
loop_
 _symmetry_equiv_pos_site_id
 _symmetry_equiv_pos_as_xyz
  1  'x, y, z'
loop_
 _atom_site_type_symbol
 _atom_site_label
 _atom_site_symmetry_multiplicity
 _atom_site_fract_x
 _atom_site_fract_y
 _atom_site_fract_z
 _atom_site_occupancy
  Nb  Nb0  1  0.901430  0.948917  0.397833  1
  Nb  Nb1  1  0.503598  0.051083  0.602167  1
  Nb  Nb2  1  0.499014  0.524543  0.549086  1
  Nb  Nb3  1  0.949929  0.475457  0.450914  1
  Nb  Nb4  1  0.091740  0.749497  0.998994  1
  Nb  Nb5  1  0.092745  0.250503  0.001006  1
  Tc  Tc6  1  0.252982  0.915674  0.751480  1
  Tc  Tc7  1  0.501504  0.084326  0.248520  1
  Tc  Tc8  1  0.252982  0.335804  0.751480  1
  Tc  Tc9  1  0.501504  0.664196  0.248520  1
  Ge  Ge10  1  0.165955  0.668472  0.330887  1
  Ge  Ge11  1  0.835068  0.331528  0.669113  1
  Ge  Ge12  1  0.165955  0.162414  0.330887  1
  Ge  Ge13  1  0.835068  0.837586  0.669113  1
  Ge  Ge14  1  0.469902  0.715896  0.931794  1
  Ge  Ge15  1  0.538110  0.284104  0.068206  1
  Ru  Ru16  1  0.750254  0.500000  0.000000  1
  Ru  Ru17  1  0.750254  0.000000  0.000000  1
