# generated using pymatgen
data_Ho3TlIn3IrRh
_symmetry_space_group_name_H-M   'P 1'
_cell_length_a   7.86239000
_cell_length_b   7.86239096
_cell_length_c   3.85207500
_cell_angle_alpha   90.00000000
_cell_angle_beta   90.00000000
_cell_angle_gamma   119.99999711
_symmetry_Int_Tables_number   1
_chemical_formula_structural   Ho3TlIn3IrRh
_chemical_formula_sum   'Ho3 Tl1 In3 Ir1 Rh1'
_cell_volume   206.22181091
_cell_formula_units_Z   1
loop_
 _symmetry_equiv_pos_site_id
 _symmetry_equiv_pos_as_xyz
  1  'x, y, z'
loop_
 _atom_site_type_symbol
 _atom_site_label
 _atom_site_symmetry_multiplicity
 _atom_site_fract_x
 _atom_site_fract_y
 _atom_site_fract_z
 _atom_site_occupancy
  Ho  Ho0  1  0.034907  0.421406  0.500000  1
  Ho  Ho1  1  0.578594  0.613502  0.500000  1
  Ho  Ho2  1  0.386498  0.965093  0.500000  1
  Tl  Tl3  1  0.666667  0.333333  0.000000  1
  In  In4  1  0.247997  0.255762  0.000000  1
  In  In5  1  0.007765  0.752003  0.000000  1
  In  In6  1  0.744238  0.992235  0.000000  1
  Ir  Ir7  1  0.333333  0.666667  0.000000  1
  Rh  Rh8  1  0.000000  0.000000  0.500000  1
