# generated using pymatgen
data_Cs3GaTe3
_symmetry_space_group_name_H-M   'P 1'
_cell_length_a   14.83956700
_cell_length_b   9.27639371
_cell_length_c   12.18884616
_cell_angle_alpha   53.07067279
_cell_angle_beta   90.00000000
_cell_angle_gamma   90.00000000
_symmetry_Int_Tables_number   1
_chemical_formula_structural   Cs3GaTe3
_chemical_formula_sum   'Cs12 Ga4 Te12'
_cell_volume   1341.26554296
_cell_formula_units_Z   4
loop_
 _symmetry_equiv_pos_site_id
 _symmetry_equiv_pos_as_xyz
  1  'x, y, z'
loop_
 _atom_site_type_symbol
 _atom_site_label
 _atom_site_symmetry_multiplicity
 _atom_site_fract_x
 _atom_site_fract_y
 _atom_site_fract_z
 _atom_site_occupancy
  Cs  Cs0  1  0.923016  0.353359  0.390329  1
  Cs  Cs1  1  0.423016  0.646641  0.109671  1
  Cs  Cs2  1  0.076984  0.646641  0.609671  1
  Cs  Cs3  1  0.576984  0.353359  0.890329  1
  Cs  Cs4  1  0.195492  0.124693  0.589798  1
  Cs  Cs5  1  0.695492  0.875307  0.910202  1
  Cs  Cs6  1  0.804508  0.875307  0.410202  1
  Cs  Cs7  1  0.304508  0.124693  0.089798  1
  Cs  Cs8  1  0.626921  0.372518  0.484638  1
  Cs  Cs9  1  0.126921  0.627482  0.015362  1
  Cs  Cs10  1  0.373079  0.627482  0.515362  1
  Cs  Cs11  1  0.873079  0.372518  0.984638  1
  Ga  Ga12  1  0.941442  0.067931  0.838887  1
  Ga  Ga13  1  0.441442  0.932069  0.661113  1
  Ga  Ga14  1  0.058558  0.932069  0.161113  1
  Ga  Ga15  1  0.558558  0.067931  0.338887  1
  Te  Te16  1  0.393002  0.140143  0.387790  1
  Te  Te17  1  0.893002  0.859857  0.112210  1
  Te  Te18  1  0.606998  0.859857  0.612210  1
  Te  Te19  1  0.106998  0.140143  0.887790  1
  Te  Te20  1  0.665230  0.354013  0.190448  1
  Te  Te21  1  0.165230  0.645987  0.309552  1
  Te  Te22  1  0.334770  0.645987  0.809552  1
  Te  Te23  1  0.834770  0.354013  0.690448  1
  Te  Te24  1  0.552916  0.883379  0.238373  1
  Te  Te25  1  0.052916  0.116621  0.261627  1
  Te  Te26  1  0.447084  0.116621  0.761627  1
  Te  Te27  1  0.947084  0.883379  0.738373  1
