# generated using pymatgen
data_Dy3Er2FeBi2
_symmetry_space_group_name_H-M   'P 1'
_cell_length_a   7.94377000
_cell_length_b   8.93112300
_cell_length_c   12.43961600
_cell_angle_alpha   90.00000000
_cell_angle_beta   90.00000000
_cell_angle_gamma   90.00000000
_symmetry_Int_Tables_number   1
_chemical_formula_structural   Dy3Er2FeBi2
_chemical_formula_sum   'Dy12 Er8 Fe4 Bi8'
_cell_volume   882.55078614
_cell_formula_units_Z   4
loop_
 _symmetry_equiv_pos_site_id
 _symmetry_equiv_pos_as_xyz
  1  'x, y, z'
loop_
 _atom_site_type_symbol
 _atom_site_label
 _atom_site_symmetry_multiplicity
 _atom_site_fract_x
 _atom_site_fract_y
 _atom_site_fract_z
 _atom_site_occupancy
  Dy  Dy0  1  0.655109  0.750000  0.700517  1
  Dy  Dy1  1  0.344891  0.250000  0.299483  1
  Dy  Dy2  1  0.155109  0.250000  0.799483  1
  Dy  Dy3  1  0.844891  0.750000  0.200517  1
  Dy  Dy4  1  0.120247  0.750000  0.815609  1
  Dy  Dy5  1  0.879753  0.250000  0.184391  1
  Dy  Dy6  1  0.620247  0.250000  0.684391  1
  Dy  Dy7  1  0.379753  0.750000  0.315609  1
  Dy  Dy8  1  0.555678  0.750000  0.994458  1
  Dy  Dy9  1  0.444322  0.250000  0.005542  1
  Dy  Dy10  1  0.055678  0.250000  0.505542  1
  Dy  Dy11  1  0.944322  0.750000  0.494458  1
  Er  Er12  1  0.828614  0.463876  0.936200  1
  Er  Er13  1  0.171386  0.536124  0.063800  1
  Er  Er14  1  0.328614  0.536124  0.563800  1
  Er  Er15  1  0.171386  0.963876  0.063800  1
  Er  Er16  1  0.671386  0.463876  0.436200  1
  Er  Er17  1  0.828614  0.036124  0.936200  1
  Er  Er18  1  0.671386  0.036124  0.436200  1
  Er  Er19  1  0.328614  0.963876  0.563800  1
  Fe  Fe20  1  0.930860  0.750000  0.992491  1
  Fe  Fe21  1  0.069140  0.250000  0.007509  1
  Fe  Fe22  1  0.430860  0.250000  0.507509  1
  Fe  Fe23  1  0.569140  0.750000  0.492491  1
  Bi  Bi24  1  0.934352  0.005602  0.673703  1
  Bi  Bi25  1  0.065648  0.994398  0.326297  1
  Bi  Bi26  1  0.434352  0.994398  0.826297  1
  Bi  Bi27  1  0.065648  0.505602  0.326297  1
  Bi  Bi28  1  0.565648  0.005602  0.173703  1
  Bi  Bi29  1  0.934352  0.494398  0.673703  1
  Bi  Bi30  1  0.565648  0.494398  0.173703  1
  Bi  Bi31  1  0.434352  0.505602  0.826297  1
