# generated using pymatgen
data_PrTm11(Si3Au)4
_symmetry_space_group_name_H-M   'P 1'
_cell_length_a   4.19067700
_cell_length_b   10.84697204
_cell_length_c   12.19751000
_cell_angle_alpha   90.00477510
_cell_angle_beta   90.00000000
_cell_angle_gamma   90.00000000
_symmetry_Int_Tables_number   1
_chemical_formula_structural   PrTm11(Si3Au)4
_chemical_formula_sum   'Pr1 Tm11 Si12 Au4'
_cell_volume   554.45191835
_cell_formula_units_Z   1
loop_
 _symmetry_equiv_pos_site_id
 _symmetry_equiv_pos_as_xyz
  1  'x, y, z'
loop_
 _atom_site_type_symbol
 _atom_site_label
 _atom_site_symmetry_multiplicity
 _atom_site_fract_x
 _atom_site_fract_y
 _atom_site_fract_z
 _atom_site_occupancy
  Pr  Pr0  1  0.750000  0.163504  0.695806  1
  Tm  Tm1  1  0.250000  0.874211  0.021795  1
  Tm  Tm2  1  0.250000  0.625153  0.520046  1
  Tm  Tm3  1  0.750000  0.124721  0.982107  1
  Tm  Tm4  1  0.750000  0.375951  0.477992  1
  Tm  Tm5  1  0.250000  0.921524  0.600621  1
  Tm  Tm6  1  0.250000  0.577173  0.101558  1
  Tm  Tm7  1  0.750000  0.075944  0.394545  1
  Tm  Tm8  1  0.750000  0.424735  0.901769  1
  Tm  Tm9  1  0.250000  0.664444  0.802908  1
  Tm  Tm10  1  0.250000  0.834947  0.302451  1
  Tm  Tm11  1  0.750000  0.337226  0.197157  1
  Si  Si12  1  0.250000  0.024159  0.830334  1
  Si  Si13  1  0.250000  0.473568  0.326177  1
  Si  Si14  1  0.750000  0.971852  0.173304  1
  Si  Si15  1  0.750000  0.527007  0.673544  1
  Si  Si16  1  0.250000  0.250373  0.851428  1
  Si  Si17  1  0.250000  0.252567  0.343854  1
  Si  Si18  1  0.750000  0.751057  0.152650  1
  Si  Si19  1  0.750000  0.748278  0.652467  1
  Si  Si20  1  0.250000  0.181718  0.527837  1
  Si  Si21  1  0.250000  0.317754  0.038380  1
  Si  Si22  1  0.750000  0.817513  0.463107  1
  Si  Si23  1  0.750000  0.683031  0.963775  1
  Au  Au24  1  0.250000  0.396493  0.683546  1
  Au  Au25  1  0.250000  0.108915  0.180795  1
  Au  Au26  1  0.750000  0.609906  0.318344  1
  Au  Au27  1  0.750000  0.886277  0.821704  1
