# generated using pymatgen
data_K2InCoF7
_symmetry_space_group_name_H-M   'P 1'
_cell_length_a   7.93559784
_cell_length_b   7.93559692
_cell_length_c   7.93559788
_cell_angle_alpha   121.06281252
_cell_angle_beta   117.40202601
_cell_angle_gamma   91.36326942
_symmetry_Int_Tables_number   1
_chemical_formula_structural   K2InCoF7
_chemical_formula_sum   'K4 In2 Co2 F14'
_cell_volume   356.91263955
_cell_formula_units_Z   2
loop_
 _symmetry_equiv_pos_site_id
 _symmetry_equiv_pos_as_xyz
  1  'x, y, z'
loop_
 _atom_site_type_symbol
 _atom_site_label
 _atom_site_symmetry_multiplicity
 _atom_site_fract_x
 _atom_site_fract_y
 _atom_site_fract_z
 _atom_site_occupancy
  K  K0  1  0.500000  0.500000  0.000000  1
  K  K1  1  0.000000  0.000000  0.000000  1
  K  K2  1  0.000000  0.500000  0.000000  1
  K  K3  1  0.000000  0.000000  0.500000  1
  In  In4  1  0.000000  0.500000  0.500000  1
  In  In5  1  0.500000  0.000000  0.500000  1
  Co  Co6  1  0.500000  0.500000  0.500000  1
  Co  Co7  1  0.500000  0.000000  0.000000  1
  F  F8  1  0.875265  0.594342  0.280923  1
  F  F9  1  0.186581  0.905658  0.280923  1
  F  F10  1  0.191392  0.818990  0.773074  1
  F  F11  1  0.454084  0.681010  0.372404  1
  F  F12  1  0.454084  0.081682  0.773074  1
  F  F13  1  0.191392  0.418318  0.372404  1
  F  F14  1  0.808608  0.581682  0.627596  1
  F  F15  1  0.545916  0.918318  0.226926  1
  F  F16  1  0.545916  0.318990  0.627596  1
  F  F17  1  0.808608  0.181010  0.226926  1
  F  F18  1  0.421859  0.250000  0.171859  1
  F  F19  1  0.124735  0.405658  0.719077  1
  F  F20  1  0.813419  0.094342  0.719077  1
  F  F21  1  0.578141  0.750000  0.828141  1
