# generated using pymatgen
data_Sc2Be2FeIr4Rh
_symmetry_space_group_name_H-M   'P 1'
_cell_length_a   9.43859336
_cell_length_b   9.45298236
_cell_length_c   3.11556400
_cell_angle_alpha   90.00000000
_cell_angle_beta   90.00000000
_cell_angle_gamma   90.08097173
_symmetry_Int_Tables_number   1
_chemical_formula_structural   Sc2Be2FeIr4Rh
_chemical_formula_sum   'Sc4 Be4 Fe2 Ir8 Rh2'
_cell_volume   277.97924210
_cell_formula_units_Z   2
loop_
 _symmetry_equiv_pos_site_id
 _symmetry_equiv_pos_as_xyz
  1  'x, y, z'
loop_
 _atom_site_type_symbol
 _atom_site_label
 _atom_site_symmetry_multiplicity
 _atom_site_fract_x
 _atom_site_fract_y
 _atom_site_fract_z
 _atom_site_occupancy
  Sc  Sc0  1  0.824745  0.323579  0.000000  1
  Sc  Sc1  1  0.324359  0.174930  0.000000  1
  Sc  Sc2  1  0.675641  0.825070  0.000000  1
  Sc  Sc3  1  0.175255  0.676421  0.000000  1
  Be  Be4  1  0.624002  0.124048  0.000000  1
  Be  Be5  1  0.123915  0.375890  0.000000  1
  Be  Be6  1  0.876085  0.624110  0.000000  1
  Be  Be7  1  0.375998  0.875952  0.000000  1
  Fe  Fe8  1  0.000000  0.000000  0.000000  1
  Fe  Fe9  1  0.500000  0.500000  0.000000  1
  Ir  Ir10  1  0.069165  0.208863  0.500000  1
  Ir  Ir11  1  0.208686  0.931304  0.500000  1
  Ir  Ir12  1  0.791314  0.068696  0.500000  1
  Ir  Ir13  1  0.930835  0.791137  0.500000  1
  Ir  Ir14  1  0.431106  0.707993  0.500000  1
  Ir  Ir15  1  0.568894  0.292007  0.500000  1
  Ir  Ir16  1  0.500000  0.000000  0.500000  1
  Ir  Ir17  1  0.000000  0.500000  0.500000  1
  Rh  Rh18  1  0.708616  0.569204  0.500000  1
  Rh  Rh19  1  0.291384  0.430796  0.500000  1
