# generated using pymatgen
data_Pr4Ga9Cu6Ge
_symmetry_space_group_name_H-M   'P 1'
_cell_length_a   6.01399585
_cell_length_b   8.45083018
_cell_length_c   8.45635651
_cell_angle_alpha   74.75350802
_cell_angle_beta   69.17037833
_cell_angle_gamma   69.15612194
_symmetry_Int_Tables_number   1
_chemical_formula_structural   Pr4Ga9Cu6Ge
_chemical_formula_sum   'Pr4 Ga9 Cu6 Ge1'
_cell_volume   370.79235012
_cell_formula_units_Z   1
loop_
 _symmetry_equiv_pos_site_id
 _symmetry_equiv_pos_as_xyz
  1  'x, y, z'
loop_
 _atom_site_type_symbol
 _atom_site_label
 _atom_site_symmetry_multiplicity
 _atom_site_fract_x
 _atom_site_fract_y
 _atom_site_fract_z
 _atom_site_occupancy
  Pr  Pr0  1  0.871178  0.867694  0.389948  1
  Pr  Pr1  1  0.127762  0.131650  0.612827  1
  Pr  Pr2  1  0.371424  0.388368  0.868781  1
  Pr  Pr3  1  0.629956  0.609915  0.130174  1
  Ga  Ga4  1  0.250031  0.501100  0.499279  1
  Ga  Ga5  1  0.749590  0.501100  0.499279  1
  Ga  Ga6  1  0.012557  0.234375  0.238823  1
  Ga  Ga7  1  0.484111  0.764256  0.763249  1
  Ga  Ga8  1  0.988384  0.764256  0.763249  1
  Ga  Ga9  1  0.514245  0.234375  0.238823  1
  Ga  Ga10  1  0.611372  0.036075  0.741179  1
  Ga  Ga11  1  0.390825  0.961682  0.256669  1
  Ga  Ga12  1  0.111332  0.739581  0.037752  1
  Cu  Cu13  1  0.246062  0.002115  0.999470  1
  Cu  Cu14  1  0.752353  0.002115  0.999470  1
  Cu  Cu15  1  0.630962  0.252244  0.485832  1
  Cu  Cu16  1  0.368671  0.748665  0.513991  1
  Cu  Cu17  1  0.132827  0.482617  0.251730  1
  Cu  Cu18  1  0.867941  0.516262  0.747855  1
  Ge  Ge19  1  0.888413  0.261556  0.961620  1
