# generated using pymatgen
data_YEr4Cd2(InPd)2
_symmetry_space_group_name_H-M   'P 1'
_cell_length_a   3.59654200
_cell_length_b   8.05850800
_cell_length_c   18.33171600
_cell_angle_alpha   90.00000000
_cell_angle_beta   90.00000000
_cell_angle_gamma   90.00000000
_symmetry_Int_Tables_number   1
_chemical_formula_structural   YEr4Cd2(InPd)2
_chemical_formula_sum   'Y2 Er8 Cd4 In4 Pd4'
_cell_volume   531.30377067
_cell_formula_units_Z   2
loop_
 _symmetry_equiv_pos_site_id
 _symmetry_equiv_pos_as_xyz
  1  'x, y, z'
loop_
 _atom_site_type_symbol
 _atom_site_label
 _atom_site_symmetry_multiplicity
 _atom_site_fract_x
 _atom_site_fract_y
 _atom_site_fract_z
 _atom_site_occupancy
  Y  Y0  1  0.000000  0.500000  0.500000  1
  Y  Y1  1  0.000000  0.000000  0.000000  1
  Er  Er2  1  0.000000  0.745335  0.280457  1
  Er  Er3  1  0.000000  0.254665  0.719543  1
  Er  Er4  1  0.000000  0.754665  0.780457  1
  Er  Er5  1  0.000000  0.245335  0.219543  1
  Er  Er6  1  0.000000  0.613832  0.084106  1
  Er  Er7  1  0.000000  0.386168  0.915894  1
  Er  Er8  1  0.000000  0.886168  0.584106  1
  Er  Er9  1  0.000000  0.113832  0.415894  1
  Cd  Cd10  1  0.500000  0.709360  0.931437  1
  Cd  Cd11  1  0.500000  0.290640  0.068563  1
  Cd  Cd12  1  0.500000  0.790640  0.431437  1
  Cd  Cd13  1  0.500000  0.209360  0.568563  1
  In  In14  1  0.500000  0.572582  0.647742  1
  In  In15  1  0.500000  0.427418  0.352258  1
  In  In16  1  0.500000  0.927418  0.147742  1
  In  In17  1  0.500000  0.072582  0.852258  1
  Pd  Pd18  1  0.500000  0.527302  0.196616  1
  Pd  Pd19  1  0.500000  0.472698  0.803384  1
  Pd  Pd20  1  0.500000  0.972698  0.696616  1
  Pd  Pd21  1  0.500000  0.027302  0.303384  1
