# generated using pymatgen
data_RbGeF5
_symmetry_space_group_name_H-M   'P 1'
_cell_length_a   6.13877800
_cell_length_b   5.52844182
_cell_length_c   15.40500710
_cell_angle_alpha   69.88667732
_cell_angle_beta   90.00000000
_cell_angle_gamma   90.00000000
_symmetry_Int_Tables_number   1
_chemical_formula_structural   RbGeF5
_chemical_formula_sum   'Rb4 Ge4 F20'
_cell_volume   490.92911418
_cell_formula_units_Z   4
loop_
 _symmetry_equiv_pos_site_id
 _symmetry_equiv_pos_as_xyz
  1  'x, y, z'
loop_
 _atom_site_type_symbol
 _atom_site_label
 _atom_site_symmetry_multiplicity
 _atom_site_fract_x
 _atom_site_fract_y
 _atom_site_fract_z
 _atom_site_occupancy
  Rb  Rb0  1  0.874250  0.648856  0.349495  1
  Rb  Rb1  1  0.374250  0.351144  0.150505  1
  Rb  Rb2  1  0.125750  0.351144  0.650505  1
  Rb  Rb3  1  0.625750  0.648856  0.849495  1
  Ge  Ge4  1  0.371280  0.023157  0.409366  1
  Ge  Ge5  1  0.871280  0.976843  0.090634  1
  Ge  Ge6  1  0.628720  0.976843  0.590634  1
  Ge  Ge7  1  0.128720  0.023157  0.909366  1
  F  F8  1  0.605617  0.823692  0.492375  1
  F  F9  1  0.105617  0.176308  0.007625  1
  F  F10  1  0.394383  0.176308  0.507625  1
  F  F11  1  0.894383  0.823692  0.992375  1
  F  F12  1  0.180951  0.795383  0.480348  1
  F  F13  1  0.680951  0.204617  0.019652  1
  F  F14  1  0.819049  0.204617  0.519652  1
  F  F15  1  0.319049  0.795383  0.980348  1
  F  F16  1  0.920166  0.241115  0.847180  1
  F  F17  1  0.420166  0.758885  0.652820  1
  F  F18  1  0.079834  0.758885  0.152820  1
  F  F19  1  0.579834  0.241115  0.347180  1
  F  F20  1  0.100359  0.842432  0.833214  1
  F  F21  1  0.600359  0.157568  0.666786  1
  F  F22  1  0.899641  0.157568  0.166786  1
  F  F23  1  0.399641  0.842432  0.333214  1
  F  F24  1  0.338565  0.239713  0.849806  1
  F  F25  1  0.838565  0.760287  0.650194  1
  F  F26  1  0.661435  0.760287  0.150194  1
  F  F27  1  0.161435  0.239713  0.349806  1
