# generated using pymatgen
data_La8Tb12Si15As
_symmetry_space_group_name_H-M   'P 1'
_cell_length_a   7.87500144
_cell_length_b   7.84368051
_cell_length_c   14.64864976
_cell_angle_alpha   90.21666070
_cell_angle_beta   89.35835086
_cell_angle_gamma   90.18311615
_symmetry_Int_Tables_number   1
_chemical_formula_structural   La8Tb12Si15As
_chemical_formula_sum   'La8 Tb12 Si15 As1'
_cell_volume   904.76467119
_cell_formula_units_Z   1
loop_
 _symmetry_equiv_pos_site_id
 _symmetry_equiv_pos_as_xyz
  1  'x, y, z'
loop_
 _atom_site_type_symbol
 _atom_site_label
 _atom_site_symmetry_multiplicity
 _atom_site_fract_x
 _atom_site_fract_y
 _atom_site_fract_z
 _atom_site_occupancy
  La  La0  1  0.991376  0.635746  0.044451  1
  La  La1  1  0.012306  0.364895  0.543622  1
  La  La2  1  0.637872  0.990364  0.956229  1
  La  La3  1  0.139977  0.510987  0.792398  1
  La  La4  1  0.856047  0.487158  0.290750  1
  La  La5  1  0.507973  0.136663  0.206014  1
  La  La6  1  0.495142  0.865015  0.708329  1
  La  La7  1  0.361234  0.006498  0.456467  1
  Tb  Tb8  1  0.359729  0.492805  0.378266  1
  Tb  Tb9  1  0.859997  0.011209  0.372725  1
  Tb  Tb10  1  0.988292  0.137464  0.124984  1
  Tb  Tb11  1  0.015875  0.861264  0.622330  1
  Tb  Tb12  1  0.637657  0.510229  0.875301  1
  Tb  Tb13  1  0.493603  0.359407  0.626329  1
  Tb  Tb14  1  0.509267  0.637039  0.124499  1
  Tb  Tb15  1  0.136103  0.990445  0.875125  1
  Tb  Tb16  1  0.677613  0.685931  0.501516  1
  Tb  Tb17  1  0.819004  0.185615  0.749371  1
  Tb  Tb18  1  0.182475  0.814901  0.247540  1
  Tb  Tb19  1  0.315747  0.314914  0.000658  1
  Si  Si20  1  0.931350  0.287350  0.938417  1
  Si  Si21  1  0.716347  0.068473  0.560580  1
  Si  Si22  1  0.211920  0.432481  0.189926  1
  Si  Si23  1  0.794138  0.568064  0.688324  1
  Si  Si24  1  0.432247  0.214137  0.812610  1
  Si  Si25  1  0.563649  0.787696  0.311878  1
  Si  Si26  1  0.287091  0.932339  0.060992  1
  Si  Si27  1  0.845882  0.797525  0.804869  1
  Si  Si28  1  0.156095  0.202256  0.307986  1
  Si  Si29  1  0.796082  0.843856  0.192101  1
  Si  Si30  1  0.315001  0.653268  0.568289  1
  Si  Si31  1  0.701798  0.343747  0.056583  1
  Si  Si32  1  0.656606  0.299095  0.443322  1
  Si  Si33  1  0.343516  0.703189  0.943644  1
  Si  Si34  1  0.201254  0.156164  0.692932  1
  As  As35  1  0.049735  0.711814  0.430640  1
