# generated using pymatgen
data_Dy5HoAl19Si5Ru8
_symmetry_space_group_name_H-M   'P 1'
_cell_length_a   8.69310800
_cell_length_b   8.67921231
_cell_length_c   9.59290900
_cell_angle_alpha   90.00000000
_cell_angle_beta   90.00000000
_cell_angle_gamma   120.05601713
_symmetry_Int_Tables_number   1
_chemical_formula_structural   Dy5HoAl19Si5Ru8
_chemical_formula_sum   'Dy5 Ho1 Al19 Si5 Ru8'
_cell_volume   626.45650413
_cell_formula_units_Z   1
loop_
 _symmetry_equiv_pos_site_id
 _symmetry_equiv_pos_as_xyz
  1  'x, y, z'
loop_
 _atom_site_type_symbol
 _atom_site_label
 _atom_site_symmetry_multiplicity
 _atom_site_fract_x
 _atom_site_fract_y
 _atom_site_fract_z
 _atom_site_occupancy
  Dy  Dy0  1  0.194149  0.388295  0.250000  1
  Dy  Dy1  1  0.806413  0.612670  0.750000  1
  Dy  Dy2  1  0.609385  0.807185  0.250000  1
  Dy  Dy3  1  0.388697  0.194364  0.750000  1
  Dy  Dy4  1  0.197844  0.807145  0.250000  1
  Ho  Ho5  1  0.805436  0.194766  0.750000  1
  Al  Al6  1  0.164730  0.329587  0.579008  1
  Al  Al7  1  0.834734  0.669488  0.420770  1
  Al  Al8  1  0.669862  0.835163  0.578191  1
  Al  Al9  1  0.834734  0.669488  0.079230  1
  Al  Al10  1  0.329601  0.165599  0.420885  1
  Al  Al11  1  0.164730  0.329587  0.920992  1
  Al  Al12  1  0.165255  0.835080  0.578160  1
  Al  Al13  1  0.329601  0.165599  0.079115  1
  Al  Al14  1  0.835976  0.165595  0.420946  1
  Al  Al15  1  0.669862  0.835163  0.921809  1
  Al  Al16  1  0.835976  0.165595  0.079054  1
  Al  Al17  1  0.165255  0.835080  0.921840  1
  Al  Al18  1  0.437372  0.874509  0.750000  1
  Al  Al19  1  0.872911  0.433731  0.250000  1
  Al  Al20  1  0.126938  0.563844  0.750000  1
  Al  Al21  1  0.560838  0.433742  0.250000  1
  Al  Al22  1  0.436908  0.564068  0.750000  1
  Al  Al23  1  0.999911  0.999813  0.250000  1
  Al  Al24  1  0.000236  0.000746  0.750000  1
  Si  Si25  1  0.332530  0.665024  0.036620  1
  Si  Si26  1  0.667519  0.334637  0.961167  1
  Si  Si27  1  0.667519  0.334637  0.538833  1
  Si  Si28  1  0.332530  0.665024  0.463380  1
  Si  Si29  1  0.563673  0.127310  0.250000  1
  Ru  Ru30  1  0.500966  0.001764  0.005815  1
  Ru  Ru31  1  0.998721  0.498735  0.000472  1
  Ru  Ru32  1  0.500966  0.001764  0.494185  1
  Ru  Ru33  1  0.500105  0.498864  0.000568  1
  Ru  Ru34  1  0.998721  0.498735  0.499528  1
  Ru  Ru35  1  0.500105  0.498864  0.499432  1
  Ru  Ru36  1  0.999646  0.999371  0.000084  1
  Ru  Ru37  1  0.999646  0.999371  0.499916  1
