# generated using pymatgen
data_Er8Zr9Sc3Sn16
_symmetry_space_group_name_H-M   'P 1'
_cell_length_a   7.73912174
_cell_length_b   7.86811939
_cell_length_c   14.75236600
_cell_angle_alpha   90.03380313
_cell_angle_beta   90.07559609
_cell_angle_gamma   89.99553522
_symmetry_Int_Tables_number   1
_chemical_formula_structural   Er8Zr9Sc3Sn16
_chemical_formula_sum   'Er8 Zr9 Sc3 Sn16'
_cell_volume   898.30505414
_cell_formula_units_Z   1
loop_
 _symmetry_equiv_pos_site_id
 _symmetry_equiv_pos_as_xyz
  1  'x, y, z'
loop_
 _atom_site_type_symbol
 _atom_site_label
 _atom_site_symmetry_multiplicity
 _atom_site_fract_x
 _atom_site_fract_y
 _atom_site_fract_z
 _atom_site_occupancy
  Er  Er0  1  0.990246  0.178793  0.093750  1
  Er  Er1  1  0.007981  0.820045  0.905858  1
  Er  Er2  1  0.507874  0.681144  0.906883  1
  Er  Er3  1  0.009472  0.822983  0.591623  1
  Er  Er4  1  0.491970  0.320031  0.094109  1
  Er  Er5  1  0.991183  0.177198  0.408133  1
  Er  Er6  1  0.490541  0.321790  0.408193  1
  Er  Er7  1  0.508975  0.677260  0.591460  1
  Zr  Zr8  1  0.164306  0.492706  0.748702  1
  Zr  Zr9  1  0.835678  0.509985  0.250258  1
  Zr  Zr10  1  0.338080  0.991785  0.250479  1
  Zr  Zr11  1  0.664236  0.009233  0.749562  1
  Zr  Zr12  1  0.341871  0.163809  0.629078  1
  Zr  Zr13  1  0.658127  0.837173  0.371434  1
  Zr  Zr14  1  0.157254  0.664096  0.371098  1
  Zr  Zr15  1  0.655579  0.840776  0.128603  1
  Zr  Zr16  1  0.842173  0.336144  0.629412  1
  Sc  Sc17  1  0.342123  0.157138  0.872749  1
  Sc  Sc18  1  0.844315  0.341777  0.872026  1
  Sc  Sc19  1  0.158530  0.656477  0.126855  1
  Sn  Sn20  1  0.035203  0.116707  0.750893  1
  Sn  Sn21  1  0.966402  0.883690  0.247972  1
  Sn  Sn22  1  0.464249  0.615079  0.250207  1
  Sn  Sn23  1  0.534301  0.383259  0.751571  1
  Sn  Sn24  1  0.311495  0.844699  0.748367  1
  Sn  Sn25  1  0.691106  0.156422  0.251632  1
  Sn  Sn26  1  0.188482  0.344057  0.251138  1
  Sn  Sn27  1  0.809915  0.656009  0.748223  1
  Sn  Sn28  1  0.185449  0.460643  0.541680  1
  Sn  Sn29  1  0.814173  0.538918  0.457993  1
  Sn  Sn30  1  0.314341  0.960376  0.458210  1
  Sn  Sn31  1  0.810845  0.542225  0.043084  1
  Sn  Sn32  1  0.685451  0.039704  0.542058  1
  Sn  Sn33  1  0.187154  0.457709  0.955492  1
  Sn  Sn34  1  0.688365  0.042058  0.956907  1
  Sn  Sn35  1  0.312556  0.958104  0.044308  1
