# generated using pymatgen
data_Sr5(PPd)6
_symmetry_space_group_name_H-M   'P 1'
_cell_length_a   4.20888900
_cell_length_b   8.74722600
_cell_length_c   19.37642100
_cell_angle_alpha   90.00000000
_cell_angle_beta   90.00000000
_cell_angle_gamma   90.00000000
_symmetry_Int_Tables_number   1
_chemical_formula_structural   Sr5(PPd)6
_chemical_formula_sum   'Sr10 P12 Pd12'
_cell_volume   713.36431696
_cell_formula_units_Z   2
loop_
 _symmetry_equiv_pos_site_id
 _symmetry_equiv_pos_as_xyz
  1  'x, y, z'
loop_
 _atom_site_type_symbol
 _atom_site_label
 _atom_site_symmetry_multiplicity
 _atom_site_fract_x
 _atom_site_fract_y
 _atom_site_fract_z
 _atom_site_occupancy
  Sr  Sr0  1  0.500000  0.993615  0.682818  1
  Sr  Sr1  1  0.000000  0.999806  0.129129  1
  Sr  Sr2  1  0.500000  0.493615  0.317182  1
  Sr  Sr3  1  0.500000  0.506385  0.682818  1
  Sr  Sr4  1  0.000000  0.000194  0.870871  1
  Sr  Sr5  1  0.500000  0.006385  0.317182  1
  Sr  Sr6  1  0.000000  0.000000  0.500000  1
  Sr  Sr7  1  0.000000  0.500194  0.129129  1
  Sr  Sr8  1  0.000000  0.499806  0.870871  1
  Sr  Sr9  1  0.000000  0.500000  0.500000  1
  P  P10  1  0.500000  0.750000  0.559523  1
  P  P11  1  0.000000  0.750000  0.256969  1
  P  P12  1  0.000000  0.250000  0.743031  1
  P  P13  1  0.500000  0.750000  0.072195  1
  P  P14  1  0.000000  0.250000  0.253893  1
  P  P15  1  0.500000  0.250000  0.927805  1
  P  P16  1  0.500000  0.250000  0.069301  1
  P  P17  1  0.500000  0.750000  0.930699  1
  P  P18  1  0.000000  0.750000  0.746107  1
  P  P19  1  0.000000  0.750000  0.373611  1
  P  P20  1  0.000000  0.250000  0.626389  1
  P  P21  1  0.500000  0.250000  0.440477  1
  Pd  Pd22  1  0.000000  0.750000  0.620806  1
  Pd  Pd23  1  0.500000  0.250000  0.192224  1
  Pd  Pd24  1  0.500000  0.250000  0.566304  1
  Pd  Pd25  1  0.000000  0.250000  0.379194  1
  Pd  Pd26  1  0.500000  0.250000  0.803146  1
  Pd  Pd27  1  0.000000  0.250000  0.998904  1
  Pd  Pd28  1  0.500000  0.750000  0.807776  1
  Pd  Pd29  1  0.500000  0.750000  0.196854  1
  Pd  Pd30  1  0.000000  0.750000  0.001096  1
  Pd  Pd31  1  0.500000  0.000000  0.000000  1
  Pd  Pd32  1  0.500000  0.500000  0.000000  1
  Pd  Pd33  1  0.500000  0.750000  0.433696  1
