# generated using pymatgen
data_Ba4Fe2PdO10
_symmetry_space_group_name_H-M   'P 1'
_cell_length_a   7.26735904
_cell_length_b   7.26735961
_cell_length_c   13.28387400
_cell_angle_alpha   90.00000000
_cell_angle_beta   90.00000000
_cell_angle_gamma   132.70603362
_symmetry_Int_Tables_number   1
_chemical_formula_structural   Ba4Fe2PdO10
_chemical_formula_sum   'Ba8 Fe4 Pd2 O20'
_cell_volume   515.55224332
_cell_formula_units_Z   2
loop_
 _symmetry_equiv_pos_site_id
 _symmetry_equiv_pos_as_xyz
  1  'x, y, z'
loop_
 _atom_site_type_symbol
 _atom_site_label
 _atom_site_symmetry_multiplicity
 _atom_site_fract_x
 _atom_site_fract_y
 _atom_site_fract_z
 _atom_site_occupancy
  Ba  Ba0  1  0.468838  0.531162  0.140445  1
  Ba  Ba1  1  0.239209  0.760791  0.888658  1
  Ba  Ba2  1  0.739209  0.260791  0.611342  1
  Ba  Ba3  1  0.031162  0.968838  0.640445  1
  Ba  Ba4  1  0.968838  0.031162  0.359555  1
  Ba  Ba5  1  0.260791  0.739209  0.388658  1
  Ba  Ba6  1  0.531162  0.468838  0.859555  1
  Ba  Ba7  1  0.760791  0.239209  0.111342  1
  Fe  Fe8  1  0.132046  0.867954  0.154044  1
  Fe  Fe9  1  0.367954  0.632046  0.654044  1
  Fe  Fe10  1  0.867954  0.132046  0.845956  1
  Fe  Fe11  1  0.632046  0.367954  0.345956  1
  Pd  Pd12  1  0.000000  0.000000  0.000000  1
  Pd  Pd13  1  0.500000  0.500000  0.500000  1
  O  O14  1  0.529061  0.470939  0.650250  1
  O  O15  1  0.729246  0.270754  0.846901  1
  O  O16  1  0.381888  0.163206  0.463186  1
  O  O17  1  0.881888  0.663206  0.036814  1
  O  O18  1  0.626123  0.873877  0.750000  1
  O  O19  1  0.126123  0.373877  0.750000  1
  O  O20  1  0.270754  0.729246  0.153099  1
  O  O21  1  0.029061  0.970939  0.849750  1
  O  O22  1  0.373877  0.126123  0.250000  1
  O  O23  1  0.836794  0.618112  0.463186  1
  O  O24  1  0.770754  0.229246  0.346901  1
  O  O25  1  0.470939  0.529061  0.349750  1
  O  O26  1  0.873877  0.626123  0.250000  1
  O  O27  1  0.118112  0.336794  0.963186  1
  O  O28  1  0.618112  0.836794  0.536814  1
  O  O29  1  0.229246  0.770754  0.653099  1
  O  O30  1  0.663206  0.881888  0.963186  1
  O  O31  1  0.163206  0.381888  0.536814  1
  O  O32  1  0.970939  0.029061  0.150250  1
  O  O33  1  0.336794  0.118112  0.036814  1
