# generated using pymatgen
data_Ho3Er2In2Bi
_symmetry_space_group_name_H-M   'P 1'
_cell_length_a   9.00258969
_cell_length_b   8.99586868
_cell_length_c   6.56952100
_cell_angle_alpha   90.00000000
_cell_angle_beta   90.00000000
_cell_angle_gamma   119.97530514
_symmetry_Int_Tables_number   1
_chemical_formula_structural   Ho3Er2In2Bi
_chemical_formula_sum   'Ho6 Er4 In4 Bi2'
_cell_volume   460.87475280
_cell_formula_units_Z   2
loop_
 _symmetry_equiv_pos_site_id
 _symmetry_equiv_pos_as_xyz
  1  'x, y, z'
loop_
 _atom_site_type_symbol
 _atom_site_label
 _atom_site_symmetry_multiplicity
 _atom_site_fract_x
 _atom_site_fract_y
 _atom_site_fract_z
 _atom_site_occupancy
  Ho  Ho0  1  0.769831  0.760987  0.750000  1
  Ho  Ho1  1  0.230169  0.991156  0.750000  1
  Ho  Ho2  1  0.000000  0.241570  0.750000  1
  Ho  Ho3  1  0.237008  0.237480  0.250000  1
  Ho  Ho4  1  0.762992  0.000472  0.250000  1
  Ho  Ho5  1  0.000000  0.761528  0.250000  1
  Er  Er6  1  0.670763  0.338094  0.006639  1
  Er  Er7  1  0.329237  0.667332  0.006639  1
  Er  Er8  1  0.329237  0.667332  0.493361  1
  Er  Er9  1  0.670763  0.338094  0.493361  1
  In  In10  1  0.000000  0.597483  0.750000  1
  In  In11  1  0.604604  0.606581  0.250000  1
  In  In12  1  0.395396  0.001977  0.250000  1
  In  In13  1  0.000000  0.396135  0.250000  1
  Bi  Bi14  1  0.395290  0.394534  0.750000  1
  Bi  Bi15  1  0.604710  0.999244  0.750000  1
