# generated using pymatgen
data_Tb3Dy7(IrRu)3
_symmetry_space_group_name_H-M   'P 1'
_cell_length_a   10.85903895
_cell_length_b   10.85471700
_cell_length_c   6.41109113
_cell_angle_alpha   90.00000000
_cell_angle_beta   89.94613646
_cell_angle_gamma   90.00000000
_symmetry_Int_Tables_number   1
_chemical_formula_structural   Tb3Dy7(IrRu)3
_chemical_formula_sum   'Tb6 Dy14 Ir6 Ru6'
_cell_volume   755.68648397
_cell_formula_units_Z   2
loop_
 _symmetry_equiv_pos_site_id
 _symmetry_equiv_pos_as_xyz
  1  'x, y, z'
loop_
 _atom_site_type_symbol
 _atom_site_label
 _atom_site_symmetry_multiplicity
 _atom_site_fract_x
 _atom_site_fract_y
 _atom_site_fract_z
 _atom_site_occupancy
  Tb  Tb0  1  0.292546  0.086638  0.379277  1
  Tb  Tb1  1  0.292546  0.913362  0.879277  1
  Tb  Tb2  1  0.708196  0.086980  0.878637  1
  Tb  Tb3  1  0.708196  0.913020  0.378637  1
  Tb  Tb4  1  0.587849  0.793014  0.879456  1
  Tb  Tb5  1  0.587849  0.206986  0.379456  1
  Dy  Dy6  1  0.413128  0.793320  0.378949  1
  Dy  Dy7  1  0.413128  0.206680  0.878949  1
  Dy  Dy8  1  0.206058  0.413362  0.620518  1
  Dy  Dy9  1  0.206058  0.586638  0.120518  1
  Dy  Dy10  1  0.793777  0.412599  0.120840  1
  Dy  Dy11  1  0.793777  0.587401  0.620840  1
  Dy  Dy12  1  0.913371  0.706922  0.120363  1
  Dy  Dy13  1  0.913371  0.293078  0.620363  1
  Dy  Dy14  1  0.086177  0.707432  0.621298  1
  Dy  Dy15  1  0.086177  0.292568  0.121298  1
  Dy  Dy16  1  0.998539  0.000707  0.499864  1
  Dy  Dy17  1  0.998539  0.999293  0.999864  1
  Dy  Dy18  1  0.499849  0.500240  0.000253  1
  Dy  Dy19  1  0.499849  0.499760  0.500253  1
  Ir  Ir20  1  0.153386  0.153814  0.750754  1
  Ir  Ir21  1  0.153386  0.846186  0.250754  1
  Ir  Ir22  1  0.652274  0.348763  0.750183  1
  Ir  Ir23  1  0.652274  0.651237  0.250183  1
  Ir  Ir24  1  0.347375  0.347492  0.249997  1
  Ir  Ir25  1  0.347375  0.652508  0.749997  1
  Ru  Ru26  1  0.847961  0.152910  0.249789  1
  Ru  Ru27  1  0.847961  0.847090  0.749789  1
  Ru  Ru28  1  0.499913  0.000232  0.123851  1
  Ru  Ru29  1  0.499913  0.999768  0.623851  1
  Ru  Ru30  1  0.999598  0.500355  0.875969  1
  Ru  Ru31  1  0.999598  0.499645  0.375969  1
