# generated using pymatgen
data_Ho2Lu(SnPd)3
_symmetry_space_group_name_H-M   'P 1'
_cell_length_a   7.65822748
_cell_length_b   7.68118172
_cell_length_c   3.82872300
_cell_angle_alpha   90.00000000
_cell_angle_beta   90.00000000
_cell_angle_gamma   120.09919114
_symmetry_Int_Tables_number   1
_chemical_formula_structural   Ho2Lu(SnPd)3
_chemical_formula_sum   'Ho2 Lu1 Sn3 Pd3'
_cell_volume   194.85247593
_cell_formula_units_Z   1
loop_
 _symmetry_equiv_pos_site_id
 _symmetry_equiv_pos_as_xyz
  1  'x, y, z'
loop_
 _atom_site_type_symbol
 _atom_site_label
 _atom_site_symmetry_multiplicity
 _atom_site_fract_x
 _atom_site_fract_y
 _atom_site_fract_z
 _atom_site_occupancy
  Ho  Ho0  1  0.400537  0.400599  0.500000  1
  Ho  Ho1  1  0.599463  0.000062  0.500000  1
  Lu  Lu2  1  0.000000  0.599876  0.500000  1
  Sn  Sn3  1  0.736603  0.735155  0.000000  1
  Sn  Sn4  1  0.263397  0.998552  0.000000  1
  Sn  Sn5  1  0.000000  0.265489  0.000000  1
  Pd  Pd6  1  0.669188  0.335365  0.000000  1
  Pd  Pd7  1  0.330812  0.666178  0.000000  1
  Pd  Pd8  1  0.000000  0.998726  0.500000  1
