# generated using pymatgen
data_EuAl2GePt
_symmetry_space_group_name_H-M   'P 1'
_cell_length_a   6.25987942
_cell_length_b   6.25987919
_cell_length_c   6.25987995
_cell_angle_alpha   140.30359260
_cell_angle_beta   140.30358690
_cell_angle_gamma   57.39262951
_symmetry_Int_Tables_number   1
_chemical_formula_structural   EuAl2GePt
_chemical_formula_sum   'Eu1 Al2 Ge1 Pt1'
_cell_volume   99.22016513
_cell_formula_units_Z   1
loop_
 _symmetry_equiv_pos_site_id
 _symmetry_equiv_pos_as_xyz
  1  'x, y, z'
loop_
 _atom_site_type_symbol
 _atom_site_label
 _atom_site_symmetry_multiplicity
 _atom_site_fract_x
 _atom_site_fract_y
 _atom_site_fract_z
 _atom_site_occupancy
  Eu  Eu0  1  0.995900  0.995900  0.000000  1
  Al  Al1  1  0.258101  0.758101  0.500000  1
  Al  Al2  1  0.758101  0.258101  0.500000  1
  Ge  Ge3  1  0.412166  0.412166  0.000000  1
  Pt  Pt4  1  0.641501  0.641501  0.000000  1
