# generated using pymatgen
data_Zn2Mo12PtRh5N4
_symmetry_space_group_name_H-M   'P 1'
_cell_length_a   6.83675700
_cell_length_b   6.84529379
_cell_length_c   6.83832649
_cell_angle_alpha   89.35769669
_cell_angle_beta   89.95886188
_cell_angle_gamma   90.04575457
_symmetry_Int_Tables_number   1
_chemical_formula_structural   Zn2Mo12PtRh5N4
_chemical_formula_sum   'Zn2 Mo12 Pt1 Rh5 N4'
_cell_volume   320.01071868
_cell_formula_units_Z   1
loop_
 _symmetry_equiv_pos_site_id
 _symmetry_equiv_pos_as_xyz
  1  'x, y, z'
loop_
 _atom_site_type_symbol
 _atom_site_label
 _atom_site_symmetry_multiplicity
 _atom_site_fract_x
 _atom_site_fract_y
 _atom_site_fract_z
 _atom_site_occupancy
  Zn  Zn0  1  0.686814  0.182936  0.935402  1
  Zn  Zn1  1  0.187014  0.817232  0.064758  1
  Mo  Mo2  1  0.622327  0.048007  0.547718  1
  Mo  Mo3  1  0.124554  0.954599  0.451155  1
  Mo  Mo4  1  0.873094  0.546540  0.950657  1
  Mo  Mo5  1  0.372541  0.452631  0.051783  1
  Mo  Mo6  1  0.201102  0.624914  0.699625  1
  Mo  Mo7  1  0.300163  0.121824  0.791057  1
  Mo  Mo8  1  0.799247  0.880541  0.206077  1
  Mo  Mo9  1  0.699036  0.374407  0.301287  1
  Mo  Mo10  1  0.048751  0.207568  0.129883  1
  Mo  Mo11  1  0.957827  0.303596  0.624609  1
  Mo  Mo12  1  0.548859  0.792172  0.870382  1
  Mo  Mo13  1  0.454001  0.694568  0.374218  1
  Pt  Pt14  1  0.811366  0.690518  0.564722  1
  Rh  Rh15  1  0.311073  0.309005  0.435312  1
  Rh  Rh16  1  0.062426  0.565408  0.303898  1
  Rh  Rh17  1  0.437900  0.060996  0.180426  1
  Rh  Rh18  1  0.558408  0.431592  0.695306  1
  Rh  Rh19  1  0.938938  0.941043  0.821543  1
  N  N20  1  0.375827  0.873100  0.621050  1
  N  N21  1  0.876179  0.127020  0.379097  1
  N  N22  1  0.126343  0.374964  0.872929  1
  N  N23  1  0.626212  0.624819  0.127105  1
