# generated using pymatgen
data_Yb4NiH12Pt
_symmetry_space_group_name_H-M   'P 1'
_cell_length_a   6.91370384
_cell_length_b   6.91370503
_cell_length_c   5.10330338
_cell_angle_alpha   89.89948157
_cell_angle_beta   89.89947490
_cell_angle_gamma   136.78775231
_symmetry_Int_Tables_number   1
_chemical_formula_structural   Yb4NiH12Pt
_chemical_formula_sum   'Yb4 Ni1 H12 Pt1'
_cell_volume   167.02068219
_cell_formula_units_Z   1
loop_
 _symmetry_equiv_pos_site_id
 _symmetry_equiv_pos_as_xyz
  1  'x, y, z'
loop_
 _atom_site_type_symbol
 _atom_site_label
 _atom_site_symmetry_multiplicity
 _atom_site_fract_x
 _atom_site_fract_y
 _atom_site_fract_z
 _atom_site_occupancy
  Yb  Yb0  1  0.648410  0.351590  0.000000  1
  Yb  Yb1  1  0.351590  0.648410  0.000000  1
  Yb  Yb2  1  0.852607  0.147393  0.500000  1
  Yb  Yb3  1  0.147393  0.852607  0.500000  1
  Ni  Ni4  1  0.000000  0.000000  0.000000  1
  H  H5  1  0.878786  0.121214  0.000000  1
  H  H6  1  0.121214  0.878786  0.000000  1
  H  H7  1  0.630364  0.369636  0.500000  1
  H  H8  1  0.369636  0.630364  0.500000  1
  H  H9  1  0.999798  0.500768  0.251382  1
  H  H10  1  0.000202  0.499232  0.748618  1
  H  H11  1  0.499232  0.000202  0.748618  1
  H  H12  1  0.500768  0.999798  0.251382  1
  H  H13  1  0.232085  0.232085  0.235171  1
  H  H14  1  0.767915  0.767915  0.764829  1
  H  H15  1  0.252518  0.252518  0.750224  1
  H  H16  1  0.747482  0.747482  0.249776  1
  Pt  Pt17  1  0.500000  0.500000  0.500000  1
