# generated using pymatgen
data_Dy2Ge2BOs2
_symmetry_space_group_name_H-M   'P 1'
_cell_length_a   5.91676406
_cell_length_b   5.91676437
_cell_length_c   6.96318000
_cell_angle_alpha   125.47758694
_cell_angle_beta   125.47758906
_cell_angle_gamma   41.91111289
_symmetry_Int_Tables_number   1
_chemical_formula_structural   Dy2Ge2BOs2
_chemical_formula_sum   'Dy2 Ge2 B1 Os2'
_cell_volume   127.56541747
_cell_formula_units_Z   1
loop_
 _symmetry_equiv_pos_site_id
 _symmetry_equiv_pos_as_xyz
  1  'x, y, z'
loop_
 _atom_site_type_symbol
 _atom_site_label
 _atom_site_symmetry_multiplicity
 _atom_site_fract_x
 _atom_site_fract_y
 _atom_site_fract_z
 _atom_site_occupancy
  Dy  Dy0  1  0.435730  0.435730  0.166194  1
  Dy  Dy1  1  0.564270  0.564270  0.833806  1
  Ge  Ge2  1  0.845646  0.845646  0.388603  1
  Ge  Ge3  1  0.154354  0.154354  0.611397  1
  B  B4  1  0.000000  0.000000  0.000000  1
  Os  Os5  1  0.209790  0.209790  0.313548  1
  Os  Os6  1  0.790209  0.790209  0.686452  1
