# generated using pymatgen
data_Nd6MgZn22P
_symmetry_space_group_name_H-M   'P 1'
_cell_length_a   9.28242537
_cell_length_b   9.28242637
_cell_length_c   9.28107000
_cell_angle_alpha   60.00483358
_cell_angle_beta   60.00483000
_cell_angle_gamma   59.97489652
_symmetry_Int_Tables_number   1
_chemical_formula_structural   Nd6MgZn22P
_chemical_formula_sum   'Nd6 Mg1 Zn22 P1'
_cell_volume   565.39930374
_cell_formula_units_Z   1
loop_
 _symmetry_equiv_pos_site_id
 _symmetry_equiv_pos_as_xyz
  1  'x, y, z'
loop_
 _atom_site_type_symbol
 _atom_site_label
 _atom_site_symmetry_multiplicity
 _atom_site_fract_x
 _atom_site_fract_y
 _atom_site_fract_z
 _atom_site_occupancy
  Nd  Nd0  1  0.784071  0.215929  0.784054  1
  Nd  Nd1  1  0.215929  0.784071  0.784054  1
  Nd  Nd2  1  0.784534  0.784534  0.215399  1
  Nd  Nd3  1  0.215829  0.784171  0.215722  1
  Nd  Nd4  1  0.784171  0.215829  0.215722  1
  Nd  Nd5  1  0.215466  0.215466  0.784468  1
  Mg  Mg6  1  0.500000  0.500000  0.500478  1
  Zn  Zn7  1  0.827337  0.827337  0.518522  1
  Zn  Zn8  1  0.826746  0.519084  0.827175  1
  Zn  Zn9  1  0.519084  0.826746  0.827175  1
  Zn  Zn10  1  0.827065  0.827065  0.826725  1
  Zn  Zn11  1  0.172935  0.172935  0.480856  1
  Zn  Zn12  1  0.173254  0.480916  0.173006  1
  Zn  Zn13  1  0.480916  0.173254  0.173006  1
  Zn  Zn14  1  0.172663  0.172663  0.173196  1
  Zn  Zn15  1  0.629403  0.629403  0.112660  1
  Zn  Zn16  1  0.628812  0.112342  0.629342  1
  Zn  Zn17  1  0.112342  0.628812  0.629342  1
  Zn  Zn18  1  0.629692  0.629692  0.628671  1
  Zn  Zn19  1  0.370308  0.370308  0.888054  1
  Zn  Zn20  1  0.371188  0.887658  0.370497  1
  Zn  Zn21  1  0.887658  0.371188  0.370497  1
  Zn  Zn22  1  0.370597  0.370597  0.371467  1
  Zn  Zn23  1  0.000000  0.000000  0.500040  1
  Zn  Zn24  1  0.500027  0.999930  0.500045  1
  Zn  Zn25  1  0.999930  0.500027  0.500045  1
  Zn  Zn26  1  0.500000  0.500000  0.999962  1
  Zn  Zn27  1  0.000070  0.499973  0.000002  1
  Zn  Zn28  1  0.499973  0.000070  0.000002  1
  P  P29  1  0.000000  0.000000  0.999809  1
