# generated using pymatgen
data_Ho3Mg2CdSi2Au
_symmetry_space_group_name_H-M   'P 1'
_cell_length_a   7.16973172
_cell_length_b   7.16973228
_cell_length_c   4.32962100
_cell_angle_alpha   90.00000000
_cell_angle_beta   90.00000000
_cell_angle_gamma   119.41407424
_symmetry_Int_Tables_number   1
_chemical_formula_structural   Ho3Mg2CdSi2Au
_chemical_formula_sum   'Ho3 Mg2 Cd1 Si2 Au1'
_cell_volume   193.87434737
_cell_formula_units_Z   1
loop_
 _symmetry_equiv_pos_site_id
 _symmetry_equiv_pos_as_xyz
  1  'x, y, z'
loop_
 _atom_site_type_symbol
 _atom_site_label
 _atom_site_symmetry_multiplicity
 _atom_site_fract_x
 _atom_site_fract_y
 _atom_site_fract_z
 _atom_site_occupancy
  Ho  Ho0  1  0.581275  0.998209  0.000000  1
  Ho  Ho1  1  0.998209  0.581275  0.000000  1
  Ho  Ho2  1  0.421504  0.421504  0.000000  1
  Mg  Mg3  1  0.243810  0.999005  0.500000  1
  Mg  Mg4  1  0.999005  0.243810  0.500000  1
  Cd  Cd5  1  0.747674  0.747674  0.500000  1
  Si  Si6  1  0.328602  0.665865  0.500000  1
  Si  Si7  1  0.665865  0.328602  0.500000  1
  Au  Au8  1  0.014056  0.014056  0.000000  1
