# generated using pymatgen
data_YEr2Th(Al3Rh)6
_symmetry_space_group_name_H-M   'P 1'
_cell_length_a   7.57375524
_cell_length_b   7.58834133
_cell_length_c   9.47402900
_cell_angle_alpha   90.00000000
_cell_angle_beta   90.00000000
_cell_angle_gamma   119.36447439
_symmetry_Int_Tables_number   1
_chemical_formula_structural   YEr2Th(Al3Rh)6
_chemical_formula_sum   'Y1 Er2 Th1 Al18 Rh6'
_cell_volume   474.53604467
_cell_formula_units_Z   1
loop_
 _symmetry_equiv_pos_site_id
 _symmetry_equiv_pos_as_xyz
  1  'x, y, z'
loop_
 _atom_site_type_symbol
 _atom_site_label
 _atom_site_symmetry_multiplicity
 _atom_site_fract_x
 _atom_site_fract_y
 _atom_site_fract_z
 _atom_site_occupancy
  Y  Y0  1  0.672009  0.994459  0.750000  1
  Er  Er1  1  0.004352  0.327806  0.250000  1
  Er  Er2  1  0.327638  0.005172  0.250000  1
  Th  Th3  1  0.994603  0.671299  0.750000  1
  Al  Al4  1  0.131211  0.132606  0.750000  1
  Al  Al5  1  0.872378  0.874722  0.250000  1
  Al  Al6  1  0.001506  0.331185  0.571935  1
  Al  Al7  1  0.999514  0.664026  0.417220  1
  Al  Al8  1  0.999514  0.664026  0.082780  1
  Al  Al9  1  0.340098  0.005325  0.927891  1
  Al  Al10  1  0.001506  0.331185  0.928065  1
  Al  Al11  1  0.664419  0.000961  0.077218  1
  Al  Al12  1  0.664419  0.000961  0.422782  1
  Al  Al13  1  0.340098  0.005325  0.572109  1
  Al  Al14  1  0.331929  0.332075  0.055068  1
  Al  Al15  1  0.663255  0.666528  0.956604  1
  Al  Al16  1  0.663255  0.666528  0.543396  1
  Al  Al17  1  0.331929  0.332075  0.444932  1
  Al  Al18  1  0.343967  0.548766  0.750000  1
  Al  Al19  1  0.657980  0.447393  0.250000  1
  Al  Al20  1  0.545298  0.336675  0.750000  1
  Al  Al21  1  0.448279  0.660764  0.250000  1
  Rh  Rh22  1  0.673323  0.329265  0.499772  1
  Rh  Rh23  1  0.326380  0.671809  0.500016  1
  Rh  Rh24  1  0.326380  0.671809  0.999984  1
  Rh  Rh25  1  0.673323  0.329265  0.000228  1
  Rh  Rh26  1  0.000719  0.998995  0.499797  1
  Rh  Rh27  1  0.000719  0.998995  0.000203  1
