# generated using pymatgen
data_LiLa10Nd6Cd3Co3Ni
_symmetry_space_group_name_H-M   'P 1'
_cell_length_a   9.94516280
_cell_length_b   9.99297212
_cell_length_c   9.99297100
_cell_angle_alpha   60.00000041
_cell_angle_beta   59.84084858
_cell_angle_gamma   59.84085131
_symmetry_Int_Tables_number   1
_chemical_formula_structural   LiLa10Nd6Cd3Co3Ni
_chemical_formula_sum   'Li1 La10 Nd6 Cd3 Co3 Ni1'
_cell_volume   700.54701346
_cell_formula_units_Z   1
loop_
 _symmetry_equiv_pos_site_id
 _symmetry_equiv_pos_as_xyz
  1  'x, y, z'
loop_
 _atom_site_type_symbol
 _atom_site_label
 _atom_site_symmetry_multiplicity
 _atom_site_fract_x
 _atom_site_fract_y
 _atom_site_fract_z
 _atom_site_occupancy
  Li  Li0  1  0.821905  0.821939  0.821939  1
  La  La1  1  0.593939  0.597849  0.597849  1
  La  La2  1  0.593123  0.596173  0.214227  1
  La  La3  1  0.593123  0.214227  0.596173  1
  La  La4  1  0.219717  0.593341  0.593341  1
  La  La5  1  0.063361  0.441857  0.441857  1
  La  La6  1  0.436432  0.062934  0.062934  1
  La  La7  1  0.439544  0.059913  0.441624  1
  La  La8  1  0.066042  0.438222  0.057079  1
  La  La9  1  0.439544  0.441624  0.059913  1
  La  La10  1  0.066042  0.057079  0.438222  1
  Nd  Nd11  1  0.182105  0.815086  0.815086  1
  Nd  Nd12  1  0.810280  0.186959  0.186959  1
  Nd  Nd13  1  0.810571  0.187079  0.815228  1
  Nd  Nd14  1  0.183603  0.814979  0.186231  1
  Nd  Nd15  1  0.810571  0.815228  0.187079  1
  Nd  Nd16  1  0.183603  0.186231  0.814979  1
  Cd  Cd17  1  0.830911  0.831222  0.509269  1
  Cd  Cd18  1  0.830911  0.509269  0.831222  1
  Cd  Cd19  1  0.507572  0.831551  0.831551  1
  Co  Co20  1  0.396493  0.389727  0.389727  1
  Co  Co21  1  0.395790  0.388368  0.827906  1
  Co  Co22  1  0.395790  0.827906  0.388368  1
  Ni  Ni23  1  0.829027  0.391237  0.391237  1
