# generated using pymatgen
data_Ba4Fe2ReSbO12
_symmetry_space_group_name_H-M   'P 1'
_cell_length_a   10.06885939
_cell_length_b   10.06885991
_cell_length_c   10.06886029
_cell_angle_alpha   34.00432627
_cell_angle_beta   34.00431851
_cell_angle_gamma   34.00432357
_symmetry_Int_Tables_number   1
_chemical_formula_structural   Ba4Fe2ReSbO12
_chemical_formula_sum   'Ba4 Fe2 Re1 Sb1 O12'
_cell_volume   284.59381956
_cell_formula_units_Z   1
loop_
 _symmetry_equiv_pos_site_id
 _symmetry_equiv_pos_as_xyz
  1  'x, y, z'
loop_
 _atom_site_type_symbol
 _atom_site_label
 _atom_site_symmetry_multiplicity
 _atom_site_fract_x
 _atom_site_fract_y
 _atom_site_fract_z
 _atom_site_occupancy
  Ba  Ba0  1  0.622617  0.622617  0.622617  1
  Ba  Ba1  1  0.128225  0.128225  0.128225  1
  Ba  Ba2  1  0.871775  0.871775  0.871775  1
  Ba  Ba3  1  0.377383  0.377383  0.377383  1
  Fe  Fe4  1  0.247908  0.247908  0.247908  1
  Fe  Fe5  1  0.752092  0.752092  0.752092  1
  Re  Re6  1  0.000000  0.000000  0.000000  1
  Sb  Sb7  1  0.500000  0.500000  0.500000  1
  O  O8  1  0.115643  0.115643  0.653367  1
  O  O9  1  0.618092  0.618092  0.138492  1
  O  O10  1  0.381908  0.861508  0.381908  1
  O  O11  1  0.884357  0.346633  0.884357  1
  O  O12  1  0.653367  0.115643  0.115643  1
  O  O13  1  0.138492  0.618092  0.618092  1
  O  O14  1  0.381908  0.381908  0.861508  1
  O  O15  1  0.884357  0.884357  0.346633  1
  O  O16  1  0.115643  0.653367  0.115643  1
  O  O17  1  0.618092  0.138492  0.618092  1
  O  O18  1  0.861508  0.381908  0.381908  1
  O  O19  1  0.346633  0.884357  0.884357  1
