# generated using pymatgen
data_CeZnCu3Pd
_symmetry_space_group_name_H-M   'P 1'
_cell_length_a   5.09877507
_cell_length_b   5.09877559
_cell_length_c   5.09877437
_cell_angle_alpha   59.65696392
_cell_angle_beta   59.65696643
_cell_angle_gamma   59.65696221
_symmetry_Int_Tables_number   1
_chemical_formula_structural   CeZnCu3Pd
_chemical_formula_sum   'Ce1 Zn1 Cu3 Pd1'
_cell_volume   93.00030227
_cell_formula_units_Z   1
loop_
 _symmetry_equiv_pos_site_id
 _symmetry_equiv_pos_as_xyz
  1  'x, y, z'
loop_
 _atom_site_type_symbol
 _atom_site_label
 _atom_site_symmetry_multiplicity
 _atom_site_fract_x
 _atom_site_fract_y
 _atom_site_fract_z
 _atom_site_occupancy
  Ce  Ce0  1  0.248075  0.248075  0.248075  1
  Zn  Zn1  1  0.629352  0.629352  0.629352  1
  Cu  Cu2  1  0.626402  0.626402  0.122071  1
  Cu  Cu3  1  0.626402  0.122071  0.626402  1
  Cu  Cu4  1  0.122071  0.626402  0.626402  1
  Pd  Pd5  1  0.997699  0.997699  0.997699  1
