# generated using pymatgen
data_La4Al24Pt7Au2
_symmetry_space_group_name_H-M   'P 1'
_cell_length_a   7.65017591
_cell_length_b   7.66461489
_cell_length_c   13.42253559
_cell_angle_alpha   84.58858589
_cell_angle_beta   79.16044972
_cell_angle_gamma   59.89084641
_symmetry_Int_Tables_number   1
_chemical_formula_structural   La4Al24Pt7Au2
_chemical_formula_sum   'La4 Al24 Pt7 Au2'
_cell_volume   668.69709202
_cell_formula_units_Z   1
loop_
 _symmetry_equiv_pos_site_id
 _symmetry_equiv_pos_as_xyz
  1  'x, y, z'
loop_
 _atom_site_type_symbol
 _atom_site_label
 _atom_site_symmetry_multiplicity
 _atom_site_fract_x
 _atom_site_fract_y
 _atom_site_fract_z
 _atom_site_occupancy
  La  La0  1  0.393032  0.169008  0.809186  1
  La  La1  1  0.606968  0.830992  0.190814  1
  La  La2  1  0.734229  0.498086  0.810004  1
  La  La3  1  0.265771  0.501914  0.189996  1
  Al  Al4  1  0.686349  0.834361  0.947236  1
  Al  Al5  1  0.313651  0.165639  0.052764  1
  Al  Al6  1  0.145870  0.839713  0.560035  1
  Al  Al7  1  0.854130  0.160287  0.439965  1
  Al  Al8  1  0.489142  0.159413  0.557875  1
  Al  Al9  1  0.510858  0.840587  0.442125  1
  Al  Al10  1  0.219677  0.160046  0.331600  1
  Al  Al11  1  0.780323  0.839954  0.668400  1
  Al  Al12  1  0.439956  0.508294  0.668567  1
  Al  Al13  1  0.560044  0.491706  0.331433  1
  Al  Al14  1  0.110072  0.151939  0.668067  1
  Al  Al15  1  0.889928  0.848061  0.331933  1
  Al  Al16  1  0.349200  0.502567  0.947075  1
  Al  Al17  1  0.650800  0.497433  0.052925  1
  Al  Al18  1  0.014655  0.164722  0.957466  1
  Al  Al19  1  0.985345  0.835278  0.042534  1
  Al  Al20  1  0.195372  0.500384  0.438869  1
  Al  Al21  1  0.804628  0.499616  0.561131  1
  Al  Al22  1  0.736526  0.163734  0.183899  1
  Al  Al23  1  0.263474  0.836266  0.816101  1
  Al  Al24  1  0.060485  0.637426  0.817968  1
  Al  Al25  1  0.939515  0.362574  0.182032  1
  Al  Al26  1  0.859357  0.038565  0.815802  1
  Al  Al27  1  0.140643  0.961435  0.184199  1
  Pt  Pt28  1  0.658497  0.170629  0.999791  1
  Pt  Pt29  1  0.341503  0.829371  0.000209  1
  Pt  Pt30  1  0.539238  0.166882  0.364345  1
  Pt  Pt31  1  0.460762  0.833118  0.635655  1
  Pt  Pt32  1  0.782510  0.172755  0.635071  1
  Pt  Pt33  1  0.217490  0.827245  0.364929  1
  Pt  Pt34  1  0.000000  0.500000  0.000000  1
  Au  Au35  1  0.120575  0.493858  0.635902  1
  Au  Au36  1  0.879425  0.506142  0.364098  1
