# generated using pymatgen
data_Tm6Ga6Co16W
_symmetry_space_group_name_H-M   'P 1'
_cell_length_a   8.41634288
_cell_length_b   8.41634335
_cell_length_c   8.41634300
_cell_angle_alpha   60.00000531
_cell_angle_beta   60.00000348
_cell_angle_gamma   60.00000415
_symmetry_Int_Tables_number   1
_chemical_formula_structural   Tm6Ga6Co16W
_chemical_formula_sum   'Tm6 Ga6 Co16 W1'
_cell_volume   421.55605919
_cell_formula_units_Z   1
loop_
 _symmetry_equiv_pos_site_id
 _symmetry_equiv_pos_as_xyz
  1  'x, y, z'
loop_
 _atom_site_type_symbol
 _atom_site_label
 _atom_site_symmetry_multiplicity
 _atom_site_fract_x
 _atom_site_fract_y
 _atom_site_fract_z
 _atom_site_occupancy
  Tm  Tm0  1  0.716430  0.283570  0.283570  1
  Tm  Tm1  1  0.283570  0.716430  0.716430  1
  Tm  Tm2  1  0.283570  0.716430  0.283570  1
  Tm  Tm3  1  0.283570  0.283570  0.716430  1
  Tm  Tm4  1  0.716430  0.283570  0.716430  1
  Tm  Tm5  1  0.716430  0.716430  0.283570  1
  Ga  Ga6  1  0.500000  0.000000  0.000000  1
  Ga  Ga7  1  0.000000  0.500000  0.500000  1
  Ga  Ga8  1  0.000000  0.500000  0.000000  1
  Ga  Ga9  1  0.000000  0.000000  0.500000  1
  Ga  Ga10  1  0.500000  0.000000  0.500000  1
  Ga  Ga11  1  0.500000  0.500000  0.000000  1
  Co  Co12  1  0.322138  0.322138  0.322138  1
  Co  Co13  1  0.322138  0.322138  0.033588  1
  Co  Co14  1  0.033588  0.322138  0.322138  1
  Co  Co15  1  0.322138  0.033588  0.322138  1
  Co  Co16  1  0.677862  0.677862  0.677862  1
  Co  Co17  1  0.677862  0.677862  0.966412  1
  Co  Co18  1  0.677862  0.966412  0.677862  1
  Co  Co19  1  0.966412  0.677862  0.677862  1
  Co  Co20  1  0.122631  0.122631  0.122631  1
  Co  Co21  1  0.122631  0.122631  0.632108  1
  Co  Co22  1  0.632108  0.122631  0.122631  1
  Co  Co23  1  0.122631  0.632108  0.122631  1
  Co  Co24  1  0.877369  0.877369  0.877369  1
  Co  Co25  1  0.877369  0.877369  0.367892  1
  Co  Co26  1  0.877369  0.367892  0.877369  1
  Co  Co27  1  0.367892  0.877369  0.877369  1
  W  W28  1  0.000000  0.000000  0.000000  1
