# generated using pymatgen
data_TbDyTc6Ni6P7
_symmetry_space_group_name_H-M   'P 1'
_cell_length_a   9.37599800
_cell_length_b   9.37599897
_cell_length_c   3.72919200
_cell_angle_alpha   90.00000000
_cell_angle_beta   90.00000000
_cell_angle_gamma   120.00000362
_symmetry_Int_Tables_number   1
_chemical_formula_structural   TbDyTc6Ni6P7
_chemical_formula_sum   'Tb1 Dy1 Tc6 Ni6 P7'
_cell_volume   283.90982164
_cell_formula_units_Z   1
loop_
 _symmetry_equiv_pos_site_id
 _symmetry_equiv_pos_as_xyz
  1  'x, y, z'
loop_
 _atom_site_type_symbol
 _atom_site_label
 _atom_site_symmetry_multiplicity
 _atom_site_fract_x
 _atom_site_fract_y
 _atom_site_fract_z
 _atom_site_occupancy
  Tb  Tb0  1  0.000000  0.000000  0.500000  1
  Dy  Dy1  1  0.666667  0.333333  0.000000  1
  Tc  Tc2  1  0.725524  0.102126  0.500000  1
  Tc  Tc3  1  0.897874  0.623399  0.500000  1
  Tc  Tc4  1  0.376601  0.274476  0.500000  1
  Tc  Tc5  1  0.542899  0.753045  0.500000  1
  Tc  Tc6  1  0.246955  0.789854  0.500000  1
  Tc  Tc7  1  0.210146  0.457101  0.500000  1
  Ni  Ni8  1  0.759712  0.730684  0.000000  1
  Ni  Ni9  1  0.269316  0.029029  0.000000  1
  Ni  Ni10  1  0.970971  0.240288  0.000000  1
  Ni  Ni11  1  0.492660  0.942924  0.000000  1
  Ni  Ni12  1  0.057076  0.549736  0.000000  1
  Ni  Ni13  1  0.450264  0.507340  0.000000  1
  P  P14  1  0.454279  0.070692  0.500000  1
  P  P15  1  0.929308  0.383587  0.500000  1
  P  P16  1  0.616413  0.545721  0.500000  1
  P  P17  1  0.333333  0.666667  0.000000  1
  P  P18  1  0.745196  0.961985  0.000000  1
  P  P19  1  0.038015  0.783211  0.000000  1
  P  P20  1  0.216789  0.254804  0.000000  1
