# generated using pymatgen
data_EuThSi3Ag
_symmetry_space_group_name_H-M   'P 1'
_cell_length_a   11.22514757
_cell_length_b   9.54069749
_cell_length_c   8.40870967
_cell_angle_alpha   77.13409555
_cell_angle_beta   55.95528362
_cell_angle_gamma   46.91063033
_symmetry_Int_Tables_number   1
_chemical_formula_structural   EuThSi3Ag
_chemical_formula_sum   'Eu4 Th4 Si12 Ag4'
_cell_volume   525.59196250
_cell_formula_units_Z   4
loop_
 _symmetry_equiv_pos_site_id
 _symmetry_equiv_pos_as_xyz
  1  'x, y, z'
loop_
 _atom_site_type_symbol
 _atom_site_label
 _atom_site_symmetry_multiplicity
 _atom_site_fract_x
 _atom_site_fract_y
 _atom_site_fract_z
 _atom_site_occupancy
  Eu  Eu0  1  0.874658  0.874658  0.125342  1
  Eu  Eu1  1  0.125342  0.125342  0.874658  1
  Eu  Eu2  1  0.375342  0.375342  0.124658  1
  Eu  Eu3  1  0.124658  0.124658  0.375342  1
  Th  Th4  1  0.379011  0.379011  0.620989  1
  Th  Th5  1  0.620989  0.620989  0.379011  1
  Th  Th6  1  0.870989  0.870989  0.629011  1
  Th  Th7  1  0.629011  0.629011  0.870989  1
  Si  Si8  1  0.663716  0.336284  0.663716  1
  Si  Si9  1  0.336284  0.663716  0.336284  1
  Si  Si10  1  0.586284  0.913716  0.586284  1
  Si  Si11  1  0.913716  0.586284  0.913716  1
  Si  Si12  1  0.336937  0.658593  0.826922  1
  Si  Si13  1  0.177547  0.826922  0.658593  1
  Si  Si14  1  0.826922  0.177547  0.336937  1
  Si  Si15  1  0.658593  0.336937  0.177547  1
  Si  Si16  1  0.913063  0.591407  0.423078  1
  Si  Si17  1  0.072453  0.423078  0.591407  1
  Si  Si18  1  0.423078  0.072453  0.913063  1
  Si  Si19  1  0.591407  0.913063  0.072453  1
  Ag  Ag20  1  0.834068  0.165932  0.834068  1
  Ag  Ag21  1  0.165932  0.834068  0.165932  1
  Ag  Ag22  1  0.415932  0.084068  0.415932  1
  Ag  Ag23  1  0.084068  0.415932  0.084068  1
