# generated using pymatgen
data_Sr8Li4TlIn3Pb8
_symmetry_space_group_name_H-M   'P 1'
_cell_length_a   5.11110600
_cell_length_b   7.78781417
_cell_length_c   18.75399720
_cell_angle_alpha   89.91456584
_cell_angle_beta   90.00000000
_cell_angle_gamma   90.00000000
_symmetry_Int_Tables_number   1
_chemical_formula_structural   Sr8Li4TlIn3Pb8
_chemical_formula_sum   'Sr8 Li4 Tl1 In3 Pb8'
_cell_volume   746.48972096
_cell_formula_units_Z   1
loop_
 _symmetry_equiv_pos_site_id
 _symmetry_equiv_pos_as_xyz
  1  'x, y, z'
loop_
 _atom_site_type_symbol
 _atom_site_label
 _atom_site_symmetry_multiplicity
 _atom_site_fract_x
 _atom_site_fract_y
 _atom_site_fract_z
 _atom_site_occupancy
  Sr  Sr0  1  0.250000  0.337337  0.941721  1
  Sr  Sr1  1  0.250000  0.836112  0.559166  1
  Sr  Sr2  1  0.750000  0.164072  0.440072  1
  Sr  Sr3  1  0.750000  0.496755  0.271494  1
  Sr  Sr4  1  0.750000  0.996937  0.228250  1
  Sr  Sr5  1  0.750000  0.663836  0.059500  1
  Sr  Sr6  1  0.250000  0.501107  0.728456  1
  Sr  Sr7  1  0.250000  0.003908  0.770888  1
  Li  Li8  1  0.250000  0.990945  0.073781  1
  Li  Li9  1  0.750000  0.508007  0.573222  1
  Li  Li10  1  0.750000  0.008234  0.927106  1
  Li  Li11  1  0.250000  0.491387  0.425774  1
  Tl  Tl12  1  0.750000  0.174607  0.651816  1
  In  In13  1  0.250000  0.825940  0.347182  1
  In  In14  1  0.750000  0.674355  0.847651  1
  In  In15  1  0.250000  0.325945  0.153109  1
  Pb  Pb16  1  0.750000  0.203011  0.065665  1
  Pb  Pb17  1  0.750000  0.774626  0.684083  1
  Pb  Pb18  1  0.250000  0.218352  0.316838  1
  Pb  Pb19  1  0.250000  0.718332  0.183089  1
  Pb  Pb20  1  0.250000  0.302778  0.563157  1
  Pb  Pb21  1  0.750000  0.283736  0.819940  1
  Pb  Pb22  1  0.250000  0.797595  0.934429  1
  Pb  Pb23  1  0.750000  0.702085  0.433613  1
