# generated using pymatgen
data_TaCo6GeMo5
_symmetry_space_group_name_H-M   'P 1'
_cell_length_a   8.96021955
_cell_length_b   8.96021952
_cell_length_c   8.96022066
_cell_angle_alpha   31.17863395
_cell_angle_beta   31.17863321
_cell_angle_gamma   31.17863478
_symmetry_Int_Tables_number   1
_chemical_formula_structural   TaCo6GeMo5
_chemical_formula_sum   'Ta1 Co6 Ge1 Mo5'
_cell_volume   171.09027451
_cell_formula_units_Z   1
loop_
 _symmetry_equiv_pos_site_id
 _symmetry_equiv_pos_as_xyz
  1  'x, y, z'
loop_
 _atom_site_type_symbol
 _atom_site_label
 _atom_site_symmetry_multiplicity
 _atom_site_fract_x
 _atom_site_fract_y
 _atom_site_fract_z
 _atom_site_occupancy
  Ta  Ta0  1  0.832564  0.832564  0.832564  1
  Co  Co1  1  0.091846  0.091846  0.583030  1
  Co  Co2  1  0.413579  0.909865  0.909865  1
  Co  Co3  1  0.583030  0.091846  0.091846  1
  Co  Co4  1  0.909865  0.909865  0.413579  1
  Co  Co5  1  0.909865  0.413579  0.909865  1
  Co  Co6  1  0.091846  0.583030  0.091846  1
  Ge  Ge7  1  0.999687  0.999687  0.999687  1
  Mo  Mo8  1  0.651385  0.651385  0.651385  1
  Mo  Mo9  1  0.450640  0.450640  0.450640  1
  Mo  Mo10  1  0.549205  0.549205  0.549205  1
  Mo  Mo11  1  0.167673  0.167673  0.167673  1
  Mo  Mo12  1  0.348814  0.348814  0.348814  1
