# generated using pymatgen
data_Tm3Zr(BiRh5)2
_symmetry_space_group_name_H-M   'P 1'
_cell_length_a   5.75572526
_cell_length_b   5.75572483
_cell_length_c   8.44381302
_cell_angle_alpha   89.99519927
_cell_angle_beta   89.99520537
_cell_angle_gamma   97.20033495
_symmetry_Int_Tables_number   1
_chemical_formula_structural   Tm3Zr(BiRh5)2
_chemical_formula_sum   'Tm3 Zr1 Bi2 Rh10'
_cell_volume   277.52380849
_cell_formula_units_Z   1
loop_
 _symmetry_equiv_pos_site_id
 _symmetry_equiv_pos_as_xyz
  1  'x, y, z'
loop_
 _atom_site_type_symbol
 _atom_site_label
 _atom_site_symmetry_multiplicity
 _atom_site_fract_x
 _atom_site_fract_y
 _atom_site_fract_z
 _atom_site_occupancy
  Tm  Tm0  1  0.782810  0.217190  0.500000  1
  Tm  Tm1  1  0.217907  0.782093  0.000000  1
  Tm  Tm2  1  0.217365  0.782635  0.500000  1
  Zr  Zr3  1  0.788283  0.211717  0.000000  1
  Bi  Bi4  1  0.501480  0.500288  0.750676  1
  Bi  Bi5  1  0.499712  0.498520  0.249324  1
  Rh  Rh6  1  0.731355  0.733874  0.000435  1
  Rh  Rh7  1  0.732452  0.732451  0.499488  1
  Rh  Rh8  1  0.266126  0.268645  0.999565  1
  Rh  Rh9  1  0.267549  0.267548  0.500512  1
  Rh  Rh10  1  0.503146  0.003784  0.754775  1
  Rh  Rh11  1  0.503234  0.003214  0.245262  1
  Rh  Rh12  1  0.997934  0.002354  0.245413  1
  Rh  Rh13  1  0.997646  0.002066  0.754587  1
  Rh  Rh14  1  0.996786  0.496766  0.754738  1
  Rh  Rh15  1  0.996216  0.496854  0.245225  1
