# generated using pymatgen
data_Ho17Th3(Bi2Os)4
_symmetry_space_group_name_H-M   'P 1'
_cell_length_a   8.08592261
_cell_length_b   8.93345818
_cell_length_c   12.50773051
_cell_angle_alpha   90.32282633
_cell_angle_beta   89.77932090
_cell_angle_gamma   90.05739899
_symmetry_Int_Tables_number   1
_chemical_formula_structural   Ho17Th3(Bi2Os)4
_chemical_formula_sum   'Ho17 Th3 Bi8 Os4'
_cell_volume   903.47758178
_cell_formula_units_Z   1
loop_
 _symmetry_equiv_pos_site_id
 _symmetry_equiv_pos_as_xyz
  1  'x, y, z'
loop_
 _atom_site_type_symbol
 _atom_site_label
 _atom_site_symmetry_multiplicity
 _atom_site_fract_x
 _atom_site_fract_y
 _atom_site_fract_z
 _atom_site_occupancy
  Ho  Ho0  1  0.837285  0.747651  0.793014  1
  Ho  Ho1  1  0.161508  0.250434  0.205200  1
  Ho  Ho2  1  0.335279  0.252342  0.708216  1
  Ho  Ho3  1  0.664676  0.747739  0.291455  1
  Ho  Ho4  1  0.375118  0.746304  0.696346  1
  Ho  Ho5  1  0.624631  0.254875  0.303911  1
  Ho  Ho6  1  0.874400  0.251571  0.805883  1
  Ho  Ho7  1  0.121154  0.746822  0.194443  1
  Ho  Ho8  1  0.945992  0.747902  0.500922  1
  Ho  Ho9  1  0.053030  0.251717  0.498645  1
  Ho  Ho10  1  0.446325  0.251871  0.998045  1
  Ho  Ho11  1  0.560786  0.749494  0.001562  1
  Ho  Ho12  1  0.327747  0.543591  0.435042  1
  Ho  Ho13  1  0.820550  0.047023  0.068393  1
  Ho  Ho14  1  0.672565  0.455977  0.564684  1
  Ho  Ho15  1  0.828736  0.455707  0.065423  1
  Ho  Ho16  1  0.172799  0.542337  0.934883  1
  Th  Th17  1  0.681744  0.042545  0.565511  1
  Th  Th18  1  0.318244  0.957406  0.434179  1
  Th  Th19  1  0.172280  0.959284  0.939299  1
  Bi  Bi20  1  0.566302  0.490597  0.826483  1
  Bi  Bi21  1  0.433478  0.510054  0.172877  1
  Bi  Bi22  1  0.066039  0.509414  0.672830  1
  Bi  Bi23  1  0.433738  0.990015  0.172266  1
  Bi  Bi24  1  0.933830  0.490041  0.327240  1
  Bi  Bi25  1  0.570191  0.010460  0.827588  1
  Bi  Bi26  1  0.926704  0.011498  0.324869  1
  Bi  Bi27  1  0.072442  0.988489  0.673706  1
  Os  Os28  1  0.574037  0.760472  0.511678  1
  Os  Os29  1  0.425199  0.239411  0.488537  1
  Os  Os30  1  0.077149  0.243742  0.987133  1
  Os  Os31  1  0.926043  0.753214  0.009736  1
