# generated using pymatgen
data_Tb7Ho(Si3Au)4
_symmetry_space_group_name_H-M   'P 1'
_cell_length_a   8.22824300
_cell_length_b   8.21571414
_cell_length_c   8.24868600
_cell_angle_alpha   90.00000000
_cell_angle_beta   90.00000000
_cell_angle_gamma   120.05045497
_symmetry_Int_Tables_number   1
_chemical_formula_structural   Tb7Ho(Si3Au)4
_chemical_formula_sum   'Tb7 Ho1 Si12 Au4'
_cell_volume   482.66610854
_cell_formula_units_Z   1
loop_
 _symmetry_equiv_pos_site_id
 _symmetry_equiv_pos_as_xyz
  1  'x, y, z'
loop_
 _atom_site_type_symbol
 _atom_site_label
 _atom_site_symmetry_multiplicity
 _atom_site_fract_x
 _atom_site_fract_y
 _atom_site_fract_z
 _atom_site_occupancy
  Tb  Tb0  1  0.500245  0.000490  0.750000  1
  Tb  Tb1  1  0.000382  0.500178  0.250000  1
  Tb  Tb2  1  0.999498  0.499585  0.750000  1
  Tb  Tb3  1  0.499796  0.500178  0.250000  1
  Tb  Tb4  1  0.500088  0.499585  0.750000  1
  Tb  Tb5  1  0.999957  0.999916  0.250000  1
  Tb  Tb6  1  0.000028  0.000056  0.750000  1
  Ho  Ho7  1  0.499983  0.999964  0.250000  1
  Si  Si8  1  0.164356  0.328712  0.997678  1
  Si  Si9  1  0.835687  0.671375  0.001829  1
  Si  Si10  1  0.672475  0.836009  0.997935  1
  Si  Si11  1  0.835687  0.671375  0.498171  1
  Si  Si12  1  0.327442  0.163922  0.002346  1
  Si  Si13  1  0.164356  0.328712  0.502322  1
  Si  Si14  1  0.163534  0.836009  0.997935  1
  Si  Si15  1  0.327442  0.163922  0.497654  1
  Si  Si16  1  0.836479  0.163922  0.002346  1
  Si  Si17  1  0.672475  0.836009  0.502065  1
  Si  Si18  1  0.836479  0.163922  0.497654  1
  Si  Si19  1  0.163534  0.836009  0.502065  1
  Au  Au20  1  0.334085  0.668171  0.002605  1
  Au  Au21  1  0.665953  0.331904  0.001383  1
  Au  Au22  1  0.665953  0.331904  0.498617  1
  Au  Au23  1  0.334085  0.668171  0.497395  1
