# generated using pymatgen
data_Sr2Al20Os3Pt
_symmetry_space_group_name_H-M   'P 1'
_cell_length_a   6.94694823
_cell_length_b   6.94863843
_cell_length_c   9.27556418
_cell_angle_alpha   90.19051518
_cell_angle_beta   89.98369076
_cell_angle_gamma   96.48369761
_symmetry_Int_Tables_number   1
_chemical_formula_structural   Sr2Al20Os3Pt
_chemical_formula_sum   'Sr2 Al20 Os3 Pt1'
_cell_volume   444.88222165
_cell_formula_units_Z   1
loop_
 _symmetry_equiv_pos_site_id
 _symmetry_equiv_pos_as_xyz
  1  'x, y, z'
loop_
 _atom_site_type_symbol
 _atom_site_label
 _atom_site_symmetry_multiplicity
 _atom_site_fract_x
 _atom_site_fract_y
 _atom_site_fract_z
 _atom_site_occupancy
  Sr  Sr0  1  0.623464  0.377040  0.750451  1
  Sr  Sr1  1  0.376536  0.622960  0.249549  1
  Al  Al2  1  0.275729  0.017766  0.743304  1
  Al  Al3  1  0.018188  0.282132  0.249783  1
  Al  Al4  1  0.724271  0.982234  0.256696  1
  Al  Al5  1  0.981812  0.717868  0.750217  1
  Al  Al6  1  0.883912  0.124418  0.950024  1
  Al  Al7  1  0.116088  0.875582  0.049976  1
  Al  Al8  1  0.878094  0.123689  0.546102  1
  Al  Al9  1  0.121906  0.876311  0.453898  1
  Al  Al10  1  0.645868  0.913188  0.747153  1
  Al  Al11  1  0.913285  0.643462  0.250921  1
  Al  Al12  1  0.354132  0.086812  0.252847  1
  Al  Al13  1  0.086715  0.356538  0.749079  1
  Al  Al14  1  0.334644  0.659594  0.894814  1
  Al  Al15  1  0.665356  0.340406  0.105186  1
  Al  Al16  1  0.339666  0.661595  0.599928  1
  Al  Al17  1  0.660334  0.338405  0.400072  1
  Al  Al18  1  0.726978  0.721638  0.996510  1
  Al  Al19  1  0.724036  0.722667  0.500416  1
  Al  Al20  1  0.273022  0.278362  0.003490  1
  Al  Al21  1  0.275964  0.277333  0.499584  1
  Os  Os22  1  0.000000  0.500000  0.000000  1
  Os  Os23  1  0.500000  0.000000  0.500000  1
  Os  Os24  1  0.000000  0.500000  0.500000  1
  Pt  Pt25  1  0.500000  0.000000  0.000000  1
