# generated using pymatgen
data_NaNd2As3P3Pd20
_symmetry_space_group_name_H-M   'P 1'
_cell_length_a   8.76008936
_cell_length_b   8.81951718
_cell_length_c   8.85659751
_cell_angle_alpha   59.41677336
_cell_angle_beta   60.08096302
_cell_angle_gamma   60.50227230
_symmetry_Int_Tables_number   1
_chemical_formula_structural   NaNd2As3P3Pd20
_chemical_formula_sum   'Na1 Nd2 As3 P3 Pd20'
_cell_volume   483.75584107
_cell_formula_units_Z   1
loop_
 _symmetry_equiv_pos_site_id
 _symmetry_equiv_pos_as_xyz
  1  'x, y, z'
loop_
 _atom_site_type_symbol
 _atom_site_label
 _atom_site_symmetry_multiplicity
 _atom_site_fract_x
 _atom_site_fract_y
 _atom_site_fract_z
 _atom_site_occupancy
  Na  Na0  1  0.000450  0.999550  0.000450  1
  Nd  Nd1  1  0.249468  0.250532  0.249468  1
  Nd  Nd2  1  0.749468  0.750532  0.749468  1
  As  As3  1  0.739468  0.260532  0.258248  1
  As  As4  1  0.258248  0.741752  0.739468  1
  As  As5  1  0.260101  0.739899  0.260101  1
  P  P6  1  0.738720  0.261280  0.738720  1
  P  P7  1  0.260420  0.262172  0.737828  1
  P  P8  1  0.737828  0.739580  0.260420  1
  Pd  Pd9  1  0.349558  0.008690  0.991310  1
  Pd  Pd10  1  0.654580  0.999125  0.000875  1
  Pd  Pd11  1  0.000875  0.345420  0.654580  1
  Pd  Pd12  1  0.991310  0.650442  0.349558  1
  Pd  Pd13  1  0.009204  0.349657  0.989146  1
  Pd  Pd14  1  0.650343  0.990796  0.348007  1
  Pd  Pd15  1  0.989146  0.651993  0.009204  1
  Pd  Pd16  1  0.348007  0.010854  0.650343  1
  Pd  Pd17  1  0.001010  0.998990  0.352723  1
  Pd  Pd18  1  0.989988  0.010012  0.653070  1
  Pd  Pd19  1  0.653070  0.346930  0.989988  1
  Pd  Pd20  1  0.352723  0.647277  0.001010  1
  Pd  Pd21  1  0.382734  0.381356  0.392479  1
  Pd  Pd22  1  0.620386  0.609700  0.612407  1
  Pd  Pd23  1  0.390300  0.379614  0.842493  1
  Pd  Pd24  1  0.392479  0.843429  0.382734  1
  Pd  Pd25  1  0.618644  0.617266  0.156571  1
  Pd  Pd26  1  0.612407  0.157507  0.620386  1
  Pd  Pd27  1  0.842493  0.387593  0.390300  1
  Pd  Pd28  1  0.156571  0.607521  0.618644  1
