# generated using pymatgen
data_DyHoCdNi2
_symmetry_space_group_name_H-M   'P 1'
_cell_length_a   7.35403135
_cell_length_b   7.35403123
_cell_length_c   3.64867000
_cell_angle_alpha   90.00000000
_cell_angle_beta   90.00000000
_cell_angle_gamma   148.86389839
_symmetry_Int_Tables_number   1
_chemical_formula_structural   DyHoCdNi2
_chemical_formula_sum   'Dy1 Ho1 Cd1 Ni2'
_cell_volume   102.03218476
_cell_formula_units_Z   1
loop_
 _symmetry_equiv_pos_site_id
 _symmetry_equiv_pos_as_xyz
  1  'x, y, z'
loop_
 _atom_site_type_symbol
 _atom_site_label
 _atom_site_symmetry_multiplicity
 _atom_site_fract_x
 _atom_site_fract_y
 _atom_site_fract_z
 _atom_site_occupancy
  Dy  Dy0  1  0.361222  0.638778  0.500000  1
  Ho  Ho1  1  0.639131  0.360869  0.500000  1
  Cd  Cd2  1  0.000408  0.999592  0.000000  1
  Ni  Ni3  1  0.800240  0.199760  0.000000  1
  Ni  Ni4  1  0.198999  0.801001  0.000000  1
