# generated using pymatgen
data_YbTh7H30
_symmetry_space_group_name_H-M   'P 1'
_cell_length_a   7.87954125
_cell_length_b   7.87572811
_cell_length_c   7.87572812
_cell_angle_alpha   109.46141054
_cell_angle_beta   109.48102152
_cell_angle_gamma   109.48102991
_symmetry_Int_Tables_number   1
_chemical_formula_structural   YbTh7H30
_chemical_formula_sum   'Yb1 Th7 H30'
_cell_volume   376.19058538
_cell_formula_units_Z   1
loop_
 _symmetry_equiv_pos_site_id
 _symmetry_equiv_pos_as_xyz
  1  'x, y, z'
loop_
 _atom_site_type_symbol
 _atom_site_label
 _atom_site_symmetry_multiplicity
 _atom_site_fract_x
 _atom_site_fract_y
 _atom_site_fract_z
 _atom_site_occupancy
  Yb  Yb0  1  0.080996  0.000000  0.000000  1
  Th  Th1  1  0.582516  0.000000  0.000000  1
  Th  Th2  1  0.000681  0.499949  0.080823  1
  Th  Th3  1  0.919857  0.919176  0.419126  1
  Th  Th4  1  0.500732  0.580874  0.500051  1
  Th  Th5  1  0.496468  0.081257  0.494829  1
  Th  Th6  1  0.001638  0.505172  0.586428  1
  Th  Th7  1  0.415211  0.413573  0.918744  1
  H  H8  1  0.414003  0.192275  0.036826  1
  H  H9  1  0.782205  0.629665  0.096418  1
  H  H10  1  0.254774  0.386379  0.128046  1
  H  H11  1  0.595221  0.781360  0.132260  1
  H  H12  1  0.377178  0.963175  0.155450  1
  H  H13  1  0.898103  0.034970  0.190927  1
  H  H14  1  0.813859  0.350898  0.218639  1
  H  H15  1  0.126728  0.871954  0.258333  1
  H  H16  1  0.631134  0.596367  0.282526  1
  H  H17  1  0.348610  0.717474  0.313841  1
  H  H18  1  0.318216  0.221412  0.355020  1
  H  H19  1  0.152540  0.466753  0.370335  1
  H  H20  1  0.749528  0.125103  0.376710  1
  H  H21  1  0.034767  0.686159  0.403633  1
  H  H22  1  0.651615  0.368139  0.463599  1
  H  H23  1  0.685787  0.903584  0.533248  1
  H  H24  1  0.132418  0.285914  0.595830  1
  H  H25  1  0.868395  0.741666  0.613621  1
  H  H26  1  0.283474  0.095459  0.631860  1
  H  H27  1  0.462962  0.867741  0.649102  1
  H  H28  1  0.536588  0.404170  0.690083  1
  H  H29  1  0.846503  0.309916  0.714086  1
  H  H30  1  0.372818  0.623289  0.748392  1
  H  H31  1  0.096806  0.133608  0.778588  1
  H  H32  1  0.221728  0.844551  0.807725  1
  H  H33  1  0.707175  0.809073  0.844042  1
  H  H34  1  0.963197  0.644980  0.866393  1
  H  H35  1  0.624426  0.251608  0.874899  1
  H  H36  1  0.188017  0.536402  0.904541  1
  H  H37  1  0.863133  0.155958  0.965031  1
