# generated using pymatgen
data_Ca2Cr2Ni10As7
_symmetry_space_group_name_H-M   'P 1'
_cell_length_a   9.53503116
_cell_length_b   9.49450278
_cell_length_c   3.80951100
_cell_angle_alpha   90.00000000
_cell_angle_beta   90.00000000
_cell_angle_gamma   119.82531000
_symmetry_Int_Tables_number   1
_chemical_formula_structural   Ca2Cr2Ni10As7
_chemical_formula_sum   'Ca2 Cr2 Ni10 As7'
_cell_volume   299.19615140
_cell_formula_units_Z   1
loop_
 _symmetry_equiv_pos_site_id
 _symmetry_equiv_pos_as_xyz
  1  'x, y, z'
loop_
 _atom_site_type_symbol
 _atom_site_label
 _atom_site_symmetry_multiplicity
 _atom_site_fract_x
 _atom_site_fract_y
 _atom_site_fract_z
 _atom_site_occupancy
  Ca  Ca0  1  0.337068  0.667238  0.000000  1
  Ca  Ca1  1  0.665585  0.333026  0.499999  1
  Cr  Cr2  1  0.215244  0.094973  0.499999  1
  Cr  Cr3  1  0.900475  0.116991  0.499999  1
  Ni  Ni4  1  0.431358  0.058242  0.000000  1
  Ni  Ni5  1  0.153815  0.281679  0.000000  1
  Ni  Ni6  1  0.943365  0.380006  0.000000  1
  Ni  Ni7  1  0.621493  0.565738  0.000000  1
  Ni  Ni8  1  0.125661  0.842425  0.000000  1
  Ni  Ni9  1  0.722374  0.874600  0.000000  1
  Ni  Ni10  1  0.379775  0.431233  0.499999  1
  Ni  Ni11  1  0.047069  0.620364  0.499999  1
  Ni  Ni12  1  0.879836  0.780391  0.499999  1
  Ni  Ni13  1  0.570986  0.947696  0.499999  1
  As  As14  1  0.001798  0.999369  0.000000  1
  As  As15  1  0.707087  0.115862  0.000000  1
  As  As16  1  0.406830  0.293027  0.000000  1
  As  As17  1  0.881544  0.594765  0.000000  1
  As  As18  1  0.114182  0.409908  0.499999  1
  As  As19  1  0.596735  0.706813  0.499999  1
  As  As20  1  0.297720  0.885654  0.499999  1
