# generated using pymatgen
data_Tb12InGaFeCoPd2
_symmetry_space_group_name_H-M   'P 1'
_cell_length_a   8.48134744
_cell_length_b   8.48133032
_cell_length_c   8.48134700
_cell_angle_alpha   112.94441343
_cell_angle_beta   109.71159595
_cell_angle_gamma   105.83556925
_symmetry_Int_Tables_number   1
_chemical_formula_structural   Tb12InGaFeCoPd2
_chemical_formula_sum   'Tb12 In1 Ga1 Fe1 Co1 Pd2'
_cell_volume   467.84091088
_cell_formula_units_Z   1
loop_
 _symmetry_equiv_pos_site_id
 _symmetry_equiv_pos_as_xyz
  1  'x, y, z'
loop_
 _atom_site_type_symbol
 _atom_site_label
 _atom_site_symmetry_multiplicity
 _atom_site_fract_x
 _atom_site_fract_y
 _atom_site_fract_z
 _atom_site_occupancy
  Tb  Tb0  1  0.433853  0.239972  0.193890  1
  Tb  Tb1  1  0.564571  0.759334  0.805227  1
  Tb  Tb2  1  0.046082  0.239972  0.806118  1
  Tb  Tb3  1  0.954107  0.759334  0.194764  1
  Tb  Tb4  1  0.180891  0.287177  0.466029  1
  Tb  Tb5  1  0.821147  0.714871  0.533966  1
  Tb  Tb6  1  0.180904  0.714871  0.893724  1
  Tb  Tb7  1  0.821149  0.287177  0.106286  1
  Tb  Tb8  1  0.308888  0.619411  0.310523  1
  Tb  Tb9  1  0.690354  0.379663  0.689310  1
  Tb  Tb10  1  0.308930  0.998378  0.689447  1
  Tb  Tb11  1  0.690313  0.001026  0.310713  1
  In  In12  1  0.499899  0.499899  0.000000  1
  Ga  Ga13  1  0.999836  0.999835  0.999999  1
  Fe  Fe14  1  0.107642  0.607625  0.499982  1
  Co  Co15  1  0.890350  0.390373  0.500023  1
  Pd  Pd16  1  0.346617  0.000542  0.346073  1
  Pd  Pd17  1  0.654469  0.000542  0.653925  1
