# generated using pymatgen
data_PrNd3(Zn5Pb)2
_symmetry_space_group_name_H-M   'P 1'
_cell_length_a   8.65591543
_cell_length_b   8.65591503
_cell_length_c   9.16425755
_cell_angle_alpha   89.93571689
_cell_angle_beta   90.06428408
_cell_angle_gamma   149.78261312
_symmetry_Int_Tables_number   1
_chemical_formula_structural   PrNd3(Zn5Pb)2
_chemical_formula_sum   'Pr1 Nd3 Zn10 Pb2'
_cell_volume   345.56881835
_cell_formula_units_Z   1
loop_
 _symmetry_equiv_pos_site_id
 _symmetry_equiv_pos_as_xyz
  1  'x, y, z'
loop_
 _atom_site_type_symbol
 _atom_site_label
 _atom_site_symmetry_multiplicity
 _atom_site_fract_x
 _atom_site_fract_y
 _atom_site_fract_z
 _atom_site_occupancy
  Pr  Pr0  1  0.000000  0.000000  0.500000  1
  Nd  Nd1  1  0.205031  0.794969  0.249952  1
  Nd  Nd2  1  0.794969  0.205031  0.750048  1
  Nd  Nd3  1  0.000000  0.000000  0.000000  1
  Zn  Zn4  1  0.813970  0.186030  0.390993  1
  Zn  Zn5  1  0.186030  0.813970  0.609007  1
  Zn  Zn6  1  0.814088  0.185912  0.109048  1
  Zn  Zn7  1  0.185912  0.814088  0.890952  1
  Zn  Zn8  1  0.658294  0.341706  0.485272  1
  Zn  Zn9  1  0.341706  0.658294  0.514728  1
  Zn  Zn10  1  0.658232  0.341768  0.014683  1
  Zn  Zn11  1  0.341768  0.658232  0.985317  1
  Zn  Zn12  1  0.391665  0.608335  0.249964  1
  Zn  Zn13  1  0.608335  0.391665  0.750036  1
  Pb  Pb14  1  0.554134  0.445866  0.249544  1
  Pb  Pb15  1  0.445866  0.554134  0.750456  1
