# generated using pymatgen
data_Ac2HfZrF14
_symmetry_space_group_name_H-M   'P 1'
_cell_length_a   6.11046433
_cell_length_b   6.49791446
_cell_length_c   8.80151753
_cell_angle_alpha   101.98515390
_cell_angle_beta   90.00888895
_cell_angle_gamma   89.98116644
_symmetry_Int_Tables_number   1
_chemical_formula_structural   Ac2HfZrF14
_chemical_formula_sum   'Ac2 Hf1 Zr1 F14'
_cell_volume   341.84878025
_cell_formula_units_Z   1
loop_
 _symmetry_equiv_pos_site_id
 _symmetry_equiv_pos_as_xyz
  1  'x, y, z'
loop_
 _atom_site_type_symbol
 _atom_site_label
 _atom_site_symmetry_multiplicity
 _atom_site_fract_x
 _atom_site_fract_y
 _atom_site_fract_z
 _atom_site_occupancy
  Ac  Ac0  1  0.700473  0.661126  0.691203  1
  Ac  Ac1  1  0.201300  0.338246  0.309737  1
  Hf  Hf2  1  0.209374  0.189238  0.776304  1
  Zr  Zr3  1  0.710529  0.809143  0.224708  1
  F  F4  1  0.886852  0.448901  0.473795  1
  F  F5  1  0.387808  0.554739  0.524997  1
  F  F6  1  0.424788  0.953068  0.771527  1
  F  F7  1  0.923264  0.052970  0.226824  1
  F  F8  1  0.969163  0.971826  0.759666  1
  F  F9  1  0.462689  0.026118  0.240666  1
  F  F10  1  0.996676  0.428139  0.786135  1
  F  F11  1  0.501512  0.561129  0.212400  1
  F  F12  1  0.699166  0.759007  0.987952  1
  F  F13  1  0.199671  0.239375  0.009332  1
  F  F14  1  0.715022  0.857884  0.461151  1
  F  F15  1  0.214002  0.145671  0.543404  1
  F  F16  1  0.469299  0.383137  0.787286  1
  F  F17  1  0.981135  0.620282  0.212912  1
