# generated using pymatgen
data_AcBi2IO4
_symmetry_space_group_name_H-M   'P 1'
_cell_length_a   4.09955900
_cell_length_b   4.09955900
_cell_length_c   9.90888200
_cell_angle_alpha   90.00000000
_cell_angle_beta   90.00000000
_cell_angle_gamma   90.00000000
_symmetry_Int_Tables_number   1
_chemical_formula_structural   AcBi2IO4
_chemical_formula_sum   'Ac1 Bi2 I1 O4'
_cell_volume   166.53247585
_cell_formula_units_Z   1
loop_
 _symmetry_equiv_pos_site_id
 _symmetry_equiv_pos_as_xyz
  1  'x, y, z'
loop_
 _atom_site_type_symbol
 _atom_site_label
 _atom_site_symmetry_multiplicity
 _atom_site_fract_x
 _atom_site_fract_y
 _atom_site_fract_z
 _atom_site_occupancy
  Ac  Ac0  1  0.000000  0.000000  0.000000  1
  Bi  Bi1  1  0.500000  0.500000  0.264434  1
  Bi  Bi2  1  0.500000  0.500000  0.735567  1
  I  I3  1  0.000000  0.000000  0.500000  1
  O  O4  1  0.500000  0.000000  0.159342  1
  O  O5  1  0.000000  0.500000  0.159342  1
  O  O6  1  0.500000  0.000000  0.840659  1
  O  O7  1  0.000000  0.500000  0.840659  1
