# generated using pymatgen
data_Ti5GeIr9Rh
_symmetry_space_group_name_H-M   'P 1'
_cell_length_a   4.01949600
_cell_length_b   5.45607549
_cell_length_c   10.76596063
_cell_angle_alpha   89.10402006
_cell_angle_beta   90.00000000
_cell_angle_gamma   90.00000000
_symmetry_Int_Tables_number   1
_chemical_formula_structural   Ti5GeIr9Rh
_chemical_formula_sum   'Ti5 Ge1 Ir9 Rh1'
_cell_volume   236.07590078
_cell_formula_units_Z   1
loop_
 _symmetry_equiv_pos_site_id
 _symmetry_equiv_pos_as_xyz
  1  'x, y, z'
loop_
 _atom_site_type_symbol
 _atom_site_label
 _atom_site_symmetry_multiplicity
 _atom_site_fract_x
 _atom_site_fract_y
 _atom_site_fract_z
 _atom_site_occupancy
  Ti  Ti0  1  0.000000  0.500000  0.500000  1
  Ti  Ti1  1  0.500000  0.320614  0.140984  1
  Ti  Ti2  1  0.500000  0.679386  0.859016  1
  Ti  Ti3  1  0.500000  0.820036  0.358427  1
  Ti  Ti4  1  0.500000  0.179964  0.641573  1
  Ge  Ge5  1  0.000000  0.000000  0.000000  1
  Ir  Ir6  1  0.000000  0.000000  0.500000  1
  Ir  Ir7  1  0.000000  0.061221  0.246539  1
  Ir  Ir8  1  0.000000  0.938779  0.753461  1
  Ir  Ir9  1  0.000000  0.563396  0.253414  1
  Ir  Ir10  1  0.000000  0.436604  0.746586  1
  Ir  Ir11  1  0.500000  0.303043  0.389092  1
  Ir  Ir12  1  0.500000  0.696957  0.610908  1
  Ir  Ir13  1  0.500000  0.804088  0.111881  1
  Ir  Ir14  1  0.500000  0.195912  0.888119  1
  Rh  Rh15  1  0.000000  0.500000  0.000000  1
