# generated using pymatgen
data_Tb4Al24Pt7Au2
_symmetry_space_group_name_H-M   'P 1'
_cell_length_a   7.57936198
_cell_length_b   7.59675681
_cell_length_c   13.18241582
_cell_angle_alpha   84.52071031
_cell_angle_beta   78.98039328
_cell_angle_gamma   59.92734301
_symmetry_Int_Tables_number   1
_chemical_formula_structural   Tb4Al24Pt7Au2
_chemical_formula_sum   'Tb4 Al24 Pt7 Au2'
_cell_volume   644.74163607
_cell_formula_units_Z   1
loop_
 _symmetry_equiv_pos_site_id
 _symmetry_equiv_pos_as_xyz
  1  'x, y, z'
loop_
 _atom_site_type_symbol
 _atom_site_label
 _atom_site_symmetry_multiplicity
 _atom_site_fract_x
 _atom_site_fract_y
 _atom_site_fract_z
 _atom_site_occupancy
  Tb  Tb0  1  0.392835  0.169009  0.809049  1
  Tb  Tb1  1  0.607165  0.830991  0.190951  1
  Tb  Tb2  1  0.733445  0.498931  0.809721  1
  Tb  Tb3  1  0.266555  0.501069  0.190279  1
  Al  Al4  1  0.683439  0.834193  0.945127  1
  Al  Al5  1  0.316561  0.165807  0.054873  1
  Al  Al6  1  0.146081  0.838696  0.561950  1
  Al  Al7  1  0.853919  0.161304  0.438050  1
  Al  Al8  1  0.487313  0.160036  0.559407  1
  Al  Al9  1  0.512687  0.839964  0.440593  1
  Al  Al10  1  0.222537  0.160312  0.327393  1
  Al  Al11  1  0.777463  0.839688  0.672607  1
  Al  Al12  1  0.440810  0.506667  0.672768  1
  Al  Al13  1  0.559190  0.493333  0.327232  1
  Al  Al14  1  0.109608  0.154386  0.671602  1
  Al  Al15  1  0.890392  0.845614  0.328398  1
  Al  Al16  1  0.352702  0.499210  0.944935  1
  Al  Al17  1  0.647298  0.500790  0.055065  1
  Al  Al18  1  0.015223  0.167181  0.953878  1
  Al  Al19  1  0.984777  0.832819  0.046122  1
  Al  Al20  1  0.194689  0.499242  0.437600  1
  Al  Al21  1  0.805311  0.500758  0.562400  1
  Al  Al22  1  0.733037  0.164593  0.183414  1
  Al  Al23  1  0.266963  0.835407  0.816586  1
  Al  Al24  1  0.060555  0.633789  0.817690  1
  Al  Al25  1  0.939445  0.366211  0.182310  1
  Al  Al26  1  0.854650  0.041903  0.816064  1
  Al  Al27  1  0.145350  0.958097  0.183937  1
  Pt  Pt28  1  0.657233  0.171513  0.999803  1
  Pt  Pt29  1  0.342767  0.828487  0.000197  1
  Pt  Pt30  1  0.537153  0.166840  0.362703  1
  Pt  Pt31  1  0.462847  0.833160  0.637297  1
  Pt  Pt32  1  0.780141  0.175424  0.636148  1
  Pt  Pt33  1  0.219859  0.824576  0.363852  1
  Pt  Pt34  1  0.000000  0.500000  0.000000  1
  Au  Au35  1  0.120157  0.491185  0.637844  1
  Au  Au36  1  0.879843  0.508815  0.362156  1
