# generated using pymatgen
data_Ho6CrFeB14
_symmetry_space_group_name_H-M   'P 1'
_cell_length_a   8.01372134
_cell_length_b   8.01372016
_cell_length_c   9.28159900
_cell_angle_alpha   90.00000000
_cell_angle_beta   90.00000000
_cell_angle_gamma   155.36184254
_symmetry_Int_Tables_number   1
_chemical_formula_structural   Ho6CrFeB14
_chemical_formula_sum   'Ho6 Cr1 Fe1 B14'
_cell_volume   248.48990935
_cell_formula_units_Z   1
loop_
 _symmetry_equiv_pos_site_id
 _symmetry_equiv_pos_as_xyz
  1  'x, y, z'
loop_
 _atom_site_type_symbol
 _atom_site_label
 _atom_site_symmetry_multiplicity
 _atom_site_fract_x
 _atom_site_fract_y
 _atom_site_fract_z
 _atom_site_occupancy
  Ho  Ho0  1  0.894544  0.105456  0.440354  1
  Ho  Ho1  1  0.104975  0.895025  0.560950  1
  Ho  Ho2  1  0.894544  0.105456  0.059646  1
  Ho  Ho3  1  0.104975  0.895025  0.939050  1
  Ho  Ho4  1  0.243092  0.756908  0.250000  1
  Ho  Ho5  1  0.757776  0.242224  0.750000  1
  Cr  Cr6  1  0.052878  0.947122  0.250000  1
  Fe  Fe7  1  0.945742  0.054258  0.750000  1
  B  B8  1  0.727886  0.272114  0.467897  1
  B  B9  1  0.272917  0.727083  0.534010  1
  B  B10  1  0.727886  0.272114  0.032103  1
  B  B11  1  0.272917  0.727083  0.965990  1
  B  B12  1  0.631615  0.368385  0.151141  1
  B  B13  1  0.370175  0.629825  0.846902  1
  B  B14  1  0.631615  0.368385  0.348859  1
  B  B15  1  0.370175  0.629825  0.653098  1
  B  B16  1  0.520936  0.479064  0.095895  1
  B  B17  1  0.478444  0.521556  0.901947  1
  B  B18  1  0.520936  0.479064  0.404105  1
  B  B19  1  0.478444  0.521556  0.598053  1
  B  B20  1  0.457740  0.542260  0.250000  1
  B  B21  1  0.539790  0.460210  0.750000  1
