# generated using pymatgen
data_Dy7Er2Mg(BiAu2)2
_symmetry_space_group_name_H-M   'P 1'
_cell_length_a   8.74179319
_cell_length_b   8.74463340
_cell_length_c   8.74198622
_cell_angle_alpha   125.64376263
_cell_angle_beta   125.63731473
_cell_angle_gamma   80.49557297
_symmetry_Int_Tables_number   1
_chemical_formula_structural   Dy7Er2Mg(BiAu2)2
_chemical_formula_sum   'Dy7 Er2 Mg1 Bi2 Au4'
_cell_volume   425.69994009
_cell_formula_units_Z   1
loop_
 _symmetry_equiv_pos_site_id
 _symmetry_equiv_pos_as_xyz
  1  'x, y, z'
loop_
 _atom_site_type_symbol
 _atom_site_label
 _atom_site_symmetry_multiplicity
 _atom_site_fract_x
 _atom_site_fract_y
 _atom_site_fract_z
 _atom_site_occupancy
  Dy  Dy0  1  0.211445  0.695325  0.187081  1
  Dy  Dy1  1  0.024658  0.211348  0.516174  1
  Dy  Dy2  1  0.695192  0.508295  0.483633  1
  Dy  Dy3  1  0.491592  0.975431  0.186529  1
  Dy  Dy4  1  0.788618  0.304805  0.813226  1
  Dy  Dy5  1  0.975633  0.788824  0.483954  1
  Dy  Dy6  1  0.304980  0.491858  0.516333  1
  Er  Er7  1  0.999695  0.000084  0.999930  1
  Er  Er8  1  0.508604  0.024863  0.812889  1
  Mg  Mg9  1  0.500036  0.499825  0.999947  1
  Bi  Bi10  1  0.244807  0.244383  0.999981  1
  Bi  Bi11  1  0.755361  0.755538  0.999957  1
  Au  Au12  1  0.133976  0.641256  0.775314  1
  Au  Au13  1  0.865357  0.358143  0.224035  1
  Au  Au14  1  0.641163  0.866205  0.507787  1
  Au  Au15  1  0.358882  0.133817  0.493230  1
