# generated using pymatgen
data_TcPt(S2O7)4
_symmetry_space_group_name_H-M   'P 1'
_cell_length_a   6.29647208
_cell_length_b   6.27811582
_cell_length_c   15.63999241
_cell_angle_alpha   80.00294240
_cell_angle_beta   78.63070810
_cell_angle_gamma   87.04206803
_symmetry_Int_Tables_number   1
_chemical_formula_structural   TcPt(S2O7)4
_chemical_formula_sum   'Tc1 Pt1 S8 O28'
_cell_volume   596.81708801
_cell_formula_units_Z   1
loop_
 _symmetry_equiv_pos_site_id
 _symmetry_equiv_pos_as_xyz
  1  'x, y, z'
loop_
 _atom_site_type_symbol
 _atom_site_label
 _atom_site_symmetry_multiplicity
 _atom_site_fract_x
 _atom_site_fract_y
 _atom_site_fract_z
 _atom_site_occupancy
  Tc  Tc0  1  0.877607  0.117909  0.256227  1
  Pt  Pt1  1  0.134908  0.881475  0.754121  1
  S  S2  1  0.592116  0.910327  0.806251  1
  S  S3  1  0.938155  0.567957  0.307202  1
  S  S4  1  0.243322  0.715465  0.947390  1
  S  S5  1  0.242320  0.765753  0.560571  1
  S  S6  1  0.725078  0.247693  0.454534  1
  S  S7  1  0.758736  0.272457  0.061473  1
  S  S8  1  0.223076  0.404615  0.705594  1
  S  S9  1  0.430158  0.047565  0.206559  1
  O  O10  1  0.806636  0.823112  0.764585  1
  O  O11  1  0.877229  0.790393  0.270646  1
  O  O12  1  0.462434  0.898912  0.732455  1
  O  O13  1  0.508978  0.717371  0.882518  1
  O  O14  1  0.469462  0.827787  0.196054  1
  O  O15  1  0.782247  0.182594  0.982771  1
  O  O16  1  0.470301  0.743211  0.556645  1
  O  O17  1  0.881202  0.439176  0.240508  1
  O  O18  1  0.126444  0.918691  0.622266  1
  O  O19  1  0.757572  0.513246  0.392508  1
  O  O20  1  0.123742  0.877595  0.886291  1
  O  O21  1  0.144825  0.790403  0.484741  1
  O  O22  1  0.757708  0.498912  0.062421  1
  O  O23  1  0.838214  0.244409  0.524937  1
  O  O24  1  0.449187  0.360936  0.686036  1
  O  O25  1  0.196650  0.492950  0.954891  1
  O  O26  1  0.889760  0.136566  0.125244  1
  O  O27  1  0.151450  0.551605  0.775665  1
  O  O28  1  0.130029  0.514426  0.621941  1
  O  O29  1  0.850124  0.113429  0.387169  1
  O  O30  1  0.256066  0.812803  0.021975  1
  O  O31  1  0.495783  0.228960  0.468078  1
  O  O32  1  0.583114  0.111554  0.836503  1
  O  O33  1  0.555640  0.123130  0.270135  1
  O  O34  1  0.487305  0.208484  0.117159  1
  O  O35  1  0.075493  0.213965  0.743706  1
  O  O36  1  0.151512  0.529450  0.324174  1
  O  O37  1  0.205591  0.112452  0.242167  1
