# generated using pymatgen
data_Lu16CdHg3Pd4
_symmetry_space_group_name_H-M   'P 1'
_cell_length_a   9.45149448
_cell_length_b   9.45131122
_cell_length_c   9.45131100
_cell_angle_alpha   59.99999728
_cell_angle_beta   60.00063867
_cell_angle_gamma   60.00063916
_symmetry_Int_Tables_number   1
_chemical_formula_structural   Lu16CdHg3Pd4
_chemical_formula_sum   'Lu16 Cd1 Hg3 Pd4'
_cell_volume   596.99925701
_cell_formula_units_Z   1
loop_
 _symmetry_equiv_pos_site_id
 _symmetry_equiv_pos_as_xyz
  1  'x, y, z'
loop_
 _atom_site_type_symbol
 _atom_site_label
 _atom_site_symmetry_multiplicity
 _atom_site_fract_x
 _atom_site_fract_y
 _atom_site_fract_z
 _atom_site_occupancy
  Lu  Lu0  1  0.606993  0.605698  0.605698  1
  Lu  Lu1  1  0.606993  0.605698  0.181611  1
  Lu  Lu2  1  0.606993  0.181611  0.605698  1
  Lu  Lu3  1  0.177145  0.607619  0.607619  1
  Lu  Lu4  1  0.060542  0.439331  0.439331  1
  Lu  Lu5  1  0.438283  0.061322  0.061322  1
  Lu  Lu6  1  0.438283  0.061322  0.439073  1
  Lu  Lu7  1  0.060542  0.439331  0.060796  1
  Lu  Lu8  1  0.438283  0.439073  0.061322  1
  Lu  Lu9  1  0.060542  0.060796  0.439331  1
  Lu  Lu10  1  0.183922  0.815410  0.815410  1
  Lu  Lu11  1  0.814903  0.184891  0.184891  1
  Lu  Lu12  1  0.814903  0.184891  0.815317  1
  Lu  Lu13  1  0.183922  0.815410  0.185258  1
  Lu  Lu14  1  0.814903  0.815317  0.184891  1
  Lu  Lu15  1  0.183922  0.185258  0.815410  1
  Cd  Cd16  1  0.502495  0.832502  0.832502  1
  Hg  Hg17  1  0.836030  0.837568  0.837568  1
  Hg  Hg18  1  0.836030  0.837568  0.488836  1
  Hg  Hg19  1  0.836030  0.488836  0.837568  1
  Pd  Pd20  1  0.394509  0.395836  0.395836  1
  Pd  Pd21  1  0.394509  0.395836  0.813817  1
  Pd  Pd22  1  0.394509  0.813817  0.395836  1
  Pd  Pd23  1  0.814816  0.395061  0.395061  1
