# generated using pymatgen
data_Ho2(P2Pd7)3
_symmetry_space_group_name_H-M   'P 1'
_cell_length_a   8.63159341
_cell_length_b   8.63159303
_cell_length_c   8.63159300
_cell_angle_alpha   59.99999629
_cell_angle_beta   59.99999775
_cell_angle_gamma   59.99999925
_symmetry_Int_Tables_number   1
_chemical_formula_structural   Ho2(P2Pd7)3
_chemical_formula_sum   'Ho2 P6 Pd21'
_cell_volume   454.73445826
_cell_formula_units_Z   1
loop_
 _symmetry_equiv_pos_site_id
 _symmetry_equiv_pos_as_xyz
  1  'x, y, z'
loop_
 _atom_site_type_symbol
 _atom_site_label
 _atom_site_symmetry_multiplicity
 _atom_site_fract_x
 _atom_site_fract_y
 _atom_site_fract_z
 _atom_site_occupancy
  Ho  Ho0  1  0.250000  0.250000  0.250000  1
  Ho  Ho1  1  0.750000  0.750000  0.750000  1
  P  P2  1  0.739235  0.260765  0.260765  1
  P  P3  1  0.260765  0.739235  0.739235  1
  P  P4  1  0.260765  0.739235  0.260765  1
  P  P5  1  0.739235  0.260765  0.739235  1
  P  P6  1  0.260765  0.260765  0.739235  1
  P  P7  1  0.739235  0.739235  0.260765  1
  Pd  Pd8  1  0.000000  0.000000  0.000000  1
  Pd  Pd9  1  0.384754  0.384754  0.384754  1
  Pd  Pd10  1  0.615246  0.615246  0.615246  1
  Pd  Pd11  1  0.384754  0.384754  0.845738  1
  Pd  Pd12  1  0.384754  0.845738  0.384754  1
  Pd  Pd13  1  0.615246  0.615246  0.154262  1
  Pd  Pd14  1  0.615246  0.154262  0.615246  1
  Pd  Pd15  1  0.845738  0.384754  0.384754  1
  Pd  Pd16  1  0.154262  0.615246  0.615246  1
  Pd  Pd17  1  0.345189  0.000000  0.000000  1
  Pd  Pd18  1  0.654811  0.000000  0.000000  1
  Pd  Pd19  1  0.000000  0.345189  0.654811  1
  Pd  Pd20  1  0.000000  0.654811  0.345189  1
  Pd  Pd21  1  0.000000  0.345189  0.000000  1
  Pd  Pd22  1  0.654811  0.000000  0.345189  1
  Pd  Pd23  1  0.000000  0.654811  0.000000  1
  Pd  Pd24  1  0.345189  0.000000  0.654811  1
  Pd  Pd25  1  0.000000  0.000000  0.345189  1
  Pd  Pd26  1  0.000000  0.000000  0.654811  1
  Pd  Pd27  1  0.654811  0.345189  0.000000  1
  Pd  Pd28  1  0.345189  0.654811  0.000000  1
