# generated using pymatgen
data_SmNp3Ga12Ag
_symmetry_space_group_name_H-M   'P 1'
_cell_length_a   7.54794700
_cell_length_b   7.54794617
_cell_length_c   7.55984700
_cell_angle_alpha   109.50316313
_cell_angle_beta   109.50316092
_cell_angle_gamma   109.43926748
_symmetry_Int_Tables_number   1
_chemical_formula_structural   SmNp3Ga12Ag
_chemical_formula_sum   'Sm1 Np3 Ga12 Ag1'
_cell_volume   331.41896956
_cell_formula_units_Z   1
loop_
 _symmetry_equiv_pos_site_id
 _symmetry_equiv_pos_as_xyz
  1  'x, y, z'
loop_
 _atom_site_type_symbol
 _atom_site_label
 _atom_site_symmetry_multiplicity
 _atom_site_fract_x
 _atom_site_fract_y
 _atom_site_fract_z
 _atom_site_occupancy
  Sm  Sm0  1  0.000000  0.000000  0.500000  1
  Np  Np1  1  0.500000  0.500000  0.500000  1
  Np  Np2  1  0.000000  0.500000  0.000000  1
  Np  Np3  1  0.500000  0.000000  0.000000  1
  Ga  Ga4  1  0.497594  0.748798  0.248798  1
  Ga  Ga5  1  0.502406  0.251202  0.751202  1
  Ga  Ga6  1  0.251202  0.502406  0.751202  1
  Ga  Ga7  1  0.748798  0.497594  0.248798  1
  Ga  Ga8  1  0.748798  0.251202  0.500000  1
  Ga  Ga9  1  0.251202  0.748798  0.500000  1
  Ga  Ga10  1  0.000000  0.304272  0.300738  1
  Ga  Ga11  1  0.000000  0.695728  0.699262  1
  Ga  Ga12  1  0.304272  0.000000  0.300738  1
  Ga  Ga13  1  0.695728  0.000000  0.699262  1
  Ga  Ga14  1  0.304272  0.304272  0.003533  1
  Ga  Ga15  1  0.695728  0.695728  0.996467  1
  Ag  Ag16  1  0.000000  0.000000  0.000000  1
