# generated using pymatgen
data_Dy16Ho(ErRh4)3
_symmetry_space_group_name_H-M   'P 1'
_cell_length_a   10.88273700
_cell_length_b   10.88273700
_cell_length_c   6.36433200
_cell_angle_alpha   90.00000000
_cell_angle_beta   90.00000000
_cell_angle_gamma   90.00000000
_symmetry_Int_Tables_number   1
_chemical_formula_structural   Dy16Ho(ErRh4)3
_chemical_formula_sum   'Dy16 Ho1 Er3 Rh12'
_cell_volume   753.75307086
_cell_formula_units_Z   1
loop_
 _symmetry_equiv_pos_site_id
 _symmetry_equiv_pos_as_xyz
  1  'x, y, z'
loop_
 _atom_site_type_symbol
 _atom_site_label
 _atom_site_symmetry_multiplicity
 _atom_site_fract_x
 _atom_site_fract_y
 _atom_site_fract_z
 _atom_site_occupancy
  Dy  Dy0  1  0.290492  0.088260  0.378238  1
  Dy  Dy1  1  0.290499  0.911706  0.878231  1
  Dy  Dy2  1  0.709501  0.088294  0.878231  1
  Dy  Dy3  1  0.709508  0.911740  0.378238  1
  Dy  Dy4  1  0.588273  0.790523  0.878278  1
  Dy  Dy5  1  0.588308  0.209390  0.378209  1
  Dy  Dy6  1  0.411692  0.790610  0.378209  1
  Dy  Dy7  1  0.411727  0.209477  0.878278  1
  Dy  Dy8  1  0.209390  0.411692  0.621791  1
  Dy  Dy9  1  0.209477  0.588273  0.121722  1
  Dy  Dy10  1  0.790523  0.411727  0.121722  1
  Dy  Dy11  1  0.790610  0.588308  0.621791  1
  Dy  Dy12  1  0.911706  0.709501  0.121769  1
  Dy  Dy13  1  0.911740  0.290492  0.621762  1
  Dy  Dy14  1  0.088260  0.709508  0.621762  1
  Dy  Dy15  1  0.088294  0.290499  0.121769  1
  Ho  Ho16  1  0.500000  0.500000  0.500000  1
  Er  Er17  1  0.000000  0.000000  0.500000  1
  Er  Er18  1  0.000000  0.000000  0.000000  1
  Er  Er19  1  0.500000  0.500000  0.000000  1
  Rh  Rh20  1  0.846625  0.153227  0.250175  1
  Rh  Rh21  1  0.846773  0.846625  0.749825  1
  Rh  Rh22  1  0.153227  0.153375  0.749825  1
  Rh  Rh23  1  0.153375  0.846773  0.250175  1
  Rh  Rh24  1  0.653359  0.346589  0.750713  1
  Rh  Rh25  1  0.653411  0.653359  0.249287  1
  Rh  Rh26  1  0.346589  0.346641  0.249287  1
  Rh  Rh27  1  0.346641  0.653411  0.750713  1
  Rh  Rh28  1  0.500000  0.000000  0.122296  1
  Rh  Rh29  1  0.500000  0.000000  0.622173  1
  Rh  Rh30  1  0.000000  0.500000  0.877704  1
  Rh  Rh31  1  0.000000  0.500000  0.377827  1
