# generated using pymatgen
data_Lu8Nb9Si16MoW2
_symmetry_space_group_name_H-M   'P 1'
_cell_length_a   6.74411706
_cell_length_b   6.98637666
_cell_length_c   13.23156200
_cell_angle_alpha   90.00000000
_cell_angle_beta   90.00000000
_cell_angle_gamma   89.96803811
_symmetry_Int_Tables_number   1
_chemical_formula_structural   Lu8Nb9Si16MoW2
_chemical_formula_sum   'Lu8 Nb9 Si16 Mo1 W2'
_cell_volume   623.43064214
_cell_formula_units_Z   1
loop_
 _symmetry_equiv_pos_site_id
 _symmetry_equiv_pos_as_xyz
  1  'x, y, z'
loop_
 _atom_site_type_symbol
 _atom_site_label
 _atom_site_symmetry_multiplicity
 _atom_site_fract_x
 _atom_site_fract_y
 _atom_site_fract_z
 _atom_site_occupancy
  Lu  Lu0  1  0.500822  0.327543  0.094689  1
  Lu  Lu1  1  0.000899  0.172466  0.405144  1
  Lu  Lu2  1  0.498607  0.672656  0.594933  1
  Lu  Lu3  1  0.998518  0.827375  0.905388  1
  Lu  Lu4  1  0.498607  0.672656  0.905067  1
  Lu  Lu5  1  0.998518  0.827375  0.594612  1
  Lu  Lu6  1  0.500822  0.327543  0.405311  1
  Lu  Lu7  1  0.000899  0.172466  0.094856  1
  Nb  Nb8  1  0.834289  0.329552  0.625369  1
  Nb  Nb9  1  0.333583  0.171318  0.874868  1
  Nb  Nb10  1  0.166345  0.670249  0.126099  1
  Nb  Nb11  1  0.666830  0.829900  0.373294  1
  Nb  Nb12  1  0.166345  0.670249  0.373901  1
  Nb  Nb13  1  0.666830  0.829900  0.126706  1
  Nb  Nb14  1  0.834289  0.329552  0.874631  1
  Nb  Nb15  1  0.333583  0.171318  0.625132  1
  Nb  Nb16  1  0.661022  0.006316  0.750000  1
  Si  Si17  1  0.665266  0.036360  0.541034  1
  Si  Si18  1  0.165200  0.463213  0.957486  1
  Si  Si19  1  0.335277  0.963176  0.043170  1
  Si  Si20  1  0.835004  0.536935  0.457259  1
  Si  Si21  1  0.335277  0.963176  0.456830  1
  Si  Si22  1  0.835004  0.536935  0.042741  1
  Si  Si23  1  0.665266  0.036360  0.958966  1
  Si  Si24  1  0.165200  0.463213  0.542514  1
  Si  Si25  1  0.532952  0.382920  0.750000  1
  Si  Si26  1  0.037572  0.120185  0.750000  1
  Si  Si27  1  0.466034  0.618932  0.250000  1
  Si  Si28  1  0.966762  0.881356  0.250000  1
  Si  Si29  1  0.798478  0.632345  0.750000  1
  Si  Si30  1  0.293367  0.862858  0.750000  1
  Si  Si31  1  0.201809  0.364330  0.250000  1
  Si  Si32  1  0.701809  0.136012  0.250000  1
  Mo  Mo33  1  0.838441  0.505189  0.250000  1
  W  W34  1  0.161134  0.493622  0.750000  1
  W  W35  1  0.339345  0.994448  0.250000  1
