# generated using pymatgen
data_Tb10Si4Bi3Pb
_symmetry_space_group_name_H-M   'P 1'
_cell_length_a   8.66836157
_cell_length_b   8.66836161
_cell_length_c   7.95838461
_cell_angle_alpha   89.89593456
_cell_angle_beta   89.89593237
_cell_angle_gamma   125.41847161
_symmetry_Int_Tables_number   1
_chemical_formula_structural   Tb10Si4Bi3Pb
_chemical_formula_sum   'Tb10 Si4 Bi3 Pb1'
_cell_volume   487.32840030
_cell_formula_units_Z   1
loop_
 _symmetry_equiv_pos_site_id
 _symmetry_equiv_pos_as_xyz
  1  'x, y, z'
loop_
 _atom_site_type_symbol
 _atom_site_label
 _atom_site_symmetry_multiplicity
 _atom_site_fract_x
 _atom_site_fract_y
 _atom_site_fract_z
 _atom_site_occupancy
  Tb  Tb0  1  0.044767  0.290614  0.329964  1
  Tb  Tb1  1  0.953908  0.707216  0.669127  1
  Tb  Tb2  1  0.457276  0.209339  0.833603  1
  Tb  Tb3  1  0.790661  0.542724  0.166397  1
  Tb  Tb4  1  0.546659  0.792840  0.166408  1
  Tb  Tb5  1  0.207160  0.453341  0.833592  1
  Tb  Tb6  1  0.709386  0.955233  0.670036  1
  Tb  Tb7  1  0.292784  0.046092  0.330873  1
  Tb  Tb8  1  0.998010  0.001990  0.000000  1
  Tb  Tb9  1  0.500306  0.499694  0.500000  1
  Si  Si10  1  0.371477  0.371170  0.128552  1
  Si  Si11  1  0.628830  0.628523  0.871448  1
  Si  Si12  1  0.129336  0.128680  0.628186  1
  Si  Si13  1  0.871320  0.870664  0.371814  1
  Bi  Bi14  1  0.208144  0.791856  0.000000  1
  Bi  Bi15  1  0.707906  0.292094  0.500000  1
  Bi  Bi16  1  0.291565  0.708435  0.500000  1
  Pb  Pb17  1  0.790505  0.209495  0.000000  1
