# generated using pymatgen
data_Co2Hg2OF6
_symmetry_space_group_name_H-M   'P 1'
_cell_length_a   7.52548350
_cell_length_b   7.50315239
_cell_length_c   7.51510850
_cell_angle_alpha   120.02397685
_cell_angle_beta   89.98714842
_cell_angle_gamma   120.18016140
_symmetry_Int_Tables_number   1
_chemical_formula_structural   Co2Hg2OF6
_chemical_formula_sum   'Co4 Hg4 O2 F12'
_cell_volume   299.15849320
_cell_formula_units_Z   2
loop_
 _symmetry_equiv_pos_site_id
 _symmetry_equiv_pos_as_xyz
  1  'x, y, z'
loop_
 _atom_site_type_symbol
 _atom_site_label
 _atom_site_symmetry_multiplicity
 _atom_site_fract_x
 _atom_site_fract_y
 _atom_site_fract_z
 _atom_site_occupancy
  Co  Co0  1  0.000000  0.000000  0.000000  1
  Co  Co1  1  0.000000  0.000000  0.500001  1
  Co  Co2  1  0.000000  0.500001  0.500001  1
  Co  Co3  1  0.500001  0.500001  0.500001  1
  Hg  Hg4  1  0.500001  0.000000  0.000000  1
  Hg  Hg5  1  0.000000  0.500001  0.000000  1
  Hg  Hg6  1  0.500001  0.500001  0.000000  1
  Hg  Hg7  1  0.500000  0.000000  0.500000  1
  O  O8  1  0.375271  0.750160  0.125373  1
  O  O9  1  0.624729  0.249841  0.874627  1
  F  F10  1  0.926030  0.250327  0.175902  1
  F  F11  1  0.925043  0.852080  0.176352  1
  F  F12  1  0.323291  0.250375  0.175219  1
  F  F13  1  0.675229  0.351544  0.426578  1
  F  F14  1  0.074129  0.749469  0.426156  1
  F  F15  1  0.676096  0.749669  0.425574  1
  F  F16  1  0.323904  0.250332  0.574426  1
  F  F17  1  0.925872  0.250532  0.573844  1
  F  F18  1  0.324771  0.648455  0.573422  1
  F  F19  1  0.074958  0.147920  0.823649  1
  F  F20  1  0.073971  0.749674  0.824099  1
  F  F21  1  0.676710  0.749626  0.824782  1
