# generated using pymatgen
data_Ho7Tm3(IrRu)2
_symmetry_space_group_name_H-M   'P 1'
_cell_length_a   6.36272501
_cell_length_b   7.24954077
_cell_length_c   8.41765614
_cell_angle_alpha   96.75133455
_cell_angle_beta   112.09937672
_cell_angle_gamma   89.98506770
_symmetry_Int_Tables_number   1
_chemical_formula_structural   Ho7Tm3(IrRu)2
_chemical_formula_sum   'Ho7 Tm3 Ir2 Ru2'
_cell_volume   356.85121753
_cell_formula_units_Z   1
loop_
 _symmetry_equiv_pos_site_id
 _symmetry_equiv_pos_as_xyz
  1  'x, y, z'
loop_
 _atom_site_type_symbol
 _atom_site_label
 _atom_site_symmetry_multiplicity
 _atom_site_fract_x
 _atom_site_fract_y
 _atom_site_fract_z
 _atom_site_occupancy
  Ho  Ho0  1  0.792193  0.081766  0.815221  1
  Ho  Ho1  1  0.977565  0.418348  0.185164  1
  Ho  Ho2  1  0.209191  0.915193  0.183323  1
  Ho  Ho3  1  0.026192  0.584728  0.816575  1
  Ho  Ho4  1  0.208606  0.182769  0.563776  1
  Ho  Ho5  1  0.644642  0.317732  0.436357  1
  Ho  Ho6  1  0.790089  0.814423  0.437662  1
  Tm  Tm7  1  0.352917  0.684849  0.563042  1
  Tm  Tm8  1  0.424247  0.249773  0.999773  1
  Tm  Tm9  1  0.575797  0.749911  0.999460  1
  Ir  Ir10  1  0.603544  0.424263  0.779655  1
  Ir  Ir11  1  0.823867  0.076123  0.220093  1
  Ru  Ru12  1  0.394500  0.575025  0.218913  1
  Ru  Ru13  1  0.176647  0.925096  0.780988  1
