# generated using pymatgen
data_Ta4Nb6Si5Ge
_symmetry_space_group_name_H-M   'P 1'
_cell_length_a   7.58554260
_cell_length_b   7.57762160
_cell_length_c   7.57741271
_cell_angle_alpha   128.14540133
_cell_angle_beta   128.17649213
_cell_angle_gamma   76.33946226
_symmetry_Int_Tables_number   1
_chemical_formula_structural   Ta4Nb6Si5Ge
_chemical_formula_sum   'Ta4 Nb6 Si5 Ge1'
_cell_volume   261.69922894
_cell_formula_units_Z   1
loop_
 _symmetry_equiv_pos_site_id
 _symmetry_equiv_pos_as_xyz
  1  'x, y, z'
loop_
 _atom_site_type_symbol
 _atom_site_label
 _atom_site_symmetry_multiplicity
 _atom_site_fract_x
 _atom_site_fract_y
 _atom_site_fract_z
 _atom_site_occupancy
  Ta  Ta0  1  0.316078  0.486500  0.504924  1
  Ta  Ta1  1  0.810709  0.316308  0.829349  1
  Ta  Ta2  1  0.500933  0.500619  0.999632  1
  Ta  Ta3  1  0.999774  0.000089  0.000323  1
  Nb  Nb4  1  0.015057  0.183775  0.495727  1
  Nb  Nb5  1  0.519713  0.014397  0.831126  1
  Nb  Nb6  1  0.184310  0.688563  0.169147  1
  Nb  Nb7  1  0.484850  0.980322  0.169511  1
  Nb  Nb8  1  0.689043  0.519759  0.505195  1
  Nb  Nb9  1  0.980144  0.810466  0.494920  1
  Si  Si10  1  0.129599  0.629484  0.759178  1
  Si  Si11  1  0.629784  0.870549  0.500317  1
  Si  Si12  1  0.370089  0.129691  0.500130  1
  Si  Si13  1  0.870220  0.369903  0.240352  1
  Si  Si14  1  0.749879  0.749501  0.999816  1
  Ge  Ge15  1  0.249818  0.250072  0.000352  1
