# generated using pymatgen
data_MgPa3Ge6Os7
_symmetry_space_group_name_H-M   'P 1'
_cell_length_a   7.20230746
_cell_length_b   7.30770103
_cell_length_c   7.20230667
_cell_angle_alpha   109.76793301
_cell_angle_beta   109.17289539
_cell_angle_gamma   109.76792551
_symmetry_Int_Tables_number   1
_chemical_formula_structural   MgPa3Ge6Os7
_chemical_formula_sum   'Mg1 Pa3 Ge6 Os7'
_cell_volume   290.73592800
_cell_formula_units_Z   1
loop_
 _symmetry_equiv_pos_site_id
 _symmetry_equiv_pos_as_xyz
  1  'x, y, z'
loop_
 _atom_site_type_symbol
 _atom_site_label
 _atom_site_symmetry_multiplicity
 _atom_site_fract_x
 _atom_site_fract_y
 _atom_site_fract_z
 _atom_site_occupancy
  Mg  Mg0  1  0.000000  0.500000  0.000000  1
  Pa  Pa1  1  0.000000  0.000000  0.500000  1
  Pa  Pa2  1  0.500000  0.000000  0.000000  1
  Pa  Pa3  1  0.500000  0.500000  0.500000  1
  Ge  Ge4  1  0.694755  0.685954  0.000000  1
  Ge  Ge5  1  0.305245  0.991198  0.305245  1
  Ge  Ge6  1  0.000000  0.314046  0.305245  1
  Ge  Ge7  1  0.305245  0.314046  0.000000  1
  Ge  Ge8  1  0.694755  0.008802  0.694755  1
  Ge  Ge9  1  0.000000  0.685954  0.694755  1
  Os  Os10  1  0.751113  0.251113  0.502224  1
  Os  Os11  1  0.751113  0.500000  0.248887  1
  Os  Os12  1  0.502224  0.251113  0.751113  1
  Os  Os13  1  0.248887  0.500000  0.751113  1
  Os  Os14  1  0.248887  0.748887  0.497776  1
  Os  Os15  1  0.497776  0.748887  0.248887  1
  Os  Os16  1  0.000000  0.000000  0.000000  1
