# generated using pymatgen
data_Dy4Er11Tm5Bi12
_symmetry_space_group_name_H-M   'P 1'
_cell_length_a   8.20863705
_cell_length_b   9.46707701
_cell_length_c   11.95197206
_cell_angle_alpha   90.00037957
_cell_angle_beta   89.98852208
_cell_angle_gamma   90.00401954
_symmetry_Int_Tables_number   1
_chemical_formula_structural   Dy4Er11Tm5Bi12
_chemical_formula_sum   'Dy4 Er11 Tm5 Bi12'
_cell_volume   928.80922980
_cell_formula_units_Z   1
loop_
 _symmetry_equiv_pos_site_id
 _symmetry_equiv_pos_as_xyz
  1  'x, y, z'
loop_
 _atom_site_type_symbol
 _atom_site_label
 _atom_site_symmetry_multiplicity
 _atom_site_fract_x
 _atom_site_fract_y
 _atom_site_fract_z
 _atom_site_occupancy
  Dy  Dy0  1  0.312348  0.250005  0.218432  1
  Dy  Dy1  1  0.812316  0.250006  0.281556  1
  Dy  Dy2  1  0.687657  0.749993  0.781549  1
  Dy  Dy3  1  0.187651  0.749950  0.718397  1
  Er  Er4  1  0.352505  0.749928  0.216873  1
  Er  Er5  1  0.852691  0.749948  0.283283  1
  Er  Er6  1  0.647416  0.249974  0.783175  1
  Er  Er7  1  0.147362  0.249960  0.716849  1
  Er  Er8  1  0.692680  0.565363  0.059194  1
  Er  Er9  1  0.192720  0.934508  0.440812  1
  Er  Er10  1  0.307335  0.065402  0.940782  1
  Er  Er11  1  0.807253  0.434560  0.559226  1
  Er  Er12  1  0.307324  0.434623  0.940795  1
  Er  Er13  1  0.807299  0.065441  0.559203  1
  Er  Er14  1  0.692672  0.934667  0.059177  1
  Tm  Tm15  1  0.192789  0.565650  0.440801  1
  Tm  Tm16  1  0.475975  0.250014  0.488891  1
  Tm  Tm17  1  0.976016  0.249977  0.011111  1
  Tm  Tm18  1  0.523850  0.749933  0.511071  1
  Tm  Tm19  1  0.023973  0.750000  0.988904  1
  Bi  Bi20  1  0.405297  0.750004  0.958157  1
  Bi  Bi21  1  0.905380  0.749895  0.541794  1
  Bi  Bi22  1  0.594695  0.250006  0.041838  1
  Bi  Bi23  1  0.094782  0.250322  0.458118  1
  Bi  Bi24  1  0.565188  0.994863  0.325982  1
  Bi  Bi25  1  0.065229  0.505103  0.174075  1
  Bi  Bi26  1  0.434822  0.494856  0.673992  1
  Bi  Bi27  1  0.934809  0.005103  0.825962  1
  Bi  Bi28  1  0.434791  0.005092  0.674017  1
  Bi  Bi29  1  0.934831  0.494870  0.825946  1
  Bi  Bi30  1  0.565135  0.505117  0.325996  1
  Bi  Bi31  1  0.065212  0.994867  0.174041  1
