# generated using pymatgen
data_Pr3Y5(HgIr)2
_symmetry_space_group_name_H-M   'P 1'
_cell_length_a   9.77248452
_cell_length_b   9.77248333
_cell_length_c   9.77248400
_cell_angle_alpha   59.99999773
_cell_angle_beta   60.00000175
_cell_angle_gamma   59.99999910
_symmetry_Int_Tables_number   1
_chemical_formula_structural   Pr3Y5(HgIr)2
_chemical_formula_sum   'Pr6 Y10 Hg4 Ir4'
_cell_volume   659.93307461
_cell_formula_units_Z   2
loop_
 _symmetry_equiv_pos_site_id
 _symmetry_equiv_pos_as_xyz
  1  'x, y, z'
loop_
 _atom_site_type_symbol
 _atom_site_label
 _atom_site_symmetry_multiplicity
 _atom_site_fract_x
 _atom_site_fract_y
 _atom_site_fract_z
 _atom_site_occupancy
  Pr  Pr0  1  0.941574  0.558426  0.558426  1
  Pr  Pr1  1  0.558426  0.941574  0.941574  1
  Pr  Pr2  1  0.558426  0.941574  0.558426  1
  Pr  Pr3  1  0.941574  0.558426  0.941574  1
  Pr  Pr4  1  0.558426  0.558426  0.941574  1
  Pr  Pr5  1  0.941574  0.941574  0.558426  1
  Y  Y6  1  0.349285  0.349285  0.349285  1
  Y  Y7  1  0.349285  0.349285  0.952144  1
  Y  Y8  1  0.349285  0.952144  0.349285  1
  Y  Y9  1  0.952144  0.349285  0.349285  1
  Y  Y10  1  0.811422  0.188578  0.188578  1
  Y  Y11  1  0.188578  0.811422  0.811422  1
  Y  Y12  1  0.188578  0.811422  0.188578  1
  Y  Y13  1  0.811422  0.188578  0.811422  1
  Y  Y14  1  0.188578  0.188578  0.811422  1
  Y  Y15  1  0.811422  0.811422  0.188578  1
  Hg  Hg16  1  0.582601  0.582601  0.582601  1
  Hg  Hg17  1  0.582601  0.582601  0.252196  1
  Hg  Hg18  1  0.582601  0.252196  0.582601  1
  Hg  Hg19  1  0.252196  0.582601  0.582601  1
  Ir  Ir20  1  0.141213  0.141213  0.141213  1
  Ir  Ir21  1  0.141213  0.141213  0.576362  1
  Ir  Ir22  1  0.141213  0.576362  0.141213  1
  Ir  Ir23  1  0.576362  0.141213  0.141213  1
