# generated using pymatgen
data_Sm4MoSe5O24
_symmetry_space_group_name_H-M   'P 1'
_cell_length_a   10.23132463
_cell_length_b   10.23133408
_cell_length_c   10.30084698
_cell_angle_alpha   57.70714524
_cell_angle_beta   57.70715929
_cell_angle_gamma   58.06527830
_symmetry_Int_Tables_number   1
_chemical_formula_structural   Sm4MoSe5O24
_chemical_formula_sum   'Sm4 Mo1 Se5 O24'
_cell_volume   724.39887254
_cell_formula_units_Z   1
loop_
 _symmetry_equiv_pos_site_id
 _symmetry_equiv_pos_as_xyz
  1  'x, y, z'
loop_
 _atom_site_type_symbol
 _atom_site_label
 _atom_site_symmetry_multiplicity
 _atom_site_fract_x
 _atom_site_fract_y
 _atom_site_fract_z
 _atom_site_occupancy
  Sm  Sm0  1  0.144927  0.136980  0.151846  1
  Sm  Sm1  1  0.854222  0.860535  0.858949  1
  Sm  Sm2  1  0.363020  0.355073  0.348154  1
  Sm  Sm3  1  0.639465  0.645778  0.641051  1
  Mo  Mo4  1  0.037553  0.462448  0.750000  1
  Se  Se5  1  0.466252  0.751116  0.031427  1
  Se  Se6  1  0.748884  0.033749  0.468573  1
  Se  Se7  1  0.965951  0.534048  0.250000  1
  Se  Se8  1  0.247698  0.966597  0.537623  1
  Se  Se9  1  0.533402  0.252302  0.962377  1
  O  O10  1  0.225549  0.992085  0.376077  1
  O  O11  1  0.369682  0.226639  0.994502  1
  O  O12  1  0.994298  0.369871  0.228009  1
  O  O13  1  0.770502  0.006186  0.631510  1
  O  O14  1  0.630573  0.773090  0.003454  1
  O  O15  1  0.005279  0.639191  0.773958  1
  O  O16  1  0.273361  0.130318  0.505498  1
  O  O17  1  0.507915  0.274451  0.123923  1
  O  O18  1  0.130129  0.505702  0.271991  1
  O  O19  1  0.726910  0.869427  0.496546  1
  O  O20  1  0.067137  0.285400  0.928050  1
  O  O21  1  0.300845  0.914561  0.063062  1
  O  O22  1  0.915214  0.060944  0.303505  1
  O  O23  1  0.936799  0.700091  0.085377  1
  O  O24  1  0.700148  0.089380  0.933425  1
  O  O25  1  0.081653  0.941616  0.703221  1
  O  O26  1  0.214599  0.432863  0.571950  1
  O  O27  1  0.439057  0.584785  0.196495  1
  O  O28  1  0.585439  0.199155  0.436938  1
  O  O29  1  0.799910  0.563201  0.414623  1
  O  O30  1  0.558383  0.418348  0.796779  1
  O  O31  1  0.410620  0.799852  0.566575  1
  O  O32  1  0.860809  0.494721  0.726042  1
  O  O33  1  0.493814  0.729498  0.868490  1
