# generated using pymatgen
data_Nd3Er5(CdRh)2
_symmetry_space_group_name_H-M   'P 1'
_cell_length_a   9.68839285
_cell_length_b   9.68839340
_cell_length_c   9.68839300
_cell_angle_alpha   59.99999796
_cell_angle_beta   59.99999608
_cell_angle_gamma   59.99999927
_symmetry_Int_Tables_number   1
_chemical_formula_structural   Nd3Er5(CdRh)2
_chemical_formula_sum   'Nd6 Er10 Cd4 Rh4'
_cell_volume   643.04332316
_cell_formula_units_Z   2
loop_
 _symmetry_equiv_pos_site_id
 _symmetry_equiv_pos_as_xyz
  1  'x, y, z'
loop_
 _atom_site_type_symbol
 _atom_site_label
 _atom_site_symmetry_multiplicity
 _atom_site_fract_x
 _atom_site_fract_y
 _atom_site_fract_z
 _atom_site_occupancy
  Nd  Nd0  1  0.189868  0.810132  0.810132  1
  Nd  Nd1  1  0.810132  0.189868  0.189868  1
  Nd  Nd2  1  0.810132  0.189868  0.810132  1
  Nd  Nd3  1  0.189868  0.810132  0.189868  1
  Nd  Nd4  1  0.810132  0.810132  0.189868  1
  Nd  Nd5  1  0.189868  0.189868  0.810132  1
  Er  Er6  1  0.598245  0.598245  0.598245  1
  Er  Er7  1  0.598245  0.598245  0.205267  1
  Er  Er8  1  0.598245  0.205267  0.598245  1
  Er  Er9  1  0.205267  0.598245  0.598245  1
  Er  Er10  1  0.063966  0.436034  0.436034  1
  Er  Er11  1  0.436034  0.063966  0.063966  1
  Er  Er12  1  0.436034  0.063966  0.436034  1
  Er  Er13  1  0.063966  0.436034  0.063966  1
  Er  Er14  1  0.436034  0.436034  0.063966  1
  Er  Er15  1  0.063966  0.063966  0.436034  1
  Cd  Cd16  1  0.829757  0.829757  0.829757  1
  Cd  Cd17  1  0.829757  0.829757  0.510728  1
  Cd  Cd18  1  0.829757  0.510728  0.829757  1
  Cd  Cd19  1  0.510728  0.829757  0.829757  1
  Rh  Rh20  1  0.392460  0.392460  0.392460  1
  Rh  Rh21  1  0.392460  0.392460  0.822620  1
  Rh  Rh22  1  0.392460  0.822620  0.392460  1
  Rh  Rh23  1  0.822620  0.392460  0.392460  1
