# generated using pymatgen
data_Rb4NiO3
_symmetry_space_group_name_H-M   'P 1'
_cell_length_a   7.14382215
_cell_length_b   11.85027764
_cell_length_c   9.65888251
_cell_angle_alpha   109.28585311
_cell_angle_beta   101.91134655
_cell_angle_gamma   89.61406488
_symmetry_Int_Tables_number   1
_chemical_formula_structural   Rb4NiO3
_chemical_formula_sum   'Rb16 Ni4 O12'
_cell_volume   753.50777011
_cell_formula_units_Z   4
loop_
 _symmetry_equiv_pos_site_id
 _symmetry_equiv_pos_as_xyz
  1  'x, y, z'
loop_
 _atom_site_type_symbol
 _atom_site_label
 _atom_site_symmetry_multiplicity
 _atom_site_fract_x
 _atom_site_fract_y
 _atom_site_fract_z
 _atom_site_occupancy
  Rb  Rb0  1  0.417954  0.166547  0.600773  1
  Rb  Rb1  1  0.917764  0.666396  0.600321  1
  Rb  Rb2  1  0.082256  0.333298  0.399207  1
  Rb  Rb3  1  0.582299  0.833495  0.399629  1
  Rb  Rb4  1  0.496725  0.290727  0.996086  1
  Rb  Rb5  1  0.996633  0.790609  0.995488  1
  Rb  Rb6  1  0.003429  0.209159  0.003696  1
  Rb  Rb7  1  0.503550  0.709394  0.004480  1
  Rb  Rb8  1  0.618087  0.968296  0.858315  1
  Rb  Rb9  1  0.118559  0.468195  0.858707  1
  Rb  Rb10  1  0.881529  0.531541  0.141103  1
  Rb  Rb11  1  0.382009  0.031776  0.141576  1
  Rb  Rb12  1  0.071889  0.866657  0.385009  1
  Rb  Rb13  1  0.571926  0.366934  0.385397  1
  Rb  Rb14  1  0.428353  0.633332  0.615128  1
  Rb  Rb15  1  0.928095  0.133181  0.614145  1
  Ni  Ni16  1  0.638574  0.438477  0.762272  1
  Ni  Ni17  1  0.861832  0.061211  0.236952  1
  Ni  Ni18  1  0.138653  0.938386  0.762118  1
  Ni  Ni19  1  0.361217  0.561532  0.237411  1
  O  O20  1  0.119841  0.088491  0.341102  1
  O  O21  1  0.619629  0.588532  0.340779  1
  O  O22  1  0.380082  0.411607  0.659421  1
  O  O23  1  0.879972  0.911615  0.659442  1
  O  O24  1  0.266143  0.086943  0.802132  1
  O  O25  1  0.766350  0.586810  0.802053  1
  O  O26  1  0.233557  0.413240  0.198036  1
  O  O27  1  0.733623  0.913325  0.198537  1
  O  O28  1  0.270075  0.820205  0.822245  1
  O  O29  1  0.770033  0.320067  0.822119  1
  O  O30  1  0.229520  0.679973  0.177938  1
  O  O31  1  0.729843  0.180050  0.178386  1
