# generated using pymatgen
data_Pa2PdS4
_symmetry_space_group_name_H-M   'P 1'
_cell_length_a   8.53092522
_cell_length_b   7.84623448
_cell_length_c   6.79950090
_cell_angle_alpha   70.84006062
_cell_angle_beta   60.31859169
_cell_angle_gamma   48.84135014
_symmetry_Int_Tables_number   1
_chemical_formula_structural   Pa2PdS4
_chemical_formula_sum   'Pa4 Pd2 S8'
_cell_volume   297.70029320
_cell_formula_units_Z   2
loop_
 _symmetry_equiv_pos_site_id
 _symmetry_equiv_pos_as_xyz
  1  'x, y, z'
loop_
 _atom_site_type_symbol
 _atom_site_label
 _atom_site_symmetry_multiplicity
 _atom_site_fract_x
 _atom_site_fract_y
 _atom_site_fract_z
 _atom_site_occupancy
  Pa  Pa0  1  0.417817  0.528279  0.180825  1
  Pa  Pa1  1  0.873078  0.180825  0.528279  1
  Pa  Pa2  1  0.069175  0.376922  0.832183  1
  Pa  Pa3  1  0.721721  0.832183  0.376922  1
  Pd  Pd4  1  0.248738  0.251262  0.251262  1
  Pd  Pd5  1  0.998738  0.001262  0.001262  1
  S  S6  1  0.698444  0.555280  0.242017  1
  S  S7  1  0.504259  0.242017  0.555280  1
  S  S8  1  0.007983  0.745741  0.551556  1
  S  S9  1  0.694720  0.551556  0.745741  1
  S  S10  1  0.137205  0.586944  0.022992  1
  S  S11  1  0.252859  0.022992  0.586944  1
  S  S12  1  0.663056  0.112795  0.997141  1
  S  S13  1  0.227008  0.997141  0.112795  1
