# generated using pymatgen
data_Nd4AlSi2Pd27
_symmetry_space_group_name_H-M   'P 1'
_cell_length_a   8.98045427
_cell_length_b   8.98045427
_cell_length_c   7.13937858
_cell_angle_alpha   90.45007900
_cell_angle_beta   90.45007900
_cell_angle_gamma   88.80307520
_symmetry_Int_Tables_number   1
_chemical_formula_structural   Nd4AlSi2Pd27
_chemical_formula_sum   'Nd4 Al1 Si2 Pd27'
_cell_volume   575.62016755
_cell_formula_units_Z   1
loop_
 _symmetry_equiv_pos_site_id
 _symmetry_equiv_pos_as_xyz
  1  'x, y, z'
loop_
 _atom_site_type_symbol
 _atom_site_label
 _atom_site_symmetry_multiplicity
 _atom_site_fract_x
 _atom_site_fract_y
 _atom_site_fract_z
 _atom_site_occupancy
  Nd  Nd0  1  0.510828  0.010828  0.932293  1
  Nd  Nd1  1  0.989172  0.489172  0.067707  1
  Nd  Nd2  1  0.003614  0.996386  0.500000  1
  Nd  Nd3  1  0.496386  0.503614  0.500000  1
  Al  Al4  1  0.250000  0.750000  0.000000  1
  Si  Si5  1  0.502002  0.002002  0.446050  1
  Si  Si6  1  0.997998  0.497998  0.553950  1
  Pd  Pd7  1  0.337543  0.837543  0.606481  1
  Pd  Pd8  1  0.332667  0.165826  0.618580  1
  Pd  Pd9  1  0.665826  0.832667  0.618580  1
  Pd  Pd10  1  0.666069  0.166069  0.612843  1
  Pd  Pd11  1  0.162457  0.662457  0.393519  1
  Pd  Pd12  1  0.167333  0.334174  0.381420  1
  Pd  Pd13  1  0.834174  0.667333  0.381420  1
  Pd  Pd14  1  0.833931  0.333931  0.387157  1
  Pd  Pd15  1  0.499154  0.772128  0.252028  1
  Pd  Pd16  1  0.496631  0.231919  0.258035  1
  Pd  Pd17  1  0.272128  0.999154  0.252028  1
  Pd  Pd18  1  0.731919  0.996631  0.258035  1
  Pd  Pd19  1  0.000846  0.727872  0.747972  1
  Pd  Pd20  1  0.003369  0.268081  0.741965  1
  Pd  Pd21  1  0.227872  0.500846  0.747972  1
  Pd  Pd22  1  0.768081  0.503369  0.741965  1
  Pd  Pd23  1  0.498533  0.354968  0.854278  1
  Pd  Pd24  1  0.489194  0.664072  0.865949  1
  Pd  Pd25  1  0.854968  0.998533  0.854278  1
  Pd  Pd26  1  0.164072  0.989194  0.865949  1
  Pd  Pd27  1  0.001467  0.145032  0.145722  1
  Pd  Pd28  1  0.010806  0.835928  0.134051  1
  Pd  Pd29  1  0.645032  0.501467  0.145722  1
  Pd  Pd30  1  0.335928  0.510806  0.134051  1
  Pd  Pd31  1  0.250000  0.250000  0.000000  1
  Pd  Pd32  1  0.750000  0.750000  0.000000  1
  Pd  Pd33  1  0.750000  0.250000  0.000000  1
