# generated using pymatgen
data_HoTm3(TcB6)2
_symmetry_space_group_name_H-M   'P 1'
_cell_length_a   3.65071400
_cell_length_b   9.10366500
_cell_length_c   11.46503214
_cell_angle_alpha   89.99281387
_cell_angle_beta   90.00000000
_cell_angle_gamma   90.00000000
_symmetry_Int_Tables_number   1
_chemical_formula_structural   HoTm3(TcB6)2
_chemical_formula_sum   'Ho2 Tm6 Tc4 B24'
_cell_volume   381.03893334
_cell_formula_units_Z   2
loop_
 _symmetry_equiv_pos_site_id
 _symmetry_equiv_pos_as_xyz
  1  'x, y, z'
loop_
 _atom_site_type_symbol
 _atom_site_label
 _atom_site_symmetry_multiplicity
 _atom_site_fract_x
 _atom_site_fract_y
 _atom_site_fract_z
 _atom_site_occupancy
  Ho  Ho0  1  0.500000  0.323528  0.414042  1
  Ho  Ho1  1  0.500000  0.676472  0.585958  1
  Tm  Tm2  1  0.500000  0.176078  0.914321  1
  Tm  Tm3  1  0.500000  0.823922  0.085679  1
  Tm  Tm4  1  0.500000  0.443152  0.130151  1
  Tm  Tm5  1  0.500000  0.556848  0.869849  1
  Tm  Tm6  1  0.500000  0.056835  0.630828  1
  Tm  Tm7  1  0.500000  0.943165  0.369172  1
  Tc  Tc8  1  0.500000  0.139248  0.179344  1
  Tc  Tc9  1  0.500000  0.860752  0.820656  1
  Tc  Tc10  1  0.500000  0.360197  0.680326  1
  Tc  Tc11  1  0.500000  0.639803  0.319674  1
  B  B12  1  0.000000  0.099313  0.472370  1
  B  B13  1  0.000000  0.900687  0.527630  1
  B  B14  1  0.000000  0.399877  0.972173  1
  B  B15  1  0.000000  0.600123  0.027827  1
  B  B16  1  0.000000  0.130552  0.314863  1
  B  B17  1  0.000000  0.869448  0.685137  1
  B  B18  1  0.000000  0.368954  0.815697  1
  B  B19  1  0.000000  0.631046  0.184303  1
  B  B20  1  0.000000  0.053525  0.066544  1
  B  B21  1  0.000000  0.946475  0.933456  1
  B  B22  1  0.000000  0.446170  0.567225  1
  B  B23  1  0.000000  0.553830  0.432775  1
  B  B24  1  0.000000  0.482064  0.287665  1
  B  B25  1  0.000000  0.517936  0.712335  1
  B  B26  1  0.000000  0.018418  0.788581  1
  B  B27  1  0.000000  0.981582  0.211419  1
  B  B28  1  0.000000  0.249784  0.080502  1
  B  B29  1  0.000000  0.750216  0.919498  1
  B  B30  1  0.000000  0.249826  0.581424  1
  B  B31  1  0.000000  0.750174  0.418576  1
  B  B32  1  0.000000  0.292739  0.234557  1
  B  B33  1  0.000000  0.707261  0.765443  1
  B  B34  1  0.000000  0.206913  0.735602  1
  B  B35  1  0.000000  0.793087  0.264398  1
