# generated using pymatgen
data_Sr6CuC2N7
_symmetry_space_group_name_H-M   'P 1'
_cell_length_a   3.87597200
_cell_length_b   9.96451300
_cell_length_c   14.77433500
_cell_angle_alpha   90.00000000
_cell_angle_beta   90.00000000
_cell_angle_gamma   90.00000000
_symmetry_Int_Tables_number   1
_chemical_formula_structural   Sr6CuC2N7
_chemical_formula_sum   'Sr12 Cu2 C4 N14'
_cell_volume   570.61692797
_cell_formula_units_Z   2
loop_
 _symmetry_equiv_pos_site_id
 _symmetry_equiv_pos_as_xyz
  1  'x, y, z'
loop_
 _atom_site_type_symbol
 _atom_site_label
 _atom_site_symmetry_multiplicity
 _atom_site_fract_x
 _atom_site_fract_y
 _atom_site_fract_z
 _atom_site_occupancy
  Sr  Sr0  1  0.056600  0.427242  0.889866  1
  Sr  Sr1  1  0.056600  0.572758  0.110134  1
  Sr  Sr2  1  0.943400  0.927242  0.610134  1
  Sr  Sr3  1  0.943400  0.072758  0.389866  1
  Sr  Sr4  1  0.490855  0.099299  0.835372  1
  Sr  Sr5  1  0.490855  0.900701  0.164628  1
  Sr  Sr6  1  0.509145  0.599299  0.664628  1
  Sr  Sr7  1  0.509145  0.400701  0.335372  1
  Sr  Sr8  1  0.438619  0.242389  0.555859  1
  Sr  Sr9  1  0.438619  0.757611  0.444141  1
  Sr  Sr10  1  0.561381  0.742389  0.944141  1
  Sr  Sr11  1  0.561381  0.257611  0.055859  1
  Cu  Cu12  1  0.974144  0.500000  0.500000  1
  Cu  Cu13  1  0.025856  0.000000  0.000000  1
  C  C14  1  0.817020  0.272496  0.718701  1
  C  C15  1  0.817020  0.727504  0.281299  1
  C  C16  1  0.182980  0.772496  0.781299  1
  C  C17  1  0.182980  0.227504  0.218701  1
  N  N18  1  0.563769  0.500000  0.000000  1
  N  N19  1  0.436231  0.000000  0.500000  1
  N  N20  1  0.027205  0.171482  0.944749  1
  N  N21  1  0.027205  0.828518  0.055251  1
  N  N22  1  0.972795  0.671482  0.555251  1
  N  N23  1  0.972795  0.328518  0.444749  1
  N  N24  1  0.968565  0.169474  0.692804  1
  N  N25  1  0.968565  0.830526  0.307196  1
  N  N26  1  0.031435  0.669474  0.807196  1
  N  N27  1  0.031435  0.330526  0.192804  1
  N  N28  1  0.638992  0.367757  0.746150  1
  N  N29  1  0.638992  0.632243  0.253850  1
  N  N30  1  0.361008  0.867757  0.753850  1
  N  N31  1  0.361008  0.132243  0.246150  1
