# generated using pymatgen
data_Pa4Al12Rh
_symmetry_space_group_name_H-M   'P 1'
_cell_length_a   7.49508930
_cell_length_b   7.49508863
_cell_length_c   7.49508900
_cell_angle_alpha   109.47122163
_cell_angle_beta   109.47121981
_cell_angle_gamma   109.47122327
_symmetry_Int_Tables_number   1
_chemical_formula_structural   Pa4Al12Rh
_chemical_formula_sum   'Pa4 Al12 Rh1'
_cell_volume   324.12197256
_cell_formula_units_Z   1
loop_
 _symmetry_equiv_pos_site_id
 _symmetry_equiv_pos_as_xyz
  1  'x, y, z'
loop_
 _atom_site_type_symbol
 _atom_site_label
 _atom_site_symmetry_multiplicity
 _atom_site_fract_x
 _atom_site_fract_y
 _atom_site_fract_z
 _atom_site_occupancy
  Pa  Pa0  1  0.500000  0.500000  0.500000  1
  Pa  Pa1  1  0.000000  0.500000  0.000000  1
  Pa  Pa2  1  0.000000  0.000000  0.500000  1
  Pa  Pa3  1  0.500000  0.000000  0.000000  1
  Al  Al4  1  0.750000  0.250000  0.500000  1
  Al  Al5  1  0.000000  0.708740  0.708740  1
  Al  Al6  1  0.291260  0.000000  0.291260  1
  Al  Al7  1  0.500000  0.250000  0.750000  1
  Al  Al8  1  0.750000  0.500000  0.250000  1
  Al  Al9  1  0.250000  0.750000  0.500000  1
  Al  Al10  1  0.250000  0.500000  0.750000  1
  Al  Al11  1  0.708740  0.000000  0.708740  1
  Al  Al12  1  0.500000  0.750000  0.250000  1
  Al  Al13  1  0.708740  0.708740  0.000000  1
  Al  Al14  1  0.291260  0.291260  0.000000  1
  Al  Al15  1  0.000000  0.291260  0.291260  1
  Rh  Rh16  1  0.000000  0.000000  0.000000  1
