# generated using pymatgen
data_Er12InCo2Ni2Os
_symmetry_space_group_name_H-M   'P 1'
_cell_length_a   8.22960218
_cell_length_b   8.22960219
_cell_length_c   8.22960321
_cell_angle_alpha   112.01065328
_cell_angle_beta   110.50860948
_cell_angle_gamma   105.95443567
_symmetry_Int_Tables_number   1
_chemical_formula_structural   Er12InCo2Ni2Os
_chemical_formula_sum   'Er12 In1 Co2 Ni2 Os1'
_cell_volume   427.77539457
_cell_formula_units_Z   1
loop_
 _symmetry_equiv_pos_site_id
 _symmetry_equiv_pos_as_xyz
  1  'x, y, z'
loop_
 _atom_site_type_symbol
 _atom_site_label
 _atom_site_symmetry_multiplicity
 _atom_site_fract_x
 _atom_site_fract_y
 _atom_site_fract_z
 _atom_site_occupancy
  Er  Er0  1  0.179399  0.274508  0.453908  1
  Er  Er1  1  0.820601  0.725492  0.546092  1
  Er  Er2  1  0.179399  0.725492  0.904890  1
  Er  Er3  1  0.820601  0.274508  0.095110  1
  Er  Er4  1  0.327578  0.637802  0.310224  1
  Er  Er5  1  0.672422  0.362198  0.689776  1
  Er  Er6  1  0.327578  0.017355  0.689776  1
  Er  Er7  1  0.672422  0.982645  0.310224  1
  Er  Er8  1  0.414591  0.224663  0.189928  1
  Er  Er9  1  0.585409  0.775337  0.810072  1
  Er  Er10  1  0.034735  0.224663  0.810072  1
  Er  Er11  1  0.965265  0.775337  0.189928  1
  In  In12  1  0.500000  0.500000  0.000000  1
  Co  Co13  1  0.347876  0.000000  0.347876  1
  Co  Co14  1  0.652124  0.000000  0.652124  1
  Ni  Ni15  1  0.117456  0.617456  0.500000  1
  Ni  Ni16  1  0.882544  0.382544  0.500000  1
  Os  Os17  1  0.000000  0.000000  0.000000  1
