# generated using pymatgen
data_TbNd(ZnPb)2
_symmetry_space_group_name_H-M   'P 1'
_cell_length_a   4.65180700
_cell_length_b   4.65180709
_cell_length_c   16.25929500
_cell_angle_alpha   90.00000000
_cell_angle_beta   90.00000000
_cell_angle_gamma   119.99997806
_symmetry_Int_Tables_number   1
_chemical_formula_structural   TbNd(ZnPb)2
_chemical_formula_sum   'Tb2 Nd2 Zn4 Pb4'
_cell_volume   304.70236295
_cell_formula_units_Z   2
loop_
 _symmetry_equiv_pos_site_id
 _symmetry_equiv_pos_as_xyz
  1  'x, y, z'
loop_
 _atom_site_type_symbol
 _atom_site_label
 _atom_site_symmetry_multiplicity
 _atom_site_fract_x
 _atom_site_fract_y
 _atom_site_fract_z
 _atom_site_occupancy
  Tb  Tb0  1  0.000000  0.000000  0.750000  1
  Tb  Tb1  1  0.000000  0.000000  0.250000  1
  Nd  Nd2  1  0.000000  0.000000  0.500000  1
  Nd  Nd3  1  0.000000  0.000000  0.000000  1
  Zn  Zn4  1  0.666667  0.333333  0.834558  1
  Zn  Zn5  1  0.666667  0.333333  0.665442  1
  Zn  Zn6  1  0.333333  0.666667  0.165442  1
  Zn  Zn7  1  0.333333  0.666667  0.334558  1
  Pb  Pb8  1  0.666667  0.333333  0.114248  1
  Pb  Pb9  1  0.666667  0.333333  0.385752  1
  Pb  Pb10  1  0.333333  0.666667  0.885752  1
  Pb  Pb11  1  0.333333  0.666667  0.614248  1
