# generated using pymatgen
data_Ba2Sr6Ta3NbO18
_symmetry_space_group_name_H-M   'P 1'
_cell_length_a   5.99453801
_cell_length_b   5.99449682
_cell_length_c   15.89458900
_cell_angle_alpha   90.00053568
_cell_angle_beta   89.99963815
_cell_angle_gamma   119.99919748
_symmetry_Int_Tables_number   1
_chemical_formula_structural   Ba2Sr6Ta3NbO18
_chemical_formula_sum   'Ba2 Sr6 Ta3 Nb1 O18'
_cell_volume   494.64303505
_cell_formula_units_Z   1
loop_
 _symmetry_equiv_pos_site_id
 _symmetry_equiv_pos_as_xyz
  1  'x, y, z'
loop_
 _atom_site_type_symbol
 _atom_site_label
 _atom_site_symmetry_multiplicity
 _atom_site_fract_x
 _atom_site_fract_y
 _atom_site_fract_z
 _atom_site_occupancy
  Ba  Ba0  1  0.000010  0.000033  0.749733  1
  Ba  Ba1  1  0.999987  0.999964  0.250838  1
  Sr  Sr2  1  0.666678  0.333362  0.637027  1
  Sr  Sr3  1  0.333324  0.666637  0.138810  1
  Sr  Sr4  1  0.333327  0.666642  0.362970  1
  Sr  Sr5  1  0.666674  0.333357  0.862349  1
  Sr  Sr6  1  0.999998  0.999998  0.499552  1
  Sr  Sr7  1  0.000002  0.000000  0.999163  1
  Ta  Ta8  1  0.666660  0.333300  0.345183  1
  Ta  Ta9  1  0.333340  0.666697  0.845725  1
  Ta  Ta10  1  0.333342  0.666700  0.654205  1
  Nb  Nb11  1  0.666658  0.333302  0.152787  1
  O  O12  1  0.530585  0.961130  0.750137  1
  O  O13  1  0.038923  0.569513  0.750137  1
  O  O14  1  0.430524  0.469463  0.750139  1
  O  O15  1  0.468375  0.036916  0.250443  1
  O  O16  1  0.963032  0.431400  0.250445  1
  O  O17  1  0.568564  0.531578  0.250446  1
  O  O18  1  0.083835  0.354767  0.601345  1
  O  O19  1  0.645294  0.729129  0.601357  1
  O  O20  1  0.270918  0.916228  0.601357  1
  O  O21  1  0.918178  0.647078  0.100895  1
  O  O22  1  0.352863  0.271038  0.100908  1
  O  O23  1  0.728915  0.081762  0.100908  1
  O  O24  1  0.915612  0.644919  0.398844  1
  O  O25  1  0.355020  0.270630  0.398832  1
  O  O26  1  0.729321  0.084326  0.398832  1
  O  O27  1  0.083736  0.354967  0.898886  1
  O  O28  1  0.645095  0.728838  0.898875  1
  O  O29  1  0.271212  0.916326  0.898874  1
