# generated using pymatgen
data_La3Nd2P12Ir11Ru8
_symmetry_space_group_name_H-M   'P 1'
_cell_length_a   12.76099835
_cell_length_b   12.73347962
_cell_length_c   4.02701100
_cell_angle_alpha   90.00000000
_cell_angle_beta   90.00000000
_cell_angle_gamma   120.06241258
_symmetry_Int_Tables_number   1
_chemical_formula_structural   La3Nd2P12Ir11Ru8
_chemical_formula_sum   'La3 Nd2 P12 Ir11 Ru8'
_cell_volume   566.33280853
_cell_formula_units_Z   1
loop_
 _symmetry_equiv_pos_site_id
 _symmetry_equiv_pos_as_xyz
  1  'x, y, z'
loop_
 _atom_site_type_symbol
 _atom_site_label
 _atom_site_symmetry_multiplicity
 _atom_site_fract_x
 _atom_site_fract_y
 _atom_site_fract_z
 _atom_site_occupancy
  La  La0  1  0.813301  0.001030  0.500000  1
  La  La1  1  0.183807  0.185469  0.500000  1
  La  La2  1  0.999065  0.814147  0.500000  1
  Nd  Nd3  1  0.666908  0.331423  0.000000  1
  Nd  Nd4  1  0.334578  0.668950  0.000000  1
  P  P5  1  0.629773  0.998434  0.000000  1
  P  P6  1  0.367007  0.367199  0.000000  1
  P  P7  1  0.000662  0.632529  0.000000  1
  P  P8  1  0.690192  0.518122  0.500000  1
  P  P9  1  0.828737  0.306075  0.500000  1
  P  P10  1  0.315731  0.833516  0.500000  1
  P  P11  1  0.519795  0.692821  0.500000  1
  P  P12  1  0.183095  0.999911  0.000000  1
  P  P13  1  0.814853  0.815007  0.000000  1
  P  P14  1  0.997254  0.185740  0.000000  1
  P  P15  1  0.479572  0.168426  0.500000  1
  P  P16  1  0.171530  0.482120  0.500000  1
  Ir  Ir17  1  0.620424  0.799267  0.000000  1
  Ir  Ir18  1  0.183288  0.381047  0.000000  1
  Ir  Ir19  1  0.378429  0.181343  0.000000  1
  Ir  Ir20  1  0.196215  0.818675  0.000000  1
  Ir  Ir21  1  0.801802  0.619098  0.000000  1
  Ir  Ir22  1  0.872715  0.507528  0.500000  1
  Ir  Ir23  1  0.491697  0.362102  0.500000  1
  Ir  Ir24  1  0.635095  0.127427  0.500000  1
  Ir  Ir25  1  0.130223  0.638967  0.500000  1
  Ir  Ir26  1  0.364666  0.491998  0.500000  1
  Ir  Ir27  1  0.998989  0.000251  0.000000  1
  Ru  Ru28  1  0.511784  0.873655  0.500000  1
  Ru  Ru29  1  0.708342  0.706823  0.500000  1
  Ru  Ru30  1  0.002231  0.293050  0.500000  1
  Ru  Ru31  1  0.449844  0.999100  0.000000  1
  Ru  Ru32  1  0.547613  0.545226  0.000000  1
  Ru  Ru33  1  0.002583  0.454458  0.000000  1
  Ru  Ru34  1  0.818422  0.199275  0.000000  1
  Ru  Ru35  1  0.289780  0.999790  0.500000  1
