# generated using pymatgen
data_Ca3Pr17(GaSi)6
_symmetry_space_group_name_H-M   'P 1'
_cell_length_a   7.85772439
_cell_length_b   7.86198042
_cell_length_c   14.61335907
_cell_angle_alpha   89.98944398
_cell_angle_beta   89.99622608
_cell_angle_gamma   89.96420749
_symmetry_Int_Tables_number   1
_chemical_formula_structural   Ca3Pr17(GaSi)6
_chemical_formula_sum   'Ca3 Pr17 Ga6 Si6'
_cell_volume   902.77331226
_cell_formula_units_Z   1
loop_
 _symmetry_equiv_pos_site_id
 _symmetry_equiv_pos_as_xyz
  1  'x, y, z'
loop_
 _atom_site_type_symbol
 _atom_site_label
 _atom_site_symmetry_multiplicity
 _atom_site_fract_x
 _atom_site_fract_y
 _atom_site_fract_z
 _atom_site_occupancy
  Ca  Ca0  1  0.001207  0.502235  0.736360  1
  Ca  Ca1  1  0.999132  0.502170  0.241993  1
  Ca  Ca2  1  0.502909  0.999340  0.255634  1
  Pr  Pr3  1  0.812120  0.826733  0.607887  1
  Pr  Pr4  1  0.180312  0.825016  0.105922  1
  Pr  Pr5  1  0.174757  0.817436  0.392504  1
  Pr  Pr6  1  0.824657  0.180656  0.393002  1
  Pr  Pr7  1  0.681703  0.672625  0.392246  1
  Pr  Pr8  1  0.666998  0.316772  0.606153  1
  Pr  Pr9  1  0.329583  0.684772  0.607888  1
  Pr  Pr10  1  0.674328  0.679583  0.105873  1
  Pr  Pr11  1  0.682811  0.336405  0.894772  1
  Pr  Pr12  1  0.830697  0.813269  0.891862  1
  Pr  Pr13  1  0.320657  0.329639  0.393735  1
  Pr  Pr14  1  0.189031  0.170816  0.607805  1
  Pr  Pr15  1  0.818555  0.173449  0.105665  1
  Pr  Pr16  1  0.314083  0.665767  0.893331  1
  Pr  Pr17  1  0.330137  0.321392  0.104040  1
  Pr  Pr18  1  0.169298  0.184384  0.893125  1
  Pr  Pr19  1  0.496118  0.999308  0.781803  1
  Ga  Ga20  1  0.999873  0.499372  0.503945  1
  Ga  Ga21  1  0.882503  0.116352  0.748214  1
  Ga  Ga22  1  0.499878  0.998365  0.491021  1
  Ga  Ga23  1  0.500503  0.998651  0.999194  1
  Ga  Ga24  1  0.116297  0.115920  0.249351  1
  Ga  Ga25  1  0.000208  0.499040  0.003759  1
  Si  Si26  1  0.613812  0.388134  0.248799  1
  Si  Si27  1  0.115559  0.884470  0.748486  1
  Si  Si28  1  0.387046  0.385505  0.749212  1
  Si  Si29  1  0.387496  0.612568  0.248420  1
  Si  Si30  1  0.885634  0.885217  0.249016  1
  Si  Si31  1  0.612098  0.614638  0.748986  1
