# generated using pymatgen
data_La2NdPuO8
_symmetry_space_group_name_H-M   'P 1'
_cell_length_a   6.50359500
_cell_length_b   7.72812239
_cell_length_c   7.74503400
_cell_angle_alpha   69.85469468
_cell_angle_beta   90.00000000
_cell_angle_gamma   90.00000000
_symmetry_Int_Tables_number   1
_chemical_formula_structural   La2NdPuO8
_chemical_formula_sum   'La4 Nd2 Pu2 O16'
_cell_volume   365.45521810
_cell_formula_units_Z   2
loop_
 _symmetry_equiv_pos_site_id
 _symmetry_equiv_pos_as_xyz
  1  'x, y, z'
loop_
 _atom_site_type_symbol
 _atom_site_label
 _atom_site_symmetry_multiplicity
 _atom_site_fract_x
 _atom_site_fract_y
 _atom_site_fract_z
 _atom_site_occupancy
  La  La0  1  0.250000  0.401485  0.399543  1
  La  La1  1  0.750000  0.598515  0.600457  1
  La  La2  1  0.250000  0.322749  0.890999  1
  La  La3  1  0.750000  0.677251  0.109001  1
  Nd  Nd4  1  0.750000  0.110692  0.668685  1
  Nd  Nd5  1  0.250000  0.889308  0.331315  1
  Pu  Pu6  1  0.250000  0.817340  0.815757  1
  Pu  Pu7  1  0.750000  0.182660  0.184243  1
  O  O8  1  0.998929  0.334345  0.662323  1
  O  O9  1  0.498929  0.665655  0.337677  1
  O  O10  1  0.001071  0.665655  0.337677  1
  O  O11  1  0.501071  0.334345  0.662323  1
  O  O12  1  0.943567  0.813755  0.808346  1
  O  O13  1  0.443567  0.186245  0.191654  1
  O  O14  1  0.056433  0.186245  0.191654  1
  O  O15  1  0.556433  0.813755  0.808346  1
  O  O16  1  0.750000  0.964736  0.426597  1
  O  O17  1  0.250000  0.035264  0.573403  1
  O  O18  1  0.750000  0.340000  0.342951  1
  O  O19  1  0.250000  0.660000  0.657049  1
  O  O20  1  0.750000  0.424366  0.966298  1
  O  O21  1  0.250000  0.575634  0.033702  1
  O  O22  1  0.750000  0.029771  0.020682  1
  O  O23  1  0.250000  0.970229  0.979318  1
