# generated using pymatgen
data_HoTh(B2Ir3)3
_symmetry_space_group_name_H-M   'P 1'
_cell_length_a   5.67140100
_cell_length_b   5.67140009
_cell_length_c   8.66042900
_cell_angle_alpha   90.00000000
_cell_angle_beta   90.00000000
_cell_angle_gamma   120.00001115
_symmetry_Int_Tables_number   1
_chemical_formula_structural   HoTh(B2Ir3)3
_chemical_formula_sum   'Ho1 Th1 B6 Ir9'
_cell_volume   241.24072757
_cell_formula_units_Z   1
loop_
 _symmetry_equiv_pos_site_id
 _symmetry_equiv_pos_as_xyz
  1  'x, y, z'
loop_
 _atom_site_type_symbol
 _atom_site_label
 _atom_site_symmetry_multiplicity
 _atom_site_fract_x
 _atom_site_fract_y
 _atom_site_fract_z
 _atom_site_occupancy
  Ho  Ho0  1  0.000000  0.000000  0.291440  1
  Th  Th1  1  0.000000  0.000000  0.699624  1
  B  B2  1  0.666667  0.333333  0.002508  1
  B  B3  1  0.333333  0.666667  0.002508  1
  B  B4  1  0.666667  0.333333  0.667625  1
  B  B5  1  0.333333  0.666667  0.667625  1
  B  B6  1  0.333333  0.666667  0.331619  1
  B  B7  1  0.666667  0.333333  0.331619  1
  Ir  Ir8  1  0.500000  0.500000  0.837488  1
  Ir  Ir9  1  0.500000  0.000000  0.837488  1
  Ir  Ir10  1  0.000000  0.500000  0.837488  1
  Ir  Ir11  1  0.500000  0.500000  0.165158  1
  Ir  Ir12  1  0.500000  0.000000  0.165158  1
  Ir  Ir13  1  0.000000  0.500000  0.165158  1
  Ir  Ir14  1  0.500000  0.500000  0.499165  1
  Ir  Ir15  1  0.500000  0.000000  0.499165  1
  Ir  Ir16  1  0.000000  0.500000  0.499165  1
