# generated using pymatgen
data_Ac3Pr(Ho3Pb4)2
_symmetry_space_group_name_H-M   'P 1'
_cell_length_a   8.44353800
_cell_length_b   8.55593592
_cell_length_c   16.13125900
_cell_angle_alpha   90.02659894
_cell_angle_beta   90.00000000
_cell_angle_gamma   90.00000000
_symmetry_Int_Tables_number   1
_chemical_formula_structural   Ac3Pr(Ho3Pb4)2
_chemical_formula_sum   'Ac6 Pr2 Ho12 Pb16'
_cell_volume   1165.36025700
_cell_formula_units_Z   2
loop_
 _symmetry_equiv_pos_site_id
 _symmetry_equiv_pos_as_xyz
  1  'x, y, z'
loop_
 _atom_site_type_symbol
 _atom_site_label
 _atom_site_symmetry_multiplicity
 _atom_site_fract_x
 _atom_site_fract_y
 _atom_site_fract_z
 _atom_site_occupancy
  Ac  Ac0  1  0.478404  0.678697  0.596052  1
  Ac  Ac1  1  0.978404  0.821303  0.903948  1
  Ac  Ac2  1  0.522032  0.324102  0.094923  1
  Ac  Ac3  1  0.022032  0.175898  0.405077  1
  Ac  Ac4  1  0.521239  0.321976  0.405162  1
  Ac  Ac5  1  0.021239  0.178024  0.094838  1
  Pr  Pr6  1  0.475439  0.678358  0.900218  1
  Pr  Pr7  1  0.975439  0.821642  0.599782  1
  Ho  Ho8  1  0.638759  0.155887  0.624350  1
  Ho  Ho9  1  0.138759  0.344113  0.875650  1
  Ho  Ho10  1  0.363236  0.841088  0.122481  1
  Ho  Ho11  1  0.863236  0.658912  0.377519  1
  Ho  Ho12  1  0.363110  0.843081  0.377505  1
  Ho  Ho13  1  0.863110  0.656919  0.122495  1
  Ho  Ho14  1  0.637892  0.157445  0.876019  1
  Ho  Ho15  1  0.137892  0.342555  0.623981  1
  Ho  Ho16  1  0.802525  0.494780  0.750127  1
  Ho  Ho17  1  0.302525  0.005220  0.749873  1
  Ho  Ho18  1  0.197715  0.506654  0.249503  1
  Ho  Ho19  1  0.697715  0.993346  0.250497  1
  Pb  Pb20  1  0.702492  0.952584  0.457825  1
  Pb  Pb21  1  0.202492  0.547416  0.042175  1
  Pb  Pb22  1  0.305101  0.041383  0.953590  1
  Pb  Pb23  1  0.805101  0.458617  0.546410  1
  Pb  Pb24  1  0.297198  0.040930  0.547278  1
  Pb  Pb25  1  0.797198  0.459070  0.952722  1
  Pb  Pb26  1  0.695167  0.952926  0.044418  1
  Pb  Pb27  1  0.195167  0.547074  0.455582  1
  Pb  Pb28  1  0.442198  0.367430  0.750778  1
  Pb  Pb29  1  0.942198  0.132570  0.749222  1
  Pb  Pb30  1  0.558014  0.635011  0.250867  1
  Pb  Pb31  1  0.058014  0.864989  0.249133  1
  Pb  Pb32  1  0.666030  0.852102  0.751775  1
  Pb  Pb33  1  0.166030  0.647898  0.748225  1
  Pb  Pb34  1  0.333450  0.144375  0.249957  1
  Pb  Pb35  1  0.833450  0.355625  0.250043  1
