# generated using pymatgen
data_Rb12Sc(AlTe4)3
_symmetry_space_group_name_H-M   'P 1'
_cell_length_a   14.64064033
_cell_length_b   9.09673876
_cell_length_c   11.71652746
_cell_angle_alpha   52.45920987
_cell_angle_beta   90.27131819
_cell_angle_gamma   90.42752024
_symmetry_Int_Tables_number   1
_chemical_formula_structural   Rb12Sc(AlTe4)3
_chemical_formula_sum   'Rb12 Sc1 Al3 Te12'
_cell_volume   1237.26247583
_cell_formula_units_Z   1
loop_
 _symmetry_equiv_pos_site_id
 _symmetry_equiv_pos_as_xyz
  1  'x, y, z'
loop_
 _atom_site_type_symbol
 _atom_site_label
 _atom_site_symmetry_multiplicity
 _atom_site_fract_x
 _atom_site_fract_y
 _atom_site_fract_z
 _atom_site_occupancy
  Rb  Rb0  1  0.314652  0.148037  0.077019  1
  Rb  Rb1  1  0.688242  0.853614  0.920513  1
  Rb  Rb2  1  0.807691  0.853842  0.422661  1
  Rb  Rb3  1  0.898519  0.323336  0.401510  1
  Rb  Rb4  1  0.616225  0.369760  0.471847  1
  Rb  Rb5  1  0.118344  0.627263  0.027354  1
  Rb  Rb6  1  0.385074  0.627288  0.529887  1
  Rb  Rb7  1  0.881289  0.374807  0.972706  1
  Rb  Rb8  1  0.602160  0.322044  0.898743  1
  Rb  Rb9  1  0.102737  0.679562  0.602135  1
  Rb  Rb10  1  0.398942  0.675308  0.102848  1
  Rb  Rb11  1  0.190677  0.147938  0.574191  1
  Sc  Sc12  1  0.060883  0.942683  0.155540  1
  Al  Al13  1  0.562863  0.056420  0.342570  1
  Al  Al14  1  0.437167  0.942245  0.657796  1
  Al  Al15  1  0.936570  0.056869  0.842878  1
  Te  Te16  1  0.400749  0.167517  0.371480  1
  Te  Te17  1  0.889525  0.828462  0.125423  1
  Te  Te18  1  0.599453  0.830693  0.629114  1
  Te  Te19  1  0.101820  0.176885  0.859521  1
  Te  Te20  1  0.685214  0.324501  0.199269  1
  Te  Te21  1  0.191130  0.667175  0.306681  1
  Te  Te22  1  0.314769  0.673909  0.801829  1
  Te  Te23  1  0.815402  0.326014  0.699134  1
  Te  Te24  1  0.549744  0.872126  0.237740  1
  Te  Te25  1  0.048907  0.134471  0.267468  1
  Te  Te26  1  0.450965  0.125534  0.763413  1
  Te  Te27  1  0.950287  0.871699  0.738731  1
