# generated using pymatgen
data_YbCe3(CuSi3)2
_symmetry_space_group_name_H-M   'P 1'
_cell_length_a   8.04591311
_cell_length_b   8.13115977
_cell_length_c   4.19806100
_cell_angle_alpha   90.00000000
_cell_angle_beta   90.00000000
_cell_angle_gamma   120.35109686
_symmetry_Int_Tables_number   1
_chemical_formula_structural   YbCe3(CuSi3)2
_chemical_formula_sum   'Yb1 Ce3 Cu2 Si6'
_cell_volume   237.00626582
_cell_formula_units_Z   1
loop_
 _symmetry_equiv_pos_site_id
 _symmetry_equiv_pos_as_xyz
  1  'x, y, z'
loop_
 _atom_site_type_symbol
 _atom_site_label
 _atom_site_symmetry_multiplicity
 _atom_site_fract_x
 _atom_site_fract_y
 _atom_site_fract_z
 _atom_site_occupancy
  Yb  Yb0  1  0.000000  0.500000  0.500000  1
  Ce  Ce1  1  0.000000  0.000000  0.500000  1
  Ce  Ce2  1  0.500000  0.500000  0.500000  1
  Ce  Ce3  1  0.500000  0.000000  0.500000  1
  Cu  Cu4  1  0.675350  0.337674  0.000000  1
  Cu  Cu5  1  0.324650  0.662326  0.000000  1
  Si  Si6  1  0.340993  0.170496  0.000000  1
  Si  Si7  1  0.829720  0.163649  0.000000  1
  Si  Si8  1  0.829720  0.666071  0.000000  1
  Si  Si9  1  0.170280  0.333929  0.000000  1
  Si  Si10  1  0.170280  0.836351  0.000000  1
  Si  Si11  1  0.659007  0.829504  0.000000  1
