# generated using pymatgen
data_WCl30
_symmetry_space_group_name_H-M   'P 1'
_cell_length_a   14.04665821
_cell_length_b   14.04665775
_cell_length_c   16.11729378
_cell_angle_alpha   84.25511100
_cell_angle_beta   84.25510950
_cell_angle_gamma   127.17893341
_symmetry_Int_Tables_number   1
_chemical_formula_structural   WCl30
_chemical_formula_sum   'W1 Cl30'
_cell_volume   2468.74257088
_cell_formula_units_Z   1
loop_
 _symmetry_equiv_pos_site_id
 _symmetry_equiv_pos_as_xyz
  1  'x, y, z'
loop_
 _atom_site_type_symbol
 _atom_site_label
 _atom_site_symmetry_multiplicity
 _atom_site_fract_x
 _atom_site_fract_y
 _atom_site_fract_z
 _atom_site_occupancy
  W  W0  1  0.000000  0.000000  0.000000  1
  Cl  Cl1  1  0.947544  0.947544  0.148346  1
  Cl  Cl2  1  0.052456  0.052456  0.851654  1
  Cl  Cl3  1  0.063591  0.192803  0.005233  1
  Cl  Cl4  1  0.936409  0.807197  0.994767  1
  Cl  Cl5  1  0.192803  0.063591  0.005233  1
  Cl  Cl6  1  0.807197  0.936409  0.994767  1
  Cl  Cl7  1  0.203349  0.742417  0.063638  1
  Cl  Cl8  1  0.796651  0.257583  0.936362  1
  Cl  Cl9  1  0.698023  0.079018  0.262548  1
  Cl  Cl10  1  0.257583  0.796651  0.936362  1
  Cl  Cl11  1  0.301977  0.920982  0.737452  1
  Cl  Cl12  1  0.742417  0.203349  0.063638  1
  Cl  Cl13  1  0.976998  0.205763  0.773467  1
  Cl  Cl14  1  0.920982  0.301977  0.737452  1
  Cl  Cl15  1  0.023002  0.794237  0.226533  1
  Cl  Cl16  1  0.079018  0.698023  0.262548  1
  Cl  Cl17  1  0.794237  0.023002  0.226533  1
  Cl  Cl18  1  0.205763  0.976998  0.773467  1
  Cl  Cl19  1  0.467097  0.546377  0.259847  1
  Cl  Cl20  1  0.532903  0.453623  0.740153  1
  Cl  Cl21  1  0.506017  0.205268  0.452434  1
  Cl  Cl22  1  0.453623  0.532903  0.740153  1
  Cl  Cl23  1  0.493983  0.794732  0.547566  1
  Cl  Cl24  1  0.546377  0.467097  0.259847  1
  Cl  Cl25  1  0.239023  0.429395  0.543518  1
  Cl  Cl26  1  0.794732  0.493983  0.547566  1
  Cl  Cl27  1  0.760977  0.570605  0.456482  1
  Cl  Cl28  1  0.205268  0.506017  0.452434  1
  Cl  Cl29  1  0.570605  0.760977  0.456482  1
  Cl  Cl30  1  0.429395  0.239023  0.543518  1
