# generated using pymatgen
data_Ac3Ho(Pd2O5)2
_symmetry_space_group_name_H-M   'P 1'
_cell_length_a   6.79333500
_cell_length_b   6.81586017
_cell_length_c   5.75540100
_cell_angle_alpha   90.00000000
_cell_angle_beta   90.00000000
_cell_angle_gamma   89.82951273
_symmetry_Int_Tables_number   1
_chemical_formula_structural   Ac3Ho(Pd2O5)2
_chemical_formula_sum   'Ac3 Ho1 Pd4 O10'
_cell_volume   266.48782311
_cell_formula_units_Z   1
loop_
 _symmetry_equiv_pos_site_id
 _symmetry_equiv_pos_as_xyz
  1  'x, y, z'
loop_
 _atom_site_type_symbol
 _atom_site_label
 _atom_site_symmetry_multiplicity
 _atom_site_fract_x
 _atom_site_fract_y
 _atom_site_fract_z
 _atom_site_occupancy
  Ac  Ac0  1  0.107065  0.267758  0.000000  1
  Ac  Ac1  1  0.884895  0.740889  0.000000  1
  Ac  Ac2  1  0.269640  0.897397  0.500000  1
  Ho  Ho3  1  0.751354  0.116499  0.500000  1
  Pd  Pd4  1  0.595942  0.304554  0.000000  1
  Pd  Pd5  1  0.407158  0.690088  0.000000  1
  Pd  Pd6  1  0.317165  0.405327  0.500000  1
  Pd  Pd7  1  0.686771  0.591133  0.500000  1
  O  O8  1  0.416259  0.200079  0.263216  1
  O  O9  1  0.594176  0.800294  0.736876  1
  O  O10  1  0.594176  0.800294  0.263124  1
  O  O11  1  0.204618  0.593565  0.758137  1
  O  O12  1  0.416259  0.200079  0.736784  1
  O  O13  1  0.792564  0.390731  0.254843  1
  O  O14  1  0.792564  0.390731  0.745157  1
  O  O15  1  0.204618  0.593565  0.241863  1
  O  O16  1  0.982388  0.008508  0.258462  1
  O  O17  1  0.982388  0.008508  0.741538  1
