# generated using pymatgen
data_Sc4SiI6
_symmetry_space_group_name_H-M   'P 1'
_cell_length_a   4.01704600
_cell_length_b   13.38742400
_cell_length_c   14.02306100
_cell_angle_alpha   90.00000000
_cell_angle_beta   90.00000000
_cell_angle_gamma   90.00000000
_symmetry_Int_Tables_number   1
_chemical_formula_structural   Sc4SiI6
_chemical_formula_sum   'Sc8 Si2 I12'
_cell_volume   754.13074452
_cell_formula_units_Z   2
loop_
 _symmetry_equiv_pos_site_id
 _symmetry_equiv_pos_as_xyz
  1  'x, y, z'
loop_
 _atom_site_type_symbol
 _atom_site_label
 _atom_site_symmetry_multiplicity
 _atom_site_fract_x
 _atom_site_fract_y
 _atom_site_fract_z
 _atom_site_occupancy
  Sc  Sc0  1  0.000000  0.102971  0.079246  1
  Sc  Sc1  1  0.000000  0.897029  0.920754  1
  Sc  Sc2  1  0.000000  0.602971  0.420754  1
  Sc  Sc3  1  0.000000  0.397029  0.579246  1
  Sc  Sc4  1  0.500000  0.121580  0.855407  1
  Sc  Sc5  1  0.500000  0.878420  0.144593  1
  Sc  Sc6  1  0.500000  0.621580  0.644593  1
  Sc  Sc7  1  0.500000  0.378420  0.355407  1
  Si  Si8  1  0.500000  0.000000  0.000000  1
  Si  Si9  1  0.500000  0.500000  0.500000  1
  I  I10  1  0.500000  0.265085  0.675712  1
  I  I11  1  0.500000  0.734915  0.324288  1
  I  I12  1  0.500000  0.765085  0.824288  1
  I  I13  1  0.500000  0.234915  0.175712  1
  I  I14  1  0.000000  0.260908  0.929530  1
  I  I15  1  0.000000  0.739092  0.070470  1
  I  I16  1  0.000000  0.484640  0.241375  1
  I  I17  1  0.000000  0.515360  0.758625  1
  I  I18  1  0.000000  0.984640  0.258625  1
  I  I19  1  0.000000  0.015360  0.741375  1
  I  I20  1  0.000000  0.239092  0.429530  1
  I  I21  1  0.000000  0.760908  0.570470  1
