# generated using pymatgen
data_CsSeF5
_symmetry_space_group_name_H-M   'P 1'
_cell_length_a   6.57244400
_cell_length_b   8.38860000
_cell_length_c   10.72457900
_cell_angle_alpha   90.00000000
_cell_angle_beta   90.00000000
_cell_angle_gamma   90.00000000
_symmetry_Int_Tables_number   1
_chemical_formula_structural   CsSeF5
_chemical_formula_sum   'Cs4 Se4 F20'
_cell_volume   591.28468885
_cell_formula_units_Z   4
loop_
 _symmetry_equiv_pos_site_id
 _symmetry_equiv_pos_as_xyz
  1  'x, y, z'
loop_
 _atom_site_type_symbol
 _atom_site_label
 _atom_site_symmetry_multiplicity
 _atom_site_fract_x
 _atom_site_fract_y
 _atom_site_fract_z
 _atom_site_occupancy
  Cs  Cs0  1  0.250000  0.650101  0.662560  1
  Cs  Cs1  1  0.750000  0.349899  0.337440  1
  Cs  Cs2  1  0.750000  0.150101  0.837440  1
  Cs  Cs3  1  0.250000  0.849899  0.162560  1
  Se  Se4  1  0.250000  0.153513  0.587191  1
  Se  Se5  1  0.750000  0.846487  0.412809  1
  Se  Se6  1  0.750000  0.653513  0.912809  1
  Se  Se7  1  0.250000  0.346487  0.087191  1
  F  F8  1  0.250000  0.216417  0.745291  1
  F  F9  1  0.750000  0.783583  0.254709  1
  F  F10  1  0.750000  0.716417  0.754709  1
  F  F11  1  0.250000  0.283583  0.245291  1
  F  F12  1  0.953102  0.687960  0.432945  1
  F  F13  1  0.453102  0.312040  0.567055  1
  F  F14  1  0.046898  0.187960  0.067055  1
  F  F15  1  0.546898  0.812040  0.932945  1
  F  F16  1  0.451958  0.491872  0.140568  1
  F  F17  1  0.951958  0.508128  0.859432  1
  F  F18  1  0.548042  0.991872  0.359432  1
  F  F19  1  0.048042  0.008128  0.640568  1
  F  F20  1  0.548042  0.508128  0.859432  1
  F  F21  1  0.048042  0.491872  0.140568  1
  F  F22  1  0.451958  0.008128  0.640568  1
  F  F23  1  0.951958  0.991872  0.359432  1
  F  F24  1  0.453102  0.187960  0.067055  1
  F  F25  1  0.953102  0.812040  0.932945  1
  F  F26  1  0.546898  0.687960  0.432945  1
  F  F27  1  0.046898  0.312040  0.567055  1
