# generated using pymatgen
data_Y6Er4(InSb)3
_symmetry_space_group_name_H-M   'P 1'
_cell_length_a   8.95221700
_cell_length_b   8.93570038
_cell_length_c   6.52622700
_cell_angle_alpha   90.00000000
_cell_angle_beta   90.00000000
_cell_angle_gamma   120.06115927
_symmetry_Int_Tables_number   1
_chemical_formula_structural   Y6Er4(InSb)3
_chemical_formula_sum   'Y6 Er4 In3 Sb3'
_cell_volume   451.83932752
_cell_formula_units_Z   1
loop_
 _symmetry_equiv_pos_site_id
 _symmetry_equiv_pos_as_xyz
  1  'x, y, z'
loop_
 _atom_site_type_symbol
 _atom_site_label
 _atom_site_symmetry_multiplicity
 _atom_site_fract_x
 _atom_site_fract_y
 _atom_site_fract_z
 _atom_site_occupancy
  Y  Y0  1  0.002628  0.762713  0.750000  1
  Y  Y1  1  0.003226  0.239718  0.250000  1
  Y  Y2  1  0.763508  0.760282  0.250000  1
  Y  Y3  1  0.761119  0.000000  0.750000  1
  Y  Y4  1  0.239915  0.237287  0.750000  1
  Y  Y5  1  0.238405  0.000000  0.250000  1
  Er  Er6  1  0.330623  0.666131  0.498980  1
  Er  Er7  1  0.664493  0.333869  0.001020  1
  Er  Er8  1  0.664493  0.333869  0.498980  1
  Er  Er9  1  0.330623  0.666131  0.001020  1
  In  In10  1  0.398137  0.000000  0.750000  1
  In  In11  1  0.396407  0.398594  0.250000  1
  In  In12  1  0.997814  0.601406  0.250000  1
  Sb  Sb13  1  0.997146  0.392064  0.750000  1
  Sb  Sb14  1  0.605082  0.607936  0.750000  1
  Sb  Sb15  1  0.606380  0.000000  0.250000  1
