# generated using pymatgen
data_Pr12Ir2PdAu
_symmetry_space_group_name_H-M   'P 1'
_cell_length_a   6.67609018
_cell_length_b   7.43218835
_cell_length_c   10.13614200
_cell_angle_alpha   90.00000000
_cell_angle_beta   90.00000000
_cell_angle_gamma   90.00416732
_symmetry_Int_Tables_number   1
_chemical_formula_structural   Pr12Ir2PdAu
_chemical_formula_sum   'Pr12 Ir2 Pd1 Au1'
_cell_volume   502.93468318
_cell_formula_units_Z   1
loop_
 _symmetry_equiv_pos_site_id
 _symmetry_equiv_pos_as_xyz
  1  'x, y, z'
loop_
 _atom_site_type_symbol
 _atom_site_label
 _atom_site_symmetry_multiplicity
 _atom_site_fract_x
 _atom_site_fract_y
 _atom_site_fract_z
 _atom_site_occupancy
  Pr  Pr0  1  0.338058  0.670209  0.061722  1
  Pr  Pr1  1  0.173357  0.186343  0.439486  1
  Pr  Pr2  1  0.667204  0.327563  0.564009  1
  Pr  Pr3  1  0.828862  0.818891  0.935104  1
  Pr  Pr4  1  0.667204  0.327563  0.935991  1
  Pr  Pr5  1  0.828862  0.818891  0.564896  1
  Pr  Pr6  1  0.338058  0.670209  0.438278  1
  Pr  Pr7  1  0.173357  0.186343  0.060514  1
  Pr  Pr8  1  0.849039  0.520031  0.250000  1
  Pr  Pr9  1  0.625660  0.040567  0.250000  1
  Pr  Pr10  1  0.148822  0.472660  0.750000  1
  Pr  Pr11  1  0.365798  0.958407  0.750000  1
  Ir  Ir12  1  0.428343  0.382023  0.250000  1
  Ir  Ir13  1  0.569158  0.618221  0.750000  1
  Pd  Pd14  1  0.935798  0.116968  0.750000  1
  Au  Au15  1  0.062418  0.885114  0.250000  1
