# generated using pymatgen
data_Ho2Sc(Si3Pd10)2
_symmetry_space_group_name_H-M   'P 1'
_cell_length_a   8.67827695
_cell_length_b   8.67827772
_cell_length_c   8.67827700
_cell_angle_alpha   59.99999894
_cell_angle_beta   59.99999601
_cell_angle_gamma   59.99999807
_symmetry_Int_Tables_number   1
_chemical_formula_structural   Ho2Sc(Si3Pd10)2
_chemical_formula_sum   'Ho2 Sc1 Si6 Pd20'
_cell_volume   462.15274568
_cell_formula_units_Z   1
loop_
 _symmetry_equiv_pos_site_id
 _symmetry_equiv_pos_as_xyz
  1  'x, y, z'
loop_
 _atom_site_type_symbol
 _atom_site_label
 _atom_site_symmetry_multiplicity
 _atom_site_fract_x
 _atom_site_fract_y
 _atom_site_fract_z
 _atom_site_occupancy
  Ho  Ho0  1  0.250000  0.250000  0.250000  1
  Ho  Ho1  1  0.750000  0.750000  0.750000  1
  Sc  Sc2  1  0.000000  0.000000  0.000000  1
  Si  Si3  1  0.732893  0.267107  0.267107  1
  Si  Si4  1  0.267107  0.732893  0.732893  1
  Si  Si5  1  0.267107  0.732893  0.267107  1
  Si  Si6  1  0.732893  0.267107  0.732893  1
  Si  Si7  1  0.267107  0.267107  0.732893  1
  Si  Si8  1  0.732893  0.732893  0.267107  1
  Pd  Pd9  1  0.383169  0.383169  0.383169  1
  Pd  Pd10  1  0.616831  0.616831  0.616831  1
  Pd  Pd11  1  0.383169  0.383169  0.850493  1
  Pd  Pd12  1  0.383169  0.850493  0.383169  1
  Pd  Pd13  1  0.616831  0.616831  0.149507  1
  Pd  Pd14  1  0.616831  0.149507  0.616831  1
  Pd  Pd15  1  0.850493  0.383169  0.383169  1
  Pd  Pd16  1  0.149507  0.616831  0.616831  1
  Pd  Pd17  1  0.343536  0.000000  0.000000  1
  Pd  Pd18  1  0.656464  0.000000  0.000000  1
  Pd  Pd19  1  0.000000  0.343536  0.656464  1
  Pd  Pd20  1  0.000000  0.656464  0.343536  1
  Pd  Pd21  1  0.000000  0.343536  0.000000  1
  Pd  Pd22  1  0.656464  0.000000  0.343536  1
  Pd  Pd23  1  0.000000  0.656464  0.000000  1
  Pd  Pd24  1  0.343536  0.000000  0.656464  1
  Pd  Pd25  1  0.000000  0.000000  0.343536  1
  Pd  Pd26  1  0.000000  0.000000  0.656464  1
  Pd  Pd27  1  0.656464  0.343536  0.000000  1
  Pd  Pd28  1  0.343536  0.656464  0.000000  1
