# generated using pymatgen
data_NdHo(PPt)2
_symmetry_space_group_name_H-M   'P 1'
_cell_length_a   4.14247600
_cell_length_b   4.14247511
_cell_length_c   16.04890300
_cell_angle_alpha   90.00000000
_cell_angle_beta   90.00000000
_cell_angle_gamma   119.99999114
_symmetry_Int_Tables_number   1
_chemical_formula_structural   NdHo(PPt)2
_chemical_formula_sum   'Nd2 Ho2 P4 Pt4'
_cell_volume   238.50414507
_cell_formula_units_Z   2
loop_
 _symmetry_equiv_pos_site_id
 _symmetry_equiv_pos_as_xyz
  1  'x, y, z'
loop_
 _atom_site_type_symbol
 _atom_site_label
 _atom_site_symmetry_multiplicity
 _atom_site_fract_x
 _atom_site_fract_y
 _atom_site_fract_z
 _atom_site_occupancy
  Nd  Nd0  1  0.000000  0.000000  0.500000  1
  Nd  Nd1  1  0.000000  0.000000  0.000000  1
  Ho  Ho2  1  0.000000  0.000000  0.250000  1
  Ho  Ho3  1  0.000000  0.000000  0.750000  1
  P  P4  1  0.333333  0.666667  0.877586  1
  P  P5  1  0.666667  0.333333  0.122414  1
  P  P6  1  0.666667  0.333333  0.377586  1
  P  P7  1  0.333333  0.666667  0.622414  1
  Pt  Pt8  1  0.333333  0.666667  0.362515  1
  Pt  Pt9  1  0.666667  0.333333  0.637485  1
  Pt  Pt10  1  0.666667  0.333333  0.862515  1
  Pt  Pt11  1  0.333333  0.666667  0.137485  1
