# generated using pymatgen
data_SrCa5Pr2(Si3Pd)4
_symmetry_space_group_name_H-M   'P 1'
_cell_length_a   8.30589600
_cell_length_b   8.29440705
_cell_length_c   8.54205300
_cell_angle_alpha   90.00000000
_cell_angle_beta   90.00000000
_cell_angle_gamma   120.04583876
_symmetry_Int_Tables_number   1
_chemical_formula_structural   SrCa5Pr2(Si3Pd)4
_chemical_formula_sum   'Sr1 Ca5 Pr2 Si12 Pd4'
_cell_volume   509.40586434
_cell_formula_units_Z   1
loop_
 _symmetry_equiv_pos_site_id
 _symmetry_equiv_pos_as_xyz
  1  'x, y, z'
loop_
 _atom_site_type_symbol
 _atom_site_label
 _atom_site_symmetry_multiplicity
 _atom_site_fract_x
 _atom_site_fract_y
 _atom_site_fract_z
 _atom_site_occupancy
  Sr  Sr0  1  0.500566  0.001131  0.250000  1
  Ca  Ca1  1  0.499445  0.500592  0.750000  1
  Ca  Ca2  1  0.500498  0.499586  0.250000  1
  Ca  Ca3  1  0.001147  0.500592  0.750000  1
  Ca  Ca4  1  0.999088  0.499586  0.250000  1
  Ca  Ca5  1  0.499416  0.998833  0.750000  1
  Pr  Pr6  1  0.999921  0.999841  0.750000  1
  Pr  Pr7  1  0.999996  0.999993  0.250000  1
  Si  Si8  1  0.836147  0.166430  0.996213  1
  Si  Si9  1  0.163855  0.833601  0.996824  1
  Si  Si10  1  0.330284  0.166430  0.996213  1
  Si  Si11  1  0.163855  0.833601  0.503176  1
  Si  Si12  1  0.669747  0.833601  0.996824  1
  Si  Si13  1  0.836147  0.166430  0.503787  1
  Si  Si14  1  0.834294  0.668588  0.998911  1
  Si  Si15  1  0.669747  0.833601  0.503176  1
  Si  Si16  1  0.165663  0.331325  0.999194  1
  Si  Si17  1  0.330284  0.166430  0.503787  1
  Si  Si18  1  0.165663  0.331325  0.500806  1
  Si  Si19  1  0.834294  0.668588  0.501089  1
  Pd  Pd20  1  0.667039  0.334077  0.993262  1
  Pd  Pd21  1  0.332935  0.665870  0.995203  1
  Pd  Pd22  1  0.332935  0.665870  0.504797  1
  Pd  Pd23  1  0.667039  0.334077  0.506738  1
