# generated using pymatgen
data_Sm3Co(As3Rh4)2
_symmetry_space_group_name_H-M   'P 1'
_cell_length_a   3.98528900
_cell_length_b   11.57538300
_cell_length_c   13.36539000
_cell_angle_alpha   90.00000000
_cell_angle_beta   90.00000000
_cell_angle_gamma   90.00000000
_symmetry_Int_Tables_number   1
_chemical_formula_structural   Sm3Co(As3Rh4)2
_chemical_formula_sum   'Sm6 Co2 As12 Rh16'
_cell_volume   616.56210120
_cell_formula_units_Z   2
loop_
 _symmetry_equiv_pos_site_id
 _symmetry_equiv_pos_as_xyz
  1  'x, y, z'
loop_
 _atom_site_type_symbol
 _atom_site_label
 _atom_site_symmetry_multiplicity
 _atom_site_fract_x
 _atom_site_fract_y
 _atom_site_fract_z
 _atom_site_occupancy
  Sm  Sm0  1  0.000000  0.500000  0.521834  1
  Sm  Sm1  1  0.500000  0.000000  0.478166  1
  Sm  Sm2  1  0.500000  0.814768  0.201922  1
  Sm  Sm3  1  0.500000  0.185232  0.201922  1
  Sm  Sm4  1  0.000000  0.685232  0.798078  1
  Sm  Sm5  1  0.000000  0.314768  0.798078  1
  Co  Co6  1  0.000000  0.500000  0.981363  1
  Co  Co7  1  0.500000  0.000000  0.018637  1
  As  As8  1  0.500000  0.500000  0.882628  1
  As  As9  1  0.000000  0.000000  0.117372  1
  As  As10  1  0.500000  0.500000  0.350214  1
  As  As11  1  0.000000  0.000000  0.649786  1
  As  As12  1  0.500000  0.315620  0.618937  1
  As  As13  1  0.500000  0.684380  0.618937  1
  As  As14  1  0.000000  0.184380  0.381063  1
  As  As15  1  0.000000  0.815620  0.381063  1
  As  As16  1  0.500000  0.854274  0.894090  1
  As  As17  1  0.500000  0.145726  0.894090  1
  As  As18  1  0.000000  0.645726  0.105910  1
  As  As19  1  0.000000  0.354274  0.105910  1
  Rh  Rh20  1  0.500000  0.500000  0.166057  1
  Rh  Rh21  1  0.000000  0.000000  0.833943  1
  Rh  Rh22  1  0.500000  0.500000  0.703617  1
  Rh  Rh23  1  0.000000  0.000000  0.296383  1
  Rh  Rh24  1  0.500000  0.335448  0.994808  1
  Rh  Rh25  1  0.500000  0.664552  0.994808  1
  Rh  Rh26  1  0.000000  0.164552  0.005192  1
  Rh  Rh27  1  0.000000  0.835448  0.005192  1
  Rh  Rh28  1  0.500000  0.295485  0.431163  1
  Rh  Rh29  1  0.500000  0.704515  0.431163  1
  Rh  Rh30  1  0.000000  0.204515  0.568837  1
  Rh  Rh31  1  0.000000  0.795485  0.568837  1
  Rh  Rh32  1  0.500000  0.875128  0.709383  1
  Rh  Rh33  1  0.500000  0.124872  0.709383  1
  Rh  Rh34  1  0.000000  0.624872  0.290617  1
  Rh  Rh35  1  0.000000  0.375128  0.290617  1
