# generated using pymatgen
data_RbSnAsS5
_symmetry_space_group_name_H-M   'P 1'
_cell_length_a   7.64122500
_cell_length_b   8.55814400
_cell_length_c   14.58570600
_cell_angle_alpha   90.00000000
_cell_angle_beta   90.00000000
_cell_angle_gamma   90.00000000
_symmetry_Int_Tables_number   1
_chemical_formula_structural   RbSnAsS5
_chemical_formula_sum   'Rb4 Sn4 As4 S20'
_cell_volume   953.82792484
_cell_formula_units_Z   4
loop_
 _symmetry_equiv_pos_site_id
 _symmetry_equiv_pos_as_xyz
  1  'x, y, z'
loop_
 _atom_site_type_symbol
 _atom_site_label
 _atom_site_symmetry_multiplicity
 _atom_site_fract_x
 _atom_site_fract_y
 _atom_site_fract_z
 _atom_site_occupancy
  Rb  Rb0  1  0.500000  0.895353  0.840518  1
  Rb  Rb1  1  0.500000  0.604647  0.340518  1
  Rb  Rb2  1  0.500000  0.395353  0.659482  1
  Rb  Rb3  1  0.500000  0.104647  0.159482  1
  Sn  Sn4  1  0.731885  0.000000  0.500000  1
  Sn  Sn5  1  0.731885  0.500000  0.000000  1
  Sn  Sn6  1  0.268115  0.500000  0.000000  1
  Sn  Sn7  1  0.268115  0.000000  0.500000  1
  As  As8  1  0.000000  0.691171  0.785783  1
  As  As9  1  0.000000  0.808829  0.285783  1
  As  As10  1  0.000000  0.308829  0.214217  1
  As  As11  1  0.000000  0.191171  0.714217  1
  S  S12  1  0.000000  0.708053  0.023488  1
  S  S13  1  0.232929  0.546711  0.823740  1
  S  S14  1  0.000000  0.791947  0.523488  1
  S  S15  1  0.500000  0.200862  0.462286  1
  S  S16  1  0.767071  0.046711  0.676260  1
  S  S17  1  0.232929  0.953289  0.323740  1
  S  S18  1  0.767071  0.546711  0.823740  1
  S  S19  1  0.000000  0.855686  0.914487  1
  S  S20  1  0.000000  0.355686  0.585513  1
  S  S21  1  0.000000  0.291947  0.976512  1
  S  S22  1  0.767071  0.953289  0.323740  1
  S  S23  1  0.000000  0.144314  0.085513  1
  S  S24  1  0.767071  0.453289  0.176260  1
  S  S25  1  0.500000  0.299138  0.962286  1
  S  S26  1  0.232929  0.453289  0.176260  1
  S  S27  1  0.000000  0.208053  0.476512  1
  S  S28  1  0.500000  0.700862  0.037714  1
  S  S29  1  0.232929  0.046711  0.676260  1
  S  S30  1  0.500000  0.799138  0.537714  1
  S  S31  1  0.000000  0.644314  0.414487  1
