# generated using pymatgen
data_Y4Sc6Sn7Pt
_symmetry_space_group_name_H-M   'P 1'
_cell_length_a   7.54423400
_cell_length_b   7.96085735
_cell_length_c   14.69314600
_cell_angle_alpha   90.00000000
_cell_angle_beta   90.00000000
_cell_angle_gamma   89.23512502
_symmetry_Int_Tables_number   1
_chemical_formula_structural   Y4Sc6Sn7Pt
_chemical_formula_sum   'Y8 Sc12 Sn14 Pt2'
_cell_volume   882.37071728
_cell_formula_units_Z   2
loop_
 _symmetry_equiv_pos_site_id
 _symmetry_equiv_pos_as_xyz
  1  'x, y, z'
loop_
 _atom_site_type_symbol
 _atom_site_label
 _atom_site_symmetry_multiplicity
 _atom_site_fract_x
 _atom_site_fract_y
 _atom_site_fract_z
 _atom_site_occupancy
  Y  Y0  1  0.993370  0.174354  0.094158  1
  Y  Y1  1  0.006630  0.825646  0.905842  1
  Y  Y2  1  0.506811  0.681709  0.906966  1
  Y  Y3  1  0.006630  0.825646  0.594158  1
  Y  Y4  1  0.493189  0.318291  0.093034  1
  Y  Y5  1  0.993370  0.174354  0.405842  1
  Y  Y6  1  0.493189  0.318291  0.406966  1
  Y  Y7  1  0.506811  0.681709  0.593034  1
  Sc  Sc8  1  0.175310  0.496801  0.750000  1
  Sc  Sc9  1  0.824690  0.503199  0.250000  1
  Sc  Sc10  1  0.312452  0.995350  0.250000  1
  Sc  Sc11  1  0.687548  0.004650  0.750000  1
  Sc  Sc12  1  0.312419  0.160302  0.630467  1
  Sc  Sc13  1  0.687581  0.839698  0.369533  1
  Sc  Sc14  1  0.137604  0.680224  0.366742  1
  Sc  Sc15  1  0.687581  0.839698  0.130467  1
  Sc  Sc16  1  0.862396  0.319776  0.633258  1
  Sc  Sc17  1  0.312419  0.160302  0.869533  1
  Sc  Sc18  1  0.862396  0.319776  0.866742  1
  Sc  Sc19  1  0.137604  0.680224  0.133258  1
  Sn  Sn20  1  0.464265  0.625926  0.250000  1
  Sn  Sn21  1  0.535735  0.374074  0.750000  1
  Sn  Sn22  1  0.304403  0.855589  0.750000  1
  Sn  Sn23  1  0.695597  0.144411  0.250000  1
  Sn  Sn24  1  0.191907  0.359323  0.250000  1
  Sn  Sn25  1  0.808093  0.640677  0.750000  1
  Sn  Sn26  1  0.184968  0.464135  0.537737  1
  Sn  Sn27  1  0.815032  0.535865  0.462263  1
  Sn  Sn28  1  0.323597  0.957214  0.456855  1
  Sn  Sn29  1  0.815032  0.535865  0.037737  1
  Sn  Sn30  1  0.676403  0.042786  0.543145  1
  Sn  Sn31  1  0.184968  0.464135  0.962263  1
  Sn  Sn32  1  0.676403  0.042786  0.956855  1
  Sn  Sn33  1  0.323597  0.957214  0.043145  1
  Pt  Pt34  1  0.031950  0.110056  0.750000  1
  Pt  Pt35  1  0.968050  0.889944  0.250000  1
