# generated using pymatgen
data_Yb4Fe3RhO10
_symmetry_space_group_name_H-M   'P 1'
_cell_length_a   5.40869900
_cell_length_b   5.62131451
_cell_length_c   15.64935200
_cell_angle_alpha   68.98316338
_cell_angle_beta   90.00000000
_cell_angle_gamma   90.00000000
_symmetry_Int_Tables_number   1
_chemical_formula_structural   Yb4Fe3RhO10
_chemical_formula_sum   'Yb8 Fe6 Rh2 O20'
_cell_volume   444.15012071
_cell_formula_units_Z   2
loop_
 _symmetry_equiv_pos_site_id
 _symmetry_equiv_pos_as_xyz
  1  'x, y, z'
loop_
 _atom_site_type_symbol
 _atom_site_label
 _atom_site_symmetry_multiplicity
 _atom_site_fract_x
 _atom_site_fract_y
 _atom_site_fract_z
 _atom_site_occupancy
  Yb  Yb0  1  0.966352  0.372322  0.106157  1
  Yb  Yb1  1  0.466352  0.627678  0.393843  1
  Yb  Yb2  1  0.033004  0.923050  0.607114  1
  Yb  Yb3  1  0.533004  0.076950  0.892886  1
  Yb  Yb4  1  0.033648  0.627678  0.893843  1
  Yb  Yb5  1  0.533648  0.372322  0.606157  1
  Yb  Yb6  1  0.966996  0.076950  0.392886  1
  Yb  Yb7  1  0.466996  0.923050  0.107114  1
  Fe  Fe8  1  0.444323  0.317612  0.249932  1
  Fe  Fe9  1  0.944323  0.682388  0.250068  1
  Fe  Fe10  1  0.555677  0.682388  0.750068  1
  Fe  Fe11  1  0.055677  0.317612  0.749932  1
  Fe  Fe12  1  0.500000  0.000000  0.500000  1
  Fe  Fe13  1  0.000000  0.000000  0.000000  1
  Rh  Rh14  1  0.500000  0.500000  0.000000  1
  Rh  Rh15  1  0.000000  0.500000  0.500000  1
  O  O16  1  0.779845  0.289325  0.978599  1
  O  O17  1  0.279845  0.710675  0.521401  1
  O  O18  1  0.225711  0.240425  0.476375  1
  O  O19  1  0.725711  0.759575  0.023625  1
  O  O20  1  0.220155  0.710675  0.021401  1
  O  O21  1  0.720155  0.289325  0.478599  1
  O  O22  1  0.774289  0.759575  0.523625  1
  O  O23  1  0.274289  0.240425  0.976375  1
  O  O24  1  0.538850  0.283725  0.138947  1
  O  O25  1  0.038850  0.716275  0.361053  1
  O  O26  1  0.459080  0.945453  0.643179  1
  O  O27  1  0.959080  0.054547  0.856821  1
  O  O28  1  0.461150  0.716275  0.861053  1
  O  O29  1  0.961150  0.283725  0.638947  1
  O  O30  1  0.540920  0.054547  0.356821  1
  O  O31  1  0.040920  0.945453  0.143179  1
  O  O32  1  0.086187  0.365662  0.249635  1
  O  O33  1  0.586187  0.634338  0.250365  1
  O  O34  1  0.913813  0.634338  0.750365  1
  O  O35  1  0.413813  0.365662  0.749635  1
