# generated using pymatgen
data_PrHg4S2Cl5
_symmetry_space_group_name_H-M   'P 1'
_cell_length_a   8.38842752
_cell_length_b   10.86532300
_cell_length_c   9.16594089
_cell_angle_alpha   90.00000000
_cell_angle_beta   113.65205964
_cell_angle_gamma   90.00000000
_symmetry_Int_Tables_number   1
_chemical_formula_structural   PrHg4S2Cl5
_chemical_formula_sum   'Pr2 Hg8 S4 Cl10'
_cell_volume   765.23540408
_cell_formula_units_Z   2
loop_
 _symmetry_equiv_pos_site_id
 _symmetry_equiv_pos_as_xyz
  1  'x, y, z'
loop_
 _atom_site_type_symbol
 _atom_site_label
 _atom_site_symmetry_multiplicity
 _atom_site_fract_x
 _atom_site_fract_y
 _atom_site_fract_z
 _atom_site_occupancy
  Pr  Pr0  1  0.502038  0.432273  0.506975  1
  Pr  Pr1  1  0.497962  0.932273  0.493025  1
  Hg  Hg2  1  0.924665  0.186538  0.329337  1
  Hg  Hg3  1  0.075335  0.686538  0.670663  1
  Hg  Hg4  1  0.946185  0.662428  0.358614  1
  Hg  Hg5  1  0.053815  0.162428  0.641386  1
  Hg  Hg6  1  0.497636  0.181845  0.989072  1
  Hg  Hg7  1  0.502364  0.681845  0.010928  1
  Hg  Hg8  1  0.799548  0.431688  0.021506  1
  Hg  Hg9  1  0.200452  0.931688  0.978494  1
  S  S10  1  0.798221  0.206886  0.030636  1
  S  S11  1  0.201779  0.706886  0.969364  1
  S  S12  1  0.196037  0.154382  0.939882  1
  S  S13  1  0.803963  0.654382  0.060118  1
  Cl  Cl14  1  0.849356  0.926325  0.682764  1
  Cl  Cl15  1  0.150644  0.426325  0.317236  1
  Cl  Cl16  1  0.848975  0.440764  0.717724  1
  Cl  Cl17  1  0.151025  0.940764  0.282276  1
  Cl  Cl18  1  0.411344  0.461342  0.766823  1
  Cl  Cl19  1  0.588656  0.961342  0.233177  1
  Cl  Cl20  1  0.593294  0.388655  0.256601  1
  Cl  Cl21  1  0.406706  0.888655  0.743399  1
  Cl  Cl22  1  0.493796  0.180476  0.563097  1
  Cl  Cl23  1  0.506204  0.680476  0.436903  1
