# generated using pymatgen
data_LiCu4BiO8
_symmetry_space_group_name_H-M   'P 1'
_cell_length_a   6.27793737
_cell_length_b   6.27793810
_cell_length_c   6.27793800
_cell_angle_alpha   125.52121047
_cell_angle_beta   125.52121522
_cell_angle_gamma   80.67648806
_symmetry_Int_Tables_number   1
_chemical_formula_structural   LiCu4BiO8
_chemical_formula_sum   'Li1 Cu4 Bi1 O8'
_cell_volume   158.04482033
_cell_formula_units_Z   1
loop_
 _symmetry_equiv_pos_site_id
 _symmetry_equiv_pos_as_xyz
  1  'x, y, z'
loop_
 _atom_site_type_symbol
 _atom_site_label
 _atom_site_symmetry_multiplicity
 _atom_site_fract_x
 _atom_site_fract_y
 _atom_site_fract_z
 _atom_site_occupancy
  Li  Li0  1  0.750000  0.250000  0.500000  1
  Cu  Cu1  1  0.379320  0.620782  0.251566  1
  Cu  Cu2  1  0.369215  0.127753  0.748434  1
  Cu  Cu3  1  0.379218  0.630785  0.758538  1
  Cu  Cu4  1  0.872247  0.620680  0.241462  1
  Bi  Bi5  1  0.000000  0.000000  0.000000  1
  O  O6  1  0.724987  0.305835  0.131194  1
  O  O7  1  0.174639  0.593793  0.868806  1
  O  O8  1  0.017104  0.944057  0.364054  1
  O  O9  1  0.580003  0.653050  0.635946  1
  O  O10  1  0.055943  0.419997  0.073047  1
  O  O11  1  0.346950  0.982896  0.926953  1
  O  O12  1  0.406207  0.275013  0.580846  1
  O  O13  1  0.694165  0.825361  0.419154  1
