# generated using pymatgen
data_Y5Er11(ZnCo)4
_symmetry_space_group_name_H-M   'P 1'
_cell_length_a   9.30581477
_cell_length_b   9.29712249
_cell_length_c   9.29799047
_cell_angle_alpha   60.00508464
_cell_angle_beta   59.97293411
_cell_angle_gamma   59.97094199
_symmetry_Int_Tables_number   1
_chemical_formula_structural   Y5Er11(ZnCo)4
_chemical_formula_sum   'Y5 Er11 Zn4 Co4'
_cell_volume   568.60331570
_cell_formula_units_Z   1
loop_
 _symmetry_equiv_pos_site_id
 _symmetry_equiv_pos_as_xyz
  1  'x, y, z'
loop_
 _atom_site_type_symbol
 _atom_site_label
 _atom_site_symmetry_multiplicity
 _atom_site_fract_x
 _atom_site_fract_y
 _atom_site_fract_z
 _atom_site_occupancy
  Y  Y0  1  0.811123  0.188783  0.188922  1
  Y  Y1  1  0.811783  0.188070  0.811248  1
  Y  Y2  1  0.188895  0.811141  0.188178  1
  Y  Y3  1  0.811793  0.811204  0.188155  1
  Y  Y4  1  0.188931  0.188089  0.811179  1
  Er  Er5  1  0.599417  0.600073  0.600065  1
  Er  Er6  1  0.599872  0.600094  0.200431  1
  Er  Er7  1  0.599853  0.200523  0.600055  1
  Er  Er8  1  0.200287  0.600254  0.600247  1
  Er  Er9  1  0.059848  0.439929  0.439916  1
  Er  Er10  1  0.439840  0.060169  0.060178  1
  Er  Er11  1  0.439507  0.059597  0.440421  1
  Er  Er12  1  0.060304  0.440437  0.059832  1
  Er  Er13  1  0.439486  0.440456  0.059634  1
  Er  Er14  1  0.060295  0.059848  0.440402  1
  Er  Er15  1  0.189204  0.810826  0.810760  1
  Zn  Zn16  1  0.826963  0.826709  0.826654  1
  Zn  Zn17  1  0.826595  0.826588  0.520219  1
  Zn  Zn18  1  0.826621  0.520193  0.826561  1
  Zn  Zn19  1  0.519695  0.826702  0.826646  1
  Co  Co20  1  0.391863  0.391799  0.391803  1
  Co  Co21  1  0.391655  0.392304  0.824389  1
  Co  Co22  1  0.391653  0.824406  0.392291  1
  Co  Co23  1  0.824516  0.391807  0.391813  1
