# generated using pymatgen
data_MgTc20(B3Mo)2
_symmetry_space_group_name_H-M   'P 1'
_cell_length_a   8.11140183
_cell_length_b   8.11140198
_cell_length_c   8.11140100
_cell_angle_alpha   59.99999993
_cell_angle_beta   59.99999932
_cell_angle_gamma   60.00000015
_symmetry_Int_Tables_number   1
_chemical_formula_structural   MgTc20(B3Mo)2
_chemical_formula_sum   'Mg1 Tc20 B6 Mo2'
_cell_volume   377.37464136
_cell_formula_units_Z   1
loop_
 _symmetry_equiv_pos_site_id
 _symmetry_equiv_pos_as_xyz
  1  'x, y, z'
loop_
 _atom_site_type_symbol
 _atom_site_label
 _atom_site_symmetry_multiplicity
 _atom_site_fract_x
 _atom_site_fract_y
 _atom_site_fract_z
 _atom_site_occupancy
  Mg  Mg0  1  0.000000  0.000000  0.000000  1
  Tc  Tc1  1  0.618526  0.618526  0.144420  1
  Tc  Tc2  1  0.618526  0.144420  0.618526  1
  Tc  Tc3  1  0.144420  0.618526  0.618526  1
  Tc  Tc4  1  0.618526  0.618526  0.618526  1
  Tc  Tc5  1  0.381474  0.381474  0.855580  1
  Tc  Tc6  1  0.381474  0.855580  0.381474  1
  Tc  Tc7  1  0.855580  0.381474  0.381474  1
  Tc  Tc8  1  0.381474  0.381474  0.381474  1
  Tc  Tc9  1  0.000000  0.000000  0.341871  1
  Tc  Tc10  1  0.658129  0.000000  0.341871  1
  Tc  Tc11  1  0.000000  0.658129  0.341871  1
  Tc  Tc12  1  0.658129  0.341871  0.000000  1
  Tc  Tc13  1  0.000000  0.341871  0.000000  1
  Tc  Tc14  1  0.000000  0.341871  0.658129  1
  Tc  Tc15  1  0.341871  0.658129  0.000000  1
  Tc  Tc16  1  0.341871  0.000000  0.658129  1
  Tc  Tc17  1  0.341871  0.000000  0.000000  1
  Tc  Tc18  1  0.000000  0.000000  0.658129  1
  Tc  Tc19  1  0.000000  0.658129  0.000000  1
  Tc  Tc20  1  0.658129  0.000000  0.000000  1
  B  B21  1  0.723195  0.723195  0.276805  1
  B  B22  1  0.276805  0.723195  0.276805  1
  B  B23  1  0.723195  0.276805  0.276805  1
  B  B24  1  0.276805  0.276805  0.723195  1
  B  B25  1  0.723195  0.276805  0.723195  1
  B  B26  1  0.276805  0.723195  0.723195  1
  Mo  Mo27  1  0.750000  0.750000  0.750000  1
  Mo  Mo28  1  0.250000  0.250000  0.250000  1
