# generated using pymatgen
data_Cs(TiSe2)3
_symmetry_space_group_name_H-M   'P 1'
_cell_length_a   6.22386358
_cell_length_b   6.22386349
_cell_length_c   9.19923932
_cell_angle_alpha   96.49410942
_cell_angle_beta   96.49411585
_cell_angle_gamma   120.18356188
_symmetry_Int_Tables_number   1
_chemical_formula_structural   Cs(TiSe2)3
_chemical_formula_sum   'Cs1 Ti3 Se6'
_cell_volume   300.00319592
_cell_formula_units_Z   1
loop_
 _symmetry_equiv_pos_site_id
 _symmetry_equiv_pos_as_xyz
  1  'x, y, z'
loop_
 _atom_site_type_symbol
 _atom_site_label
 _atom_site_symmetry_multiplicity
 _atom_site_fract_x
 _atom_site_fract_y
 _atom_site_fract_z
 _atom_site_occupancy
  Cs  Cs0  1  0.000000  0.000000  0.500000  1
  Ti  Ti1  1  0.834208  0.165792  0.000000  1
  Ti  Ti2  1  0.500000  0.500000  0.000000  1
  Ti  Ti3  1  0.165792  0.834208  0.000000  1
  Se  Se4  1  0.225460  0.225460  0.171342  1
  Se  Se5  1  0.889588  0.553572  0.171037  1
  Se  Se6  1  0.553572  0.889588  0.171037  1
  Se  Se7  1  0.446428  0.110412  0.828964  1
  Se  Se8  1  0.110412  0.446428  0.828964  1
  Se  Se9  1  0.774542  0.774542  0.828659  1
