# generated using pymatgen
data_K4LuUSe6
_symmetry_space_group_name_H-M   'P 1'
_cell_length_a   7.47316102
_cell_length_b   7.47316119
_cell_length_c   8.08433256
_cell_angle_alpha   80.95527290
_cell_angle_beta   80.95527477
_cell_angle_gamma   120.00118116
_symmetry_Int_Tables_number   1
_chemical_formula_structural   K4LuUSe6
_chemical_formula_sum   'K4 Lu1 U1 Se6'
_cell_volume   371.17182976
_cell_formula_units_Z   1
loop_
 _symmetry_equiv_pos_site_id
 _symmetry_equiv_pos_as_xyz
  1  'x, y, z'
loop_
 _atom_site_type_symbol
 _atom_site_label
 _atom_site_symmetry_multiplicity
 _atom_site_fract_x
 _atom_site_fract_y
 _atom_site_fract_z
 _atom_site_occupancy
  K  K0  1  0.344378  0.655622  0.500000  1
  K  K1  1  0.655378  0.344622  0.500000  1
  K  K2  1  0.000401  0.999599  0.500000  1
  K  K3  1  0.499921  0.500079  0.000000  1
  Lu  Lu4  1  0.167743  0.832257  0.000000  1
  U  U5  1  0.832238  0.167762  0.000000  1
  Se  Se6  1  0.801798  0.807281  0.204058  1
  Se  Se7  1  0.435660  0.057791  0.206960  1
  Se  Se8  1  0.051082  0.423527  0.206211  1
  Se  Se9  1  0.576473  0.948918  0.793789  1
  Se  Se10  1  0.942209  0.564340  0.793040  1
  Se  Se11  1  0.192719  0.198202  0.795942  1
