# generated using pymatgen
data_Er8LuTh3Pb10
_symmetry_space_group_name_H-M   'P 1'
_cell_length_a   6.49066551
_cell_length_b   9.62682000
_cell_length_c   11.66866600
_cell_angle_alpha   114.50289619
_cell_angle_beta   106.14825398
_cell_angle_gamma   89.99999933
_symmetry_Int_Tables_number   1
_chemical_formula_structural   Er8LuTh3Pb10
_chemical_formula_sum   'Er8 Lu1 Th3 Pb10'
_cell_volume   631.69687154
_cell_formula_units_Z   1
loop_
 _symmetry_equiv_pos_site_id
 _symmetry_equiv_pos_as_xyz
  1  'x, y, z'
loop_
 _atom_site_type_symbol
 _atom_site_label
 _atom_site_symmetry_multiplicity
 _atom_site_fract_x
 _atom_site_fract_y
 _atom_site_fract_z
 _atom_site_occupancy
  Er  Er0  1  0.554421  0.307047  0.608648  1
  Er  Er1  1  0.446227  0.698168  0.393563  1
  Er  Er2  1  0.947336  0.698168  0.393563  1
  Er  Er3  1  0.054229  0.307047  0.608648  1
  Er  Er4  1  0.442015  0.671977  0.884030  1
  Er  Er5  1  0.557922  0.324403  0.115846  1
  Er  Er6  1  0.940807  0.204144  0.881614  1
  Er  Er7  1  0.059107  0.795573  0.118214  1
  Lu  Lu8  1  0.357347  0.971216  0.714695  1
  Th  Th9  1  0.141760  0.259425  0.283519  1
  Th  Th10  1  0.858747  0.743141  0.717494  1
  Th  Th11  1  0.641494  0.026059  0.282987  1
  Pb  Pb12  1  0.295375  0.601732  0.590752  1
  Pb  Pb13  1  0.706511  0.408630  0.413021  1
  Pb  Pb14  1  0.792932  0.993776  0.585863  1
  Pb  Pb15  1  0.208115  0.006810  0.416228  1
  Pb  Pb16  1  0.250606  0.998997  0.997898  1
  Pb  Pb17  1  0.747292  0.998997  0.997898  1
  Pb  Pb18  1  0.073441  0.482751  0.146882  1
  Pb  Pb19  1  0.927073  0.519050  0.854147  1
  Pb  Pb20  1  0.574150  0.665094  0.148299  1
  Pb  Pb21  1  0.423093  0.317794  0.846188  1
