# generated using pymatgen
data_Y10Sn3Bi3Se2
_symmetry_space_group_name_H-M   'P 1'
_cell_length_a   9.20271100
_cell_length_b   9.20271117
_cell_length_c   6.70803000
_cell_angle_alpha   90.00000000
_cell_angle_beta   90.00000000
_cell_angle_gamma   119.99999578
_symmetry_Int_Tables_number   1
_chemical_formula_structural   Y10Sn3Bi3Se2
_chemical_formula_sum   'Y10 Sn3 Bi3 Se2'
_cell_volume   491.99107232
_cell_formula_units_Z   1
loop_
 _symmetry_equiv_pos_site_id
 _symmetry_equiv_pos_as_xyz
  1  'x, y, z'
loop_
 _atom_site_type_symbol
 _atom_site_label
 _atom_site_symmetry_multiplicity
 _atom_site_fract_x
 _atom_site_fract_y
 _atom_site_fract_z
 _atom_site_occupancy
  Y  Y0  1  0.666667  0.333333  0.004658  1
  Y  Y1  1  0.333333  0.666667  0.004658  1
  Y  Y2  1  0.333333  0.666667  0.495342  1
  Y  Y3  1  0.666667  0.333333  0.495342  1
  Y  Y4  1  0.747389  0.747389  0.750000  1
  Y  Y5  1  0.252611  0.000000  0.750000  1
  Y  Y6  1  0.000000  0.252611  0.750000  1
  Y  Y7  1  0.253419  0.253419  0.250000  1
  Y  Y8  1  0.746581  0.000000  0.250000  1
  Y  Y9  1  0.000000  0.746581  0.250000  1
  Sn  Sn10  1  0.603894  0.603894  0.250000  1
  Sn  Sn11  1  0.396106  0.000000  0.250000  1
  Sn  Sn12  1  0.000000  0.396106  0.250000  1
  Bi  Bi13  1  0.396793  0.396793  0.750000  1
  Bi  Bi14  1  0.603207  0.000000  0.750000  1
  Bi  Bi15  1  0.000000  0.603207  0.750000  1
  Se  Se16  1  0.000000  0.000000  0.999242  1
  Se  Se17  1  0.000000  0.000000  0.500758  1
