# generated using pymatgen
data_LaY12Th3MgZn3Ir4
_symmetry_space_group_name_H-M   'P 1'
_cell_length_a   9.67036218
_cell_length_b   9.69206836
_cell_length_c   9.69206900
_cell_angle_alpha   60.00000122
_cell_angle_beta   59.92572236
_cell_angle_gamma   59.92572226
_symmetry_Int_Tables_number   1
_chemical_formula_structural   LaY12Th3MgZn3Ir4
_chemical_formula_sum   'La1 Y12 Th3 Mg1 Zn3 Ir4'
_cell_volume   641.61160876
_cell_formula_units_Z   1
loop_
 _symmetry_equiv_pos_site_id
 _symmetry_equiv_pos_as_xyz
  1  'x, y, z'
loop_
 _atom_site_type_symbol
 _atom_site_label
 _atom_site_symmetry_multiplicity
 _atom_site_fract_x
 _atom_site_fract_y
 _atom_site_fract_z
 _atom_site_occupancy
  La  La0  1  0.184042  0.605319  0.605319  1
  Y  Y1  1  0.059509  0.440750  0.440750  1
  Y  Y2  1  0.438313  0.061774  0.061774  1
  Y  Y3  1  0.438313  0.061774  0.438138  1
  Y  Y4  1  0.059509  0.440750  0.058992  1
  Y  Y5  1  0.438313  0.438138  0.061774  1
  Y  Y6  1  0.059509  0.058992  0.440750  1
  Y  Y7  1  0.181875  0.815216  0.815216  1
  Y  Y8  1  0.813510  0.185621  0.185621  1
  Y  Y9  1  0.813510  0.185621  0.815246  1
  Y  Y10  1  0.181875  0.815216  0.187694  1
  Y  Y11  1  0.813510  0.815246  0.185621  1
  Y  Y12  1  0.181875  0.187694  0.815216  1
  Th  Th13  1  0.602627  0.600222  0.600222  1
  Th  Th14  1  0.602627  0.600222  0.196928  1
  Th  Th15  1  0.602627  0.196928  0.600222  1
  Mg  Mg16  1  0.529422  0.823527  0.823527  1
  Zn  Zn17  1  0.830565  0.838211  0.838211  1
  Zn  Zn18  1  0.830565  0.838211  0.493013  1
  Zn  Zn19  1  0.830565  0.493013  0.838211  1
  Ir  Ir20  1  0.395825  0.391469  0.391469  1
  Ir  Ir21  1  0.395825  0.391469  0.821237  1
  Ir  Ir22  1  0.395825  0.821237  0.391469  1
  Ir  Ir23  1  0.819865  0.393378  0.393378  1
