# generated using pymatgen
data_CsTiTc2Te3
_symmetry_space_group_name_H-M   'P 1'
_cell_length_a   10.47493089
_cell_length_b   10.32828871
_cell_length_c   4.56289400
_cell_angle_alpha   90.00000000
_cell_angle_beta   90.00000000
_cell_angle_gamma   120.40540683
_symmetry_Int_Tables_number   1
_chemical_formula_structural   CsTiTc2Te3
_chemical_formula_sum   'Cs2 Ti2 Tc4 Te6'
_cell_volume   425.75705666
_cell_formula_units_Z   2
loop_
 _symmetry_equiv_pos_site_id
 _symmetry_equiv_pos_as_xyz
  1  'x, y, z'
loop_
 _atom_site_type_symbol
 _atom_site_label
 _atom_site_symmetry_multiplicity
 _atom_site_fract_x
 _atom_site_fract_y
 _atom_site_fract_z
 _atom_site_occupancy
  Cs  Cs0  1  0.339711  0.669747  0.250000  1
  Cs  Cs1  1  0.668010  0.330776  0.750000  1
  Ti  Ti2  1  0.974688  0.138633  0.750000  1
  Ti  Ti3  1  0.858539  0.836908  0.750000  1
  Tc  Tc4  1  0.836351  0.975314  0.250000  1
  Tc  Tc5  1  0.133437  0.157149  0.250000  1
  Tc  Tc6  1  0.022338  0.866372  0.250000  1
  Tc  Tc7  1  0.151361  0.022418  0.750000  1
  Te  Te8  1  0.325463  0.048789  0.250000  1
  Te  Te9  1  0.955575  0.283656  0.250000  1
  Te  Te10  1  0.720896  0.667844  0.250000  1
  Te  Te11  1  0.659374  0.950307  0.750000  1
  Te  Te12  1  0.294641  0.330821  0.750000  1
  Te  Te13  1  0.059617  0.721265  0.750000  1
