# generated using pymatgen
data_Na2TbSi2(PPd5)4
_symmetry_space_group_name_H-M   'P 1'
_cell_length_a   8.65333311
_cell_length_b   8.66033704
_cell_length_c   8.66033687
_cell_angle_alpha   59.94649350
_cell_angle_beta   60.02675190
_cell_angle_gamma   60.02675505
_symmetry_Int_Tables_number   1
_chemical_formula_structural   Na2TbSi2(PPd5)4
_chemical_formula_sum   'Na2 Tb1 Si2 P4 Pd20'
_cell_volume   458.92047864
_cell_formula_units_Z   1
loop_
 _symmetry_equiv_pos_site_id
 _symmetry_equiv_pos_as_xyz
  1  'x, y, z'
loop_
 _atom_site_type_symbol
 _atom_site_label
 _atom_site_symmetry_multiplicity
 _atom_site_fract_x
 _atom_site_fract_y
 _atom_site_fract_z
 _atom_site_occupancy
  Na  Na0  1  0.250000  0.250000  0.250000  1
  Na  Na1  1  0.000000  0.000000  0.000000  1
  Tb  Tb2  1  0.750000  0.750000  0.750000  1
  Si  Si3  1  0.736024  0.263976  0.263976  1
  Si  Si4  1  0.263976  0.736024  0.736024  1
  P  P5  1  0.263691  0.736309  0.263691  1
  P  P6  1  0.736309  0.263691  0.736309  1
  P  P7  1  0.263691  0.263691  0.736309  1
  P  P8  1  0.736309  0.736309  0.263691  1
  Pd  Pd9  1  0.383928  0.384863  0.384863  1
  Pd  Pd10  1  0.616443  0.614014  0.614014  1
  Pd  Pd11  1  0.384863  0.383928  0.846346  1
  Pd  Pd12  1  0.384863  0.846346  0.383928  1
  Pd  Pd13  1  0.614014  0.616443  0.155531  1
  Pd  Pd14  1  0.614014  0.155531  0.616443  1
  Pd  Pd15  1  0.846346  0.384863  0.384863  1
  Pd  Pd16  1  0.155531  0.614014  0.614014  1
  Pd  Pd17  1  0.346418  0.998132  0.998132  1
  Pd  Pd18  1  0.657317  0.998132  0.998132  1
  Pd  Pd19  1  0.998132  0.346418  0.657317  1
  Pd  Pd20  1  0.998132  0.657317  0.346418  1
  Pd  Pd21  1  0.999056  0.348930  0.994858  1
  Pd  Pd22  1  0.657156  0.994858  0.348930  1
  Pd  Pd23  1  0.994858  0.657156  0.999056  1
  Pd  Pd24  1  0.348930  0.999056  0.657156  1
  Pd  Pd25  1  0.999056  0.994858  0.348930  1
  Pd  Pd26  1  0.994858  0.999056  0.657156  1
  Pd  Pd27  1  0.657156  0.348930  0.994858  1
  Pd  Pd28  1  0.348930  0.657156  0.999056  1
