# generated using pymatgen
data_Li3DyEr2Pt3
_symmetry_space_group_name_H-M   'P 1'
_cell_length_a   7.08121296
_cell_length_b   7.07568385
_cell_length_c   4.06182900
_cell_angle_alpha   90.00000000
_cell_angle_beta   90.00000000
_cell_angle_gamma   119.97415121
_symmetry_Int_Tables_number   1
_chemical_formula_structural   Li3DyEr2Pt3
_chemical_formula_sum   'Li3 Dy1 Er2 Pt3'
_cell_volume   176.29557228
_cell_formula_units_Z   1
loop_
 _symmetry_equiv_pos_site_id
 _symmetry_equiv_pos_as_xyz
  1  'x, y, z'
loop_
 _atom_site_type_symbol
 _atom_site_label
 _atom_site_symmetry_multiplicity
 _atom_site_fract_x
 _atom_site_fract_y
 _atom_site_fract_z
 _atom_site_occupancy
  Li  Li0  1  0.766376  0.766855  0.500000  1
  Li  Li1  1  0.233624  0.000480  0.500000  1
  Li  Li2  1  0.000000  0.232722  0.500000  1
  Dy  Dy3  1  0.000000  0.590402  0.000000  1
  Er  Er4  1  0.409539  0.409315  0.000000  1
  Er  Er5  1  0.590461  0.999775  0.000000  1
  Pt  Pt6  1  0.000000  0.001351  0.000000  1
  Pt  Pt7  1  0.664960  0.332029  0.500000  1
  Pt  Pt8  1  0.335040  0.667070  0.500000  1
