# generated using pymatgen
data_Tb2Nd5Th(Si3Pd)4
_symmetry_space_group_name_H-M   'P 1'
_cell_length_a   8.23527550
_cell_length_b   8.23527648
_cell_length_c   8.44380800
_cell_angle_alpha   90.00000000
_cell_angle_beta   90.00000000
_cell_angle_gamma   119.79114467
_symmetry_Int_Tables_number   1
_chemical_formula_structural   Tb2Nd5Th(Si3Pd)4
_chemical_formula_sum   'Tb2 Nd5 Th1 Si12 Pd4'
_cell_volume   496.97604645
_cell_formula_units_Z   1
loop_
 _symmetry_equiv_pos_site_id
 _symmetry_equiv_pos_as_xyz
  1  'x, y, z'
loop_
 _atom_site_type_symbol
 _atom_site_label
 _atom_site_symmetry_multiplicity
 _atom_site_fract_x
 _atom_site_fract_y
 _atom_site_fract_z
 _atom_site_occupancy
  Tb  Tb0  1  0.000729  0.500387  0.750000  1
  Tb  Tb1  1  0.499613  0.999271  0.750000  1
  Nd  Nd2  1  0.500264  0.499736  0.250000  1
  Nd  Nd3  1  0.999313  0.499606  0.250000  1
  Nd  Nd4  1  0.500394  0.000687  0.250000  1
  Nd  Nd5  1  0.000003  0.999997  0.750000  1
  Nd  Nd6  1  0.999925  0.000075  0.250000  1
  Th  Th7  1  0.499645  0.500355  0.750000  1
  Si  Si8  1  0.833305  0.166695  0.996456  1
  Si  Si9  1  0.166714  0.833286  0.997770  1
  Si  Si10  1  0.331434  0.164494  0.997181  1
  Si  Si11  1  0.166714  0.833286  0.502230  1
  Si  Si12  1  0.668576  0.835518  0.998266  1
  Si  Si13  1  0.833305  0.166695  0.503544  1
  Si  Si14  1  0.835506  0.668566  0.997181  1
  Si  Si15  1  0.668576  0.835518  0.501734  1
  Si  Si16  1  0.164482  0.331424  0.998266  1
  Si  Si17  1  0.331434  0.164494  0.502819  1
  Si  Si18  1  0.164482  0.331424  0.501734  1
  Si  Si19  1  0.835506  0.668566  0.502819  1
  Pd  Pd20  1  0.666432  0.333568  0.991658  1
  Pd  Pd21  1  0.333607  0.666393  0.993301  1
  Pd  Pd22  1  0.333607  0.666393  0.506699  1
  Pd  Pd23  1  0.666432  0.333568  0.508342  1
