# generated using pymatgen
data_Dy2Er18AlBi11
_symmetry_space_group_name_H-M   'P 1'
_cell_length_a   8.18136719
_cell_length_b   9.44065300
_cell_length_c   11.95379601
_cell_angle_alpha   90.00000000
_cell_angle_beta   90.28530556
_cell_angle_gamma   90.00000000
_symmetry_Int_Tables_number   1
_chemical_formula_structural   Dy2Er18AlBi11
_chemical_formula_sum   'Dy2 Er18 Al1 Bi11'
_cell_volume   923.26925965
_cell_formula_units_Z   1
loop_
 _symmetry_equiv_pos_site_id
 _symmetry_equiv_pos_as_xyz
  1  'x, y, z'
loop_
 _atom_site_type_symbol
 _atom_site_label
 _atom_site_symmetry_multiplicity
 _atom_site_fract_x
 _atom_site_fract_y
 _atom_site_fract_z
 _atom_site_occupancy
  Dy  Dy0  1  0.312797  0.250000  0.219726  1
  Dy  Dy1  1  0.811266  0.250000  0.281050  1
  Er  Er2  1  0.354612  0.750000  0.207363  1
  Er  Er3  1  0.852665  0.750000  0.284901  1
  Er  Er4  1  0.648188  0.250000  0.784428  1
  Er  Er5  1  0.149520  0.250000  0.715562  1
  Er  Er6  1  0.686012  0.569541  0.055561  1
  Er  Er7  1  0.193796  0.935917  0.440581  1
  Er  Er8  1  0.307587  0.052866  0.941211  1
  Er  Er9  1  0.806227  0.435967  0.558873  1
  Er  Er10  1  0.307587  0.447134  0.941211  1
  Er  Er11  1  0.806227  0.064033  0.558873  1
  Er  Er12  1  0.686012  0.930459  0.055561  1
  Er  Er13  1  0.193796  0.564083  0.440581  1
  Er  Er14  1  0.475051  0.250000  0.488644  1
  Er  Er15  1  0.977516  0.250000  0.011171  1
  Er  Er16  1  0.525382  0.750000  0.511592  1
  Er  Er17  1  0.034701  0.750000  0.989098  1
  Er  Er18  1  0.678873  0.750000  0.786054  1
  Er  Er19  1  0.190287  0.750000  0.722574  1
  Al  Al20  1  0.408848  0.750000  0.958477  1
  Bi  Bi21  1  0.908649  0.750000  0.544105  1
  Bi  Bi22  1  0.592658  0.250000  0.042690  1
  Bi  Bi23  1  0.092380  0.250000  0.457518  1
  Bi  Bi24  1  0.564466  0.995255  0.325953  1
  Bi  Bi25  1  0.063727  0.504052  0.175364  1
  Bi  Bi26  1  0.435852  0.496295  0.675235  1
  Bi  Bi27  1  0.935638  0.003973  0.824745  1
  Bi  Bi28  1  0.435852  0.003705  0.675235  1
  Bi  Bi29  1  0.935638  0.496027  0.824745  1
  Bi  Bi30  1  0.564466  0.504745  0.325953  1
  Bi  Bi31  1  0.063727  0.995948  0.175364  1
