# generated using pymatgen
data_Zr8Ti12Si15As
_symmetry_space_group_name_H-M   'P 1'
_cell_length_a   6.85470069
_cell_length_b   6.85340427
_cell_length_c   12.53968540
_cell_angle_alpha   89.97971086
_cell_angle_beta   89.85415144
_cell_angle_gamma   90.02473091
_symmetry_Int_Tables_number   1
_chemical_formula_structural   Zr8Ti12Si15As
_chemical_formula_sum   'Zr8 Ti12 Si15 As1'
_cell_volume   589.08777823
_cell_formula_units_Z   1
loop_
 _symmetry_equiv_pos_site_id
 _symmetry_equiv_pos_as_xyz
  1  'x, y, z'
loop_
 _atom_site_type_symbol
 _atom_site_label
 _atom_site_symmetry_multiplicity
 _atom_site_fract_x
 _atom_site_fract_y
 _atom_site_fract_z
 _atom_site_occupancy
  Zr  Zr0  1  0.000592  0.655133  0.032839  1
  Zr  Zr1  1  0.999714  0.343232  0.532759  1
  Zr  Zr2  1  0.655256  0.000656  0.967035  1
  Zr  Zr3  1  0.155317  0.499795  0.782581  1
  Zr  Zr4  1  0.841685  0.497798  0.280469  1
  Zr  Zr5  1  0.499163  0.155571  0.217216  1
  Zr  Zr6  1  0.501534  0.845956  0.717930  1
  Zr  Zr7  1  0.345809  0.999861  0.468128  1
  Ti  Ti8  1  0.347256  0.504353  0.377794  1
  Ti  Ti9  1  0.845581  0.998167  0.371803  1
  Ti  Ti10  1  0.004472  0.152453  0.127276  1
  Ti  Ti11  1  0.997027  0.848242  0.627398  1
  Ti  Ti12  1  0.652736  0.495676  0.877471  1
  Ti  Ti13  1  0.505542  0.345534  0.622756  1
  Ti  Ti14  1  0.495624  0.652617  0.122778  1
  Ti  Ti15  1  0.152371  0.004131  0.872964  1
  Ti  Ti16  1  0.670216  0.672939  0.500124  1
  Ti  Ti17  1  0.827550  0.172417  0.749988  1
  Ti  Ti18  1  0.172987  0.827898  0.249147  1
  Ti  Ti19  1  0.327341  0.327343  0.999889  1
  Si  Si20  1  0.953005  0.292271  0.936102  1
  Si  Si21  1  0.708522  0.047158  0.564060  1
  Si  Si22  1  0.207877  0.452847  0.185983  1
  Si  Si23  1  0.792015  0.547120  0.686252  1
  Si  Si24  1  0.452859  0.208149  0.814147  1
  Si  Si25  1  0.546775  0.792228  0.313508  1
  Si  Si26  1  0.292277  0.953181  0.063626  1
  Si  Si27  1  0.864695  0.794756  0.822379  1
  Si  Si28  1  0.135874  0.205330  0.322213  1
  Si  Si29  1  0.794345  0.864782  0.177062  1
  Si  Si30  1  0.300780  0.633815  0.576699  1
  Si  Si31  1  0.705008  0.364407  0.072352  1
  Si  Si32  1  0.634980  0.295197  0.427459  1
  Si  Si33  1  0.364497  0.705181  0.927471  1
  Si  Si34  1  0.205229  0.135377  0.677753  1
  As  As35  1  0.043489  0.708433  0.434589  1
