# generated using pymatgen
data_Sr9Pd5Pt
_symmetry_space_group_name_H-M   'P 1'
_cell_length_a   8.12586830
_cell_length_b   8.13447186
_cell_length_c   8.12874926
_cell_angle_alpha   71.88574327
_cell_angle_beta   72.01091628
_cell_angle_gamma   71.98520267
_symmetry_Int_Tables_number   1
_chemical_formula_structural   Sr9Pd5Pt
_chemical_formula_sum   'Sr9 Pd5 Pt1'
_cell_volume   472.00607747
_cell_formula_units_Z   1
loop_
 _symmetry_equiv_pos_site_id
 _symmetry_equiv_pos_as_xyz
  1  'x, y, z'
loop_
 _atom_site_type_symbol
 _atom_site_label
 _atom_site_symmetry_multiplicity
 _atom_site_fract_x
 _atom_site_fract_y
 _atom_site_fract_z
 _atom_site_occupancy
  Sr  Sr0  1  0.000216  0.002489  0.999042  1
  Sr  Sr1  1  0.797104  0.794568  0.796089  1
  Sr  Sr2  1  0.203063  0.204745  0.202043  1
  Sr  Sr3  1  0.325952  0.609666  0.841677  1
  Sr  Sr4  1  0.843353  0.328159  0.612426  1
  Sr  Sr5  1  0.610617  0.842096  0.327472  1
  Sr  Sr6  1  0.674603  0.389421  0.156086  1
  Sr  Sr7  1  0.157347  0.671650  0.391337  1
  Sr  Sr8  1  0.386732  0.160069  0.673827  1
  Pd  Pd9  1  0.147199  0.959989  0.586822  1
  Pd  Pd10  1  0.587376  0.146506  0.960392  1
  Pd  Pd11  1  0.960226  0.587551  0.147022  1
  Pd  Pd12  1  0.853202  0.039734  0.412667  1
  Pd  Pd13  1  0.412990  0.852546  0.040102  1
  Pt  Pt14  1  0.040021  0.410810  0.852997  1
