# generated using pymatgen
data_Ho3TiGa2Ir3
_symmetry_space_group_name_H-M   'P 1'
_cell_length_a   6.87196300
_cell_length_b   7.01289097
_cell_length_c   4.15886900
_cell_angle_alpha   90.00000000
_cell_angle_beta   90.00000000
_cell_angle_gamma   119.33743648
_symmetry_Int_Tables_number   1
_chemical_formula_structural   Ho3TiGa2Ir3
_chemical_formula_sum   'Ho3 Ti1 Ga2 Ir3'
_cell_volume   174.72086139
_cell_formula_units_Z   1
loop_
 _symmetry_equiv_pos_site_id
 _symmetry_equiv_pos_as_xyz
  1  'x, y, z'
loop_
 _atom_site_type_symbol
 _atom_site_label
 _atom_site_symmetry_multiplicity
 _atom_site_fract_x
 _atom_site_fract_y
 _atom_site_fract_z
 _atom_site_occupancy
  Ho  Ho0  1  0.601790  0.000000  0.500001  1
  Ho  Ho1  1  0.417661  0.425707  0.500001  1
  Ho  Ho2  1  0.991952  0.574293  0.500001  1
  Ti  Ti3  1  0.231003  0.000000  0.000000  1
  Ga  Ga4  1  0.002368  0.247139  0.000000  1
  Ga  Ga5  1  0.755229  0.752862  0.000000  1
  Ir  Ir6  1  0.650927  0.318280  0.000000  1
  Ir  Ir7  1  0.332645  0.681719  0.000000  1
  Ir  Ir8  1  0.016424  0.000000  0.500001  1
