# generated using pymatgen
data_Dy2Er6SnHg3Au8
_symmetry_space_group_name_H-M   'P 1'
_cell_length_a   7.97876703
_cell_length_b   7.97892718
_cell_length_c   7.31855702
_cell_angle_alpha   89.91567609
_cell_angle_beta   90.19011369
_cell_angle_gamma   89.99247264
_symmetry_Int_Tables_number   1
_chemical_formula_structural   Dy2Er6SnHg3Au8
_chemical_formula_sum   'Dy2 Er6 Sn1 Hg3 Au8'
_cell_volume   465.91091170
_cell_formula_units_Z   1
loop_
 _symmetry_equiv_pos_site_id
 _symmetry_equiv_pos_as_xyz
  1  'x, y, z'
loop_
 _atom_site_type_symbol
 _atom_site_label
 _atom_site_symmetry_multiplicity
 _atom_site_fract_x
 _atom_site_fract_y
 _atom_site_fract_z
 _atom_site_occupancy
  Dy  Dy0  1  0.180474  0.185167  0.000060  1
  Dy  Dy1  1  0.315665  0.681564  0.499957  1
  Er  Er2  1  0.685230  0.320478  0.499672  1
  Er  Er3  1  0.819209  0.815759  0.000334  1
  Er  Er4  1  0.338710  0.659174  0.000595  1
  Er  Er5  1  0.662461  0.340636  0.000560  1
  Er  Er6  1  0.839841  0.838152  0.499321  1
  Er  Er7  1  0.158368  0.162277  0.499476  1
  Sn  Sn8  1  0.500488  0.000323  0.749645  1
  Hg  Hg9  1  0.000198  0.499559  0.749953  1
  Hg  Hg10  1  0.499670  0.999528  0.250221  1
  Hg  Hg11  1  0.000128  0.499726  0.250316  1
  Au  Au12  1  0.126379  0.872675  0.773313  1
  Au  Au13  1  0.870990  0.126911  0.229009  1
  Au  Au14  1  0.374235  0.372081  0.273154  1
  Au  Au15  1  0.628236  0.627336  0.729386  1
  Au  Au16  1  0.628096  0.627406  0.270889  1
  Au  Au17  1  0.870809  0.126695  0.770632  1
  Au  Au18  1  0.374166  0.371906  0.726752  1
  Au  Au19  1  0.126647  0.872649  0.226756  1
