# generated using pymatgen
data_DyErTa4(B2Ru5)2
_symmetry_space_group_name_H-M   'P 1'
_cell_length_a   9.54710509
_cell_length_b   9.54710617
_cell_length_c   3.08997300
_cell_angle_alpha   90.00000000
_cell_angle_beta   90.00000000
_cell_angle_gamma   90.57256356
_symmetry_Int_Tables_number   1
_chemical_formula_structural   DyErTa4(B2Ru5)2
_chemical_formula_sum   'Dy1 Er1 Ta4 B4 Ru10'
_cell_volume   281.62840444
_cell_formula_units_Z   1
loop_
 _symmetry_equiv_pos_site_id
 _symmetry_equiv_pos_as_xyz
  1  'x, y, z'
loop_
 _atom_site_type_symbol
 _atom_site_label
 _atom_site_symmetry_multiplicity
 _atom_site_fract_x
 _atom_site_fract_y
 _atom_site_fract_z
 _atom_site_occupancy
  Dy  Dy0  1  0.824011  0.675989  0.000000  1
  Er  Er1  1  0.176262  0.323738  0.000000  1
  Ta  Ta2  1  0.323810  0.823855  0.000000  1
  Ta  Ta3  1  0.676145  0.176190  0.000000  1
  Ta  Ta4  1  0.499557  0.499844  0.000000  1
  Ta  Ta5  1  0.000156  0.000443  0.000000  1
  B  B6  1  0.620324  0.879676  0.000000  1
  B  B7  1  0.379222  0.120778  0.000000  1
  B  B8  1  0.121152  0.620821  0.000000  1
  B  B9  1  0.879179  0.378848  0.000000  1
  Ru  Ru10  1  0.559519  0.723014  0.500000  1
  Ru  Ru11  1  0.439770  0.277215  0.500000  1
  Ru  Ru12  1  0.081958  0.785503  0.500000  1
  Ru  Ru13  1  0.918701  0.214673  0.500000  1
  Ru  Ru14  1  0.285327  0.581299  0.500000  1
  Ru  Ru15  1  0.714497  0.418042  0.500000  1
  Ru  Ru16  1  0.222785  0.060230  0.500000  1
  Ru  Ru17  1  0.776986  0.940481  0.500000  1
  Ru  Ru18  1  0.499877  0.000123  0.500000  1
  Ru  Ru19  1  0.000762  0.499238  0.500000  1
