# generated using pymatgen
data_Tm4Mo3WN8
_symmetry_space_group_name_H-M   'P 1'
_cell_length_a   3.16886700
_cell_length_b   5.65500513
_cell_length_c   10.51732324
_cell_angle_alpha   89.97532098
_cell_angle_beta   90.00000000
_cell_angle_gamma   90.00000000
_symmetry_Int_Tables_number   1
_chemical_formula_structural   Tm4Mo3WN8
_chemical_formula_sum   'Tm4 Mo3 W1 N8'
_cell_volume   188.46998536
_cell_formula_units_Z   1
loop_
 _symmetry_equiv_pos_site_id
 _symmetry_equiv_pos_as_xyz
  1  'x, y, z'
loop_
 _atom_site_type_symbol
 _atom_site_label
 _atom_site_symmetry_multiplicity
 _atom_site_fract_x
 _atom_site_fract_y
 _atom_site_fract_z
 _atom_site_occupancy
  Tm  Tm0  1  0.250000  0.078855  0.853627  1
  Tm  Tm1  1  0.250000  0.578579  0.646843  1
  Tm  Tm2  1  0.750000  0.920573  0.146411  1
  Tm  Tm3  1  0.750000  0.421199  0.354532  1
  Mo  Mo4  1  0.250000  0.932549  0.406015  1
  Mo  Mo5  1  0.750000  0.568735  0.905740  1
  Mo  Mo6  1  0.750000  0.067628  0.593591  1
  W  W7  1  0.250000  0.431815  0.094697  1
  N  N8  1  0.250000  0.167215  0.246682  1
  N  N9  1  0.250000  0.662724  0.250616  1
  N  N10  1  0.750000  0.836432  0.750980  1
  N  N11  1  0.750000  0.334912  0.748540  1
  N  N12  1  0.250000  0.764218  0.995687  1
  N  N13  1  0.250000  0.263995  0.504961  1
  N  N14  1  0.750000  0.234014  0.006545  1
  N  N15  1  0.750000  0.736557  0.494531  1
