# generated using pymatgen
data_YbDy3(Ga3Ir)6
_symmetry_space_group_name_H-M   'P 1'
_cell_length_a   7.58552960
_cell_length_b   7.57849491
_cell_length_c   9.53617900
_cell_angle_alpha   90.00000000
_cell_angle_beta   90.00000000
_cell_angle_gamma   119.77609517
_symmetry_Int_Tables_number   1
_chemical_formula_structural   YbDy3(Ga3Ir)6
_chemical_formula_sum   'Yb1 Dy3 Ga18 Ir6'
_cell_volume   475.82728672
_cell_formula_units_Z   1
loop_
 _symmetry_equiv_pos_site_id
 _symmetry_equiv_pos_as_xyz
  1  'x, y, z'
loop_
 _atom_site_type_symbol
 _atom_site_label
 _atom_site_symmetry_multiplicity
 _atom_site_fract_x
 _atom_site_fract_y
 _atom_site_fract_z
 _atom_site_occupancy
  Yb  Yb0  1  0.331881  0.003471  0.750000  1
  Dy  Dy1  1  0.998783  0.669098  0.250000  1
  Dy  Dy2  1  0.002392  0.331778  0.750000  1
  Dy  Dy3  1  0.668103  0.998001  0.250000  1
  Ga  Ga4  1  0.128189  0.127133  0.250000  1
  Ga  Ga5  1  0.872493  0.873676  0.750000  1
  Ga  Ga6  1  0.999353  0.334378  0.080966  1
  Ga  Ga7  1  0.001625  0.667469  0.919989  1
  Ga  Ga8  1  0.001625  0.667469  0.580011  1
  Ga  Ga9  1  0.334743  0.999934  0.421475  1
  Ga  Ga10  1  0.999353  0.334378  0.419034  1
  Ga  Ga11  1  0.663340  0.999403  0.580416  1
  Ga  Ga12  1  0.663340  0.999403  0.919584  1
  Ga  Ga13  1  0.334743  0.999934  0.078525  1
  Ga  Ga14  1  0.332729  0.330734  0.562245  1
  Ga  Ga15  1  0.667703  0.667592  0.434783  1
  Ga  Ga16  1  0.667703  0.667592  0.065217  1
  Ga  Ga17  1  0.332729  0.330734  0.937755  1
  Ga  Ga18  1  0.338825  0.546478  0.250000  1
  Ga  Ga19  1  0.663503  0.454227  0.750000  1
  Ga  Ga20  1  0.546129  0.337869  0.250000  1
  Ga  Ga21  1  0.452844  0.661358  0.750000  1
  Ir  Ir22  1  0.672058  0.329491  0.000253  1
  Ir  Ir23  1  0.328308  0.670055  0.000519  1
  Ir  Ir24  1  0.328308  0.670055  0.499481  1
  Ir  Ir25  1  0.672058  0.329491  0.499747  1
  Ir  Ir26  1  0.998569  0.999399  0.000903  1
  Ir  Ir27  1  0.998569  0.999399  0.499097  1
