# generated using pymatgen
data_SmDy2(LuRh6)3
_symmetry_space_group_name_H-M   'P 1'
_cell_length_a   5.25329500
_cell_length_b   5.25329532
_cell_length_c   17.51622900
_cell_angle_alpha   90.00000000
_cell_angle_beta   90.00000000
_cell_angle_gamma   120.00000431
_symmetry_Int_Tables_number   1
_chemical_formula_structural   SmDy2(LuRh6)3
_chemical_formula_sum   'Sm1 Dy2 Lu3 Rh18'
_cell_volume   418.63432273
_cell_formula_units_Z   1
loop_
 _symmetry_equiv_pos_site_id
 _symmetry_equiv_pos_as_xyz
  1  'x, y, z'
loop_
 _atom_site_type_symbol
 _atom_site_label
 _atom_site_symmetry_multiplicity
 _atom_site_fract_x
 _atom_site_fract_y
 _atom_site_fract_z
 _atom_site_occupancy
  Sm  Sm0  1  0.666667  0.333333  0.249930  1
  Dy  Dy1  1  0.333333  0.666667  0.541497  1
  Dy  Dy2  1  0.333333  0.666667  0.750337  1
  Lu  Lu3  1  0.333333  0.666667  0.958093  1
  Lu  Lu4  1  0.666667  0.333333  0.041321  1
  Lu  Lu5  1  0.666667  0.333333  0.458113  1
  Rh  Rh6  1  0.167379  0.832621  0.375272  1
  Rh  Rh7  1  0.167379  0.334757  0.375272  1
  Rh  Rh8  1  0.665243  0.832621  0.375272  1
  Rh  Rh9  1  0.832561  0.167439  0.625514  1
  Rh  Rh10  1  0.832561  0.665121  0.625514  1
  Rh  Rh11  1  0.334879  0.167439  0.625514  1
  Rh  Rh12  1  0.832484  0.167516  0.875153  1
  Rh  Rh13  1  0.832484  0.664968  0.875153  1
  Rh  Rh14  1  0.335032  0.167516  0.875153  1
  Rh  Rh15  1  0.167521  0.832479  0.124367  1
  Rh  Rh16  1  0.167521  0.335042  0.124367  1
  Rh  Rh17  1  0.664958  0.832479  0.124367  1
  Rh  Rh18  1  0.333333  0.666667  0.249950  1
  Rh  Rh19  1  0.666667  0.333333  0.750132  1
  Rh  Rh20  1  0.000000  0.000000  0.249744  1
  Rh  Rh21  1  0.000000  0.000000  0.750141  1
  Rh  Rh22  1  0.000000  0.000000  0.500015  1
  Rh  Rh23  1  0.000000  0.000000  0.999808  1
