# generated using pymatgen
data_Ho6Er10MgCd3Ir4
_symmetry_space_group_name_H-M   'P 1'
_cell_length_a   9.61531234
_cell_length_b   9.61531258
_cell_length_c   9.61531228
_cell_angle_alpha   59.56610279
_cell_angle_beta   59.56610085
_cell_angle_gamma   59.56610203
_symmetry_Int_Tables_number   1
_chemical_formula_structural   Ho6Er10MgCd3Ir4
_chemical_formula_sum   'Ho6 Er10 Mg1 Cd3 Ir4'
_cell_volume   622.40064285
_cell_formula_units_Z   1
loop_
 _symmetry_equiv_pos_site_id
 _symmetry_equiv_pos_as_xyz
  1  'x, y, z'
loop_
 _atom_site_type_symbol
 _atom_site_label
 _atom_site_symmetry_multiplicity
 _atom_site_fract_x
 _atom_site_fract_y
 _atom_site_fract_z
 _atom_site_occupancy
  Ho  Ho0  1  0.189051  0.812111  0.812111  1
  Ho  Ho1  1  0.811530  0.187722  0.187722  1
  Ho  Ho2  1  0.812111  0.189051  0.812111  1
  Ho  Ho3  1  0.187722  0.811530  0.187722  1
  Ho  Ho4  1  0.812111  0.812111  0.189051  1
  Ho  Ho5  1  0.187722  0.187722  0.811530  1
  Er  Er6  1  0.599820  0.599820  0.599820  1
  Er  Er7  1  0.598611  0.598611  0.207020  1
  Er  Er8  1  0.598611  0.207020  0.598611  1
  Er  Er9  1  0.207020  0.598611  0.598611  1
  Er  Er10  1  0.059810  0.439860  0.439860  1
  Er  Er11  1  0.435793  0.061484  0.061484  1
  Er  Er12  1  0.439860  0.059810  0.439860  1
  Er  Er13  1  0.061484  0.435793  0.061484  1
  Er  Er14  1  0.439860  0.439860  0.059810  1
  Er  Er15  1  0.061484  0.061484  0.435793  1
  Mg  Mg16  1  0.825020  0.825020  0.825020  1
  Cd  Cd17  1  0.831072  0.831072  0.504772  1
  Cd  Cd18  1  0.831072  0.504772  0.831072  1
  Cd  Cd19  1  0.504772  0.831072  0.831072  1
  Ir  Ir20  1  0.392275  0.392275  0.392275  1
  Ir  Ir21  1  0.393505  0.393505  0.826185  1
  Ir  Ir22  1  0.393505  0.826185  0.393505  1
  Ir  Ir23  1  0.826185  0.393505  0.393505  1
