# generated using pymatgen
data_Eu8Tm11LuSi16
_symmetry_space_group_name_H-M   'P 1'
_cell_length_a   7.45997700
_cell_length_b   7.75712201
_cell_length_c   14.70935900
_cell_angle_alpha   90.00000000
_cell_angle_beta   90.00000000
_cell_angle_gamma   90.00326471
_symmetry_Int_Tables_number   1
_chemical_formula_structural   Eu8Tm11LuSi16
_chemical_formula_sum   'Eu8 Tm11 Lu1 Si16'
_cell_volume   851.20047624
_cell_formula_units_Z   1
loop_
 _symmetry_equiv_pos_site_id
 _symmetry_equiv_pos_as_xyz
  1  'x, y, z'
loop_
 _atom_site_type_symbol
 _atom_site_label
 _atom_site_symmetry_multiplicity
 _atom_site_fract_x
 _atom_site_fract_y
 _atom_site_fract_z
 _atom_site_occupancy
  Eu  Eu0  1  0.019145  0.175409  0.404841  1
  Eu  Eu1  1  0.519113  0.324460  0.404944  1
  Eu  Eu2  1  0.481026  0.675599  0.904675  1
  Eu  Eu3  1  0.481026  0.675599  0.595325  1
  Eu  Eu4  1  0.980792  0.824702  0.595293  1
  Eu  Eu5  1  0.980792  0.824702  0.904707  1
  Eu  Eu6  1  0.519113  0.324460  0.095056  1
  Eu  Eu7  1  0.019145  0.175409  0.095159  1
  Tm  Tm8  1  0.320074  0.177126  0.622535  1
  Tm  Tm9  1  0.679962  0.822755  0.377625  1
  Tm  Tm10  1  0.179891  0.677299  0.377580  1
  Tm  Tm11  1  0.820008  0.322659  0.877440  1
  Tm  Tm12  1  0.820008  0.322659  0.622560  1
  Tm  Tm13  1  0.846122  0.482169  0.250000  1
  Tm  Tm14  1  0.345925  0.017750  0.250000  1
  Tm  Tm15  1  0.320074  0.177126  0.877465  1
  Tm  Tm16  1  0.179891  0.677299  0.122420  1
  Tm  Tm17  1  0.679962  0.822755  0.122375  1
  Tm  Tm18  1  0.153808  0.517444  0.750000  1
  Lu  Lu19  1  0.653618  0.982915  0.750000  1
  Si  Si20  1  0.269801  0.887310  0.750000  1
  Si  Si21  1  0.472951  0.616193  0.250000  1
  Si  Si22  1  0.026363  0.115312  0.750000  1
  Si  Si23  1  0.527120  0.383965  0.750000  1
  Si  Si24  1  0.143732  0.467696  0.540414  1
  Si  Si25  1  0.972885  0.883725  0.250000  1
  Si  Si26  1  0.731051  0.112546  0.250000  1
  Si  Si27  1  0.856370  0.532166  0.040311  1
  Si  Si28  1  0.356382  0.967776  0.040306  1
  Si  Si29  1  0.143732  0.467696  0.959586  1
  Si  Si30  1  0.643782  0.032142  0.540694  1
  Si  Si31  1  0.356382  0.967776  0.459694  1
  Si  Si32  1  0.856370  0.532166  0.459689  1
  Si  Si33  1  0.768764  0.613656  0.750000  1
  Si  Si34  1  0.231039  0.387441  0.250000  1
  Si  Si35  1  0.643782  0.032142  0.959306  1
