# generated using pymatgen
data_Cu4BiSb3(PtS3)4
_symmetry_space_group_name_H-M   'P 1'
_cell_length_a   4.97276474
_cell_length_b   7.71369500
_cell_length_c   12.61071818
_cell_angle_alpha   90.04198014
_cell_angle_beta   89.97386147
_cell_angle_gamma   89.90791933
_symmetry_Int_Tables_number   1
_chemical_formula_structural   Cu4BiSb3(PtS3)4
_chemical_formula_sum   'Cu4 Bi1 Sb3 Pt4 S12'
_cell_volume   483.72604733
_cell_formula_units_Z   1
loop_
 _symmetry_equiv_pos_site_id
 _symmetry_equiv_pos_as_xyz
  1  'x, y, z'
loop_
 _atom_site_type_symbol
 _atom_site_label
 _atom_site_symmetry_multiplicity
 _atom_site_fract_x
 _atom_site_fract_y
 _atom_site_fract_z
 _atom_site_occupancy
  Cu  Cu0  1  0.473491  0.886390  0.440892  1
  Cu  Cu1  1  0.973884  0.613448  0.559725  1
  Cu  Cu2  1  0.526524  0.386931  0.058955  1
  Cu  Cu3  1  0.027031  0.114045  0.940024  1
  Bi  Bi4  1  0.400728  0.881314  0.131843  1
  Sb  Sb5  1  0.920691  0.619295  0.868959  1
  Sb  Sb6  1  0.576661  0.379489  0.368719  1
  Sb  Sb7  1  0.078519  0.120283  0.632097  1
  Pt  Pt8  1  0.010105  0.635753  0.249232  1
  Pt  Pt9  1  0.510426  0.862102  0.750789  1
  Pt  Pt10  1  0.992152  0.138567  0.252188  1
  Pt  Pt11  1  0.489923  0.362232  0.748112  1
  S  S12  1  0.771333  0.632337  0.084735  1
  S  S13  1  0.259597  0.864016  0.911138  1
  S  S14  1  0.237299  0.136172  0.414477  1
  S  S15  1  0.736628  0.363993  0.585758  1
  S  S16  1  0.759299  0.884089  0.297361  1
  S  S17  1  0.255707  0.615889  0.704500  1
  S  S18  1  0.247688  0.383732  0.204841  1
  S  S19  1  0.744847  0.115935  0.794962  1
  S  S20  1  0.240539  0.633808  0.413775  1
  S  S21  1  0.740680  0.866093  0.586954  1
  S  S22  1  0.765087  0.137991  0.087150  1
  S  S23  1  0.261161  0.366095  0.912813  1
