# generated using pymatgen
data_Dy11Y5(ZnCo)4
_symmetry_space_group_name_H-M   'P 1'
_cell_length_a   9.33826830
_cell_length_b   9.34427572
_cell_length_c   9.35565223
_cell_angle_alpha   60.18440571
_cell_angle_beta   60.06379535
_cell_angle_gamma   60.04280764
_symmetry_Int_Tables_number   1
_chemical_formula_structural   Dy11Y5(ZnCo)4
_chemical_formula_sum   'Dy11 Y5 Zn4 Co4'
_cell_volume   578.52620017
_cell_formula_units_Z   1
loop_
 _symmetry_equiv_pos_site_id
 _symmetry_equiv_pos_as_xyz
  1  'x, y, z'
loop_
 _atom_site_type_symbol
 _atom_site_label
 _atom_site_symmetry_multiplicity
 _atom_site_fract_x
 _atom_site_fract_y
 _atom_site_fract_z
 _atom_site_occupancy
  Dy  Dy0  1  0.599667  0.599953  0.599763  1
  Dy  Dy1  1  0.599846  0.600231  0.200089  1
  Dy  Dy2  1  0.599937  0.200057  0.600086  1
  Dy  Dy3  1  0.200598  0.599979  0.599762  1
  Dy  Dy4  1  0.059131  0.440875  0.440849  1
  Dy  Dy5  1  0.440470  0.059388  0.059668  1
  Dy  Dy6  1  0.440131  0.059134  0.440915  1
  Dy  Dy7  1  0.059651  0.440947  0.059271  1
  Dy  Dy8  1  0.440150  0.440963  0.059249  1
  Dy  Dy9  1  0.059793  0.059133  0.440922  1
  Dy  Dy10  1  0.188739  0.811288  0.811241  1
  Y  Y11  1  0.811397  0.188581  0.188613  1
  Y  Y12  1  0.812330  0.187834  0.811821  1
  Y  Y13  1  0.188083  0.811755  0.187935  1
  Y  Y14  1  0.812217  0.811763  0.187944  1
  Y  Y15  1  0.188041  0.187855  0.811792  1
  Zn  Zn16  1  0.826760  0.827027  0.826993  1
  Zn  Zn17  1  0.826954  0.826989  0.519106  1
  Zn  Zn18  1  0.826964  0.519066  0.826994  1
  Zn  Zn19  1  0.519233  0.827016  0.826992  1
  Co  Co20  1  0.391689  0.391611  0.391559  1
  Co  Co21  1  0.391523  0.391985  0.824939  1
  Co  Co22  1  0.391555  0.824950  0.391960  1
  Co  Co23  1  0.825138  0.391620  0.391538  1
