# generated using pymatgen
data_K3La(TaS4)2
_symmetry_space_group_name_H-M   'P 1'
_cell_length_a   9.04462646
_cell_length_b   10.50344131
_cell_length_c   11.33587982
_cell_angle_alpha   107.32064851
_cell_angle_beta   101.92152807
_cell_angle_gamma   114.53716798
_symmetry_Int_Tables_number   1
_chemical_formula_structural   K3La(TaS4)2
_chemical_formula_sum   'K6 La2 Ta4 S16'
_cell_volume   864.98419998
_cell_formula_units_Z   2
loop_
 _symmetry_equiv_pos_site_id
 _symmetry_equiv_pos_as_xyz
  1  'x, y, z'
loop_
 _atom_site_type_symbol
 _atom_site_label
 _atom_site_symmetry_multiplicity
 _atom_site_fract_x
 _atom_site_fract_y
 _atom_site_fract_z
 _atom_site_occupancy
  K  K0  1  0.499993  0.499998  0.999999  1
  K  K1  1  0.000000  0.500006  0.999999  1
  K  K2  1  0.255422  0.005404  0.010719  1
  K  K3  1  0.488938  0.738883  0.477765  1
  K  K4  1  0.511050  0.261112  0.522237  1
  K  K5  1  0.744576  0.994600  0.989278  1
  La  La6  1  0.991257  0.241261  0.482539  1
  La  La7  1  0.008748  0.758736  0.517452  1
  Ta  Ta8  1  0.007070  0.903070  0.248736  1
  Ta  Ta9  1  0.741681  0.345680  0.248752  1
  Ta  Ta10  1  0.258321  0.654319  0.751252  1
  Ta  Ta11  1  0.992931  0.096928  0.751269  1
  S  S12  1  0.879804  0.754437  0.024956  1
  S  S13  1  0.645212  0.270565  0.024998  1
  S  S14  1  0.139581  0.159524  0.288948  1
  S  S15  1  0.649329  0.129451  0.288967  1
  S  S16  1  0.808090  0.866335  0.348326  1
  S  S17  1  0.040263  0.482020  0.348339  1
  S  S18  1  0.207782  0.853420  0.352746  1
  S  S19  1  0.644961  0.499348  0.352737  1
  S  S20  1  0.355042  0.500656  0.647265  1
  S  S21  1  0.792225  0.146582  0.647254  1
  S  S22  1  0.959733  0.517976  0.651661  1
  S  S23  1  0.191918  0.133667  0.651675  1
  S  S24  1  0.350671  0.870549  0.711038  1
  S  S25  1  0.860421  0.840474  0.711049  1
  S  S26  1  0.354789  0.729436  0.975003  1
  S  S27  1  0.120194  0.245563  0.975042  1
