# generated using pymatgen
data_Y6P12Ru5Rh13
_symmetry_space_group_name_H-M   'P 1'
_cell_length_a   3.94392600
_cell_length_b   11.28811483
_cell_length_c   12.63625707
_cell_angle_alpha   89.68412344
_cell_angle_beta   90.00000000
_cell_angle_gamma   90.00000000
_symmetry_Int_Tables_number   1
_chemical_formula_structural   Y6P12Ru5Rh13
_chemical_formula_sum   'Y6 P12 Ru5 Rh13'
_cell_volume   562.55116567
_cell_formula_units_Z   1
loop_
 _symmetry_equiv_pos_site_id
 _symmetry_equiv_pos_as_xyz
  1  'x, y, z'
loop_
 _atom_site_type_symbol
 _atom_site_label
 _atom_site_symmetry_multiplicity
 _atom_site_fract_x
 _atom_site_fract_y
 _atom_site_fract_z
 _atom_site_occupancy
  Y  Y0  1  0.000000  0.498653  0.520549  1
  Y  Y1  1  0.500000  0.001585  0.478474  1
  Y  Y2  1  0.500000  0.816759  0.204545  1
  Y  Y3  1  0.500000  0.181663  0.204432  1
  Y  Y4  1  0.000000  0.681915  0.795698  1
  Y  Y5  1  0.000000  0.318585  0.796626  1
  P  P6  1  0.500000  0.497754  0.882363  1
  P  P7  1  0.000000  0.998387  0.119562  1
  P  P8  1  0.500000  0.499690  0.345634  1
  P  P9  1  0.000000  0.000338  0.653964  1
  P  P10  1  0.500000  0.313838  0.620391  1
  P  P11  1  0.500000  0.685790  0.619979  1
  P  P12  1  0.000000  0.186951  0.379868  1
  P  P13  1  0.000000  0.814153  0.380516  1
  P  P14  1  0.500000  0.849701  0.890623  1
  P  P15  1  0.500000  0.156335  0.895348  1
  P  P16  1  0.000000  0.651241  0.109064  1
  P  P17  1  0.000000  0.343722  0.102547  1
  Ru  Ru18  1  0.500000  0.509108  0.159681  1
  Ru  Ru19  1  0.000000  0.993426  0.839293  1
  Ru  Ru20  1  0.000000  0.502455  0.989646  1
  Ru  Ru21  1  0.500000  0.998313  0.011075  1
  Ru  Ru22  1  0.500000  0.332555  0.993976  1
  Rh  Rh23  1  0.500000  0.499874  0.699694  1
  Rh  Rh24  1  0.000000  0.000298  0.301044  1
  Rh  Rh25  1  0.500000  0.670812  0.984494  1
  Rh  Rh26  1  0.000000  0.164390  0.008242  1
  Rh  Rh27  1  0.000000  0.830104  0.014327  1
  Rh  Rh28  1  0.500000  0.296872  0.430346  1
  Rh  Rh29  1  0.500000  0.705016  0.431180  1
  Rh  Rh30  1  0.000000  0.204145  0.569223  1
  Rh  Rh31  1  0.000000  0.794898  0.568961  1
  Rh  Rh32  1  0.500000  0.875304  0.709389  1
  Rh  Rh33  1  0.500000  0.125319  0.713819  1
  Rh  Rh34  1  0.000000  0.625163  0.290821  1
  Rh  Rh35  1  0.000000  0.374884  0.284604  1
