# generated using pymatgen
data_Dy4Sn3Sb3Rh7
_symmetry_space_group_name_H-M   'P 1'
_cell_length_a   7.61755914
_cell_length_b   7.61105188
_cell_length_c   7.61755924
_cell_angle_alpha   109.45391557
_cell_angle_beta   109.48852495
_cell_angle_gamma   109.45391272
_symmetry_Int_Tables_number   1
_chemical_formula_structural   Dy4Sn3Sb3Rh7
_chemical_formula_sum   'Dy4 Sn3 Sb3 Rh7'
_cell_volume   340.05343256
_cell_formula_units_Z   1
loop_
 _symmetry_equiv_pos_site_id
 _symmetry_equiv_pos_as_xyz
  1  'x, y, z'
loop_
 _atom_site_type_symbol
 _atom_site_label
 _atom_site_symmetry_multiplicity
 _atom_site_fract_x
 _atom_site_fract_y
 _atom_site_fract_z
 _atom_site_occupancy
  Dy  Dy0  1  0.502115  0.997789  0.000000  1
  Dy  Dy1  1  0.000000  0.490988  0.000000  1
  Dy  Dy2  1  0.000000  0.997789  0.502115  1
  Dy  Dy3  1  0.497885  0.495673  0.497885  1
  Sn  Sn4  1  0.308571  0.994461  0.308571  1
  Sn  Sn5  1  0.000000  0.685890  0.691429  1
  Sn  Sn6  1  0.691429  0.685890  0.000000  1
  Sb  Sb7  1  0.675785  0.995776  0.675785  1
  Sb  Sb8  1  0.000000  0.319990  0.324215  1
  Sb  Sb9  1  0.324215  0.319990  0.000000  1
  Rh  Rh10  1  0.253024  0.502561  0.753025  1
  Rh  Rh11  1  0.500001  0.249537  0.746976  1
  Rh  Rh12  1  0.746976  0.249537  0.500001  1
  Rh  Rh13  1  0.499999  0.749536  0.246975  1
  Rh  Rh14  1  0.000000  0.012501  0.000000  1
  Rh  Rh15  1  0.246975  0.749536  0.499999  1
  Rh  Rh16  1  0.753025  0.502561  0.253024  1
