# generated using pymatgen
data_Tm2CoRu2W
_symmetry_space_group_name_H-M   'P 1'
_cell_length_a   5.04319739
_cell_length_b   5.47020736
_cell_length_c   5.47020804
_cell_angle_alpha   61.12897330
_cell_angle_beta   58.42756582
_cell_angle_gamma   58.42758104
_symmetry_Int_Tables_number   1
_chemical_formula_structural   Tm2CoRu2W
_chemical_formula_sum   'Tm2 Co1 Ru2 W1'
_cell_volume   104.91402514
_cell_formula_units_Z   1
loop_
 _symmetry_equiv_pos_site_id
 _symmetry_equiv_pos_as_xyz
  1  'x, y, z'
loop_
 _atom_site_type_symbol
 _atom_site_label
 _atom_site_symmetry_multiplicity
 _atom_site_fract_x
 _atom_site_fract_y
 _atom_site_fract_z
 _atom_site_occupancy
  Tm  Tm0  1  0.115080  0.128801  0.128801  1
  Tm  Tm1  1  0.884920  0.871199  0.871199  1
  Co  Co2  1  0.500000  0.500000  0.500000  1
  Ru  Ru3  1  0.500000  0.000000  0.500000  1
  Ru  Ru4  1  0.500000  0.500000  0.000000  1
  W  W5  1  0.000000  0.500000  0.500000  1
