# generated using pymatgen
data_RbThAgS3
_symmetry_space_group_name_H-M   'P 1'
_cell_length_a   4.22978900
_cell_length_b   7.71427405
_cell_length_c   10.79229200
_cell_angle_alpha   90.00000000
_cell_angle_beta   90.00000000
_cell_angle_gamma   74.08842713
_symmetry_Int_Tables_number   1
_chemical_formula_structural   RbThAgS3
_chemical_formula_sum   'Rb2 Th2 Ag2 S6'
_cell_volume   338.65752245
_cell_formula_units_Z   2
loop_
 _symmetry_equiv_pos_site_id
 _symmetry_equiv_pos_as_xyz
  1  'x, y, z'
loop_
 _atom_site_type_symbol
 _atom_site_label
 _atom_site_symmetry_multiplicity
 _atom_site_fract_x
 _atom_site_fract_y
 _atom_site_fract_z
 _atom_site_occupancy
  Rb  Rb0  1  0.737925  0.524153  0.250000  1
  Rb  Rb1  1  0.262077  0.475847  0.750000  1
  Th  Th2  1  0.000000  0.000000  0.000000  1
  Th  Th3  1  0.000000  0.000000  0.500000  1
  Ag  Ag4  1  0.456209  0.087585  0.250000  1
  Ag  Ag5  1  0.543793  0.912415  0.750000  1
  S  S6  1  0.378078  0.243844  0.043718  1
  S  S7  1  0.058586  0.882828  0.250000  1
  S  S8  1  0.378078  0.243844  0.456282  1
  S  S9  1  0.621924  0.756156  0.543718  1
  S  S10  1  0.941415  0.117173  0.750000  1
  S  S11  1  0.621924  0.756156  0.956282  1
