# generated using pymatgen
data_SmCdNi3Pt
_symmetry_space_group_name_H-M   'P 1'
_cell_length_a   5.07601170
_cell_length_b   5.07601180
_cell_length_c   5.16989743
_cell_angle_alpha   60.59893015
_cell_angle_beta   60.59893144
_cell_angle_gamma   59.99999180
_symmetry_Int_Tables_number   1
_chemical_formula_structural   SmCdNi3Pt
_chemical_formula_sum   'Sm1 Cd1 Ni3 Pt1'
_cell_volume   95.03530654
_cell_formula_units_Z   1
loop_
 _symmetry_equiv_pos_site_id
 _symmetry_equiv_pos_as_xyz
  1  'x, y, z'
loop_
 _atom_site_type_symbol
 _atom_site_label
 _atom_site_symmetry_multiplicity
 _atom_site_fract_x
 _atom_site_fract_y
 _atom_site_fract_z
 _atom_site_occupancy
  Sm  Sm0  1  0.248957  0.248957  0.253129  1
  Cd  Cd1  1  0.003809  0.003809  0.988572  1
  Ni  Ni2  1  0.625305  0.121539  0.627852  1
  Ni  Ni3  1  0.121539  0.625305  0.627852  1
  Ni  Ni4  1  0.625305  0.625305  0.627852  1
  Pt  Pt5  1  0.625085  0.625085  0.124745  1
