# generated using pymatgen
data_Nd8Lu12Pb13Au3
_symmetry_space_group_name_H-M   'P 1'
_cell_length_a   7.88074980
_cell_length_b   8.41916665
_cell_length_c   15.52564500
_cell_angle_alpha   90.00000000
_cell_angle_beta   90.00000000
_cell_angle_gamma   89.39300473
_symmetry_Int_Tables_number   1
_chemical_formula_structural   Nd8Lu12Pb13Au3
_chemical_formula_sum   'Nd8 Lu12 Pb13 Au3'
_cell_volume   1030.05858335
_cell_formula_units_Z   1
loop_
 _symmetry_equiv_pos_site_id
 _symmetry_equiv_pos_as_xyz
  1  'x, y, z'
loop_
 _atom_site_type_symbol
 _atom_site_label
 _atom_site_symmetry_multiplicity
 _atom_site_fract_x
 _atom_site_fract_y
 _atom_site_fract_z
 _atom_site_occupancy
  Nd  Nd0  1  0.491861  0.682256  0.595331  1
  Nd  Nd1  1  0.991416  0.815155  0.905506  1
  Nd  Nd2  1  0.506986  0.318244  0.090102  1
  Nd  Nd3  1  0.009276  0.182897  0.406158  1
  Nd  Nd4  1  0.506986  0.318244  0.409898  1
  Nd  Nd5  1  0.009276  0.182897  0.093842  1
  Nd  Nd6  1  0.491861  0.682256  0.904669  1
  Nd  Nd7  1  0.991416  0.815155  0.594494  1
  Lu  Lu8  1  0.657129  0.169384  0.634267  1
  Lu  Lu9  1  0.163014  0.332599  0.866174  1
  Lu  Lu10  1  0.356929  0.828548  0.128065  1
  Lu  Lu11  1  0.821158  0.659926  0.372819  1
  Lu  Lu12  1  0.356929  0.828548  0.371935  1
  Lu  Lu13  1  0.821158  0.659926  0.127181  1
  Lu  Lu14  1  0.657129  0.169384  0.865733  1
  Lu  Lu15  1  0.163014  0.332599  0.633826  1
  Lu  Lu16  1  0.808399  0.492422  0.750000  1
  Lu  Lu17  1  0.308099  0.005893  0.750000  1
  Lu  Lu18  1  0.194698  0.506006  0.250000  1
  Lu  Lu19  1  0.681063  0.995723  0.250000  1
  Pb  Pb20  1  0.691727  0.962912  0.462271  1
  Pb  Pb21  1  0.183155  0.542067  0.041070  1
  Pb  Pb22  1  0.308052  0.038170  0.958426  1
  Pb  Pb23  1  0.813700  0.458653  0.543247  1
  Pb  Pb24  1  0.308052  0.038170  0.541574  1
  Pb  Pb25  1  0.813700  0.458653  0.956753  1
  Pb  Pb26  1  0.691727  0.962912  0.037729  1
  Pb  Pb27  1  0.183155  0.542067  0.458930  1
  Pb  Pb28  1  0.042369  0.870646  0.250000  1
  Pb  Pb29  1  0.697847  0.861859  0.750000  1
  Pb  Pb30  1  0.196530  0.640566  0.750000  1
  Pb  Pb31  1  0.317123  0.148864  0.250000  1
  Pb  Pb32  1  0.802345  0.357931  0.250000  1
  Au  Au33  1  0.460372  0.368768  0.750000  1
  Au  Au34  1  0.961126  0.133943  0.750000  1
  Au  Au35  1  0.541221  0.635761  0.250000  1
