# generated using pymatgen
data_Nd2Al8ZnPd3
_symmetry_space_group_name_H-M   'P 1'
_cell_length_a   7.65852582
_cell_length_b   7.65852402
_cell_length_c   9.63851100
_cell_angle_alpha   90.00000000
_cell_angle_beta   90.00000000
_cell_angle_gamma   119.12274559
_symmetry_Int_Tables_number   1
_chemical_formula_structural   Nd2Al8ZnPd3
_chemical_formula_sum   'Nd4 Al16 Zn2 Pd6'
_cell_volume   493.85838916
_cell_formula_units_Z   2
loop_
 _symmetry_equiv_pos_site_id
 _symmetry_equiv_pos_as_xyz
  1  'x, y, z'
loop_
 _atom_site_type_symbol
 _atom_site_label
 _atom_site_symmetry_multiplicity
 _atom_site_fract_x
 _atom_site_fract_y
 _atom_site_fract_z
 _atom_site_occupancy
  Nd  Nd0  1  0.993496  0.670006  0.250000  1
  Nd  Nd1  1  0.006504  0.329994  0.750000  1
  Nd  Nd2  1  0.670004  0.993495  0.250000  1
  Nd  Nd3  1  0.329996  0.006505  0.750000  1
  Al  Al4  1  0.004138  0.332407  0.076205  1
  Al  Al5  1  0.995862  0.667593  0.923795  1
  Al  Al6  1  0.995862  0.667593  0.576205  1
  Al  Al7  1  0.332407  0.004138  0.423794  1
  Al  Al8  1  0.004138  0.332407  0.423795  1
  Al  Al9  1  0.667593  0.995862  0.576206  1
  Al  Al10  1  0.667593  0.995862  0.923794  1
  Al  Al11  1  0.332407  0.004138  0.076206  1
  Al  Al12  1  0.334893  0.334893  0.552382  1
  Al  Al13  1  0.665107  0.665107  0.447618  1
  Al  Al14  1  0.665107  0.665107  0.052382  1
  Al  Al15  1  0.334893  0.334893  0.947618  1
  Al  Al16  1  0.338821  0.543258  0.250000  1
  Al  Al17  1  0.661179  0.456742  0.750000  1
  Al  Al18  1  0.543258  0.338821  0.250000  1
  Al  Al19  1  0.456742  0.661179  0.750000  1
  Zn  Zn20  1  0.140911  0.140911  0.250000  1
  Zn  Zn21  1  0.859089  0.859089  0.750000  1
  Pd  Pd22  1  0.671756  0.328244  0.000000  1
  Pd  Pd23  1  0.328244  0.671756  0.000000  1
  Pd  Pd24  1  0.328244  0.671756  0.500000  1
  Pd  Pd25  1  0.671756  0.328244  0.500000  1
  Pd  Pd26  1  0.000000  0.000000  0.000000  1
  Pd  Pd27  1  0.000000  0.000000  0.500000  1
