# generated using pymatgen
data_TbHfZr2F15
_symmetry_space_group_name_H-M   'P 1'
_cell_length_a   8.22169632
_cell_length_b   8.22169627
_cell_length_c   8.20466273
_cell_angle_alpha   79.80691193
_cell_angle_beta   79.80691370
_cell_angle_gamma   100.12316531
_symmetry_Int_Tables_number   1
_chemical_formula_structural   TbHfZr2F15
_chemical_formula_sum   'Tb2 Hf2 Zr4 F30'
_cell_volume   524.81671157
_cell_formula_units_Z   2
loop_
 _symmetry_equiv_pos_site_id
 _symmetry_equiv_pos_as_xyz
  1  'x, y, z'
loop_
 _atom_site_type_symbol
 _atom_site_label
 _atom_site_symmetry_multiplicity
 _atom_site_fract_x
 _atom_site_fract_y
 _atom_site_fract_z
 _atom_site_occupancy
  Tb  Tb0  1  0.178129  0.821871  0.250000  1
  Tb  Tb1  1  0.821871  0.178129  0.750000  1
  Hf  Hf2  1  0.751193  0.248807  0.250000  1
  Hf  Hf3  1  0.248807  0.751193  0.750000  1
  Zr  Zr4  1  0.746971  0.677682  0.674857  1
  Zr  Zr5  1  0.322318  0.253029  0.825143  1
  Zr  Zr6  1  0.253029  0.322318  0.325143  1
  Zr  Zr7  1  0.677682  0.746971  0.174857  1
  F  F8  1  0.315315  0.349591  0.053810  1
  F  F9  1  0.934908  0.811792  0.151396  1
  F  F10  1  0.844005  0.462298  0.683463  1
  F  F11  1  0.462298  0.844005  0.183463  1
  F  F12  1  0.811792  0.934908  0.651396  1
  F  F13  1  0.349591  0.315315  0.553809  1
  F  F14  1  0.684685  0.650409  0.946190  1
  F  F15  1  0.065092  0.188208  0.848604  1
  F  F16  1  0.155995  0.537702  0.316537  1
  F  F17  1  0.537702  0.155995  0.816537  1
  F  F18  1  0.188208  0.065092  0.348604  1
  F  F19  1  0.650409  0.684685  0.446190  1
  F  F20  1  0.774214  0.279875  0.999644  1
  F  F21  1  0.003098  0.275601  0.221311  1
  F  F22  1  0.774590  0.502920  0.223794  1
  F  F23  1  0.502920  0.774590  0.723794  1
  F  F24  1  0.275601  0.003098  0.721311  1
  F  F25  1  0.279875  0.774214  0.499644  1
  F  F26  1  0.225786  0.720125  0.000356  1
  F  F27  1  0.996902  0.724399  0.778689  1
  F  F28  1  0.225410  0.497080  0.776206  1
  F  F29  1  0.497080  0.225410  0.276206  1
  F  F30  1  0.724399  0.996902  0.278689  1
  F  F31  1  0.720125  0.225786  0.500356  1
  F  F32  1  0.466816  0.533184  0.250000  1
  F  F33  1  0.747273  0.953468  0.971915  1
  F  F34  1  0.046532  0.252727  0.528085  1
  F  F35  1  0.252727  0.046532  0.028085  1
  F  F36  1  0.953468  0.747273  0.471915  1
  F  F37  1  0.533184  0.466816  0.750000  1
