# generated using pymatgen
data_Ho9Tm3In20
_symmetry_space_group_name_H-M   'P 1'
_cell_length_a   6.52371523
_cell_length_b   10.38958700
_cell_length_c   12.19159743
_cell_angle_alpha   90.00000000
_cell_angle_beta   89.96957920
_cell_angle_gamma   90.00000000
_symmetry_Int_Tables_number   1
_chemical_formula_structural   Ho9Tm3In20
_chemical_formula_sum   'Ho9 Tm3 In20'
_cell_volume   826.33059289
_cell_formula_units_Z   1
loop_
 _symmetry_equiv_pos_site_id
 _symmetry_equiv_pos_as_xyz
  1  'x, y, z'
loop_
 _atom_site_type_symbol
 _atom_site_label
 _atom_site_symmetry_multiplicity
 _atom_site_fract_x
 _atom_site_fract_y
 _atom_site_fract_z
 _atom_site_occupancy
  Ho  Ho0  1  0.851630  0.750000  0.055755  1
  Ho  Ho1  1  0.889482  0.509607  0.358594  1
  Ho  Ho2  1  0.610166  0.990748  0.858367  1
  Ho  Ho3  1  0.110760  0.010032  0.641136  1
  Ho  Ho4  1  0.389165  0.490571  0.141259  1
  Ho  Ho5  1  0.110760  0.489968  0.641136  1
  Ho  Ho6  1  0.389165  0.009429  0.141259  1
  Ho  Ho7  1  0.889482  0.990393  0.358594  1
  Ho  Ho8  1  0.610166  0.509252  0.858367  1
  Tm  Tm9  1  0.648994  0.750000  0.555119  1
  Tm  Tm10  1  0.148957  0.250000  0.944551  1
  Tm  Tm11  1  0.350824  0.250000  0.444685  1
  In  In12  1  0.872471  0.043965  0.099027  1
  In  In13  1  0.627638  0.456662  0.599037  1
  In  In14  1  0.127345  0.543263  0.900701  1
  In  In15  1  0.372537  0.956804  0.401062  1
  In  In16  1  0.127345  0.956737  0.900701  1
  In  In17  1  0.372537  0.543196  0.401062  1
  In  In18  1  0.872471  0.456035  0.099027  1
  In  In19  1  0.627638  0.043338  0.599037  1
  In  In20  1  0.154418  0.750000  0.244711  1
  In  In21  1  0.346841  0.750000  0.743473  1
  In  In22  1  0.847081  0.250000  0.756079  1
  In  In23  1  0.652968  0.250000  0.256365  1
  In  In24  1  0.385806  0.750000  0.007039  1
  In  In25  1  0.113122  0.750000  0.507754  1
  In  In26  1  0.612710  0.250000  0.992861  1
  In  In27  1  0.886966  0.250000  0.492588  1
  In  In28  1  0.623568  0.750000  0.284088  1
  In  In29  1  0.876566  0.750000  0.782728  1
  In  In30  1  0.377062  0.250000  0.716881  1
  In  In31  1  0.123355  0.250000  0.216956  1
