# generated using pymatgen
data_TbHoErLu3FeBi2
_symmetry_space_group_name_H-M   'P 1'
_cell_length_a   8.22191004
_cell_length_b   8.21914557
_cell_length_c   4.16374000
_cell_angle_alpha   90.00000000
_cell_angle_beta   90.00000000
_cell_angle_gamma   120.02276607
_symmetry_Int_Tables_number   1
_chemical_formula_structural   TbHoErLu3FeBi2
_chemical_formula_sum   'Tb1 Ho1 Er1 Lu3 Fe1 Bi2'
_cell_volume   243.62056832
_cell_formula_units_Z   1
loop_
 _symmetry_equiv_pos_site_id
 _symmetry_equiv_pos_as_xyz
  1  'x, y, z'
loop_
 _atom_site_type_symbol
 _atom_site_label
 _atom_site_symmetry_multiplicity
 _atom_site_fract_x
 _atom_site_fract_y
 _atom_site_fract_z
 _atom_site_occupancy
  Tb  Tb0  1  0.609955  0.999892  0.500000  1
  Ho  Ho1  1  0.999273  0.612046  0.500000  1
  Er  Er2  1  0.386329  0.386902  0.500000  1
  Lu  Lu3  1  0.229768  0.000037  0.000000  1
  Lu  Lu4  1  0.772384  0.772343  0.000000  1
  Lu  Lu5  1  0.000090  0.227856  0.000000  1
  Fe  Fe6  1  0.004188  0.001444  0.500000  1
  Bi  Bi7  1  0.331847  0.664519  0.000000  1
  Bi  Bi8  1  0.666167  0.334961  0.000000  1
