# generated using pymatgen
data_Dy2ErPa(Al3Ir)6
_symmetry_space_group_name_H-M   'P 1'
_cell_length_a   7.57551310
_cell_length_b   7.57044718
_cell_length_c   9.42458300
_cell_angle_alpha   90.00000000
_cell_angle_beta   90.00000000
_cell_angle_gamma   119.63666355
_symmetry_Int_Tables_number   1
_chemical_formula_structural   Dy2ErPa(Al3Ir)6
_chemical_formula_sum   'Dy2 Er1 Pa1 Al18 Ir6'
_cell_volume   469.79111062
_cell_formula_units_Z   1
loop_
 _symmetry_equiv_pos_site_id
 _symmetry_equiv_pos_as_xyz
  1  'x, y, z'
loop_
 _atom_site_type_symbol
 _atom_site_label
 _atom_site_symmetry_multiplicity
 _atom_site_fract_x
 _atom_site_fract_y
 _atom_site_fract_z
 _atom_site_occupancy
  Dy  Dy0  1  0.004968  0.329494  0.250000  1
  Dy  Dy1  1  0.329692  0.004413  0.250000  1
  Er  Er2  1  0.671852  0.994988  0.750000  1
  Pa  Pa3  1  0.995976  0.671045  0.750000  1
  Al  Al4  1  0.130858  0.130058  0.750000  1
  Al  Al5  1  0.872705  0.874040  0.250000  1
  Al  Al6  1  0.000602  0.331911  0.574704  1
  Al  Al7  1  0.999049  0.664867  0.421615  1
  Al  Al8  1  0.999049  0.664867  0.078385  1
  Al  Al9  1  0.338480  0.003718  0.925195  1
  Al  Al10  1  0.000602  0.331911  0.925296  1
  Al  Al11  1  0.665294  0.999900  0.075272  1
  Al  Al12  1  0.665294  0.999900  0.424728  1
  Al  Al13  1  0.338480  0.003718  0.574805  1
  Al  Al14  1  0.332816  0.332901  0.055012  1
  Al  Al15  1  0.663303  0.666129  0.947815  1
  Al  Al16  1  0.663303  0.666129  0.552185  1
  Al  Al17  1  0.332816  0.332901  0.444988  1
  Al  Al18  1  0.339265  0.546878  0.750000  1
  Al  Al19  1  0.659656  0.450384  0.250000  1
  Al  Al20  1  0.546521  0.341197  0.750000  1
  Al  Al21  1  0.451323  0.660910  0.250000  1
  Ir  Ir22  1  0.673851  0.329748  0.502323  1
  Ir  Ir23  1  0.326147  0.672147  0.502352  1
  Ir  Ir24  1  0.326147  0.672147  0.997648  1
  Ir  Ir25  1  0.673851  0.329748  0.997677  1
  Ir  Ir26  1  0.999048  0.996975  0.503271  1
  Ir  Ir27  1  0.999048  0.996975  0.996729  1
