# generated using pymatgen
data_Er24SiTc7
_symmetry_space_group_name_H-M   'P 1'
_cell_length_a   6.18221186
_cell_length_b   9.10610300
_cell_length_c   14.79949316
_cell_angle_alpha   90.00000000
_cell_angle_beta   89.81744441
_cell_angle_gamma   90.00000000
_symmetry_Int_Tables_number   1
_chemical_formula_structural   Er24SiTc7
_chemical_formula_sum   'Er24 Si1 Tc7'
_cell_volume   833.14593566
_cell_formula_units_Z   1
loop_
 _symmetry_equiv_pos_site_id
 _symmetry_equiv_pos_as_xyz
  1  'x, y, z'
loop_
 _atom_site_type_symbol
 _atom_site_label
 _atom_site_symmetry_multiplicity
 _atom_site_fract_x
 _atom_site_fract_y
 _atom_site_fract_z
 _atom_site_occupancy
  Er  Er0  1  0.533180  0.750000  0.354090  1
  Er  Er1  1  0.032446  0.250000  0.146301  1
  Er  Er2  1  0.468023  0.250000  0.645753  1
  Er  Er3  1  0.964665  0.750000  0.856687  1
  Er  Er4  1  0.780630  0.750000  0.108622  1
  Er  Er5  1  0.273920  0.250000  0.389457  1
  Er  Er6  1  0.221700  0.250000  0.890738  1
  Er  Er7  1  0.719275  0.750000  0.607355  1
  Er  Er8  1  0.447892  0.935939  0.794100  1
  Er  Er9  1  0.934671  0.065720  0.709232  1
  Er  Er10  1  0.562186  0.436360  0.211098  1
  Er  Er11  1  0.061899  0.566154  0.287114  1
  Er  Er12  1  0.562186  0.063640  0.211098  1
  Er  Er13  1  0.061899  0.933846  0.287114  1
  Er  Er14  1  0.447892  0.564061  0.794100  1
  Er  Er15  1  0.934671  0.434280  0.709232  1
  Er  Er16  1  0.235470  0.939127  0.528503  1
  Er  Er17  1  0.741451  0.064949  0.967383  1
  Er  Er18  1  0.752516  0.434695  0.464417  1
  Er  Er19  1  0.255753  0.563345  0.036436  1
  Er  Er20  1  0.752516  0.065305  0.464417  1
  Er  Er21  1  0.255753  0.936655  0.036436  1
  Er  Er22  1  0.235470  0.560873  0.528503  1
  Er  Er23  1  0.741451  0.435051  0.967383  1
  Si  Si24  1  0.169981  0.750000  0.683812  1
  Tc  Tc25  1  0.928281  0.750000  0.441911  1
  Tc  Tc26  1  0.427698  0.250000  0.059968  1
  Tc  Tc27  1  0.070728  0.250000  0.560949  1
  Tc  Tc28  1  0.567514  0.750000  0.941992  1
  Tc  Tc29  1  0.357543  0.750000  0.183583  1
  Tc  Tc30  1  0.852380  0.250000  0.316447  1
  Tc  Tc31  1  0.648354  0.250000  0.815768  1
