# generated using pymatgen
data_Sr6ZrRh4O15
_symmetry_space_group_name_H-M   'P 1'
_cell_length_a   7.17669066
_cell_length_b   7.17668986
_cell_length_c   7.17669182
_cell_angle_alpha   86.20583327
_cell_angle_beta   86.20582843
_cell_angle_gamma   86.20583960
_symmetry_Int_Tables_number   1
_chemical_formula_structural   Sr6ZrRh4O15
_chemical_formula_sum   'Sr6 Zr1 Rh4 O15'
_cell_volume   367.30662498
_cell_formula_units_Z   1
loop_
 _symmetry_equiv_pos_site_id
 _symmetry_equiv_pos_as_xyz
  1  'x, y, z'
loop_
 _atom_site_type_symbol
 _atom_site_label
 _atom_site_symmetry_multiplicity
 _atom_site_fract_x
 _atom_site_fract_y
 _atom_site_fract_z
 _atom_site_occupancy
  Sr  Sr0  1  0.323019  0.676981  0.000000  1
  Sr  Sr1  1  0.676981  0.000000  0.323019  1
  Sr  Sr2  1  0.000000  0.323019  0.676981  1
  Sr  Sr3  1  0.138620  0.861380  0.500000  1
  Sr  Sr4  1  0.861380  0.500000  0.138620  1
  Sr  Sr5  1  0.500000  0.138620  0.861380  1
  Zr  Zr6  1  0.500000  0.500000  0.500000  1
  Rh  Rh7  1  0.904431  0.904431  0.904431  1
  Rh  Rh8  1  0.095569  0.095569  0.095569  1
  Rh  Rh9  1  0.708975  0.708975  0.708975  1
  Rh  Rh10  1  0.291025  0.291025  0.291025  1
  O  O11  1  0.243626  0.561224  0.368453  1
  O  O12  1  0.368453  0.243626  0.561224  1
  O  O13  1  0.561224  0.368453  0.243626  1
  O  O14  1  0.756374  0.631547  0.438776  1
  O  O15  1  0.438776  0.756374  0.631547  1
  O  O16  1  0.631547  0.438776  0.756374  1
  O  O17  1  0.000000  0.835660  0.164340  1
  O  O18  1  0.164340  0.000000  0.835660  1
  O  O19  1  0.835660  0.164340  0.000000  1
  O  O20  1  0.350693  0.019113  0.203807  1
  O  O21  1  0.203807  0.350693  0.019113  1
  O  O22  1  0.796193  0.980887  0.649307  1
  O  O23  1  0.980887  0.649307  0.796193  1
  O  O24  1  0.649307  0.796193  0.980887  1
  O  O25  1  0.019113  0.203807  0.350693  1
