# generated using pymatgen
data_Er4Lu(SiB4)2
_symmetry_space_group_name_H-M   'P 1'
_cell_length_a   7.16885800
_cell_length_b   7.16885800
_cell_length_c   7.96027500
_cell_angle_alpha   90.00000000
_cell_angle_beta   90.00000000
_cell_angle_gamma   90.00000000
_symmetry_Int_Tables_number   1
_chemical_formula_structural   Er4Lu(SiB4)2
_chemical_formula_sum   'Er8 Lu2 Si4 B16'
_cell_volume   409.09863214
_cell_formula_units_Z   2
loop_
 _symmetry_equiv_pos_site_id
 _symmetry_equiv_pos_as_xyz
  1  'x, y, z'
loop_
 _atom_site_type_symbol
 _atom_site_label
 _atom_site_symmetry_multiplicity
 _atom_site_fract_x
 _atom_site_fract_y
 _atom_site_fract_z
 _atom_site_occupancy
  Er  Er0  1  0.680087  0.180087  0.224887  1
  Er  Er1  1  0.319913  0.819913  0.775113  1
  Er  Er2  1  0.319913  0.819913  0.224887  1
  Er  Er3  1  0.819913  0.680087  0.224887  1
  Er  Er4  1  0.819913  0.680087  0.775113  1
  Er  Er5  1  0.680087  0.180087  0.775113  1
  Er  Er6  1  0.180087  0.319913  0.775113  1
  Er  Er7  1  0.180087  0.319913  0.224887  1
  Lu  Lu8  1  0.000000  0.000000  0.500000  1
  Lu  Lu9  1  0.500000  0.500000  0.500000  1
  Si  Si10  1  0.116401  0.616401  0.500000  1
  Si  Si11  1  0.883599  0.383599  0.500000  1
  Si  Si12  1  0.383599  0.116401  0.500000  1
  Si  Si13  1  0.616401  0.883599  0.500000  1
  B  B14  1  0.172943  0.039106  0.000000  1
  B  B15  1  0.827057  0.960894  0.000000  1
  B  B16  1  0.960894  0.172943  0.000000  1
  B  B17  1  0.327057  0.539106  0.000000  1
  B  B18  1  0.039106  0.827057  0.000000  1
  B  B19  1  0.672943  0.460894  0.000000  1
  B  B20  1  0.539106  0.672943  0.000000  1
  B  B21  1  0.460894  0.327057  0.000000  1
  B  B22  1  0.089371  0.589371  0.000000  1
  B  B23  1  0.910629  0.410629  0.000000  1
  B  B24  1  0.410629  0.089371  0.000000  1
  B  B25  1  0.589371  0.910629  0.000000  1
  B  B26  1  0.000000  0.000000  0.165760  1
  B  B27  1  0.000000  0.000000  0.834240  1
  B  B28  1  0.500000  0.500000  0.834240  1
  B  B29  1  0.500000  0.500000  0.165760  1
