# generated using pymatgen
data_Lu6Si24Os7Ru
_symmetry_space_group_name_H-M   'P 1'
_cell_length_a   10.10359583
_cell_length_b   10.10359672
_cell_length_c   8.10665730
_cell_angle_alpha   89.97818730
_cell_angle_beta   89.97818360
_cell_angle_gamma   132.69382359
_symmetry_Int_Tables_number   1
_chemical_formula_structural   Lu6Si24Os7Ru
_chemical_formula_sum   'Lu6 Si24 Os7 Ru1'
_cell_volume   608.23814802
_cell_formula_units_Z   1
loop_
 _symmetry_equiv_pos_site_id
 _symmetry_equiv_pos_as_xyz
  1  'x, y, z'
loop_
 _atom_site_type_symbol
 _atom_site_label
 _atom_site_symmetry_multiplicity
 _atom_site_fract_x
 _atom_site_fract_y
 _atom_site_fract_z
 _atom_site_occupancy
  Lu  Lu0  1  0.499412  0.999192  0.248853  1
  Lu  Lu1  1  0.000808  0.500588  0.751147  1
  Lu  Lu2  1  0.500554  0.000784  0.751034  1
  Lu  Lu3  1  0.999216  0.499446  0.248966  1
  Lu  Lu4  1  0.499879  0.500121  0.500000  1
  Lu  Lu5  1  0.000208  0.999792  0.000000  1
  Si  Si6  1  0.389689  0.155447  0.002308  1
  Si  Si7  1  0.654427  0.888318  0.494484  1
  Si  Si8  1  0.111682  0.345573  0.505516  1
  Si  Si9  1  0.844553  0.610311  0.997692  1
  Si  Si10  1  0.611982  0.846445  0.996964  1
  Si  Si11  1  0.345791  0.111870  0.505026  1
  Si  Si12  1  0.888130  0.654209  0.494974  1
  Si  Si13  1  0.153555  0.388018  0.003036  1
  Si  Si14  1  0.616328  0.381082  0.226984  1
  Si  Si15  1  0.877324  0.112038  0.270038  1
  Si  Si16  1  0.887962  0.122676  0.729962  1
  Si  Si17  1  0.618918  0.383672  0.773016  1
  Si  Si18  1  0.384317  0.619416  0.772723  1
  Si  Si19  1  0.121577  0.887315  0.728552  1
  Si  Si20  1  0.705592  0.294408  0.000000  1
  Si  Si21  1  0.795847  0.204153  0.500000  1
  Si  Si22  1  0.295152  0.704848  0.000000  1
  Si  Si23  1  0.204331  0.795669  0.500000  1
  Si  Si24  1  0.167661  0.168258  0.332588  1
  Si  Si25  1  0.667806  0.667723  0.166847  1
  Si  Si26  1  0.332277  0.332194  0.833153  1
  Si  Si27  1  0.831742  0.832339  0.667412  1
  Si  Si28  1  0.380584  0.615683  0.227277  1
  Si  Si29  1  0.112685  0.878423  0.271448  1
  Os  Os30  1  0.626417  0.626737  0.872005  1
  Os  Os31  1  0.127813  0.127589  0.628241  1
  Os  Os32  1  0.872411  0.872187  0.371759  1
  Os  Os33  1  0.373263  0.373583  0.127995  1
  Os  Os34  1  0.329914  0.670086  0.500000  1
  Os  Os35  1  0.169392  0.830608  0.000000  1
  Os  Os36  1  0.670233  0.329767  0.500000  1
  Ru  Ru37  1  0.830566  0.169434  0.000000  1
