# generated using pymatgen
data_TbPa5I24
_symmetry_space_group_name_H-M   'P 1'
_cell_length_a   9.17944100
_cell_length_b   9.23403092
_cell_length_c   19.33429188
_cell_angle_alpha   76.86478606
_cell_angle_beta   90.00000000
_cell_angle_gamma   90.00000000
_symmetry_Int_Tables_number   1
_chemical_formula_structural   TbPa5I24
_chemical_formula_sum   'Tb1 Pa5 I24'
_cell_volume   1595.95951540
_cell_formula_units_Z   1
loop_
 _symmetry_equiv_pos_site_id
 _symmetry_equiv_pos_as_xyz
  1  'x, y, z'
loop_
 _atom_site_type_symbol
 _atom_site_label
 _atom_site_symmetry_multiplicity
 _atom_site_fract_x
 _atom_site_fract_y
 _atom_site_fract_z
 _atom_site_occupancy
  Tb  Tb0  1  0.390904  0.000000  0.250000  1
  Pa  Pa1  1  0.880200  0.827241  0.581798  1
  Pa  Pa2  1  0.120305  0.173374  0.414629  1
  Pa  Pa3  1  0.627987  0.000000  0.750000  1
  Pa  Pa4  1  0.880200  0.172759  0.918202  1
  Pa  Pa5  1  0.120305  0.826626  0.085371  1
  I  I6  1  0.108359  0.394970  0.907717  1
  I  I7  1  0.588421  0.756878  0.260068  1
  I  I8  1  0.117929  0.070519  0.578546  1
  I  I9  1  0.353262  0.375591  0.427703  1
  I  I10  1  0.120259  0.775100  0.243677  1
  I  I11  1  0.120259  0.224900  0.256323  1
  I  I12  1  0.117929  0.929481  0.921454  1
  I  I13  1  0.413134  0.235012  0.740647  1
  I  I14  1  0.893821  0.606245  0.091260  1
  I  I15  1  0.877483  0.229135  0.754534  1
  I  I16  1  0.413134  0.764988  0.759353  1
  I  I17  1  0.893821  0.393755  0.408740  1
  I  I18  1  0.588421  0.243122  0.239932  1
  I  I19  1  0.652780  0.077546  0.586931  1
  I  I20  1  0.340687  0.924741  0.413506  1
  I  I21  1  0.877483  0.770865  0.745466  1
  I  I22  1  0.108359  0.605030  0.592283  1
  I  I23  1  0.645032  0.377061  0.928754  1
  I  I24  1  0.340687  0.075259  0.086494  1
  I  I25  1  0.878883  0.068081  0.080503  1
  I  I26  1  0.645032  0.622939  0.571246  1
  I  I27  1  0.652780  0.922454  0.913069  1
  I  I28  1  0.353262  0.624409  0.072297  1
  I  I29  1  0.878883  0.931919  0.419497  1
