# generated using pymatgen
data_MnTc5S8
_symmetry_space_group_name_H-M   'P 1'
_cell_length_a   6.40412285
_cell_length_b   6.43758432
_cell_length_c   6.39061108
_cell_angle_alpha   92.86296071
_cell_angle_beta   93.02973206
_cell_angle_gamma   93.24334625
_symmetry_Int_Tables_number   1
_chemical_formula_structural   MnTc5S8
_chemical_formula_sum   'Mn1 Tc5 S8'
_cell_volume   262.30602069
_cell_formula_units_Z   1
loop_
 _symmetry_equiv_pos_site_id
 _symmetry_equiv_pos_as_xyz
  1  'x, y, z'
loop_
 _atom_site_type_symbol
 _atom_site_label
 _atom_site_symmetry_multiplicity
 _atom_site_fract_x
 _atom_site_fract_y
 _atom_site_fract_z
 _atom_site_occupancy
  Mn  Mn0  1  0.409402  0.232489  0.546433  1
  Tc  Tc1  1  0.447211  0.589475  0.773836  1
  Tc  Tc2  1  0.774926  0.450131  0.592428  1
  Tc  Tc3  1  0.588742  0.771586  0.449124  1
  Tc  Tc4  1  0.552309  0.410056  0.227697  1
  Tc  Tc5  1  0.228287  0.548921  0.412667  1
  S  S6  1  0.779303  0.778749  0.780097  1
  S  S7  1  0.225398  0.218725  0.231772  1
  S  S8  1  0.277545  0.873083  0.622065  1
  S  S9  1  0.614214  0.272564  0.867608  1
  S  S10  1  0.872822  0.626454  0.269730  1
  S  S11  1  0.726488  0.129826  0.376920  1
  S  S12  1  0.372754  0.730546  0.128001  1
  S  S13  1  0.130598  0.367396  0.721626  1
