# generated using pymatgen
data_Li8P4Pd5Pt7
_symmetry_space_group_name_H-M   'P 1'
_cell_length_a   7.19804152
_cell_length_b   7.16621967
_cell_length_c   7.16420551
_cell_angle_alpha   90.03537084
_cell_angle_beta   89.48092102
_cell_angle_gamma   89.10573086
_symmetry_Int_Tables_number   1
_chemical_formula_structural   Li8P4Pd5Pt7
_chemical_formula_sum   'Li8 P4 Pd5 Pt7'
_cell_volume   369.48911621
_cell_formula_units_Z   1
loop_
 _symmetry_equiv_pos_site_id
 _symmetry_equiv_pos_as_xyz
  1  'x, y, z'
loop_
 _atom_site_type_symbol
 _atom_site_label
 _atom_site_symmetry_multiplicity
 _atom_site_fract_x
 _atom_site_fract_y
 _atom_site_fract_z
 _atom_site_occupancy
  Li  Li0  1  0.298513  0.296001  0.288516  1
  Li  Li1  1  0.037707  0.462950  0.545791  1
  Li  Li2  1  0.545459  0.040670  0.459458  1
  Li  Li3  1  0.462661  0.540360  0.042708  1
  Li  Li4  1  0.206692  0.705668  0.788478  1
  Li  Li5  1  0.950555  0.958195  0.954653  1
  Li  Li6  1  0.790360  0.209880  0.710386  1
  Li  Li7  1  0.706219  0.788563  0.206500  1
  P  P8  1  0.866145  0.373949  0.116474  1
  P  P9  1  0.379517  0.131293  0.879164  1
  P  P10  1  0.629628  0.626757  0.620475  1
  P  P11  1  0.125188  0.866639  0.383675  1
  Pd  Pd12  1  0.177989  0.075806  0.627078  1
  Pd  Pd13  1  0.420918  0.377857  0.671975  1
  Pd  Pd14  1  0.075370  0.621093  0.175508  1
  Pd  Pd15  1  0.933418  0.126371  0.322905  1
  Pd  Pd16  1  0.317183  0.925312  0.125343  1
  Pt  Pt17  1  0.671867  0.418272  0.373928  1
  Pt  Pt18  1  0.574121  0.874475  0.829389  1
  Pt  Pt19  1  0.625116  0.165502  0.082910  1
  Pt  Pt20  1  0.377568  0.670882  0.420052  1
  Pt  Pt21  1  0.872311  0.835884  0.578137  1
  Pt  Pt22  1  0.123901  0.325091  0.923586  1
  Pt  Pt23  1  0.831595  0.582533  0.872911  1
