# generated using pymatgen
data_Cs4MgGeS5
_symmetry_space_group_name_H-M   'P 1'
_cell_length_a   7.90061921
_cell_length_b   8.90444967
_cell_length_c   10.92882600
_cell_angle_alpha   75.37870759
_cell_angle_beta   86.39975283
_cell_angle_gamma   80.43904834
_symmetry_Int_Tables_number   1
_chemical_formula_structural   Cs4MgGeS5
_chemical_formula_sum   'Cs8 Mg2 Ge2 S10'
_cell_volume   733.44196862
_cell_formula_units_Z   2
loop_
 _symmetry_equiv_pos_site_id
 _symmetry_equiv_pos_as_xyz
  1  'x, y, z'
loop_
 _atom_site_type_symbol
 _atom_site_label
 _atom_site_symmetry_multiplicity
 _atom_site_fract_x
 _atom_site_fract_y
 _atom_site_fract_z
 _atom_site_occupancy
  Cs  Cs0  1  0.434880  0.310178  0.101807  1
  Cs  Cs1  1  0.565120  0.689822  0.898193  1
  Cs  Cs2  1  0.197190  0.079987  0.865814  1
  Cs  Cs3  1  0.063812  0.611588  0.746459  1
  Cs  Cs4  1  0.802810  0.920013  0.134186  1
  Cs  Cs5  1  0.936188  0.388412  0.253541  1
  Cs  Cs6  1  0.568696  0.725422  0.498595  1
  Cs  Cs7  1  0.431304  0.274578  0.501405  1
  Mg  Mg8  1  0.907721  0.086235  0.596026  1
  Mg  Mg9  1  0.092279  0.913765  0.403974  1
  Ge  Ge10  1  0.277702  0.718736  0.211202  1
  Ge  Ge11  1  0.722298  0.281264  0.788798  1
  S  S12  1  0.874340  0.364833  0.610727  1
  S  S13  1  0.204582  0.956669  0.591919  1
  S  S14  1  0.452224  0.401426  0.772254  1
  S  S15  1  0.160651  0.680092  0.044049  1
  S  S16  1  0.839349  0.319908  0.955951  1
  S  S17  1  0.547776  0.598574  0.227746  1
  S  S18  1  0.125660  0.635167  0.389273  1
  S  S19  1  0.263735  0.977858  0.201704  1
  S  S20  1  0.736265  0.022142  0.798296  1
  S  S21  1  0.795418  0.043331  0.408081  1
