# generated using pymatgen
data_TbYb3Er4(B6Ru)4
_symmetry_space_group_name_H-M   'P 1'
_cell_length_a   3.64472400
_cell_length_b   9.12276917
_cell_length_c   11.51329600
_cell_angle_alpha   89.93295294
_cell_angle_beta   90.00000000
_cell_angle_gamma   90.00000000
_symmetry_Int_Tables_number   1
_chemical_formula_structural   TbYb3Er4(B6Ru)4
_chemical_formula_sum   'Tb1 Yb3 Er4 B24 Ru4'
_cell_volume   382.81655069
_cell_formula_units_Z   1
loop_
 _symmetry_equiv_pos_site_id
 _symmetry_equiv_pos_as_xyz
  1  'x, y, z'
loop_
 _atom_site_type_symbol
 _atom_site_label
 _atom_site_symmetry_multiplicity
 _atom_site_fract_x
 _atom_site_fract_y
 _atom_site_fract_z
 _atom_site_occupancy
  Tb  Tb0  1  0.000000  0.175712  0.915185  1
  Yb  Yb1  1  0.000000  0.325012  0.414715  1
  Yb  Yb2  1  0.000000  0.675002  0.584632  1
  Yb  Yb3  1  0.000000  0.823544  0.085980  1
  Er  Er4  1  0.000000  0.940993  0.366614  1
  Er  Er5  1  0.000000  0.058057  0.631351  1
  Er  Er6  1  0.000000  0.443047  0.133184  1
  Er  Er7  1  0.000000  0.558815  0.867772  1
  B  B8  1  0.500000  0.553581  0.432854  1
  B  B9  1  0.500000  0.445953  0.567794  1
  B  B10  1  0.500000  0.053863  0.067344  1
  B  B11  1  0.500000  0.945413  0.933047  1
  B  B12  1  0.500000  0.748626  0.417383  1
  B  B13  1  0.500000  0.251281  0.582593  1
  B  B14  1  0.500000  0.249214  0.082569  1
  B  B15  1  0.500000  0.751420  0.917748  1
  B  B16  1  0.500000  0.790744  0.264225  1
  B  B17  1  0.500000  0.208886  0.735689  1
  B  B18  1  0.500000  0.291009  0.235301  1
  B  B19  1  0.500000  0.709921  0.764652  1
  B  B20  1  0.500000  0.630821  0.185822  1
  B  B21  1  0.500000  0.369432  0.814936  1
  B  B22  1  0.500000  0.130859  0.313796  1
  B  B23  1  0.500000  0.869397  0.685119  1
  B  B24  1  0.500000  0.983137  0.210713  1
  B  B25  1  0.500000  0.016410  0.788489  1
  B  B26  1  0.500000  0.483812  0.289287  1
  B  B27  1  0.500000  0.516240  0.711432  1
  B  B28  1  0.500000  0.598728  0.027293  1
  B  B29  1  0.500000  0.401291  0.973000  1
  B  B30  1  0.500000  0.096707  0.472782  1
  B  B31  1  0.500000  0.902944  0.526158  1
  Ru  Ru32  1  0.000000  0.639106  0.320237  1
  Ru  Ru33  1  0.000000  0.359921  0.680962  1
  Ru  Ru34  1  0.000000  0.138754  0.179431  1
  Ru  Ru35  1  0.000000  0.862350  0.819910  1
