# generated using pymatgen
data_Tb5Y(CI5)2
_symmetry_space_group_name_H-M   'P 1'
_cell_length_a   7.69873248
_cell_length_b   9.54731413
_cell_length_c   9.62710485
_cell_angle_alpha   106.95674546
_cell_angle_beta   96.54166460
_cell_angle_gamma   104.32280036
_symmetry_Int_Tables_number   1
_chemical_formula_structural   Tb5Y(CI5)2
_chemical_formula_sum   'Tb5 Y1 C2 I10'
_cell_volume   642.45811097
_cell_formula_units_Z   1
loop_
 _symmetry_equiv_pos_site_id
 _symmetry_equiv_pos_as_xyz
  1  'x, y, z'
loop_
 _atom_site_type_symbol
 _atom_site_label
 _atom_site_symmetry_multiplicity
 _atom_site_fract_x
 _atom_site_fract_y
 _atom_site_fract_z
 _atom_site_occupancy
  Tb  Tb0  1  0.103491  0.038370  0.781738  1
  Tb  Tb1  1  0.373234  0.131628  0.177256  1
  Tb  Tb2  1  0.896294  0.961660  0.218212  1
  Tb  Tb3  1  0.028804  0.743104  0.925714  1
  Tb  Tb4  1  0.971038  0.256895  0.074301  1
  Y  Y5  1  0.627313  0.868431  0.823064  1
  C  C6  1  0.908774  0.970104  0.958810  1
  C  C7  1  0.090937  0.029922  0.041164  1
  I  I8  1  0.194588  0.737669  0.651029  1
  I  I9  1  0.086695  0.363652  0.822613  1
  I  I10  1  0.456557  0.810884  0.092867  1
  I  I11  1  0.253869  0.084467  0.457221  1
  I  I12  1  0.543215  0.188599  0.906585  1
  I  I13  1  0.806591  0.262578  0.349279  1
  I  I14  1  0.344225  0.451765  0.272182  1
  I  I15  1  0.913159  0.636315  0.177332  1
  I  I16  1  0.655458  0.548564  0.727772  1
  I  I17  1  0.745757  0.915392  0.542860  1
