# generated using pymatgen
data_Dy4Er3Tm(B6Os)4
_symmetry_space_group_name_H-M   'P 1'
_cell_length_a   3.64109200
_cell_length_b   9.11392401
_cell_length_c   11.49634602
_cell_angle_alpha   90.00637696
_cell_angle_beta   90.00000000
_cell_angle_gamma   90.00000000
_symmetry_Int_Tables_number   1
_chemical_formula_structural   Dy4Er3Tm(B6Os)4
_chemical_formula_sum   'Dy4 Er3 Tm1 B24 Os4'
_cell_volume   381.50205346
_cell_formula_units_Z   1
loop_
 _symmetry_equiv_pos_site_id
 _symmetry_equiv_pos_as_xyz
  1  'x, y, z'
loop_
 _atom_site_type_symbol
 _atom_site_label
 _atom_site_symmetry_multiplicity
 _atom_site_fract_x
 _atom_site_fract_y
 _atom_site_fract_z
 _atom_site_occupancy
  Dy  Dy0  1  0.000000  0.321718  0.413896  1
  Dy  Dy1  1  0.000000  0.678273  0.586183  1
  Dy  Dy2  1  0.000000  0.821644  0.086058  1
  Dy  Dy3  1  0.000000  0.178378  0.913854  1
  Er  Er4  1  0.000000  0.944126  0.373055  1
  Er  Er5  1  0.000000  0.055880  0.626986  1
  Er  Er6  1  0.000000  0.444172  0.126778  1
  Tm  Tm7  1  0.000000  0.555871  0.873061  1
  B  B8  1  0.500000  0.554113  0.432867  1
  B  B9  1  0.500000  0.445905  0.567180  1
  B  B10  1  0.500000  0.054097  0.067124  1
  B  B11  1  0.500000  0.945828  0.932853  1
  B  B12  1  0.500000  0.748760  0.419738  1
  B  B13  1  0.500000  0.251264  0.580276  1
  B  B14  1  0.500000  0.248790  0.080251  1
  B  B15  1  0.500000  0.750955  0.919713  1
  B  B16  1  0.500000  0.791268  0.266554  1
  B  B17  1  0.500000  0.208811  0.733470  1
  B  B18  1  0.500000  0.291282  0.233435  1
  B  B19  1  0.500000  0.708464  0.766646  1
  B  B20  1  0.500000  0.631399  0.185039  1
  B  B21  1  0.500000  0.368827  0.815053  1
  B  B22  1  0.500000  0.131419  0.314938  1
  B  B23  1  0.500000  0.868537  0.685096  1
  B  B24  1  0.500000  0.983224  0.213307  1
  B  B25  1  0.500000  0.016747  0.786701  1
  B  B26  1  0.500000  0.483213  0.286683  1
  B  B27  1  0.500000  0.516927  0.713520  1
  B  B28  1  0.500000  0.606428  0.029130  1
  B  B29  1  0.500000  0.393792  0.970401  1
  B  B30  1  0.500000  0.106559  0.470577  1
  B  B31  1  0.500000  0.893434  0.529428  1
  Os  Os32  1  0.000000  0.637902  0.320911  1
  Os  Os33  1  0.000000  0.362307  0.679241  1
  Os  Os34  1  0.000000  0.137930  0.179019  1
  Os  Os35  1  0.000000  0.861755  0.820978  1
