# generated using pymatgen
data_DyEr19Sn16
_symmetry_space_group_name_H-M   'P 1'
_cell_length_a   7.98013236
_cell_length_b   8.11274809
_cell_length_c   15.34769555
_cell_angle_alpha   90.00428844
_cell_angle_beta   89.96974446
_cell_angle_gamma   89.98340223
_symmetry_Int_Tables_number   1
_chemical_formula_structural   DyEr19Sn16
_chemical_formula_sum   'Dy1 Er19 Sn16'
_cell_volume   993.62195976
_cell_formula_units_Z   1
loop_
 _symmetry_equiv_pos_site_id
 _symmetry_equiv_pos_as_xyz
  1  'x, y, z'
loop_
 _atom_site_type_symbol
 _atom_site_label
 _atom_site_symmetry_multiplicity
 _atom_site_fract_x
 _atom_site_fract_y
 _atom_site_fract_z
 _atom_site_occupancy
  Dy  Dy0  1  0.021469  0.180011  0.902605  1
  Er  Er1  1  0.367932  0.835664  0.878024  1
  Er  Er2  1  0.867922  0.664295  0.621915  1
  Er  Er3  1  0.632060  0.164250  0.378061  1
  Er  Er4  1  0.132173  0.335825  0.122023  1
  Er  Er5  1  0.632148  0.164214  0.121969  1
  Er  Er6  1  0.132065  0.335748  0.378060  1
  Er  Er7  1  0.367947  0.835704  0.621934  1
  Er  Er8  1  0.867892  0.664291  0.878031  1
  Er  Er9  1  0.521752  0.320087  0.902563  1
  Er  Er10  1  0.021780  0.179988  0.597493  1
  Er  Er11  1  0.478255  0.679956  0.402499  1
  Er  Er12  1  0.978297  0.820021  0.097509  1
  Er  Er13  1  0.478297  0.679973  0.097485  1
  Er  Er14  1  0.978233  0.820076  0.402514  1
  Er  Er15  1  0.521755  0.320068  0.597395  1
  Er  Er16  1  0.197922  0.503261  0.749921  1
  Er  Er17  1  0.697749  0.996729  0.749892  1
  Er  Er18  1  0.802173  0.496820  0.250041  1
  Er  Er19  1  0.302167  0.003170  0.250012  1
  Sn  Sn20  1  0.292712  0.034588  0.041866  1
  Sn  Sn21  1  0.792217  0.465123  0.458408  1
  Sn  Sn22  1  0.707800  0.965204  0.541602  1
  Sn  Sn23  1  0.208004  0.535312  0.958480  1
  Sn  Sn24  1  0.707065  0.964585  0.958517  1
  Sn  Sn25  1  0.207746  0.534821  0.541603  1
  Sn  Sn26  1  0.292279  0.034882  0.458429  1
  Sn  Sn27  1  0.792253  0.465178  0.041608  1
  Sn  Sn28  1  0.564831  0.619070  0.749988  1
  Sn  Sn29  1  0.064864  0.880665  0.749971  1
  Sn  Sn30  1  0.435201  0.380931  0.250003  1
  Sn  Sn31  1  0.935163  0.119113  0.250019  1
  Sn  Sn32  1  0.330246  0.147509  0.749879  1
  Sn  Sn33  1  0.829589  0.352840  0.749680  1
  Sn  Sn34  1  0.670044  0.852486  0.249993  1
  Sn  Sn35  1  0.169997  0.647542  0.250012  1
