# generated using pymatgen
data_TbGd2TaO7
_symmetry_space_group_name_H-M   'P 1'
_cell_length_a   6.54973179
_cell_length_b   6.54973283
_cell_length_c   7.56018209
_cell_angle_alpha   90.03562945
_cell_angle_beta   90.03563336
_cell_angle_gamma   108.84384825
_symmetry_Int_Tables_number   1
_chemical_formula_structural   TbGd2TaO7
_chemical_formula_sum   'Tb2 Gd4 Ta2 O14'
_cell_volume   306.94101194
_cell_formula_units_Z   2
loop_
 _symmetry_equiv_pos_site_id
 _symmetry_equiv_pos_as_xyz
  1  'x, y, z'
loop_
 _atom_site_type_symbol
 _atom_site_label
 _atom_site_symmetry_multiplicity
 _atom_site_fract_x
 _atom_site_fract_y
 _atom_site_fract_z
 _atom_site_occupancy
  Tb  Tb0  1  0.535689  0.999724  0.756276  1
  Tb  Tb1  1  0.000276  0.464311  0.743724  1
  Gd  Gd2  1  0.466793  0.000198  0.255977  1
  Gd  Gd3  1  0.999802  0.533207  0.244023  1
  Gd  Gd4  1  0.469077  0.469229  0.998408  1
  Gd  Gd5  1  0.530771  0.530923  0.501592  1
  Ta  Ta6  1  0.002896  0.001995  0.501211  1
  Ta  Ta7  1  0.998005  0.997104  0.998789  1
  O  O8  1  0.933692  0.066308  0.750000  1
  O  O9  1  0.639986  0.360014  0.750000  1
  O  O10  1  0.307920  0.051941  0.542515  1
  O  O11  1  0.948059  0.692080  0.957485  1
  O  O12  1  0.629013  0.370987  0.250000  1
  O  O13  1  0.921777  0.676431  0.528717  1
  O  O14  1  0.323569  0.078223  0.971283  1
  O  O15  1  0.080384  0.325344  0.023832  1
  O  O16  1  0.674656  0.919616  0.476168  1
  O  O17  1  0.369736  0.630264  0.750000  1
  O  O18  1  0.690225  0.945598  0.037224  1
  O  O19  1  0.054402  0.309775  0.462776  1
  O  O20  1  0.361604  0.638396  0.250000  1
  O  O21  1  0.061667  0.938333  0.250000  1
