# generated using pymatgen
data_Ho2Sn2IrPt
_symmetry_space_group_name_H-M   'P 1'
_cell_length_a   7.57642000
_cell_length_b   7.57641984
_cell_length_c   7.77605000
_cell_angle_alpha   90.00000000
_cell_angle_beta   90.00000000
_cell_angle_gamma   120.00000072
_symmetry_Int_Tables_number   1
_chemical_formula_structural   Ho2Sn2IrPt
_chemical_formula_sum   'Ho6 Sn6 Ir3 Pt3'
_cell_volume   386.56074292
_cell_formula_units_Z   3
loop_
 _symmetry_equiv_pos_site_id
 _symmetry_equiv_pos_as_xyz
  1  'x, y, z'
loop_
 _atom_site_type_symbol
 _atom_site_label
 _atom_site_symmetry_multiplicity
 _atom_site_fract_x
 _atom_site_fract_y
 _atom_site_fract_z
 _atom_site_occupancy
  Ho  Ho0  1  0.404811  0.006715  0.247432  1
  Ho  Ho1  1  0.601904  0.595189  0.247432  1
  Ho  Ho2  1  0.993285  0.398096  0.247432  1
  Ho  Ho3  1  0.402981  0.003011  0.752576  1
  Ho  Ho4  1  0.600030  0.597019  0.752576  1
  Ho  Ho5  1  0.996989  0.399970  0.752576  1
  Sn  Sn6  1  0.262945  0.261404  0.999846  1
  Sn  Sn7  1  0.998459  0.737055  0.999846  1
  Sn  Sn8  1  0.002663  0.741442  0.499882  1
  Sn  Sn9  1  0.738779  0.997337  0.499882  1
  Sn  Sn10  1  0.258558  0.261221  0.499882  1
  Sn  Sn11  1  0.738596  0.001541  0.999846  1
  Ir  Ir12  1  0.000000  0.000000  0.750716  1
  Ir  Ir13  1  0.000000  0.000000  0.248898  1
  Ir  Ir14  1  0.666667  0.333333  0.997565  1
  Pt  Pt15  1  0.333333  0.666667  0.496132  1
  Pt  Pt16  1  0.333333  0.666667  0.003598  1
  Pt  Pt17  1  0.666667  0.333333  0.503882  1
