# generated using pymatgen
data_Y3Lu3Bi2Os
_symmetry_space_group_name_H-M   'P 1'
_cell_length_a   8.22225500
_cell_length_b   8.22225500
_cell_length_c   4.24696200
_cell_angle_alpha   90.00000000
_cell_angle_beta   90.00000000
_cell_angle_gamma   119.99999596
_symmetry_Int_Tables_number   1
_chemical_formula_structural   Y3Lu3Bi2Os
_chemical_formula_sum   'Y3 Lu3 Bi2 Os1'
_cell_volume   248.65139949
_cell_formula_units_Z   1
loop_
 _symmetry_equiv_pos_site_id
 _symmetry_equiv_pos_as_xyz
  1  'x, y, z'
loop_
 _atom_site_type_symbol
 _atom_site_label
 _atom_site_symmetry_multiplicity
 _atom_site_fract_x
 _atom_site_fract_y
 _atom_site_fract_z
 _atom_site_occupancy
  Y  Y0  1  0.612912  0.000000  0.000000  1
  Y  Y1  1  0.000000  0.612912  0.000000  1
  Y  Y2  1  0.387088  0.387088  0.000000  1
  Lu  Lu3  1  0.229305  0.000000  0.500000  1
  Lu  Lu4  1  0.000000  0.229305  0.500000  1
  Lu  Lu5  1  0.770695  0.770695  0.500000  1
  Bi  Bi6  1  0.333333  0.666667  0.500000  1
  Bi  Bi7  1  0.666667  0.333333  0.500000  1
  Os  Os8  1  0.000000  0.000000  0.000000  1
