# generated using pymatgen
data_Er4Al18Co5Pd
_symmetry_space_group_name_H-M   'P 1'
_cell_length_a   7.38166226
_cell_length_b   7.38166187
_cell_length_c   9.27007705
_cell_angle_alpha   89.84915017
_cell_angle_beta   89.84914335
_cell_angle_gamma   119.09466889
_symmetry_Int_Tables_number   1
_chemical_formula_structural   Er4Al18Co5Pd
_chemical_formula_sum   'Er4 Al18 Co5 Pd1'
_cell_volume   441.37377503
_cell_formula_units_Z   1
loop_
 _symmetry_equiv_pos_site_id
 _symmetry_equiv_pos_as_xyz
  1  'x, y, z'
loop_
 _atom_site_type_symbol
 _atom_site_label
 _atom_site_symmetry_multiplicity
 _atom_site_fract_x
 _atom_site_fract_y
 _atom_site_fract_z
 _atom_site_occupancy
  Er  Er0  1  0.994517  0.675702  0.251598  1
  Er  Er1  1  0.005483  0.324298  0.748402  1
  Er  Er2  1  0.675702  0.994517  0.251598  1
  Er  Er3  1  0.324298  0.005483  0.748402  1
  Al  Al4  1  0.131592  0.131592  0.258416  1
  Al  Al5  1  0.868408  0.868408  0.741584  1
  Al  Al6  1  0.331732  0.331732  0.542226  1
  Al  Al7  1  0.660231  0.660231  0.048254  1
  Al  Al8  1  0.339769  0.339769  0.951746  1
  Al  Al9  1  0.668268  0.668268  0.457774  1
  Al  Al10  1  0.339801  0.557399  0.251607  1
  Al  Al11  1  0.660199  0.442601  0.748393  1
  Al  Al12  1  0.557399  0.339801  0.251607  1
  Al  Al13  1  0.442601  0.660199  0.748393  1
  Al  Al14  1  0.999585  0.344537  0.075207  1
  Al  Al15  1  0.003422  0.663933  0.571315  1
  Al  Al16  1  0.336067  0.996578  0.428685  1
  Al  Al17  1  0.655463  0.000415  0.924793  1
  Al  Al18  1  0.000415  0.655463  0.924793  1
  Al  Al19  1  0.996578  0.336067  0.428685  1
  Al  Al20  1  0.663933  0.003422  0.571315  1
  Al  Al21  1  0.344537  0.999585  0.075207  1
  Co  Co22  1  0.000000  0.000000  0.500000  1
  Co  Co23  1  0.671413  0.328587  0.000000  1
  Co  Co24  1  0.328655  0.671345  0.500000  1
  Co  Co25  1  0.328587  0.671413  0.000000  1
  Co  Co26  1  0.671345  0.328655  0.500000  1
  Pd  Pd27  1  0.000000  0.000000  0.000000  1
