# generated using pymatgen
data_Ho5CdIn4Ir
_symmetry_space_group_name_H-M   'P 1'
_cell_length_a   3.62398100
_cell_length_b   8.29545403
_cell_length_c   18.50362017
_cell_angle_alpha   89.41522472
_cell_angle_beta   90.00000000
_cell_angle_gamma   90.00000000
_symmetry_Int_Tables_number   1
_chemical_formula_structural   Ho5CdIn4Ir
_chemical_formula_sum   'Ho10 Cd2 In8 Ir2'
_cell_volume   556.23736375
_cell_formula_units_Z   2
loop_
 _symmetry_equiv_pos_site_id
 _symmetry_equiv_pos_as_xyz
  1  'x, y, z'
loop_
 _atom_site_type_symbol
 _atom_site_label
 _atom_site_symmetry_multiplicity
 _atom_site_fract_x
 _atom_site_fract_y
 _atom_site_fract_z
 _atom_site_occupancy
  Ho  Ho0  1  0.000000  0.500000  0.500000  1
  Ho  Ho1  1  0.000000  0.000000  0.000000  1
  Ho  Ho2  1  0.000000  0.707692  0.275932  1
  Ho  Ho3  1  0.000000  0.292308  0.724068  1
  Ho  Ho4  1  0.000000  0.731847  0.784938  1
  Ho  Ho5  1  0.000000  0.268153  0.215062  1
  Ho  Ho6  1  0.000000  0.613383  0.085218  1
  Ho  Ho7  1  0.000000  0.386617  0.914782  1
  Ho  Ho8  1  0.000000  0.875769  0.575256  1
  Ho  Ho9  1  0.000000  0.124231  0.424744  1
  Cd  Cd10  1  0.500000  0.979934  0.699119  1
  Cd  Cd11  1  0.500000  0.020066  0.300881  1
  In  In12  1  0.500000  0.708665  0.933138  1
  In  In13  1  0.500000  0.291335  0.066862  1
  In  In14  1  0.500000  0.788850  0.430344  1
  In  In15  1  0.500000  0.211150  0.569656  1
  In  In16  1  0.500000  0.581579  0.647670  1
  In  In17  1  0.500000  0.418421  0.352330  1
  In  In18  1  0.500000  0.917553  0.147247  1
  In  In19  1  0.500000  0.082447  0.852753  1
  Ir  Ir20  1  0.500000  0.521483  0.194718  1
  Ir  Ir21  1  0.500000  0.478517  0.805282  1
