# generated using pymatgen
data_Ca2Ac8GaSn5
_symmetry_space_group_name_H-M   'P 1'
_cell_length_a   9.92361265
_cell_length_b   9.92361280
_cell_length_c   9.87967676
_cell_angle_alpha   128.60327785
_cell_angle_beta   128.60328147
_cell_angle_gamma   75.97625534
_symmetry_Int_Tables_number   1
_chemical_formula_structural   Ca2Ac8GaSn5
_chemical_formula_sum   'Ca2 Ac8 Ga1 Sn5'
_cell_volume   576.72816310
_cell_formula_units_Z   1
loop_
 _symmetry_equiv_pos_site_id
 _symmetry_equiv_pos_as_xyz
  1  'x, y, z'
loop_
 _atom_site_type_symbol
 _atom_site_label
 _atom_site_symmetry_multiplicity
 _atom_site_fract_x
 _atom_site_fract_y
 _atom_site_fract_z
 _atom_site_occupancy
  Ca  Ca0  1  0.000706  0.997591  0.998296  1
  Ca  Ca1  1  0.497591  0.500706  0.998296  1
  Ac  Ac2  1  0.816609  0.316609  0.838203  1
  Ac  Ac3  1  0.182125  0.682125  0.152628  1
  Ac  Ac4  1  0.470503  0.970503  0.152628  1
  Ac  Ac5  1  0.314050  0.481550  0.503615  1
  Ac  Ac6  1  0.022065  0.189565  0.503615  1
  Ac  Ac7  1  0.521594  0.021594  0.838203  1
  Ac  Ac8  1  0.689565  0.522065  0.503615  1
  Ac  Ac9  1  0.981550  0.814050  0.503615  1
  Ga  Ga10  1  0.128903  0.628903  0.757808  1
  Sn  Sn11  1  0.873247  0.373247  0.246493  1
  Sn  Sn12  1  0.631725  0.868965  0.500690  1
  Sn  Sn13  1  0.368965  0.131725  0.500690  1
  Sn  Sn14  1  0.250401  0.250401  0.000803  1
  Sn  Sn15  1  0.750401  0.750401  0.000803  1
