# generated using pymatgen
data_Li7CaDy7ZnSn8
_symmetry_space_group_name_H-M   'P 1'
_cell_length_a   9.38651500
_cell_length_b   9.39139613
_cell_length_c   7.34751505
_cell_angle_alpha   89.91861064
_cell_angle_beta   90.00000000
_cell_angle_gamma   119.98280494
_symmetry_Int_Tables_number   1
_chemical_formula_structural   Li7CaDy7ZnSn8
_chemical_formula_sum   'Li7 Ca1 Dy7 Zn1 Sn8'
_cell_volume   561.02251860
_cell_formula_units_Z   1
loop_
 _symmetry_equiv_pos_site_id
 _symmetry_equiv_pos_as_xyz
  1  'x, y, z'
loop_
 _atom_site_type_symbol
 _atom_site_label
 _atom_site_symmetry_multiplicity
 _atom_site_fract_x
 _atom_site_fract_y
 _atom_site_fract_z
 _atom_site_occupancy
  Li  Li0  1  0.166014  0.832829  0.290433  1
  Li  Li1  1  0.666816  0.832829  0.290433  1
  Li  Li2  1  0.832830  0.665662  0.790303  1
  Li  Li3  1  0.832324  0.166148  0.789716  1
  Li  Li4  1  0.333825  0.166148  0.789716  1
  Li  Li5  1  0.334682  0.669364  0.674647  1
  Li  Li6  1  0.668046  0.336091  0.172385  1
  Ca  Ca7  1  0.513130  0.026258  0.496406  1
  Dy  Dy8  1  0.512200  0.487550  0.494201  1
  Dy  Dy9  1  0.975351  0.487550  0.494201  1
  Dy  Dy10  1  0.487880  0.975761  0.989323  1
  Dy  Dy11  1  0.486346  0.511391  0.993692  1
  Dy  Dy12  1  0.025045  0.511391  0.993692  1
  Dy  Dy13  1  0.999442  0.998884  0.500674  1
  Dy  Dy14  1  0.000436  0.000872  0.999076  1
  Zn  Zn15  1  0.166203  0.332405  0.297786  1
  Sn  Sn16  1  0.166400  0.332800  0.727317  1
  Sn  Sn17  1  0.162929  0.831017  0.730942  1
  Sn  Sn18  1  0.668089  0.831017  0.730942  1
  Sn  Sn19  1  0.833195  0.666391  0.228566  1
  Sn  Sn20  1  0.834981  0.167575  0.221991  1
  Sn  Sn21  1  0.332593  0.167575  0.221991  1
  Sn  Sn22  1  0.332799  0.665600  0.258192  1
  Sn  Sn23  1  0.668445  0.336887  0.765367  1
