# generated using pymatgen
data_Lu8CoBi4Ir
_symmetry_space_group_name_H-M   'P 1'
_cell_length_a   8.65100009
_cell_length_b   8.65066436
_cell_length_c   8.65099900
_cell_angle_alpha   96.57379947
_cell_angle_beta   96.58407030
_cell_angle_gamma   140.43392244
_symmetry_Int_Tables_number   1
_chemical_formula_structural   Lu8CoBi4Ir
_chemical_formula_sum   'Lu8 Co1 Bi4 Ir1'
_cell_volume   388.03587008
_cell_formula_units_Z   1
loop_
 _symmetry_equiv_pos_site_id
 _symmetry_equiv_pos_as_xyz
  1  'x, y, z'
loop_
 _atom_site_type_symbol
 _atom_site_label
 _atom_site_symmetry_multiplicity
 _atom_site_fract_x
 _atom_site_fract_y
 _atom_site_fract_z
 _atom_site_occupancy
  Lu  Lu0  1  0.692665  0.577675  0.275089  1
  Lu  Lu1  1  0.302565  0.417549  0.724932  1
  Lu  Lu2  1  0.577651  0.302560  0.885032  1
  Lu  Lu3  1  0.082471  0.197440  0.275092  1
  Lu  Lu4  1  0.807384  0.082451  0.885016  1
  Lu  Lu5  1  0.417576  0.692665  0.114956  1
  Lu  Lu6  1  0.922291  0.807335  0.724910  1
  Lu  Lu7  1  0.197414  0.922325  0.114992  1
  Co  Co8  1  0.249965  0.250000  0.999965  1
  Bi  Bi9  1  0.141146  0.641168  0.782296  1
  Bi  Bi10  1  0.358862  0.141166  0.500016  1
  Bi  Bi11  1  0.858848  0.358834  0.217695  1
  Bi  Bi12  1  0.641127  0.858832  0.499977  1
  Ir  Ir13  1  0.750032  0.750000  0.000032  1
