# generated using pymatgen
data_Ti4CuSi4Rh3
_symmetry_space_group_name_H-M   'P 1'
_cell_length_a   3.76631600
_cell_length_b   6.29159518
_cell_length_c   7.31069285
_cell_angle_alpha   90.83386225
_cell_angle_beta   90.00000000
_cell_angle_gamma   90.00000000
_symmetry_Int_Tables_number   1
_chemical_formula_structural   Ti4CuSi4Rh3
_chemical_formula_sum   'Ti4 Cu1 Si4 Rh3'
_cell_volume   173.21682319
_cell_formula_units_Z   1
loop_
 _symmetry_equiv_pos_site_id
 _symmetry_equiv_pos_as_xyz
  1  'x, y, z'
loop_
 _atom_site_type_symbol
 _atom_site_label
 _atom_site_symmetry_multiplicity
 _atom_site_fract_x
 _atom_site_fract_y
 _atom_site_fract_z
 _atom_site_occupancy
  Ti  Ti0  1  0.750000  0.472072  0.326302  1
  Ti  Ti1  1  0.250000  0.026259  0.818128  1
  Ti  Ti2  1  0.750000  0.975575  0.180241  1
  Ti  Ti3  1  0.250000  0.530238  0.678513  1
  Cu  Cu4  1  0.750000  0.348444  0.937295  1
  Si  Si5  1  0.250000  0.264476  0.124080  1
  Si  Si6  1  0.250000  0.765973  0.374060  1
  Si  Si7  1  0.750000  0.739611  0.878238  1
  Si  Si8  1  0.750000  0.236257  0.624693  1
  Rh  Rh9  1  0.250000  0.641446  0.057413  1
  Rh  Rh10  1  0.250000  0.151296  0.436089  1
  Rh  Rh11  1  0.750000  0.848352  0.564949  1
