# generated using pymatgen
data_Tb5Y3(TcB6)4
_symmetry_space_group_name_H-M   'P 1'
_cell_length_a   3.70625200
_cell_length_b   9.19367602
_cell_length_c   11.58699100
_cell_angle_alpha   89.99547582
_cell_angle_beta   90.00000000
_cell_angle_gamma   90.00000000
_symmetry_Int_Tables_number   1
_chemical_formula_structural   Tb5Y3(TcB6)4
_chemical_formula_sum   'Tb5 Y3 Tc4 B24'
_cell_volume   394.81605852
_cell_formula_units_Z   1
loop_
 _symmetry_equiv_pos_site_id
 _symmetry_equiv_pos_as_xyz
  1  'x, y, z'
loop_
 _atom_site_type_symbol
 _atom_site_label
 _atom_site_symmetry_multiplicity
 _atom_site_fract_x
 _atom_site_fract_y
 _atom_site_fract_z
 _atom_site_occupancy
  Tb  Tb0  1  0.000000  0.823843  0.085739  1
  Tb  Tb1  1  0.000000  0.175925  0.914129  1
  Tb  Tb2  1  0.000000  0.324020  0.414239  1
  Tb  Tb3  1  0.000000  0.676121  0.585853  1
  Tb  Tb4  1  0.000000  0.442329  0.130914  1
  Y  Y5  1  0.000000  0.557846  0.868929  1
  Y  Y6  1  0.000000  0.942258  0.369220  1
  Y  Y7  1  0.000000  0.057654  0.630937  1
  Tc  Tc8  1  0.000000  0.138258  0.179568  1
  Tc  Tc9  1  0.000000  0.861616  0.820372  1
  Tc  Tc10  1  0.000000  0.638561  0.320597  1
  Tc  Tc11  1  0.000000  0.361573  0.679431  1
  B  B12  1  0.500000  0.053074  0.067301  1
  B  B13  1  0.500000  0.946592  0.932615  1
  B  B14  1  0.500000  0.553421  0.432809  1
  B  B15  1  0.500000  0.446698  0.567282  1
  B  B16  1  0.500000  0.247888  0.081835  1
  B  B17  1  0.500000  0.751709  0.918177  1
  B  B18  1  0.500000  0.748430  0.418360  1
  B  B19  1  0.500000  0.251598  0.581719  1
  B  B20  1  0.500000  0.290923  0.234725  1
  B  B21  1  0.500000  0.708782  0.765221  1
  B  B22  1  0.500000  0.791417  0.265363  1
  B  B23  1  0.500000  0.208697  0.734722  1
  B  B24  1  0.500000  0.130473  0.314358  1
  B  B25  1  0.500000  0.869450  0.685745  1
  B  B26  1  0.500000  0.630849  0.185987  1
  B  B27  1  0.500000  0.369390  0.814243  1
  B  B28  1  0.500000  0.482539  0.288592  1
  B  B29  1  0.500000  0.517832  0.711515  1
  B  B30  1  0.500000  0.982040  0.211624  1
  B  B31  1  0.500000  0.017797  0.788440  1
  B  B32  1  0.500000  0.100160  0.471999  1
  B  B33  1  0.500000  0.899882  0.528111  1
  B  B34  1  0.500000  0.600669  0.027811  1
  B  B35  1  0.500000  0.399686  0.971515  1
