# generated using pymatgen
data_Te14Ru
_symmetry_space_group_name_H-M   'P 1'
_cell_length_a   9.81293662
_cell_length_b   10.49087839
_cell_length_c   12.61845087
_cell_angle_alpha   100.36462491
_cell_angle_beta   114.01121945
_cell_angle_gamma   104.72370920
_symmetry_Int_Tables_number   1
_chemical_formula_structural   Te14Ru
_chemical_formula_sum   'Te28 Ru2'
_cell_volume   1087.02844287
_cell_formula_units_Z   2
loop_
 _symmetry_equiv_pos_site_id
 _symmetry_equiv_pos_as_xyz
  1  'x, y, z'
loop_
 _atom_site_type_symbol
 _atom_site_label
 _atom_site_symmetry_multiplicity
 _atom_site_fract_x
 _atom_site_fract_y
 _atom_site_fract_z
 _atom_site_occupancy
  Te  Te0  1  0.873471  0.038446  0.717788  1
  Te  Te1  1  0.126529  0.961554  0.282212  1
  Te  Te2  1  0.195543  0.288418  0.916375  1
  Te  Te3  1  0.804457  0.711582  0.083625  1
  Te  Te4  1  0.698802  0.161236  0.820482  1
  Te  Te5  1  0.301198  0.838764  0.179518  1
  Te  Te6  1  0.983469  0.318497  0.045796  1
  Te  Te7  1  0.016531  0.681503  0.954204  1
  Te  Te8  1  0.194837  0.064454  0.021886  1
  Te  Te9  1  0.805163  0.935546  0.978114  1
  Te  Te10  1  0.071016  0.804258  0.702791  1
  Te  Te11  1  0.928984  0.195742  0.297209  1
  Te  Te12  1  0.663847  0.654479  0.668693  1
  Te  Te13  1  0.336153  0.345521  0.331307  1
  Te  Te14  1  0.327076  0.716120  0.821776  1
  Te  Te15  1  0.672924  0.283880  0.178224  1
  Te  Te16  1  0.845310  0.503398  0.555602  1
  Te  Te17  1  0.154690  0.496602  0.444398  1
  Te  Te18  1  0.762391  0.687763  0.398314  1
  Te  Te19  1  0.237609  0.312237  0.601686  1
  Te  Te20  1  0.322783  0.146848  0.779547  1
  Te  Te21  1  0.677217  0.853152  0.220453  1
  Te  Te22  1  0.546122  0.498185  0.799096  1
  Te  Te23  1  0.453878  0.501815  0.200904  1
  Te  Te24  1  0.407732  0.781363  0.642023  1
  Te  Te25  1  0.592268  0.218637  0.357977  1
  Te  Te26  1  0.564920  0.894163  0.481363  1
  Te  Te27  1  0.435080  0.105837  0.518637  1
  Ru  Ru28  1  0.931209  0.858244  0.837269  1
  Ru  Ru29  1  0.068791  0.141756  0.162731  1
