# generated using pymatgen
data_Ca5Tm2Lu(Si4Mo3)4
_symmetry_space_group_name_H-M   'P 1'
_cell_length_a   6.71914122
_cell_length_b   6.94757148
_cell_length_c   12.99726212
_cell_angle_alpha   89.89014123
_cell_angle_beta   89.96875291
_cell_angle_gamma   89.93177150
_symmetry_Int_Tables_number   1
_chemical_formula_structural   Ca5Tm2Lu(Si4Mo3)4
_chemical_formula_sum   'Ca5 Tm2 Lu1 Si16 Mo12'
_cell_volume   606.73283699
_cell_formula_units_Z   1
loop_
 _symmetry_equiv_pos_site_id
 _symmetry_equiv_pos_as_xyz
  1  'x, y, z'
loop_
 _atom_site_type_symbol
 _atom_site_label
 _atom_site_symmetry_multiplicity
 _atom_site_fract_x
 _atom_site_fract_y
 _atom_site_fract_z
 _atom_site_occupancy
  Ca  Ca0  1  0.497916  0.333784  0.091175  1
  Ca  Ca1  1  0.997713  0.167350  0.408200  1
  Ca  Ca2  1  0.501877  0.667688  0.592020  1
  Ca  Ca3  1  0.001879  0.832026  0.908034  1
  Ca  Ca4  1  0.501800  0.667340  0.908718  1
  Tm  Tm5  1  0.001087  0.830268  0.594264  1
  Tm  Tm6  1  0.498840  0.330548  0.405739  1
  Lu  Lu7  1  0.997937  0.169452  0.094014  1
  Si  Si8  1  0.660033  0.042115  0.545047  1
  Si  Si9  1  0.158223  0.456592  0.955142  1
  Si  Si10  1  0.339248  0.958633  0.046452  1
  Si  Si11  1  0.839922  0.542223  0.454402  1
  Si  Si12  1  0.339894  0.957963  0.454258  1
  Si  Si13  1  0.841925  0.541490  0.046321  1
  Si  Si14  1  0.659995  0.042328  0.954850  1
  Si  Si15  1  0.160056  0.458337  0.545145  1
  Si  Si16  1  0.534318  0.370342  0.750121  1
  Si  Si17  1  0.034207  0.128223  0.749150  1
  Si  Si18  1  0.465794  0.631705  0.249800  1
  Si  Si19  1  0.966333  0.870125  0.249712  1
  Si  Si20  1  0.801197  0.629189  0.750225  1
  Si  Si21  1  0.302588  0.870457  0.750399  1
  Si  Si22  1  0.197625  0.369435  0.249538  1
  Si  Si23  1  0.697931  0.130471  0.249925  1
  Mo  Mo24  1  0.832794  0.333385  0.625866  1
  Mo  Mo25  1  0.332266  0.167685  0.873081  1
  Mo  Mo26  1  0.166335  0.665962  0.126803  1
  Mo  Mo27  1  0.668157  0.833972  0.374073  1
  Mo  Mo28  1  0.167541  0.666061  0.373886  1
  Mo  Mo29  1  0.669370  0.835953  0.127026  1
  Mo  Mo30  1  0.835539  0.330749  0.873188  1
  Mo  Mo31  1  0.332346  0.166880  0.625336  1
  Mo  Mo32  1  0.662742  0.007723  0.749085  1
  Mo  Mo33  1  0.161496  0.492366  0.748666  1
  Mo  Mo34  1  0.336236  0.996246  0.250485  1
  Mo  Mo35  1  0.836842  0.504938  0.249851  1
