# generated using pymatgen
data_Be24VFe4
_symmetry_space_group_name_H-M   'P 1'
_cell_length_a   6.79954882
_cell_length_b   6.79761939
_cell_length_c   6.79965004
_cell_angle_alpha   109.47126046
_cell_angle_beta   109.48259817
_cell_angle_gamma   109.47065853
_symmetry_Int_Tables_number   1
_chemical_formula_structural   Be24VFe4
_chemical_formula_sum   'Be24 V1 Fe4'
_cell_volume   241.90420124
_cell_formula_units_Z   1
loop_
 _symmetry_equiv_pos_site_id
 _symmetry_equiv_pos_as_xyz
  1  'x, y, z'
loop_
 _atom_site_type_symbol
 _atom_site_label
 _atom_site_symmetry_multiplicity
 _atom_site_fract_x
 _atom_site_fract_y
 _atom_site_fract_z
 _atom_site_occupancy
  Be  Be0  1  0.374652  0.189979  0.000033  1
  Be  Be1  1  0.189859  0.374508  0.000040  1
  Be  Be2  1  0.686971  0.392426  0.999980  1
  Be  Be3  1  0.392410  0.686998  0.999981  1
  Be  Be4  1  0.810035  0.810004  0.184672  1
  Be  Be5  1  0.374592  0.000003  0.189931  1
  Be  Be6  1  0.000039  0.374512  0.189857  1
  Be  Be7  1  0.607568  0.607586  0.294554  1
  Be  Be8  1  0.705426  0.313005  0.312989  1
  Be  Be9  1  0.313033  0.705516  0.313031  1
  Be  Be10  1  0.189936  0.000004  0.374592  1
  Be  Be11  1  0.000031  0.189985  0.374655  1
  Be  Be12  1  0.687025  0.000002  0.392385  1
  Be  Be13  1  0.999982  0.687011  0.392411  1
  Be  Be14  1  0.607517  0.294491  0.607517  1
  Be  Be15  1  0.294538  0.607573  0.607554  1
  Be  Be16  1  0.815333  0.625480  0.625518  1
  Be  Be17  1  0.625448  0.815315  0.625449  1
  Be  Be18  1  0.392374  0.000001  0.687016  1
  Be  Be19  1  0.999983  0.392414  0.686975  1
  Be  Be20  1  0.312974  0.312994  0.705412  1
  Be  Be21  1  0.810121  0.184673  0.810124  1
  Be  Be22  1  0.184675  0.810012  0.810045  1
  Be  Be23  1  0.625514  0.625477  0.815329  1
  V  V24  1  0.999838  0.000037  0.999836  1
  Fe  Fe25  1  0.631146  0.999989  0.000009  1
  Fe  Fe26  1  0.000004  0.631080  0.000002  1
  Fe  Fe27  1  0.368954  0.368927  0.368952  1
  Fe  Fe28  1  0.000024  0.999995  0.631149  1
