# generated using pymatgen
data_TbYb3Sm2Ti2(MnC6)2
_symmetry_space_group_name_H-M   'P 1'
_cell_length_a   8.23857492
_cell_length_b   8.24783122
_cell_length_c   5.12016400
_cell_angle_alpha   90.00000000
_cell_angle_beta   90.00000000
_cell_angle_gamma   120.07743453
_symmetry_Int_Tables_number   1
_chemical_formula_structural   TbYb3Sm2Ti2(MnC6)2
_chemical_formula_sum   'Tb1 Yb3 Sm2 Ti2 Mn2 C12'
_cell_volume   301.06963958
_cell_formula_units_Z   1
loop_
 _symmetry_equiv_pos_site_id
 _symmetry_equiv_pos_as_xyz
  1  'x, y, z'
loop_
 _atom_site_type_symbol
 _atom_site_label
 _atom_site_symmetry_multiplicity
 _atom_site_fract_x
 _atom_site_fract_y
 _atom_site_fract_z
 _atom_site_occupancy
  Tb  Tb0  1  0.066998  0.386096  0.750000  1
  Yb  Yb1  1  0.612088  0.683600  0.750000  1
  Yb  Yb2  1  0.926603  0.609640  0.250000  1
  Yb  Yb3  1  0.682562  0.072595  0.250000  1
  Sm  Sm4  1  0.321723  0.929654  0.750000  1
  Sm  Sm5  1  0.394300  0.324442  0.250000  1
  Ti  Ti6  1  0.999428  0.998465  0.499815  1
  Ti  Ti7  1  0.999428  0.998465  0.000185  1
  Mn  Mn8  1  0.666522  0.332003  0.750000  1
  Mn  Mn9  1  0.329253  0.664299  0.250000  1
  C  C10  1  0.956031  0.760036  0.750000  1
  C  C11  1  0.197901  0.958878  0.250000  1
  C  C12  1  0.758905  0.804013  0.250000  1
  C  C13  1  0.238092  0.198362  0.750000  1
  C  C14  1  0.808540  0.045050  0.750000  1
  C  C15  1  0.041435  0.235187  0.250000  1
  C  C16  1  0.857233  0.570897  0.750000  1
  C  C17  1  0.283180  0.853987  0.250000  1
  C  C18  1  0.571111  0.718374  0.250000  1
  C  C19  1  0.430178  0.286730  0.750000  1
  C  C20  1  0.140666  0.425545  0.250000  1
  C  C21  1  0.717823  0.143681  0.750000  1
