# generated using pymatgen
data_HoAl10FeRh
_symmetry_space_group_name_H-M   'P 1'
_cell_length_a   6.79205320
_cell_length_b   6.79205324
_cell_length_c   9.06827098
_cell_angle_alpha   90.27620818
_cell_angle_beta   90.27620613
_cell_angle_gamma   97.17800391
_symmetry_Int_Tables_number   1
_chemical_formula_structural   HoAl10FeRh
_chemical_formula_sum   'Ho2 Al20 Fe2 Rh2'
_cell_volume   415.04771806
_cell_formula_units_Z   2
loop_
 _symmetry_equiv_pos_site_id
 _symmetry_equiv_pos_as_xyz
  1  'x, y, z'
loop_
 _atom_site_type_symbol
 _atom_site_label
 _atom_site_symmetry_multiplicity
 _atom_site_fract_x
 _atom_site_fract_y
 _atom_site_fract_z
 _atom_site_occupancy
  Ho  Ho0  1  0.872846  0.127154  0.750000  1
  Ho  Ho1  1  0.127154  0.872846  0.250000  1
  Al  Al2  1  0.620453  0.372064  0.549644  1
  Al  Al3  1  0.379547  0.627936  0.450356  1
  Al  Al4  1  0.372064  0.620453  0.049644  1
  Al  Al5  1  0.627936  0.379547  0.950356  1
  Al  Al6  1  0.229157  0.221692  0.497053  1
  Al  Al7  1  0.770843  0.778308  0.502947  1
  Al  Al8  1  0.778308  0.770843  0.002947  1
  Al  Al9  1  0.221692  0.229157  0.997053  1
  Al  Al10  1  0.848706  0.159907  0.099751  1
  Al  Al11  1  0.151294  0.840093  0.900249  1
  Al  Al12  1  0.159907  0.848706  0.599751  1
  Al  Al13  1  0.840093  0.151294  0.400249  1
  Al  Al14  1  0.861123  0.586048  0.753549  1
  Al  Al15  1  0.138877  0.413952  0.246451  1
  Al  Al16  1  0.413952  0.138877  0.746451  1
  Al  Al17  1  0.586048  0.861123  0.253549  1
  Al  Al18  1  0.223720  0.479449  0.754791  1
  Al  Al19  1  0.776280  0.520551  0.245209  1
  Al  Al20  1  0.520551  0.776280  0.745209  1
  Al  Al21  1  0.479449  0.223720  0.254791  1
  Fe  Fe22  1  0.000000  0.500000  0.000000  1
  Fe  Fe23  1  0.500000  0.000000  0.500000  1
  Rh  Rh24  1  0.000000  0.500000  0.500000  1
  Rh  Rh25  1  0.500000  0.000000  0.000000  1
