# generated using pymatgen
data_Y3Er5B24IrRh3
_symmetry_space_group_name_H-M   'P 1'
_cell_length_a   3.64498300
_cell_length_b   9.15831670
_cell_length_c   11.49994102
_cell_angle_alpha   90.04826723
_cell_angle_beta   90.00000000
_cell_angle_gamma   90.00000000
_symmetry_Int_Tables_number   1
_chemical_formula_structural   Y3Er5B24IrRh3
_chemical_formula_sum   'Y3 Er5 B24 Ir1 Rh3'
_cell_volume   383.88984483
_cell_formula_units_Z   1
loop_
 _symmetry_equiv_pos_site_id
 _symmetry_equiv_pos_as_xyz
  1  'x, y, z'
loop_
 _atom_site_type_symbol
 _atom_site_label
 _atom_site_symmetry_multiplicity
 _atom_site_fract_x
 _atom_site_fract_y
 _atom_site_fract_z
 _atom_site_occupancy
  Y  Y0  1  0.500000  0.322347  0.414280  1
  Y  Y1  1  0.500000  0.677609  0.586404  1
  Y  Y2  1  0.500000  0.178348  0.912946  1
  Er  Er3  1  0.500000  0.821238  0.086114  1
  Er  Er4  1  0.500000  0.445219  0.126454  1
  Er  Er5  1  0.500000  0.556125  0.873087  1
  Er  Er6  1  0.500000  0.055871  0.627111  1
  Er  Er7  1  0.500000  0.943314  0.373827  1
  B  B8  1  0.000000  0.108085  0.470701  1
  B  B9  1  0.000000  0.891286  0.529443  1
  B  B10  1  0.000000  0.391701  0.970575  1
  B  B11  1  0.000000  0.609487  0.029459  1
  B  B12  1  0.000000  0.132069  0.316195  1
  B  B13  1  0.000000  0.867347  0.683934  1
  B  B14  1  0.000000  0.367457  0.816215  1
  B  B15  1  0.000000  0.633413  0.183095  1
  B  B16  1  0.000000  0.053877  0.065843  1
  B  B17  1  0.000000  0.945428  0.934825  1
  B  B18  1  0.000000  0.445935  0.565748  1
  B  B19  1  0.000000  0.553855  0.434125  1
  B  B20  1  0.000000  0.483085  0.286404  1
  B  B21  1  0.000000  0.517224  0.713607  1
  B  B22  1  0.000000  0.016980  0.786654  1
  B  B23  1  0.000000  0.982437  0.213463  1
  B  B24  1  0.000000  0.250046  0.079663  1
  B  B25  1  0.000000  0.750368  0.920846  1
  B  B26  1  0.000000  0.250278  0.579996  1
  B  B27  1  0.000000  0.749405  0.419922  1
  B  B28  1  0.000000  0.293869  0.235124  1
  B  B29  1  0.000000  0.706173  0.764612  1
  B  B30  1  0.000000  0.205910  0.735866  1
  B  B31  1  0.000000  0.794125  0.263499  1
  Ir  Ir32  1  0.500000  0.138931  0.178774  1
  Rh  Rh33  1  0.500000  0.861150  0.821998  1
  Rh  Rh34  1  0.500000  0.359747  0.679730  1
  Rh  Rh35  1  0.500000  0.640258  0.319465  1
