# generated using pymatgen
data_Tb7Sn22BiRh6
_symmetry_space_group_name_H-M   'P 1'
_cell_length_a   9.86668900
_cell_length_b   9.86668860
_cell_length_c   10.20051100
_cell_angle_alpha   90.00000000
_cell_angle_beta   90.00000000
_cell_angle_gamma   120.00001139
_symmetry_Int_Tables_number   1
_chemical_formula_structural   Tb7Sn22BiRh6
_chemical_formula_sum   'Tb7 Sn22 Bi1 Rh6'
_cell_volume   859.99390164
_cell_formula_units_Z   1
loop_
 _symmetry_equiv_pos_site_id
 _symmetry_equiv_pos_as_xyz
  1  'x, y, z'
loop_
 _atom_site_type_symbol
 _atom_site_label
 _atom_site_symmetry_multiplicity
 _atom_site_fract_x
 _atom_site_fract_y
 _atom_site_fract_z
 _atom_site_occupancy
  Tb  Tb0  1  0.000000  0.000000  0.000000  1
  Tb  Tb1  1  0.478568  0.521432  0.307477  1
  Tb  Tb2  1  0.521432  0.478568  0.692523  1
  Tb  Tb3  1  0.478568  0.957137  0.307477  1
  Tb  Tb4  1  0.521432  0.042863  0.692523  1
  Tb  Tb5  1  0.042863  0.521432  0.307477  1
  Tb  Tb6  1  0.957137  0.478568  0.692523  1
  Sn  Sn7  1  0.349813  0.000000  0.000000  1
  Sn  Sn8  1  0.650187  0.000000  0.000000  1
  Sn  Sn9  1  0.000000  0.349813  0.000000  1
  Sn  Sn10  1  0.000000  0.650187  0.000000  1
  Sn  Sn11  1  0.650187  0.650187  0.000000  1
  Sn  Sn12  1  0.349813  0.349813  0.000000  1
  Sn  Sn13  1  0.333333  0.666667  0.820149  1
  Sn  Sn14  1  0.666667  0.333333  0.179851  1
  Sn  Sn15  1  0.777674  0.222326  0.455242  1
  Sn  Sn16  1  0.222326  0.777674  0.544758  1
  Sn  Sn17  1  0.777674  0.555347  0.455242  1
  Sn  Sn18  1  0.222326  0.444653  0.544758  1
  Sn  Sn19  1  0.444653  0.222326  0.455242  1
  Sn  Sn20  1  0.555347  0.777674  0.544758  1
  Sn  Sn21  1  0.333333  0.666667  0.119075  1
  Sn  Sn22  1  0.666667  0.333333  0.880925  1
  Sn  Sn23  1  0.121489  0.878511  0.275781  1
  Sn  Sn24  1  0.878511  0.121489  0.724219  1
  Sn  Sn25  1  0.121489  0.242978  0.275781  1
  Sn  Sn26  1  0.878511  0.757022  0.724219  1
  Sn  Sn27  1  0.757022  0.878511  0.275781  1
  Sn  Sn28  1  0.242978  0.121489  0.724219  1
  Bi  Bi29  1  0.000000  0.000000  0.500000  1
  Rh  Rh30  1  0.831249  0.168751  0.199551  1
  Rh  Rh31  1  0.168751  0.831249  0.800449  1
  Rh  Rh32  1  0.831249  0.662498  0.199551  1
  Rh  Rh33  1  0.168751  0.337502  0.800449  1
  Rh  Rh34  1  0.337502  0.168751  0.199551  1
  Rh  Rh35  1  0.662498  0.831249  0.800449  1
