# generated using pymatgen
data_Tb3Mg3Hg2Os
_symmetry_space_group_name_H-M   'P 1'
_cell_length_a   7.93297700
_cell_length_b   7.93297622
_cell_length_c   3.93469500
_cell_angle_alpha   90.00000000
_cell_angle_beta   90.00000000
_cell_angle_gamma   119.99999907
_symmetry_Int_Tables_number   1
_chemical_formula_structural   Tb3Mg3Hg2Os
_chemical_formula_sum   'Tb3 Mg3 Hg2 Os1'
_cell_volume   214.44407772
_cell_formula_units_Z   1
loop_
 _symmetry_equiv_pos_site_id
 _symmetry_equiv_pos_as_xyz
  1  'x, y, z'
loop_
 _atom_site_type_symbol
 _atom_site_label
 _atom_site_symmetry_multiplicity
 _atom_site_fract_x
 _atom_site_fract_y
 _atom_site_fract_z
 _atom_site_occupancy
  Tb  Tb0  1  0.566457  0.960003  0.000000  1
  Tb  Tb1  1  0.039997  0.606454  0.000000  1
  Tb  Tb2  1  0.393546  0.433543  0.000000  1
  Mg  Mg3  1  0.263840  0.998625  0.500000  1
  Mg  Mg4  1  0.001375  0.265214  0.500000  1
  Mg  Mg5  1  0.734786  0.736160  0.500000  1
  Hg  Hg6  1  0.666667  0.333333  0.500000  1
  Hg  Hg7  1  0.000000  0.000000  0.000000  1
  Os  Os8  1  0.333333  0.666667  0.500000  1
