# generated using pymatgen
data_Hf4Cu3Si4Rh
_symmetry_space_group_name_H-M   'P 1'
_cell_length_a   3.84983600
_cell_length_b   6.51104460
_cell_length_c   7.39960232
_cell_angle_alpha   91.15007757
_cell_angle_beta   90.00000000
_cell_angle_gamma   90.00000000
_symmetry_Int_Tables_number   1
_chemical_formula_structural   Hf4Cu3Si4Rh
_chemical_formula_sum   'Hf4 Cu3 Si4 Rh1'
_cell_volume   185.44442521
_cell_formula_units_Z   1
loop_
 _symmetry_equiv_pos_site_id
 _symmetry_equiv_pos_as_xyz
  1  'x, y, z'
loop_
 _atom_site_type_symbol
 _atom_site_label
 _atom_site_symmetry_multiplicity
 _atom_site_fract_x
 _atom_site_fract_y
 _atom_site_fract_z
 _atom_site_occupancy
  Hf  Hf0  1  0.250000  0.518528  0.185167  1
  Hf  Hf1  1  0.750000  0.484328  0.819367  1
  Hf  Hf2  1  0.250000  0.024127  0.314947  1
  Hf  Hf3  1  0.750000  0.976925  0.683203  1
  Cu  Cu4  1  0.750000  0.841487  0.069611  1
  Cu  Cu5  1  0.250000  0.157886  0.929159  1
  Cu  Cu6  1  0.750000  0.350600  0.437715  1
  Si  Si7  1  0.250000  0.773855  0.886473  1
  Si  Si8  1  0.750000  0.225694  0.113764  1
  Si  Si9  1  0.250000  0.268413  0.619290  1
  Si  Si10  1  0.750000  0.736951  0.380595  1
  Rh  Rh11  1  0.250000  0.641205  0.560709  1
