# generated using pymatgen
data_Tm9Lu(GaSb2)2
_symmetry_space_group_name_H-M   'P 1'
_cell_length_a   8.70115003
_cell_length_b   8.71617682
_cell_length_c   6.32640802
_cell_angle_alpha   89.99521590
_cell_angle_beta   90.00957813
_cell_angle_gamma   119.94297895
_symmetry_Int_Tables_number   1
_chemical_formula_structural   Tm9Lu(GaSb2)2
_chemical_formula_sum   'Tm9 Lu1 Ga2 Sb4'
_cell_volume   415.75718559
_cell_formula_units_Z   1
loop_
 _symmetry_equiv_pos_site_id
 _symmetry_equiv_pos_as_xyz
  1  'x, y, z'
loop_
 _atom_site_type_symbol
 _atom_site_label
 _atom_site_symmetry_multiplicity
 _atom_site_fract_x
 _atom_site_fract_y
 _atom_site_fract_z
 _atom_site_occupancy
  Tm  Tm0  1  0.657159  0.314316  0.500000  1
  Tm  Tm1  1  0.657191  0.314379  0.000000  1
  Tm  Tm2  1  0.342826  0.685654  0.500000  1
  Tm  Tm3  1  0.244592  0.999963  0.249945  1
  Tm  Tm4  1  0.755371  0.999963  0.750055  1
  Tm  Tm5  1  0.986258  0.231180  0.249978  1
  Tm  Tm6  1  0.755051  0.768827  0.249990  1
  Tm  Tm7  1  0.244921  0.231180  0.750022  1
  Tm  Tm8  1  0.013777  0.768827  0.750010  1
  Lu  Lu9  1  0.342925  0.685851  0.000000  1
  Ga  Ga10  1  0.603382  0.999847  0.249862  1
  Ga  Ga11  1  0.396465  0.999847  0.750138  1
  Sb  Sb12  1  0.993862  0.605596  0.249929  1
  Sb  Sb13  1  0.388126  0.394486  0.249935  1
  Sb  Sb14  1  0.611734  0.605596  0.750071  1
  Sb  Sb15  1  0.006360  0.394486  0.750065  1
