# generated using pymatgen
data_Pu3Pa(VN2)4
_symmetry_space_group_name_H-M   'P 1'
_cell_length_a   3.21534100
_cell_length_b   5.49824759
_cell_length_c   10.54088360
_cell_angle_alpha   90.11677909
_cell_angle_beta   90.00000000
_cell_angle_gamma   90.00000000
_symmetry_Int_Tables_number   1
_chemical_formula_structural   Pu3Pa(VN2)4
_chemical_formula_sum   'Pu3 Pa1 V4 N8'
_cell_volume   186.34916301
_cell_formula_units_Z   1
loop_
 _symmetry_equiv_pos_site_id
 _symmetry_equiv_pos_as_xyz
  1  'x, y, z'
loop_
 _atom_site_type_symbol
 _atom_site_label
 _atom_site_symmetry_multiplicity
 _atom_site_fract_x
 _atom_site_fract_y
 _atom_site_fract_z
 _atom_site_occupancy
  Pu  Pu0  1  0.750000  0.079432  0.857119  1
  Pu  Pu1  1  0.750000  0.578314  0.644861  1
  Pu  Pu2  1  0.250000  0.920996  0.140501  1
  Pa  Pa3  1  0.250000  0.421502  0.358387  1
  V  V4  1  0.250000  0.075133  0.598072  1
  V  V5  1  0.750000  0.423712  0.096034  1
  V  V6  1  0.250000  0.577677  0.901643  1
  V  V7  1  0.750000  0.922184  0.402206  1
  N  N8  1  0.250000  0.336836  0.746539  1
  N  N9  1  0.750000  0.164843  0.248080  1
  N  N10  1  0.250000  0.267110  0.008599  1
  N  N11  1  0.750000  0.662447  0.254869  1
  N  N12  1  0.250000  0.837871  0.752668  1
  N  N13  1  0.750000  0.733480  0.989882  1
  N  N14  1  0.750000  0.233424  0.510323  1
  N  N15  1  0.250000  0.765041  0.490217  1
