# generated using pymatgen
data_Zr5As7Pd9
_symmetry_space_group_name_H-M   'P 1'
_cell_length_a   3.95756800
_cell_length_b   6.75273397
_cell_length_c   14.07017271
_cell_angle_alpha   76.11544967
_cell_angle_beta   90.00000000
_cell_angle_gamma   90.00000000
_symmetry_Int_Tables_number   1
_chemical_formula_structural   Zr5As7Pd9
_chemical_formula_sum   'Zr5 As7 Pd9'
_cell_volume   365.03022208
_cell_formula_units_Z   1
loop_
 _symmetry_equiv_pos_site_id
 _symmetry_equiv_pos_as_xyz
  1  'x, y, z'
loop_
 _atom_site_type_symbol
 _atom_site_label
 _atom_site_symmetry_multiplicity
 _atom_site_fract_x
 _atom_site_fract_y
 _atom_site_fract_z
 _atom_site_occupancy
  Zr  Zr0  1  0.000000  0.530734  0.000000  1
  Zr  Zr1  1  0.000000  0.815748  0.177534  1
  Zr  Zr2  1  0.500001  0.079238  0.459673  1
  Zr  Zr3  1  0.500001  0.538910  0.540327  1
  Zr  Zr4  1  0.000000  0.993283  0.822467  1
  As  As5  1  0.000000  0.126294  0.000000  1
  As  As6  1  0.500001  0.550380  0.138097  1
  As  As7  1  0.500001  0.964452  0.288780  1
  As  As8  1  0.000000  0.381390  0.428493  1
  As  As9  1  0.000000  0.809883  0.571507  1
  As  As10  1  0.500001  0.253232  0.711220  1
  As  As11  1  0.500001  0.688476  0.861903  1
  Pd  Pd12  1  0.500001  0.879135  0.000000  1
  Pd  Pd13  1  0.500001  0.195102  0.115059  1
  Pd  Pd14  1  0.000000  0.217041  0.277845  1
  Pd  Pd15  1  0.500001  0.544464  0.317911  1
  Pd  Pd16  1  0.000000  0.782967  0.392378  1
  Pd  Pd17  1  0.000000  0.175343  0.607623  1
  Pd  Pd18  1  0.500001  0.862374  0.682089  1
  Pd  Pd19  1  0.000000  0.494888  0.722155  1
  Pd  Pd20  1  0.500001  0.310161  0.884941  1
