# generated using pymatgen
data_Hf3Al3Co2Si
_symmetry_space_group_name_H-M   'P 1'
_cell_length_a   6.57010700
_cell_length_b   6.57010712
_cell_length_c   3.81665100
_cell_angle_alpha   90.00000000
_cell_angle_beta   90.00000000
_cell_angle_gamma   119.99999434
_symmetry_Int_Tables_number   1
_chemical_formula_structural   Hf3Al3Co2Si
_chemical_formula_sum   'Hf3 Al3 Co2 Si1'
_cell_volume   142.67832392
_cell_formula_units_Z   1
loop_
 _symmetry_equiv_pos_site_id
 _symmetry_equiv_pos_as_xyz
  1  'x, y, z'
loop_
 _atom_site_type_symbol
 _atom_site_label
 _atom_site_symmetry_multiplicity
 _atom_site_fract_x
 _atom_site_fract_y
 _atom_site_fract_z
 _atom_site_occupancy
  Hf  Hf0  1  0.404187  0.418382  0.500000  1
  Hf  Hf1  1  0.581618  0.985805  0.500000  1
  Hf  Hf2  1  0.014195  0.595813  0.500000  1
  Al  Al3  1  0.753480  0.764160  0.000000  1
  Al  Al4  1  0.235840  0.989320  0.000000  1
  Al  Al5  1  0.010680  0.246520  0.000000  1
  Co  Co6  1  0.333333  0.666667  0.000000  1
  Co  Co7  1  0.000000  0.000000  0.500000  1
  Si  Si8  1  0.666667  0.333333  0.000000  1
