# generated using pymatgen
data_Y7ErSc12Si15Hg
_symmetry_space_group_name_H-M   'P 1'
_cell_length_a   7.13532146
_cell_length_b   7.39674417
_cell_length_c   14.09602771
_cell_angle_alpha   89.89766911
_cell_angle_beta   89.56820533
_cell_angle_gamma   90.16757588
_symmetry_Int_Tables_number   1
_chemical_formula_structural   Y7ErSc12Si15Hg
_chemical_formula_sum   'Y7 Er1 Sc12 Si15 Hg1'
_cell_volume   743.93670380
_cell_formula_units_Z   1
loop_
 _symmetry_equiv_pos_site_id
 _symmetry_equiv_pos_as_xyz
  1  'x, y, z'
loop_
 _atom_site_type_symbol
 _atom_site_label
 _atom_site_symmetry_multiplicity
 _atom_site_fract_x
 _atom_site_fract_y
 _atom_site_fract_z
 _atom_site_occupancy
  Y  Y0  1  0.011007  0.174973  0.097264  1
  Y  Y1  1  0.988359  0.825860  0.904130  1
  Y  Y2  1  0.488375  0.676323  0.904090  1
  Y  Y3  1  0.989987  0.831998  0.598344  1
  Y  Y4  1  0.510910  0.324332  0.096427  1
  Y  Y5  1  0.006851  0.170528  0.398354  1
  Y  Y6  1  0.510924  0.322244  0.399181  1
  Er  Er7  1  0.497232  0.682287  0.601080  1
  Sc  Sc8  1  0.163693  0.501375  0.754209  1
  Sc  Sc9  1  0.835945  0.498689  0.249946  1
  Sc  Sc10  1  0.336229  0.000327  0.248745  1
  Sc  Sc11  1  0.665964  0.997202  0.751627  1
  Sc  Sc12  1  0.343577  0.168560  0.629041  1
  Sc  Sc13  1  0.662903  0.823717  0.373096  1
  Sc  Sc14  1  0.165625  0.677715  0.370522  1
  Sc  Sc15  1  0.668422  0.823384  0.124232  1
  Sc  Sc16  1  0.826059  0.325505  0.626238  1
  Sc  Sc17  1  0.329949  0.175329  0.875857  1
  Sc  Sc18  1  0.830943  0.322718  0.875870  1
  Sc  Sc19  1  0.168116  0.676708  0.124965  1
  Si  Si20  1  0.036734  0.121834  0.751167  1
  Si  Si21  1  0.962468  0.882701  0.247910  1
  Si  Si22  1  0.464766  0.615780  0.247954  1
  Si  Si23  1  0.534650  0.386164  0.751847  1
  Si  Si24  1  0.286874  0.872467  0.751430  1
  Si  Si25  1  0.711483  0.126292  0.247759  1
  Si  Si26  1  0.212282  0.372016  0.248106  1
  Si  Si27  1  0.789416  0.628099  0.752284  1
  Si  Si28  1  0.832795  0.538746  0.459360  1
  Si  Si29  1  0.338542  0.960772  0.460581  1
  Si  Si30  1  0.843454  0.535671  0.038719  1
  Si  Si31  1  0.659870  0.036738  0.537993  1
  Si  Si32  1  0.156085  0.463624  0.962065  1
  Si  Si33  1  0.656202  0.035438  0.960422  1
  Si  Si34  1  0.342539  0.964608  0.039680  1
  Hg  Hg35  1  0.170768  0.459277  0.539506  1
