# generated using pymatgen
data_Tm6Al12ZnFe8Si11
_symmetry_space_group_name_H-M   'P 1'
_cell_length_a   8.44187200
_cell_length_b   8.44187176
_cell_length_c   9.01359700
_cell_angle_alpha   90.00000000
_cell_angle_beta   90.00000000
_cell_angle_gamma   120.34653779
_symmetry_Int_Tables_number   1
_chemical_formula_structural   Tm6Al12ZnFe8Si11
_chemical_formula_sum   'Tm6 Al12 Zn1 Fe8 Si11'
_cell_volume   554.34372218
_cell_formula_units_Z   1
loop_
 _symmetry_equiv_pos_site_id
 _symmetry_equiv_pos_as_xyz
  1  'x, y, z'
loop_
 _atom_site_type_symbol
 _atom_site_label
 _atom_site_symmetry_multiplicity
 _atom_site_fract_x
 _atom_site_fract_y
 _atom_site_fract_z
 _atom_site_occupancy
  Tm  Tm0  1  0.805992  0.194008  0.750000  1
  Tm  Tm1  1  0.194645  0.805355  0.250000  1
  Tm  Tm2  1  0.386685  0.192155  0.750000  1
  Tm  Tm3  1  0.612701  0.806833  0.250000  1
  Tm  Tm4  1  0.807845  0.613315  0.750000  1
  Tm  Tm5  1  0.193167  0.387299  0.250000  1
  Al  Al6  1  0.834972  0.165028  0.424536  1
  Al  Al7  1  0.164290  0.835710  0.576338  1
  Al  Al8  1  0.328597  0.163861  0.422616  1
  Al  Al9  1  0.164290  0.835710  0.923662  1
  Al  Al10  1  0.668779  0.832523  0.577577  1
  Al  Al11  1  0.834972  0.165028  0.075464  1
  Al  Al12  1  0.836139  0.671403  0.422616  1
  Al  Al13  1  0.668779  0.832523  0.922423  1
  Al  Al14  1  0.167477  0.331221  0.577577  1
  Al  Al15  1  0.328597  0.163861  0.077384  1
  Al  Al16  1  0.167477  0.331221  0.922423  1
  Al  Al17  1  0.836139  0.671403  0.077384  1
  Zn  Zn18  1  0.440139  0.559861  0.750000  1
  Fe  Fe19  1  0.501784  0.498216  0.013466  1
  Fe  Fe20  1  0.999065  0.500435  0.000565  1
  Fe  Fe21  1  0.501784  0.498216  0.486534  1
  Fe  Fe22  1  0.499565  0.000935  0.000565  1
  Fe  Fe23  1  0.999065  0.500435  0.499435  1
  Fe  Fe24  1  0.499565  0.000935  0.499435  1
  Fe  Fe25  1  0.999072  0.000928  0.999188  1
  Fe  Fe26  1  0.999072  0.000928  0.500812  1
  Si  Si27  1  0.665646  0.334354  0.965298  1
  Si  Si28  1  0.334539  0.665461  0.034478  1
  Si  Si29  1  0.334539  0.665461  0.465522  1
  Si  Si30  1  0.665646  0.334354  0.534702  1
  Si  Si31  1  0.559247  0.440753  0.250000  1
  Si  Si32  1  0.120006  0.561754  0.750000  1
  Si  Si33  1  0.881773  0.440633  0.250000  1
  Si  Si34  1  0.438246  0.879994  0.750000  1
  Si  Si35  1  0.559367  0.118227  0.250000  1
  Si  Si36  1  0.999244  0.000756  0.750000  1
  Si  Si37  1  0.001091  0.998909  0.250000  1
