# generated using pymatgen
data_Y10Ho2Al(InFe)2
_symmetry_space_group_name_H-M   'P 1'
_cell_length_a   8.44194446
_cell_length_b   8.44194509
_cell_length_c   8.46240428
_cell_angle_alpha   109.82119141
_cell_angle_beta   109.82119147
_cell_angle_gamma   108.67408805
_symmetry_Int_Tables_number   1
_chemical_formula_structural   Y10Ho2Al(InFe)2
_chemical_formula_sum   'Y10 Ho2 Al1 In2 Fe2'
_cell_volume   464.76489867
_cell_formula_units_Z   1
loop_
 _symmetry_equiv_pos_site_id
 _symmetry_equiv_pos_as_xyz
  1  'x, y, z'
loop_
 _atom_site_type_symbol
 _atom_site_label
 _atom_site_symmetry_multiplicity
 _atom_site_fract_x
 _atom_site_fract_y
 _atom_site_fract_z
 _atom_site_occupancy
  Y  Y0  1  0.447741  0.202220  0.244151  1
  Y  Y1  1  0.552259  0.797780  0.755849  1
  Y  Y2  1  0.958068  0.203589  0.755849  1
  Y  Y3  1  0.203589  0.958068  0.755849  1
  Y  Y4  1  0.041932  0.796411  0.244151  1
  Y  Y5  1  0.796411  0.041932  0.244151  1
  Y  Y6  1  0.202220  0.447741  0.244151  1
  Y  Y7  1  0.797780  0.552259  0.755849  1
  Y  Y8  1  0.304279  0.304279  0.608559  1
  Y  Y9  1  0.695721  0.695721  0.391441  1
  Ho  Ho10  1  0.305736  0.694264  0.000000  1
  Ho  Ho11  1  0.694264  0.305736  0.000000  1
  Al  Al12  1  0.000000  0.000000  0.000000  1
  In  In13  1  0.500000  0.000000  0.500000  1
  In  In14  1  0.000000  0.500000  0.500000  1
  Fe  Fe15  1  0.389212  0.389212  0.000000  1
  Fe  Fe16  1  0.610788  0.610788  0.000000  1
