# generated using pymatgen
data_Ba8Re2SbWO20
_symmetry_space_group_name_H-M   'P 1'
_cell_length_a   5.83957200
_cell_length_b   7.50246842
_cell_length_c   11.72019537
_cell_angle_alpha   89.06677158
_cell_angle_beta   90.00000000
_cell_angle_gamma   90.00000000
_symmetry_Int_Tables_number   1
_chemical_formula_structural   Ba8Re2SbWO20
_chemical_formula_sum   'Ba8 Re2 Sb1 W1 O20'
_cell_volume   513.40776664
_cell_formula_units_Z   1
loop_
 _symmetry_equiv_pos_site_id
 _symmetry_equiv_pos_as_xyz
  1  'x, y, z'
loop_
 _atom_site_type_symbol
 _atom_site_label
 _atom_site_symmetry_multiplicity
 _atom_site_fract_x
 _atom_site_fract_y
 _atom_site_fract_z
 _atom_site_occupancy
  Ba  Ba0  1  0.750000  0.475209  0.277309  1
  Ba  Ba1  1  0.250000  0.531317  0.718626  1
  Ba  Ba2  1  0.750000  0.975715  0.207997  1
  Ba  Ba3  1  0.250000  0.017990  0.789595  1
  Ba  Ba4  1  0.750000  0.178755  0.589690  1
  Ba  Ba5  1  0.250000  0.822089  0.406114  1
  Ba  Ba6  1  0.750000  0.667536  0.932783  1
  Ba  Ba7  1  0.250000  0.339448  0.074172  1
  Re  Re8  1  0.750000  0.676010  0.558229  1
  Re  Re9  1  0.250000  0.323392  0.443223  1
  Sb  Sb10  1  0.250000  0.829203  0.068811  1
  W  W11  1  0.750000  0.171855  0.929863  1
  O  O12  1  0.482806  0.170447  0.399262  1
  O  O13  1  0.984015  0.828084  0.603351  1
  O  O14  1  0.998745  0.674800  0.126460  1
  O  O15  1  0.510005  0.318828  0.874345  1
  O  O16  1  0.515985  0.828084  0.603351  1
  O  O17  1  0.017194  0.170447  0.399262  1
  O  O18  1  0.989995  0.318828  0.874345  1
  O  O19  1  0.501255  0.674800  0.126460  1
  O  O20  1  0.499836  0.499907  0.500684  1
  O  O21  1  0.000164  0.499907  0.500684  1
  O  O22  1  0.996295  0.001794  0.997349  1
  O  O23  1  0.503705  0.001794  0.997349  1
  O  O24  1  0.750000  0.282891  0.082137  1
  O  O25  1  0.250000  0.712145  0.913740  1
  O  O26  1  0.750000  0.764288  0.404491  1
  O  O27  1  0.250000  0.236982  0.598422  1
  O  O28  1  0.750000  0.019003  0.800923  1
  O  O29  1  0.250000  0.989861  0.199940  1
  O  O30  1  0.750000  0.536256  0.688446  1
  O  O31  1  0.250000  0.462335  0.312587  1
