# generated using pymatgen
data_Sc20Bi5Sb7
_symmetry_space_group_name_H-M   'P 1'
_cell_length_a   7.67321461
_cell_length_b   8.88854023
_cell_length_c   11.26350765
_cell_angle_alpha   89.97423623
_cell_angle_beta   90.07423437
_cell_angle_gamma   89.99916041
_symmetry_Int_Tables_number   1
_chemical_formula_structural   Sc20Bi5Sb7
_chemical_formula_sum   'Sc20 Bi5 Sb7'
_cell_volume   768.21191181
_cell_formula_units_Z   1
loop_
 _symmetry_equiv_pos_site_id
 _symmetry_equiv_pos_as_xyz
  1  'x, y, z'
loop_
 _atom_site_type_symbol
 _atom_site_label
 _atom_site_symmetry_multiplicity
 _atom_site_fract_x
 _atom_site_fract_y
 _atom_site_fract_z
 _atom_site_occupancy
  Sc  Sc0  1  0.027737  0.252435  0.509745  1
  Sc  Sc1  1  0.973623  0.747576  0.486965  1
  Sc  Sc2  1  0.472779  0.745420  0.011291  1
  Sc  Sc3  1  0.527012  0.254695  0.988970  1
  Sc  Sc4  1  0.353205  0.255366  0.284268  1
  Sc  Sc5  1  0.644056  0.747098  0.716069  1
  Sc  Sc6  1  0.149659  0.747601  0.785433  1
  Sc  Sc7  1  0.853074  0.255411  0.215556  1
  Sc  Sc8  1  0.187644  0.253355  0.780668  1
  Sc  Sc9  1  0.814288  0.744318  0.220127  1
  Sc  Sc10  1  0.314348  0.744183  0.279652  1
  Sc  Sc11  1  0.682619  0.252265  0.720901  1
  Sc  Sc12  1  0.193696  0.064108  0.059496  1
  Sc  Sc13  1  0.806545  0.935952  0.940596  1
  Sc  Sc14  1  0.306841  0.935842  0.559302  1
  Sc  Sc15  1  0.803148  0.562392  0.941504  1
  Sc  Sc16  1  0.693278  0.064091  0.440444  1
  Sc  Sc17  1  0.195629  0.437988  0.060855  1
  Sc  Sc18  1  0.694127  0.437534  0.437335  1
  Sc  Sc19  1  0.306869  0.562609  0.559967  1
  Bi  Bi20  1  0.067257  0.003840  0.325258  1
  Bi  Bi21  1  0.933055  0.996121  0.674097  1
  Bi  Bi22  1  0.433161  0.996191  0.826236  1
  Bi  Bi23  1  0.932643  0.503862  0.674477  1
  Bi  Bi24  1  0.566942  0.003779  0.174096  1
  Sb  Sb25  1  0.411414  0.250047  0.539057  1
  Sb  Sb26  1  0.588912  0.749977  0.460719  1
  Sb  Sb27  1  0.088245  0.749922  0.039414  1
  Sb  Sb28  1  0.911666  0.250126  0.960694  1
  Sb  Sb29  1  0.066557  0.495850  0.327054  1
  Sb  Sb30  1  0.566441  0.495790  0.173085  1
  Sb  Sb31  1  0.433532  0.504258  0.826667  1
