# generated using pymatgen
data_HoTm2(SnPt)3
_symmetry_space_group_name_H-M   'P 1'
_cell_length_a   7.50416591
_cell_length_b   7.48929908
_cell_length_c   3.98232900
_cell_angle_alpha   90.00000000
_cell_angle_beta   90.00000000
_cell_angle_gamma   119.93449404
_symmetry_Int_Tables_number   1
_chemical_formula_structural   HoTm2(SnPt)3
_chemical_formula_sum   'Ho1 Tm2 Sn3 Pt3'
_cell_volume   193.95351784
_cell_formula_units_Z   1
loop_
 _symmetry_equiv_pos_site_id
 _symmetry_equiv_pos_as_xyz
  1  'x, y, z'
loop_
 _atom_site_type_symbol
 _atom_site_label
 _atom_site_symmetry_multiplicity
 _atom_site_fract_x
 _atom_site_fract_y
 _atom_site_fract_z
 _atom_site_occupancy
  Ho  Ho0  1  0.000000  0.594820  0.500000  1
  Tm  Tm1  1  0.404811  0.404820  0.500000  1
  Tm  Tm2  1  0.595189  0.000009  0.500000  1
  Sn  Sn3  1  0.000000  0.259692  0.000000  1
  Sn  Sn4  1  0.739655  0.740094  0.000000  1
  Sn  Sn5  1  0.260345  0.000439  0.000000  1
  Pt  Pt6  1  0.665346  0.332337  0.000000  1
  Pt  Pt7  1  0.000000  0.000797  0.500000  1
  Pt  Pt8  1  0.334654  0.666992  0.000000  1
