# generated using pymatgen
data_Dy19Y(Bi2Ru)4
_symmetry_space_group_name_H-M   'P 1'
_cell_length_a   7.98241204
_cell_length_b   9.01571600
_cell_length_c   12.46272407
_cell_angle_alpha   90.00000000
_cell_angle_beta   89.98797426
_cell_angle_gamma   90.00000000
_symmetry_Int_Tables_number   1
_chemical_formula_structural   Dy19Y(Bi2Ru)4
_chemical_formula_sum   'Dy19 Y1 Bi8 Ru4'
_cell_volume   896.90683712
_cell_formula_units_Z   1
loop_
 _symmetry_equiv_pos_site_id
 _symmetry_equiv_pos_as_xyz
  1  'x, y, z'
loop_
 _atom_site_type_symbol
 _atom_site_label
 _atom_site_symmetry_multiplicity
 _atom_site_fract_x
 _atom_site_fract_y
 _atom_site_fract_z
 _atom_site_occupancy
  Dy  Dy0  1  0.158292  0.250000  0.207220  1
  Dy  Dy1  1  0.341660  0.250000  0.707231  1
  Dy  Dy2  1  0.658574  0.750000  0.292705  1
  Dy  Dy3  1  0.376145  0.750000  0.692288  1
  Dy  Dy4  1  0.623796  0.250000  0.307676  1
  Dy  Dy5  1  0.876332  0.250000  0.807726  1
  Dy  Dy6  1  0.123859  0.750000  0.192643  1
  Dy  Dy7  1  0.945343  0.750000  0.503686  1
  Dy  Dy8  1  0.054758  0.250000  0.495936  1
  Dy  Dy9  1  0.445213  0.250000  0.996103  1
  Dy  Dy10  1  0.555118  0.750000  0.004133  1
  Dy  Dy11  1  0.675118  0.042084  0.564066  1
  Dy  Dy12  1  0.324900  0.957901  0.435896  1
  Dy  Dy13  1  0.174986  0.957847  0.936188  1
  Dy  Dy14  1  0.324900  0.542099  0.435896  1
  Dy  Dy15  1  0.824973  0.041940  0.064157  1
  Dy  Dy16  1  0.675118  0.457916  0.564066  1
  Dy  Dy17  1  0.824973  0.458060  0.064157  1
  Dy  Dy18  1  0.174986  0.542153  0.936188  1
  Y  Y19  1  0.840704  0.750000  0.790974  1
  Bi  Bi20  1  0.569154  0.492713  0.827756  1
  Bi  Bi21  1  0.430776  0.507297  0.172416  1
  Bi  Bi22  1  0.069441  0.507258  0.672182  1
  Bi  Bi23  1  0.430776  0.992703  0.172416  1
  Bi  Bi24  1  0.930672  0.492576  0.327657  1
  Bi  Bi25  1  0.569154  0.007287  0.827756  1
  Bi  Bi26  1  0.930672  0.007424  0.327657  1
  Bi  Bi27  1  0.069441  0.992742  0.672182  1
  Ru  Ru28  1  0.574401  0.750000  0.511413  1
  Ru  Ru29  1  0.425803  0.250000  0.488894  1
  Ru  Ru30  1  0.074299  0.250000  0.988729  1
  Ru  Ru31  1  0.925660  0.750000  0.012007  1
