# generated using pymatgen
data_Na14CaSn4
_symmetry_space_group_name_H-M   'P 1'
_cell_length_a   11.38983560
_cell_length_b   11.39584472
_cell_length_c   11.39242528
_cell_angle_alpha   109.55587349
_cell_angle_beta   109.29441940
_cell_angle_gamma   109.54667517
_symmetry_Int_Tables_number   1
_chemical_formula_structural   Na14CaSn4
_chemical_formula_sum   'Na28 Ca2 Sn8'
_cell_volume   1138.53277351
_cell_formula_units_Z   2
loop_
 _symmetry_equiv_pos_site_id
 _symmetry_equiv_pos_as_xyz
  1  'x, y, z'
loop_
 _atom_site_type_symbol
 _atom_site_label
 _atom_site_symmetry_multiplicity
 _atom_site_fract_x
 _atom_site_fract_y
 _atom_site_fract_z
 _atom_site_occupancy
  Na  Na0  1  0.751292  0.875703  0.125151  1
  Na  Na1  1  0.124179  0.750521  0.876229  1
  Na  Na2  1  0.373658  0.249479  0.625708  1
  Na  Na3  1  0.875589  0.124297  0.749448  1
  Na  Na4  1  0.079934  0.267246  0.107459  1
  Na  Na5  1  0.691953  0.030144  0.915919  1
  Na  Na6  1  0.882457  0.467586  0.153400  1
  Na  Na7  1  0.159240  0.892278  0.471319  1
  Na  Na8  1  0.338715  0.811850  0.730689  1
  Na  Na9  1  0.722449  0.335658  0.807741  1
  Na  Na10  1  0.029630  0.917035  0.692174  1
  Na  Na11  1  0.223763  0.307226  0.838904  1
  Na  Na12  1  0.191029  0.409468  0.532708  1
  Na  Na13  1  0.970518  0.384510  0.663201  1
  Na  Na14  1  0.308909  0.843823  0.220354  1
  Na  Na15  1  0.526865  0.188150  0.418840  1
  Na  Na16  1  0.386792  0.664342  0.972083  1
  Na  Na17  1  0.112597  0.082965  0.275140  1
  Na  Na18  1  0.266962  0.107722  0.079040  1
  Na  Na19  1  0.844568  0.219678  0.309386  1
  Na  Na20  1  0.414872  0.532414  0.185813  1
  Na  Na21  1  0.661809  0.969856  0.385774  1
  Na  Na22  1  0.624890  0.780322  0.589708  1
  Na  Na23  1  0.586007  0.615490  0.778690  1
  Na  Na24  1  0.781562  0.590532  0.623242  1
  Na  Na25  1  0.812689  0.732754  0.340213  1
  Na  Na26  1  0.916538  0.692774  0.031679  1
  Na  Na27  1  0.465086  0.156177  0.876532  1
  Ca  Ca28  1  0.624291  0.373341  0.248261  1
  Ca  Ca29  1  0.250950  0.626659  0.374920  1
  Sn  Sn30  1  0.420447  0.423830  0.413120  1
  Sn  Sn31  1  0.491440  0.987293  0.575202  1
  Sn  Sn32  1  0.583057  0.495362  0.006276  1
  Sn  Sn33  1  0.996617  0.576170  0.489290  1
  Sn  Sn34  1  0.087695  0.504638  0.010914  1
  Sn  Sn35  1  0.001123  0.085441  0.501502  1
  Sn  Sn36  1  0.504147  0.012707  0.087909  1
  Sn  Sn37  1  0.915682  0.914559  0.916061  1
