# generated using pymatgen
data_Nd2IrI
_symmetry_space_group_name_H-M   'P 1'
_cell_length_a   8.44773903
_cell_length_b   8.44773862
_cell_length_c   8.44773802
_cell_angle_alpha   29.13885590
_cell_angle_beta   29.13886180
_cell_angle_gamma   29.13885765
_symmetry_Int_Tables_number   1
_chemical_formula_structural   Nd2IrI
_chemical_formula_sum   'Nd2 Ir1 I1'
_cell_volume   126.45341124
_cell_formula_units_Z   1
loop_
 _symmetry_equiv_pos_site_id
 _symmetry_equiv_pos_as_xyz
  1  'x, y, z'
loop_
 _atom_site_type_symbol
 _atom_site_label
 _atom_site_symmetry_multiplicity
 _atom_site_fract_x
 _atom_site_fract_y
 _atom_site_fract_z
 _atom_site_occupancy
  Nd  Nd0  1  0.227137  0.227137  0.227137  1
  Nd  Nd1  1  0.772863  0.772863  0.772863  1
  Ir  Ir2  1  0.500000  0.500000  0.500000  1
  I  I3  1  0.000000  0.000000  0.000000  1
