# generated using pymatgen
data_Ti2GaRh5
_symmetry_space_group_name_H-M   'P 1'
_cell_length_a   4.02347500
_cell_length_b   5.39407400
_cell_length_c   10.65374700
_cell_angle_alpha   90.00000000
_cell_angle_beta   90.00000000
_cell_angle_gamma   90.00000000
_symmetry_Int_Tables_number   1
_chemical_formula_structural   Ti2GaRh5
_chemical_formula_sum   'Ti4 Ga2 Rh10'
_cell_volume   231.21743895
_cell_formula_units_Z   2
loop_
 _symmetry_equiv_pos_site_id
 _symmetry_equiv_pos_as_xyz
  1  'x, y, z'
loop_
 _atom_site_type_symbol
 _atom_site_label
 _atom_site_symmetry_multiplicity
 _atom_site_fract_x
 _atom_site_fract_y
 _atom_site_fract_z
 _atom_site_occupancy
  Ti  Ti0  1  0.500000  0.323081  0.139592  1
  Ti  Ti1  1  0.500000  0.676919  0.860408  1
  Ti  Ti2  1  0.500000  0.823081  0.360408  1
  Ti  Ti3  1  0.500000  0.176919  0.639592  1
  Ga  Ga4  1  0.000000  0.000000  0.000000  1
  Ga  Ga5  1  0.000000  0.500000  0.500000  1
  Rh  Rh6  1  0.000000  0.000000  0.500000  1
  Rh  Rh7  1  0.000000  0.500000  0.000000  1
  Rh  Rh8  1  0.000000  0.072857  0.245999  1
  Rh  Rh9  1  0.000000  0.927143  0.754001  1
  Rh  Rh10  1  0.000000  0.572857  0.254001  1
  Rh  Rh11  1  0.000000  0.427143  0.745999  1
  Rh  Rh12  1  0.500000  0.307804  0.387863  1
  Rh  Rh13  1  0.500000  0.692196  0.612137  1
  Rh  Rh14  1  0.500000  0.807804  0.112137  1
  Rh  Rh15  1  0.500000  0.192196  0.887863  1
