# generated using pymatgen
data_Er2Ga9Ir2Pd
_symmetry_space_group_name_H-M   'P 1'
_cell_length_a   7.60069757
_cell_length_b   7.60069805
_cell_length_c   9.46270400
_cell_angle_alpha   90.00000000
_cell_angle_beta   90.00000000
_cell_angle_gamma   119.81493172
_symmetry_Int_Tables_number   1
_chemical_formula_structural   Er2Ga9Ir2Pd
_chemical_formula_sum   'Er4 Ga18 Ir4 Pd2'
_cell_volume   474.30718692
_cell_formula_units_Z   2
loop_
 _symmetry_equiv_pos_site_id
 _symmetry_equiv_pos_as_xyz
  1  'x, y, z'
loop_
 _atom_site_type_symbol
 _atom_site_label
 _atom_site_symmetry_multiplicity
 _atom_site_fract_x
 _atom_site_fract_y
 _atom_site_fract_z
 _atom_site_occupancy
  Er  Er0  1  0.996858  0.668544  0.750000  1
  Er  Er1  1  0.003142  0.331456  0.250000  1
  Er  Er2  1  0.668544  0.996858  0.750000  1
  Er  Er3  1  0.331456  0.003142  0.250000  1
  Ga  Ga4  1  0.127591  0.127591  0.750000  1
  Ga  Ga5  1  0.872409  0.872409  0.250000  1
  Ga  Ga6  1  0.998652  0.336606  0.581738  1
  Ga  Ga7  1  0.001348  0.663394  0.418262  1
  Ga  Ga8  1  0.001348  0.663394  0.081738  1
  Ga  Ga9  1  0.336606  0.998652  0.918262  1
  Ga  Ga10  1  0.998652  0.336606  0.918262  1
  Ga  Ga11  1  0.663394  0.001348  0.081738  1
  Ga  Ga12  1  0.663394  0.001348  0.418262  1
  Ga  Ga13  1  0.336606  0.998652  0.581738  1
  Ga  Ga14  1  0.334346  0.334346  0.068230  1
  Ga  Ga15  1  0.665654  0.665654  0.931770  1
  Ga  Ga16  1  0.665654  0.665654  0.568230  1
  Ga  Ga17  1  0.334346  0.334346  0.431770  1
  Ga  Ga18  1  0.337727  0.546128  0.750000  1
  Ga  Ga19  1  0.662273  0.453872  0.250000  1
  Ga  Ga20  1  0.546128  0.337727  0.750000  1
  Ga  Ga21  1  0.453872  0.662273  0.250000  1
  Ir  Ir22  1  0.671631  0.328369  0.500000  1
  Ir  Ir23  1  0.328369  0.671631  0.500000  1
  Ir  Ir24  1  0.328369  0.671631  0.000000  1
  Ir  Ir25  1  0.671631  0.328369  0.000000  1
  Pd  Pd26  1  0.000000  0.000000  0.500000  1
  Pd  Pd27  1  0.000000  0.000000  0.000000  1
