# generated using pymatgen
data_SmPa3(GePt)4
_symmetry_space_group_name_H-M   'P 1'
_cell_length_a   4.43075400
_cell_length_b   7.09521962
_cell_length_c   7.65355475
_cell_angle_alpha   90.07740015
_cell_angle_beta   90.00000000
_cell_angle_gamma   90.00000000
_symmetry_Int_Tables_number   1
_chemical_formula_structural   SmPa3(GePt)4
_chemical_formula_sum   'Sm1 Pa3 Ge4 Pt4'
_cell_volume   240.60590282
_cell_formula_units_Z   1
loop_
 _symmetry_equiv_pos_site_id
 _symmetry_equiv_pos_as_xyz
  1  'x, y, z'
loop_
 _atom_site_type_symbol
 _atom_site_label
 _atom_site_symmetry_multiplicity
 _atom_site_fract_x
 _atom_site_fract_y
 _atom_site_fract_z
 _atom_site_occupancy
  Sm  Sm0  1  0.750000  0.495381  0.203742  1
  Pa  Pa1  1  0.750000  0.995619  0.295398  1
  Pa  Pa2  1  0.250000  0.006529  0.708210  1
  Pa  Pa3  1  0.250000  0.505532  0.790784  1
  Ge  Ge4  1  0.750000  0.805590  0.911678  1
  Ge  Ge5  1  0.250000  0.702499  0.410222  1
  Ge  Ge6  1  0.250000  0.193540  0.090303  1
  Ge  Ge7  1  0.750000  0.309375  0.589290  1
  Pt  Pt8  1  0.750000  0.201340  0.912828  1
  Pt  Pt9  1  0.250000  0.279756  0.422119  1
  Pt  Pt10  1  0.250000  0.790989  0.081206  1
  Pt  Pt11  1  0.750000  0.713849  0.584220  1
