# generated using pymatgen
data_Sc2B4Mo2Os3
_symmetry_space_group_name_H-M   'P 1'
_cell_length_a   8.76161704
_cell_length_b   3.07101400
_cell_length_c   10.01205105
_cell_angle_alpha   90.00000000
_cell_angle_beta   89.99984234
_cell_angle_gamma   90.00000000
_symmetry_Int_Tables_number   1
_chemical_formula_structural   Sc2B4Mo2Os3
_chemical_formula_sum   'Sc4 B8 Mo4 Os6'
_cell_volume   269.39474428
_cell_formula_units_Z   2
loop_
 _symmetry_equiv_pos_site_id
 _symmetry_equiv_pos_as_xyz
  1  'x, y, z'
loop_
 _atom_site_type_symbol
 _atom_site_label
 _atom_site_symmetry_multiplicity
 _atom_site_fract_x
 _atom_site_fract_y
 _atom_site_fract_z
 _atom_site_occupancy
  Sc  Sc0  1  0.164154  0.500000  0.681004  1
  Sc  Sc1  1  0.835846  0.500000  0.318996  1
  Sc  Sc2  1  0.664139  0.500000  0.818930  1
  Sc  Sc3  1  0.335861  0.500000  0.181070  1
  B  B4  1  0.354222  0.500000  0.898643  1
  B  B5  1  0.645778  0.500000  0.101357  1
  B  B6  1  0.466657  0.500000  0.586592  1
  B  B7  1  0.533343  0.500000  0.413408  1
  B  B8  1  0.854194  0.500000  0.601352  1
  B  B9  1  0.145806  0.500000  0.398648  1
  B  B10  1  0.966701  0.500000  0.913423  1
  B  B11  1  0.033299  0.500000  0.086577  1
  Mo  Mo12  1  0.163469  0.000000  0.952413  1
  Mo  Mo13  1  0.836531  0.000000  0.047587  1
  Mo  Mo14  1  0.663432  0.000000  0.547582  1
  Mo  Mo15  1  0.336568  0.000000  0.452418  1
  Os  Os16  1  0.411233  0.000000  0.738659  1
  Os  Os17  1  0.588767  0.000000  0.261341  1
  Os  Os18  1  0.911285  0.000000  0.761376  1
  Os  Os19  1  0.088715  0.000000  0.238624  1
  Os  Os20  1  0.500000  0.000000  0.000000  1
  Os  Os21  1  0.000000  0.000000  0.500000  1
