# generated using pymatgen
data_La3PrNd6(Sn5Rh2)4
_symmetry_space_group_name_H-M   'P 1'
_cell_length_a   14.31000643
_cell_length_b   14.31000643
_cell_length_c   4.63720600
_cell_angle_alpha   90.00000000
_cell_angle_beta   90.00000000
_cell_angle_gamma   90.02808333
_symmetry_Int_Tables_number   1
_chemical_formula_structural   La3PrNd6(Sn5Rh2)4
_chemical_formula_sum   'La3 Pr1 Nd6 Sn20 Rh8'
_cell_volume   949.58969884
_cell_formula_units_Z   1
loop_
 _symmetry_equiv_pos_site_id
 _symmetry_equiv_pos_as_xyz
  1  'x, y, z'
loop_
 _atom_site_type_symbol
 _atom_site_label
 _atom_site_symmetry_multiplicity
 _atom_site_fract_x
 _atom_site_fract_y
 _atom_site_fract_z
 _atom_site_occupancy
  La  La0  1  0.888989  0.389050  0.500000  1
  La  La1  1  0.110950  0.611011  0.500000  1
  La  La2  1  0.388557  0.111443  0.500000  1
  Pr  Pr3  1  0.611353  0.888647  0.500000  1
  Nd  Nd4  1  0.500062  0.500010  0.000000  1
  Nd  Nd5  1  0.999990  0.999938  0.000000  1
  Nd  Nd6  1  0.678176  0.178300  0.500000  1
  Nd  Nd7  1  0.321700  0.821824  0.500000  1
  Nd  Nd8  1  0.178091  0.321909  0.500000  1
  Nd  Nd9  1  0.821779  0.678221  0.500000  1
  Sn  Sn10  1  0.570567  0.069501  0.000000  1
  Sn  Sn11  1  0.430499  0.929433  0.000000  1
  Sn  Sn12  1  0.070336  0.429664  0.000000  1
  Sn  Sn13  1  0.929780  0.570220  0.000000  1
  Sn  Sn14  1  0.653434  0.698207  0.000000  1
  Sn  Sn15  1  0.346389  0.302387  0.000000  1
  Sn  Sn16  1  0.153682  0.802551  0.000000  1
  Sn  Sn17  1  0.846179  0.197424  0.000000  1
  Sn  Sn18  1  0.302576  0.653821  0.000000  1
  Sn  Sn19  1  0.697449  0.346318  0.000000  1
  Sn  Sn20  1  0.197613  0.153611  0.000000  1
  Sn  Sn21  1  0.801793  0.846566  0.000000  1
  Sn  Sn22  1  0.663421  0.504870  0.500000  1
  Sn  Sn23  1  0.336609  0.495104  0.500000  1
  Sn  Sn24  1  0.163311  0.995102  0.500000  1
  Sn  Sn25  1  0.836503  0.004763  0.500000  1
  Sn  Sn26  1  0.495237  0.663497  0.500000  1
  Sn  Sn27  1  0.504898  0.336689  0.500000  1
  Sn  Sn28  1  0.004896  0.163391  0.500000  1
  Sn  Sn29  1  0.995130  0.836579  0.500000  1
  Rh  Rh30  1  0.745605  0.528328  0.000000  1
  Rh  Rh31  1  0.254356  0.471840  0.000000  1
  Rh  Rh32  1  0.246077  0.971558  0.000000  1
  Rh  Rh33  1  0.754040  0.028301  0.000000  1
  Rh  Rh34  1  0.471699  0.745960  0.000000  1
  Rh  Rh35  1  0.528442  0.253923  0.000000  1
  Rh  Rh36  1  0.028160  0.245644  0.000000  1
  Rh  Rh37  1  0.971672  0.754395  0.000000  1
