# generated using pymatgen
data_Tb7Pr5(Er2Bi3)4
_symmetry_space_group_name_H-M   'P 1'
_cell_length_a   8.35643292
_cell_length_b   9.57131987
_cell_length_c   12.21951100
_cell_angle_alpha   90.06545905
_cell_angle_beta   89.91172269
_cell_angle_gamma   90.09677184
_symmetry_Int_Tables_number   1
_chemical_formula_structural   Tb7Pr5(Er2Bi3)4
_chemical_formula_sum   'Tb7 Pr5 Er8 Bi12'
_cell_volume   977.33886932
_cell_formula_units_Z   1
loop_
 _symmetry_equiv_pos_site_id
 _symmetry_equiv_pos_as_xyz
  1  'x, y, z'
loop_
 _atom_site_type_symbol
 _atom_site_label
 _atom_site_symmetry_multiplicity
 _atom_site_fract_x
 _atom_site_fract_y
 _atom_site_fract_z
 _atom_site_occupancy
  Tb  Tb0  1  0.193288  0.937906  0.439394  1
  Tb  Tb1  1  0.304567  0.062094  0.938475  1
  Tb  Tb2  1  0.807284  0.437746  0.560648  1
  Tb  Tb3  1  0.352418  0.750601  0.217383  1
  Tb  Tb4  1  0.854833  0.750369  0.283373  1
  Tb  Tb5  1  0.647354  0.251295  0.782705  1
  Tb  Tb6  1  0.147300  0.250557  0.716866  1
  Pr  Pr7  1  0.183438  0.750097  0.720229  1
  Pr  Pr8  1  0.683648  0.751002  0.779024  1
  Pr  Pr9  1  0.816080  0.249480  0.279335  1
  Pr  Pr10  1  0.317478  0.250299  0.220761  1
  Pr  Pr11  1  0.692683  0.560040  0.060578  1
  Er  Er12  1  0.024971  0.749881  0.987974  1
  Er  Er13  1  0.524607  0.750359  0.512319  1
  Er  Er14  1  0.975530  0.250473  0.011965  1
  Er  Er15  1  0.475503  0.250312  0.488771  1
  Er  Er16  1  0.308808  0.434605  0.940264  1
  Er  Er17  1  0.807404  0.065241  0.560029  1
  Er  Er18  1  0.692516  0.933589  0.060748  1
  Er  Er19  1  0.192219  0.565525  0.439773  1
  Bi  Bi20  1  0.434607  0.009071  0.670557  1
  Bi  Bi21  1  0.935844  0.491721  0.827946  1
  Bi  Bi22  1  0.564582  0.508484  0.331378  1
  Bi  Bi23  1  0.065259  0.992305  0.170544  1
  Bi  Bi24  1  0.565987  0.991562  0.330180  1
  Bi  Bi25  1  0.069458  0.508509  0.171278  1
  Bi  Bi26  1  0.433552  0.491894  0.670437  1
  Bi  Bi27  1  0.933884  0.009123  0.829408  1
  Bi  Bi28  1  0.402821  0.750310  0.961220  1
  Bi  Bi29  1  0.905947  0.752436  0.537469  1
  Bi  Bi30  1  0.592112  0.240666  0.036369  1
  Bi  Bi31  1  0.094017  0.252450  0.462603  1
