# generated using pymatgen
data_Eu2Er2Ga5Ni9
_symmetry_space_group_name_H-M   'P 1'
_cell_length_a   5.18561656
_cell_length_b   5.18561366
_cell_length_c   12.17603600
_cell_angle_alpha   77.70509199
_cell_angle_beta   77.70509896
_cell_angle_gamma   60.00001287
_symmetry_Int_Tables_number   1
_chemical_formula_structural   Eu2Er2Ga5Ni9
_chemical_formula_sum   'Eu2 Er2 Ga5 Ni9'
_cell_volume   274.84942092
_cell_formula_units_Z   1
loop_
 _symmetry_equiv_pos_site_id
 _symmetry_equiv_pos_as_xyz
  1  'x, y, z'
loop_
 _atom_site_type_symbol
 _atom_site_label
 _atom_site_symmetry_multiplicity
 _atom_site_fract_x
 _atom_site_fract_y
 _atom_site_fract_z
 _atom_site_occupancy
  Eu  Eu0  1  0.951177  0.951177  0.146471  1
  Eu  Eu1  1  0.048823  0.048823  0.853529  1
  Er  Er2  1  0.854101  0.854101  0.437694  1
  Er  Er3  1  0.145899  0.145899  0.562306  1
  Ga  Ga4  1  0.500000  0.500000  0.500000  1
  Ga  Ga5  1  0.722546  0.722546  0.832363  1
  Ga  Ga6  1  0.277454  0.277454  0.167637  1
  Ga  Ga7  1  0.610469  0.610469  0.168591  1
  Ga  Ga8  1  0.389531  0.389531  0.831409  1
  Ni  Ni9  1  0.000000  0.500000  0.000000  1
  Ni  Ni10  1  0.500000  0.000000  0.000000  1
  Ni  Ni11  1  0.500000  0.500000  0.000000  1
  Ni  Ni12  1  0.385815  0.385815  0.333854  1
  Ni  Ni13  1  0.894515  0.385815  0.333854  1
  Ni  Ni14  1  0.385815  0.894515  0.333854  1
  Ni  Ni15  1  0.614185  0.614185  0.666146  1
  Ni  Ni16  1  0.105485  0.614185  0.666146  1
  Ni  Ni17  1  0.614185  0.105485  0.666146  1
