# generated using pymatgen
data_Eu4MgNi
_symmetry_space_group_name_H-M   'P 1'
_cell_length_a   10.29622799
_cell_length_b   10.29622722
_cell_length_c   10.29622800
_cell_angle_alpha   59.99999748
_cell_angle_beta   59.99999997
_cell_angle_gamma   59.99999749
_symmetry_Int_Tables_number   1
_chemical_formula_structural   Eu4MgNi
_chemical_formula_sum   'Eu16 Mg4 Ni4'
_cell_volume   771.82600166
_cell_formula_units_Z   4
loop_
 _symmetry_equiv_pos_site_id
 _symmetry_equiv_pos_as_xyz
  1  'x, y, z'
loop_
 _atom_site_type_symbol
 _atom_site_label
 _atom_site_symmetry_multiplicity
 _atom_site_fract_x
 _atom_site_fract_y
 _atom_site_fract_z
 _atom_site_occupancy
  Eu  Eu0  1  0.691583  0.691583  0.308417  1
  Eu  Eu1  1  0.308417  0.691583  0.308417  1
  Eu  Eu2  1  0.691583  0.308417  0.308417  1
  Eu  Eu3  1  0.308417  0.308417  0.691583  1
  Eu  Eu4  1  0.691583  0.308417  0.691583  1
  Eu  Eu5  1  0.308417  0.691583  0.691583  1
  Eu  Eu6  1  0.060457  0.060457  0.439543  1
  Eu  Eu7  1  0.439543  0.060457  0.439543  1
  Eu  Eu8  1  0.060457  0.439543  0.439543  1
  Eu  Eu9  1  0.439543  0.439543  0.060457  1
  Eu  Eu10  1  0.060457  0.439543  0.060457  1
  Eu  Eu11  1  0.439543  0.060457  0.060457  1
  Eu  Eu12  1  0.906603  0.906603  0.280193  1
  Eu  Eu13  1  0.906603  0.280193  0.906603  1
  Eu  Eu14  1  0.280193  0.906603  0.906603  1
  Eu  Eu15  1  0.906603  0.906603  0.906603  1
  Mg  Mg16  1  0.672437  0.672437  0.982691  1
  Mg  Mg17  1  0.672437  0.982691  0.672437  1
  Mg  Mg18  1  0.982691  0.672437  0.672437  1
  Mg  Mg19  1  0.672437  0.672437  0.672437  1
  Ni  Ni20  1  0.109461  0.109461  0.671615  1
  Ni  Ni21  1  0.109461  0.671615  0.109461  1
  Ni  Ni22  1  0.671615  0.109461  0.109461  1
  Ni  Ni23  1  0.109461  0.109461  0.109461  1
