# generated using pymatgen
data_Ho14Th2Mg3Ni4Hg
_symmetry_space_group_name_H-M   'P 1'
_cell_length_a   9.55827547
_cell_length_b   9.61307238
_cell_length_c   9.62831400
_cell_angle_alpha   59.94753789
_cell_angle_beta   59.75730984
_cell_angle_gamma   59.68271626
_symmetry_Int_Tables_number   1
_chemical_formula_structural   Ho14Th2Mg3Ni4Hg
_chemical_formula_sum   'Ho14 Th2 Mg3 Ni4 Hg1'
_cell_volume   622.66529835
_cell_formula_units_Z   1
loop_
 _symmetry_equiv_pos_site_id
 _symmetry_equiv_pos_as_xyz
  1  'x, y, z'
loop_
 _atom_site_type_symbol
 _atom_site_label
 _atom_site_symmetry_multiplicity
 _atom_site_fract_x
 _atom_site_fract_y
 _atom_site_fract_z
 _atom_site_occupancy
  Ho  Ho0  1  0.347026  0.954363  0.349305  1
  Ho  Ho1  1  0.956700  0.346569  0.348365  1
  Ho  Ho2  1  0.813274  0.188368  0.186545  1
  Ho  Ho3  1  0.189978  0.812064  0.811069  1
  Ho  Ho4  1  0.189978  0.812064  0.186888  1
  Ho  Ho5  1  0.813274  0.188368  0.811811  1
  Ho  Ho6  1  0.189880  0.187700  0.811211  1
  Ho  Ho7  1  0.812423  0.813280  0.187148  1
  Ho  Ho8  1  0.939089  0.565009  0.565503  1
  Ho  Ho9  1  0.567498  0.935869  0.930412  1
  Ho  Ho10  1  0.567498  0.935869  0.566220  1
  Ho  Ho11  1  0.939089  0.565009  0.930398  1
  Ho  Ho12  1  0.566584  0.565474  0.933971  1
  Ho  Ho13  1  0.939234  0.932987  0.563890  1
  Th  Th14  1  0.344463  0.341709  0.349409  1
  Th  Th15  1  0.344463  0.341709  0.964418  1
  Mg  Mg16  1  0.574141  0.580858  0.580233  1
  Mg  Mg17  1  0.574141  0.580858  0.264770  1
  Mg  Mg18  1  0.575389  0.264118  0.580247  1
  Ni  Ni19  1  0.143087  0.143473  0.140983  1
  Ni  Ni20  1  0.143087  0.143473  0.572456  1
  Ni  Ni21  1  0.147263  0.570030  0.141353  1
  Ni  Ni22  1  0.572618  0.144463  0.141459  1
  Hg  Hg23  1  0.249827  0.586315  0.581930  1
