# generated using pymatgen
data_Tm3Lu(Zn2In)2
_symmetry_space_group_name_H-M   'P 1'
_cell_length_a   7.33218594
_cell_length_b   7.33218594
_cell_length_c   4.10342000
_cell_angle_alpha   90.00000000
_cell_angle_beta   90.00000000
_cell_angle_gamma   89.91654345
_symmetry_Int_Tables_number   1
_chemical_formula_structural   Tm3Lu(Zn2In)2
_chemical_formula_sum   'Tm3 Lu1 Zn4 In2'
_cell_volume   220.60352640
_cell_formula_units_Z   1
loop_
 _symmetry_equiv_pos_site_id
 _symmetry_equiv_pos_as_xyz
  1  'x, y, z'
loop_
 _atom_site_type_symbol
 _atom_site_label
 _atom_site_symmetry_multiplicity
 _atom_site_fract_x
 _atom_site_fract_y
 _atom_site_fract_z
 _atom_site_occupancy
  Tm  Tm0  1  0.329638  0.170361  0.500000  1
  Tm  Tm1  1  0.829513  0.329544  0.500000  1
  Tm  Tm2  1  0.170455  0.670486  0.500000  1
  Lu  Lu3  1  0.670379  0.829620  0.500000  1
  Zn  Zn4  1  0.624155  0.123863  0.000000  1
  Zn  Zn5  1  0.124082  0.375917  0.000000  1
  Zn  Zn6  1  0.875667  0.624333  0.000000  1
  Zn  Zn7  1  0.376136  0.875845  0.000000  1
  In  In8  1  0.999927  0.999956  0.000000  1
  In  In9  1  0.500044  0.500073  0.000000  1
