# generated using pymatgen
data_Nb10Si5Sn
_symmetry_space_group_name_H-M   'P 1'
_cell_length_a   7.65312592
_cell_length_b   7.65312517
_cell_length_c   7.65312586
_cell_angle_alpha   128.02146038
_cell_angle_beta   128.02145515
_cell_angle_gamma   76.59026477
_symmetry_Int_Tables_number   1
_chemical_formula_structural   Nb10Si5Sn
_chemical_formula_sum   'Nb10 Si5 Sn1'
_cell_volume   270.21032802
_cell_formula_units_Z   1
loop_
 _symmetry_equiv_pos_site_id
 _symmetry_equiv_pos_as_xyz
  1  'x, y, z'
loop_
 _atom_site_type_symbol
 _atom_site_label
 _atom_site_symmetry_multiplicity
 _atom_site_fract_x
 _atom_site_fract_y
 _atom_site_fract_z
 _atom_site_occupancy
  Nb  Nb0  1  0.802916  0.318634  0.828846  1
  Nb  Nb1  1  0.489787  0.974070  0.171154  1
  Nb  Nb2  1  0.697083  0.525930  0.515717  1
  Nb  Nb3  1  0.010213  0.181366  0.484283  1
  Nb  Nb4  1  0.181366  0.697083  0.171154  1
  Nb  Nb5  1  0.525928  0.010213  0.828846  1
  Nb  Nb6  1  0.974071  0.802918  0.484283  1
  Nb  Nb7  1  0.318634  0.489788  0.515717  1
  Nb  Nb8  1  0.997971  0.997971  0.000000  1
  Nb  Nb9  1  0.502029  0.502029  0.000000  1
  Si  Si10  1  0.750000  0.750000  0.000000  1
  Si  Si11  1  0.870107  0.370107  0.240215  1
  Si  Si12  1  0.129893  0.629893  0.759785  1
  Si  Si13  1  0.629892  0.870107  0.500000  1
  Si  Si14  1  0.370109  0.129893  0.500000  1
  Sn  Sn15  1  0.250000  0.250000  0.000000  1
