# generated using pymatgen
data_Yb2Fe2Ge2N
_symmetry_space_group_name_H-M   'P 1'
_cell_length_a   5.70577212
_cell_length_b   5.70577226
_cell_length_c   6.85387779
_cell_angle_alpha   126.24337837
_cell_angle_beta   126.24338021
_cell_angle_gamma   40.33697559
_symmetry_Int_Tables_number   1
_chemical_formula_structural   Yb2Fe2Ge2N
_chemical_formula_sum   'Yb2 Fe2 Ge2 N1'
_cell_volume   112.18313025
_cell_formula_units_Z   1
loop_
 _symmetry_equiv_pos_site_id
 _symmetry_equiv_pos_as_xyz
  1  'x, y, z'
loop_
 _atom_site_type_symbol
 _atom_site_label
 _atom_site_symmetry_multiplicity
 _atom_site_fract_x
 _atom_site_fract_y
 _atom_site_fract_z
 _atom_site_occupancy
  Yb  Yb0  1  0.555451  0.555451  0.281808  1
  Yb  Yb1  1  0.444549  0.444549  0.718192  1
  Fe  Fe2  1  0.191148  0.191148  0.086557  1
  Fe  Fe3  1  0.808851  0.808851  0.913443  1
  Ge  Ge4  1  0.837278  0.837278  0.285787  1
  Ge  Ge5  1  0.162721  0.162721  0.714213  1
  N  N6  1  0.000000  0.000000  0.000000  1
