# generated using pymatgen
data_Dy2Si14Ir5Pt
_symmetry_space_group_name_H-M   'P 1'
_cell_length_a   8.03401914
_cell_length_b   8.03401972
_cell_length_c   8.04432198
_cell_angle_alpha   57.03105304
_cell_angle_beta   57.03104206
_cell_angle_gamma   56.89114133
_symmetry_Int_Tables_number   1
_chemical_formula_structural   Dy2Si14Ir5Pt
_chemical_formula_sum   'Dy2 Si14 Ir5 Pt1'
_cell_volume   341.61505300
_cell_formula_units_Z   1
loop_
 _symmetry_equiv_pos_site_id
 _symmetry_equiv_pos_as_xyz
  1  'x, y, z'
loop_
 _atom_site_type_symbol
 _atom_site_label
 _atom_site_symmetry_multiplicity
 _atom_site_fract_x
 _atom_site_fract_y
 _atom_site_fract_z
 _atom_site_occupancy
  Dy  Dy0  1  0.998898  0.999888  0.002283  1
  Dy  Dy1  1  0.500112  0.501102  0.497717  1
  Si  Si2  1  0.746072  0.753928  0.750000  1
  Si  Si3  1  0.250515  0.249485  0.250000  1
  Si  Si4  1  0.851844  0.066739  0.671692  1
  Si  Si5  1  0.672511  0.851774  0.065141  1
  Si  Si6  1  0.062562  0.677148  0.853477  1
  Si  Si7  1  0.648226  0.827489  0.434859  1
  Si  Si8  1  0.433261  0.648156  0.828308  1
  Si  Si9  1  0.822852  0.437438  0.646523  1
  Si  Si10  1  0.177444  0.564371  0.343632  1
  Si  Si11  1  0.569917  0.350941  0.169629  1
  Si  Si12  1  0.354721  0.169682  0.564552  1
  Si  Si13  1  0.935629  0.322556  0.156368  1
  Si  Si14  1  0.330318  0.145279  0.935448  1
  Si  Si15  1  0.149059  0.930083  0.330371  1
  Ir  Ir16  1  0.249527  0.930409  0.570438  1
  Ir  Ir17  1  0.569591  0.250473  0.929562  1
  Ir  Ir18  1  0.928692  0.571308  0.250000  1
  Ir  Ir19  1  0.431653  0.750572  0.067960  1
  Ir  Ir20  1  0.749428  0.068347  0.432040  1
  Pt  Pt21  1  0.067167  0.432833  0.750000  1
