# generated using pymatgen
data_Sc16Re3Si16W
_symmetry_space_group_name_H-M   'P 1'
_cell_length_a   6.70340236
_cell_length_b   7.01189205
_cell_length_c   13.23217800
_cell_angle_alpha   90.00000000
_cell_angle_beta   90.00000000
_cell_angle_gamma   89.93755427
_symmetry_Int_Tables_number   1
_chemical_formula_structural   Sc16Re3Si16W
_chemical_formula_sum   'Sc16 Re3 Si16 W1'
_cell_volume   621.95875500
_cell_formula_units_Z   1
loop_
 _symmetry_equiv_pos_site_id
 _symmetry_equiv_pos_as_xyz
  1  'x, y, z'
loop_
 _atom_site_type_symbol
 _atom_site_label
 _atom_site_symmetry_multiplicity
 _atom_site_fract_x
 _atom_site_fract_y
 _atom_site_fract_z
 _atom_site_occupancy
  Sc  Sc0  1  0.991718  0.677908  0.593872  1
  Sc  Sc1  1  0.007141  0.320772  0.404895  1
  Sc  Sc2  1  0.507838  0.181590  0.405827  1
  Sc  Sc3  1  0.007141  0.320772  0.095105  1
  Sc  Sc4  1  0.489764  0.819493  0.594544  1
  Sc  Sc5  1  0.991718  0.677908  0.906128  1
  Sc  Sc6  1  0.489764  0.819493  0.905456  1
  Sc  Sc7  1  0.507838  0.181590  0.094173  1
  Sc  Sc8  1  0.326280  0.329552  0.626239  1
  Sc  Sc9  1  0.676160  0.669239  0.374115  1
  Sc  Sc10  1  0.177743  0.833057  0.372932  1
  Sc  Sc11  1  0.676160  0.669239  0.125885  1
  Sc  Sc12  1  0.821549  0.168456  0.625823  1
  Sc  Sc13  1  0.326280  0.329552  0.873761  1
  Sc  Sc14  1  0.821549  0.168456  0.874177  1
  Sc  Sc15  1  0.177743  0.833057  0.127068  1
  Re  Re16  1  0.852305  0.003449  0.250000  1
  Re  Re17  1  0.351223  0.500366  0.250000  1
  Re  Re18  1  0.649532  0.501485  0.750000  1
  Si  Si19  1  0.015666  0.402167  0.750000  1
  Si  Si20  1  0.985735  0.595448  0.250000  1
  Si  Si21  1  0.488060  0.907834  0.250000  1
  Si  Si22  1  0.515911  0.092693  0.750000  1
  Si  Si23  1  0.285680  0.645351  0.750000  1
  Si  Si24  1  0.714953  0.352407  0.250000  1
  Si  Si25  1  0.216195  0.150717  0.250000  1
  Si  Si26  1  0.784851  0.849682  0.750000  1
  Si  Si27  1  0.160285  0.026864  0.545817  1
  Si  Si28  1  0.839359  0.973334  0.453082  1
  Si  Si29  1  0.335296  0.529386  0.454145  1
  Si  Si30  1  0.839359  0.973334  0.046918  1
  Si  Si31  1  0.662687  0.471624  0.546274  1
  Si  Si32  1  0.160285  0.026864  0.954183  1
  Si  Si33  1  0.662687  0.471624  0.953726  1
  Si  Si34  1  0.335296  0.529386  0.045855  1
  W  W35  1  0.148248  0.995849  0.750000  1
