# generated using pymatgen
data_Ba2Ga2Cl
_symmetry_space_group_name_H-M   'P 1'
_cell_length_a   4.47591700
_cell_length_b   4.47591740
_cell_length_c   18.35942100
_cell_angle_alpha   90.00000000
_cell_angle_beta   90.00000000
_cell_angle_gamma   120.00000444
_symmetry_Int_Tables_number   1
_chemical_formula_structural   Ba2Ga2Cl
_chemical_formula_sum   'Ba4 Ga4 Cl2'
_cell_volume   318.53244914
_cell_formula_units_Z   2
loop_
 _symmetry_equiv_pos_site_id
 _symmetry_equiv_pos_as_xyz
  1  'x, y, z'
loop_
 _atom_site_type_symbol
 _atom_site_label
 _atom_site_symmetry_multiplicity
 _atom_site_fract_x
 _atom_site_fract_y
 _atom_site_fract_z
 _atom_site_occupancy
  Ba  Ba0  1  0.000000  0.000000  0.127891  1
  Ba  Ba1  1  0.000000  0.000000  0.372109  1
  Ba  Ba2  1  0.000000  0.000000  0.627891  1
  Ba  Ba3  1  0.000000  0.000000  0.872109  1
  Ga  Ga4  1  0.333333  0.666666  0.000229  1
  Ga  Ga5  1  0.333333  0.666666  0.499771  1
  Ga  Ga6  1  0.666668  0.333334  0.500229  1
  Ga  Ga7  1  0.666668  0.333334  0.999771  1
  Cl  Cl8  1  0.666668  0.333334  0.250000  1
  Cl  Cl9  1  0.333333  0.666666  0.750000  1
