# generated using pymatgen
data_Tb3LuSc3AlPt4
_symmetry_space_group_name_H-M   'P 1'
_cell_length_a   4.51708700
_cell_length_b   7.00605005
_cell_length_c   8.28716835
_cell_angle_alpha   86.85443908
_cell_angle_beta   90.00000000
_cell_angle_gamma   90.00000000
_symmetry_Int_Tables_number   1
_chemical_formula_structural   Tb3LuSc3AlPt4
_chemical_formula_sum   'Tb3 Lu1 Sc3 Al1 Pt4'
_cell_volume   261.86836081
_cell_formula_units_Z   1
loop_
 _symmetry_equiv_pos_site_id
 _symmetry_equiv_pos_as_xyz
  1  'x, y, z'
loop_
 _atom_site_type_symbol
 _atom_site_label
 _atom_site_symmetry_multiplicity
 _atom_site_fract_x
 _atom_site_fract_y
 _atom_site_fract_z
 _atom_site_occupancy
  Tb  Tb0  1  0.250000  0.040473  0.672774  1
  Tb  Tb1  1  0.250000  0.519900  0.814925  1
  Tb  Tb2  1  0.750000  0.989994  0.340098  1
  Lu  Lu3  1  0.750000  0.466924  0.182820  1
  Sc  Sc4  1  0.250000  0.132610  0.070964  1
  Sc  Sc5  1  0.250000  0.641408  0.433426  1
  Sc  Sc6  1  0.750000  0.859936  0.931293  1
  Al  Al7  1  0.750000  0.363189  0.565888  1
  Pt  Pt8  1  0.250000  0.267119  0.382266  1
  Pt  Pt9  1  0.250000  0.741147  0.101959  1
  Pt  Pt10  1  0.750000  0.732637  0.615550  1
  Pt  Pt11  1  0.750000  0.244666  0.888038  1
