# generated using pymatgen
data_Y9HoIr5Au
_symmetry_space_group_name_H-M   'P 1'
_cell_length_a   11.08956134
_cell_length_b   11.02076100
_cell_length_c   6.35591312
_cell_angle_alpha   90.00000000
_cell_angle_beta   89.86178261
_cell_angle_gamma   90.00000000
_symmetry_Int_Tables_number   1
_chemical_formula_structural   Y9HoIr5Au
_chemical_formula_sum   'Y18 Ho2 Ir10 Au2'
_cell_volume   776.78823632
_cell_formula_units_Z   2
loop_
 _symmetry_equiv_pos_site_id
 _symmetry_equiv_pos_as_xyz
  1  'x, y, z'
loop_
 _atom_site_type_symbol
 _atom_site_label
 _atom_site_symmetry_multiplicity
 _atom_site_fract_x
 _atom_site_fract_y
 _atom_site_fract_z
 _atom_site_occupancy
  Y  Y0  1  0.292124  0.088395  0.371959  1
  Y  Y1  1  0.292124  0.911605  0.871959  1
  Y  Y2  1  0.698229  0.092294  0.865694  1
  Y  Y3  1  0.698229  0.907706  0.365694  1
  Y  Y4  1  0.578104  0.789270  0.876951  1
  Y  Y5  1  0.578104  0.210730  0.376951  1
  Y  Y6  1  0.408200  0.790675  0.376798  1
  Y  Y7  1  0.408200  0.209325  0.876798  1
  Y  Y8  1  0.209942  0.411178  0.621454  1
  Y  Y9  1  0.209942  0.588822  0.121454  1
  Y  Y10  1  0.788894  0.419557  0.123515  1
  Y  Y11  1  0.788894  0.580443  0.623515  1
  Y  Y12  1  0.917382  0.705361  0.138891  1
  Y  Y13  1  0.917382  0.294639  0.638891  1
  Y  Y14  1  0.096110  0.702684  0.624330  1
  Y  Y15  1  0.096110  0.297316  0.124330  1
  Y  Y16  1  0.009445  0.997364  0.499798  1
  Y  Y17  1  0.009445  0.002636  0.999798  1
  Ho  Ho18  1  0.499748  0.498761  0.000727  1
  Ho  Ho19  1  0.499748  0.501239  0.500727  1
  Ir  Ir20  1  0.154110  0.154135  0.750066  1
  Ir  Ir21  1  0.154110  0.845865  0.250066  1
  Ir  Ir22  1  0.654984  0.346729  0.748077  1
  Ir  Ir23  1  0.654984  0.653271  0.248077  1
  Ir  Ir24  1  0.347961  0.346875  0.251568  1
  Ir  Ir25  1  0.347961  0.653125  0.751568  1
  Ir  Ir26  1  0.499735  0.999812  0.121453  1
  Ir  Ir27  1  0.499735  0.000188  0.621453  1
  Ir  Ir28  1  0.999755  0.500968  0.878387  1
  Ir  Ir29  1  0.999755  0.499032  0.378387  1
  Au  Au30  1  0.845276  0.154987  0.250333  1
  Au  Au31  1  0.845276  0.845013  0.750333  1
