# generated using pymatgen
data_Tb2TmZr(Al3Rh)6
_symmetry_space_group_name_H-M   'P 1'
_cell_length_a   7.53872237
_cell_length_b   7.52575954
_cell_length_c   9.41313800
_cell_angle_alpha   90.00000000
_cell_angle_beta   90.00000000
_cell_angle_gamma   119.47230734
_symmetry_Int_Tables_number   1
_chemical_formula_structural   Tb2TmZr(Al3Rh)6
_chemical_formula_sum   'Tb2 Tm1 Zr1 Al18 Rh6'
_cell_volume   464.94114625
_cell_formula_units_Z   1
loop_
 _symmetry_equiv_pos_site_id
 _symmetry_equiv_pos_as_xyz
  1  'x, y, z'
loop_
 _atom_site_type_symbol
 _atom_site_label
 _atom_site_symmetry_multiplicity
 _atom_site_fract_x
 _atom_site_fract_y
 _atom_site_fract_z
 _atom_site_occupancy
  Tb  Tb0  1  0.006094  0.327293  0.750000  1
  Tb  Tb1  1  0.328534  0.006564  0.750000  1
  Tm  Tm2  1  0.672444  0.995935  0.250000  1
  Zr  Zr3  1  0.996263  0.672100  0.250000  1
  Al  Al4  1  0.123697  0.121377  0.250000  1
  Al  Al5  1  0.870173  0.869014  0.750000  1
  Al  Al6  1  0.999695  0.338371  0.080805  1
  Al  Al7  1  0.999075  0.664764  0.929384  1
  Al  Al8  1  0.999075  0.664764  0.570616  1
  Al  Al9  1  0.332675  0.997476  0.419141  1
  Al  Al10  1  0.999695  0.338371  0.419195  1
  Al  Al11  1  0.664177  0.997858  0.573777  1
  Al  Al12  1  0.664177  0.997858  0.926223  1
  Al  Al13  1  0.332675  0.997476  0.080859  1
  Al  Al14  1  0.334115  0.334195  0.546649  1
  Al  Al15  1  0.669805  0.667902  0.443166  1
  Al  Al16  1  0.669805  0.667902  0.056834  1
  Al  Al17  1  0.334115  0.334195  0.953351  1
  Al  Al18  1  0.336633  0.552472  0.250000  1
  Al  Al19  1  0.660793  0.451219  0.750000  1
  Al  Al20  1  0.557382  0.344084  0.250000  1
  Al  Al21  1  0.449878  0.659053  0.750000  1
  Rh  Rh22  1  0.672936  0.328143  0.001779  1
  Rh  Rh23  1  0.327945  0.672929  0.002386  1
  Rh  Rh24  1  0.327945  0.672929  0.497614  1
  Rh  Rh25  1  0.672936  0.328143  0.498221  1
  Rh  Rh26  1  0.998634  0.998805  0.001894  1
  Rh  Rh27  1  0.998634  0.998805  0.498106  1
