# generated using pymatgen
data_Ti4MnAlTc2
_symmetry_space_group_name_H-M   'P 1'
_cell_length_a   6.22819000
_cell_length_b   4.35410800
_cell_length_c   8.74081500
_cell_angle_alpha   90.00000000
_cell_angle_beta   90.00024678
_cell_angle_gamma   90.00000000
_symmetry_Int_Tables_number   1
_chemical_formula_structural   Ti4MnAlTc2
_chemical_formula_sum   'Ti8 Mn2 Al2 Tc4'
_cell_volume   237.03527339
_cell_formula_units_Z   2
loop_
 _symmetry_equiv_pos_site_id
 _symmetry_equiv_pos_as_xyz
  1  'x, y, z'
loop_
 _atom_site_type_symbol
 _atom_site_label
 _atom_site_symmetry_multiplicity
 _atom_site_fract_x
 _atom_site_fract_y
 _atom_site_fract_z
 _atom_site_occupancy
  Ti  Ti0  1  0.991324  0.750001  0.134298  1
  Ti  Ti1  1  0.508663  0.750001  0.134304  1
  Ti  Ti2  1  0.008646  0.250001  0.365663  1
  Ti  Ti3  1  0.491346  0.250001  0.365667  1
  Ti  Ti4  1  0.486081  0.750001  0.611767  1
  Ti  Ti5  1  0.013936  0.750001  0.611763  1
  Ti  Ti6  1  0.513906  0.250001  0.888255  1
  Ti  Ti7  1  0.986097  0.250001  0.888254  1
  Mn  Mn8  1  0.749981  0.250001  0.126571  1
  Mn  Mn9  1  0.250005  0.750001  0.373417  1
  Al  Al10  1  0.749981  0.250001  0.622684  1
  Al  Al11  1  0.250031  0.750001  0.877348  1
  Tc  Tc12  1  0.250013  0.250001  0.118776  1
  Tc  Tc13  1  0.749983  0.750001  0.381201  1
  Tc  Tc14  1  0.250034  0.250001  0.630135  1
  Tc  Tc15  1  0.749973  0.750001  0.869898  1
