# generated using pymatgen
data_Sr4Tm3Lu5Se16
_symmetry_space_group_name_H-M   'P 1'
_cell_length_a   4.09597500
_cell_length_b   12.53945309
_cell_length_c   14.80351510
_cell_angle_alpha   89.98637076
_cell_angle_beta   90.00000000
_cell_angle_gamma   90.00000000
_symmetry_Int_Tables_number   1
_chemical_formula_structural   Sr4Tm3Lu5Se16
_chemical_formula_sum   'Sr4 Tm3 Lu5 Se16'
_cell_volume   760.32755699
_cell_formula_units_Z   1
loop_
 _symmetry_equiv_pos_site_id
 _symmetry_equiv_pos_as_xyz
  1  'x, y, z'
loop_
 _atom_site_type_symbol
 _atom_site_label
 _atom_site_symmetry_multiplicity
 _atom_site_fract_x
 _atom_site_fract_y
 _atom_site_fract_z
 _atom_site_occupancy
  Sr  Sr0  1  0.250000  0.759969  0.333736  1
  Sr  Sr1  1  0.250000  0.260009  0.166219  1
  Sr  Sr2  1  0.750000  0.239911  0.666329  1
  Sr  Sr3  1  0.750000  0.740060  0.833744  1
  Tm  Tm4  1  0.250000  0.439085  0.389179  1
  Tm  Tm5  1  0.250000  0.939101  0.110767  1
  Tm  Tm6  1  0.750000  0.560912  0.610806  1
  Lu  Lu7  1  0.750000  0.060710  0.889093  1
  Lu  Lu8  1  0.250000  0.417224  0.902630  1
  Lu  Lu9  1  0.250000  0.917302  0.597503  1
  Lu  Lu10  1  0.750000  0.582708  0.097385  1
  Lu  Lu11  1  0.750000  0.082723  0.402628  1
  Se  Se12  1  0.250000  0.204547  0.831930  1
  Se  Se13  1  0.250000  0.705177  0.668428  1
  Se  Se14  1  0.750000  0.794807  0.168426  1
  Se  Se15  1  0.750000  0.294813  0.331563  1
  Se  Se16  1  0.250000  0.127616  0.530173  1
  Se  Se17  1  0.250000  0.627642  0.969816  1
  Se  Se18  1  0.750000  0.872408  0.469867  1
  Se  Se19  1  0.750000  0.372412  0.030184  1
  Se  Se20  1  0.250000  0.028475  0.285038  1
  Se  Se21  1  0.250000  0.528462  0.214931  1
  Se  Se22  1  0.750000  0.971767  0.715331  1
  Se  Se23  1  0.750000  0.471501  0.785055  1
  Se  Se24  1  0.250000  0.409212  0.576681  1
  Se  Se25  1  0.250000  0.909895  0.923159  1
  Se  Se26  1  0.750000  0.590782  0.423300  1
  Se  Se27  1  0.750000  0.090768  0.076099  1
