# generated using pymatgen
data_Sc2Mn7Nb2Cr
_symmetry_space_group_name_H-M   'P 1'
_cell_length_a   4.92368500
_cell_length_b   4.82128501
_cell_length_c   8.07701622
_cell_angle_alpha   90.02280155
_cell_angle_beta   90.00000000
_cell_angle_gamma   120.70511498
_symmetry_Int_Tables_number   1
_chemical_formula_structural   Sc2Mn7Nb2Cr
_chemical_formula_sum   'Sc2 Mn7 Nb2 Cr1'
_cell_volume   164.85601395
_cell_formula_units_Z   1
loop_
 _symmetry_equiv_pos_site_id
 _symmetry_equiv_pos_as_xyz
  1  'x, y, z'
loop_
 _atom_site_type_symbol
 _atom_site_label
 _atom_site_symmetry_multiplicity
 _atom_site_fract_x
 _atom_site_fract_y
 _atom_site_fract_z
 _atom_site_occupancy
  Sc  Sc0  1  0.333727  0.667454  0.436688  1
  Sc  Sc1  1  0.667298  0.334596  0.938676  1
  Mn  Mn2  1  0.832276  0.174971  0.249783  1
  Mn  Mn3  1  0.342695  0.174971  0.249783  1
  Mn  Mn4  1  0.658027  0.826733  0.749601  1
  Mn  Mn5  1  0.000200  0.000400  0.002647  1
  Mn  Mn6  1  0.998960  0.997919  0.496003  1
  Mn  Mn7  1  0.830532  0.661065  0.249963  1
  Mn  Mn8  1  0.168706  0.826733  0.749601  1
  Nb  Nb9  1  0.667557  0.335113  0.563294  1
  Nb  Nb10  1  0.333306  0.666613  0.063878  1
  Cr  Cr11  1  0.166715  0.333430  0.750082  1
