# generated using pymatgen
data_Yb3V4(PO4)6
_symmetry_space_group_name_H-M   'P 1'
_cell_length_a   6.53283873
_cell_length_b   8.85756559
_cell_length_c   8.99728300
_cell_angle_alpha   89.86731722
_cell_angle_beta   107.72832331
_cell_angle_gamma   107.49775310
_symmetry_Int_Tables_number   1
_chemical_formula_structural   Yb3V4(PO4)6
_chemical_formula_sum   'Yb3 V4 P6 O24'
_cell_volume   470.67051244
_cell_formula_units_Z   1
loop_
 _symmetry_equiv_pos_site_id
 _symmetry_equiv_pos_as_xyz
  1  'x, y, z'
loop_
 _atom_site_type_symbol
 _atom_site_label
 _atom_site_symmetry_multiplicity
 _atom_site_fract_x
 _atom_site_fract_y
 _atom_site_fract_z
 _atom_site_occupancy
  Yb  Yb0  1  0.263834  0.753927  0.250134  1
  Yb  Yb1  1  0.748453  0.246136  0.754993  1
  Yb  Yb2  1  0.027231  0.987834  0.982559  1
  V  V3  1  0.135030  0.880175  0.568574  1
  V  V4  1  0.364704  0.432970  0.116735  1
  V  V5  1  0.860718  0.118714  0.428712  1
  V  V6  1  0.637668  0.564979  0.884567  1
  P  P7  1  0.242486  0.222738  0.772802  1
  P  P8  1  0.756684  0.780139  0.223606  1
  P  P9  1  0.355572  0.142990  0.357759  1
  P  P10  1  0.138857  0.646835  0.860165  1
  P  P11  1  0.643015  0.856038  0.642688  1
  P  P12  1  0.865603  0.350927  0.138590  1
  O  O13  1  0.255307  0.051704  0.760547  1
  O  O14  1  0.210044  0.246893  0.935361  1
  O  O15  1  0.721153  0.941788  0.246047  1
  O  O16  1  0.791216  0.761029  0.060991  1
  O  O17  1  0.972439  0.764104  0.349487  1
  O  O18  1  0.542706  0.648346  0.235418  1
  O  O19  1  0.029781  0.241023  0.646163  1
  O  O20  1  0.461170  0.346853  0.760132  1
  O  O21  1  0.145462  0.708161  0.701167  1
  O  O22  1  0.352079  0.302033  0.289883  1
  O  O23  1  0.853448  0.291608  0.297877  1
  O  O24  1  0.651370  0.697942  0.712067  1
  O  O25  1  0.408359  0.837255  0.521585  1
  O  O26  1  0.095392  0.485103  0.162367  1
  O  O27  1  0.589019  0.159110  0.479336  1
  O  O28  1  0.909151  0.515335  0.840022  1
  O  O29  1  0.284529  0.013478  0.223073  1
  O  O30  1  0.178800  0.781517  0.982039  1
  O  O31  1  0.713047  0.985629  0.776784  1
  O  O32  1  0.828909  0.217167  0.018418  1
  O  O33  1  0.178829  0.091811  0.450803  1
  O  O34  1  0.329282  0.563264  0.918361  1
  O  O35  1  0.820171  0.906931  0.550371  1
  O  O36  1  0.674779  0.436410  0.079318  1
