# generated using pymatgen
data_Zr2FeSi(BRu2)2
_symmetry_space_group_name_H-M   'P 1'
_cell_length_a   9.24379000
_cell_length_b   9.24379000
_cell_length_c   3.03245100
_cell_angle_alpha   90.00000000
_cell_angle_beta   90.00000000
_cell_angle_gamma   90.00000000
_symmetry_Int_Tables_number   1
_chemical_formula_structural   Zr2FeSi(BRu2)2
_chemical_formula_sum   'Zr4 Fe2 Si2 B4 Ru8'
_cell_volume   259.11582250
_cell_formula_units_Z   2
loop_
 _symmetry_equiv_pos_site_id
 _symmetry_equiv_pos_as_xyz
  1  'x, y, z'
loop_
 _atom_site_type_symbol
 _atom_site_label
 _atom_site_symmetry_multiplicity
 _atom_site_fract_x
 _atom_site_fract_y
 _atom_site_fract_z
 _atom_site_occupancy
  Zr  Zr0  1  0.673499  0.173499  0.000000  1
  Zr  Zr1  1  0.326501  0.826501  0.000000  1
  Zr  Zr2  1  0.173499  0.326501  0.000000  1
  Zr  Zr3  1  0.826501  0.673499  0.000000  1
  Fe  Fe4  1  0.500000  0.000000  0.500000  1
  Fe  Fe5  1  0.000000  0.500000  0.500000  1
  Si  Si6  1  0.000000  0.000000  0.000000  1
  Si  Si7  1  0.500000  0.500000  0.000000  1
  B  B8  1  0.117254  0.617254  0.000000  1
  B  B9  1  0.882746  0.382746  0.000000  1
  B  B10  1  0.617254  0.882746  0.000000  1
  B  B11  1  0.382746  0.117254  0.000000  1
  Ru  Ru12  1  0.215491  0.064341  0.500000  1
  Ru  Ru13  1  0.784509  0.935659  0.500000  1
  Ru  Ru14  1  0.064341  0.784509  0.500000  1
  Ru  Ru15  1  0.715491  0.435659  0.500000  1
  Ru  Ru16  1  0.935659  0.215491  0.500000  1
  Ru  Ru17  1  0.284509  0.564341  0.500000  1
  Ru  Ru18  1  0.564341  0.715491  0.500000  1
  Ru  Ru19  1  0.435659  0.284509  0.500000  1
