# generated using pymatgen
data_Tb2Fe5Co5Mo2P7
_symmetry_space_group_name_H-M   'P 1'
_cell_length_a   3.69434500
_cell_length_b   9.04377734
_cell_length_c   9.04860976
_cell_angle_alpha   119.81837757
_cell_angle_beta   90.00000000
_cell_angle_gamma   90.00000000
_symmetry_Int_Tables_number   1
_chemical_formula_structural   Tb2Fe5Co5Mo2P7
_chemical_formula_sum   'Tb2 Fe5 Co5 Mo2 P7'
_cell_volume   262.29603106
_cell_formula_units_Z   1
loop_
 _symmetry_equiv_pos_site_id
 _symmetry_equiv_pos_as_xyz
  1  'x, y, z'
loop_
 _atom_site_type_symbol
 _atom_site_label
 _atom_site_symmetry_multiplicity
 _atom_site_fract_x
 _atom_site_fract_y
 _atom_site_fract_z
 _atom_site_occupancy
  Tb  Tb0  1  0.000000  0.666085  0.334877  1
  Tb  Tb1  1  0.500000  0.333638  0.666178  1
  Fe  Fe2  1  0.000000  0.575006  0.632696  1
  Fe  Fe3  1  0.000000  0.878580  0.724823  1
  Fe  Fe4  1  0.000000  0.278833  0.159640  1
  Fe  Fe5  1  0.000000  0.838917  0.116055  1
  Fe  Fe6  1  0.500000  0.784295  0.877786  1
  Co  Co7  1  0.000000  0.371424  0.938430  1
  Co  Co8  1  0.000000  0.058651  0.430319  1
  Co  Co9  1  0.500000  0.944888  0.561350  1
  Co  Co10  1  0.500000  0.441052  0.389322  1
  Co  Co11  1  0.500000  0.613052  0.046894  1
  Mo  Mo12  1  0.500000  0.116627  0.898655  1
  Mo  Mo13  1  0.500000  0.100208  0.219628  1
  P  P14  1  0.000000  0.109182  0.695734  1
  P  P15  1  0.000000  0.304833  0.415259  1
  P  P16  1  0.000000  0.590625  0.886183  1
  P  P17  1  0.500000  0.711732  0.602068  1
  P  P18  1  0.500000  0.407927  0.117961  1
  P  P19  1  0.500000  0.878954  0.286628  1
  P  P20  1  0.000000  0.995491  0.999513  1
