# generated using pymatgen
data_Pu3(ReSi2)2
_symmetry_space_group_name_H-M   'P 1'
_cell_length_a   10.47087891
_cell_length_b   10.47088054
_cell_length_c   14.29083492
_cell_angle_alpha   55.06414437
_cell_angle_beta   55.06414370
_cell_angle_gamma   31.24967763
_symmetry_Int_Tables_number   1
_chemical_formula_structural   Pu3(ReSi2)2
_chemical_formula_sum   'Pu12 Re8 Si16'
_cell_volume   653.50965249
_cell_formula_units_Z   4
loop_
 _symmetry_equiv_pos_site_id
 _symmetry_equiv_pos_as_xyz
  1  'x, y, z'
loop_
 _atom_site_type_symbol
 _atom_site_label
 _atom_site_symmetry_multiplicity
 _atom_site_fract_x
 _atom_site_fract_y
 _atom_site_fract_z
 _atom_site_occupancy
  Pu  Pu0  1  0.750847  0.484612  0.054467  1
  Pu  Pu1  1  0.544511  0.313791  0.150459  1
  Pu  Pu2  1  0.515388  0.249153  0.445533  1
  Pu  Pu3  1  0.455489  0.686209  0.849541  1
  Pu  Pu4  1  0.287776  0.050509  0.132020  1
  Pu  Pu5  1  0.949491  0.712224  0.367980  1
  Pu  Pu6  1  0.712224  0.949491  0.867980  1
  Pu  Pu7  1  0.050509  0.287776  0.632020  1
  Pu  Pu8  1  0.249153  0.515388  0.945533  1
  Pu  Pu9  1  0.484612  0.750847  0.554467  1
  Pu  Pu10  1  0.313791  0.544511  0.650459  1
  Pu  Pu11  1  0.686209  0.455489  0.349541  1
  Re  Re12  1  0.639997  0.826453  0.285630  1
  Re  Re13  1  0.826453  0.639997  0.785630  1
  Re  Re14  1  0.360003  0.173547  0.714370  1
  Re  Re15  1  0.173547  0.360003  0.214370  1
  Re  Re16  1  0.140764  0.909079  0.075493  1
  Re  Re17  1  0.090921  0.859236  0.424507  1
  Re  Re18  1  0.859236  0.090921  0.924507  1
  Re  Re19  1  0.909079  0.140764  0.575493  1
  Si  Si20  1  0.911795  0.088205  0.250000  1
  Si  Si21  1  0.088205  0.911795  0.750000  1
  Si  Si22  1  0.337885  0.662115  0.250000  1
  Si  Si23  1  0.662115  0.337885  0.750000  1
  Si  Si24  1  0.003160  0.227322  0.876321  1
  Si  Si25  1  0.772678  0.996840  0.623679  1
  Si  Si26  1  0.996840  0.772678  0.123679  1
  Si  Si27  1  0.227322  0.003160  0.376321  1
  Si  Si28  1  0.604043  0.049828  0.077900  1
  Si  Si29  1  0.950172  0.395957  0.422100  1
  Si  Si30  1  0.395957  0.950172  0.922100  1
  Si  Si31  1  0.049828  0.604043  0.577900  1
  Si  Si32  1  0.378736  0.165773  0.376185  1
  Si  Si33  1  0.834227  0.621264  0.123815  1
  Si  Si34  1  0.621264  0.834227  0.623815  1
  Si  Si35  1  0.165773  0.378736  0.876185  1
