# generated using pymatgen
data_Mn(BiO3)2
_symmetry_space_group_name_H-M   'P 1'
_cell_length_a   9.04858000
_cell_length_b   9.04857987
_cell_length_c   5.15806200
_cell_angle_alpha   90.00000000
_cell_angle_beta   90.00000000
_cell_angle_gamma   120.00000047
_symmetry_Int_Tables_number   1
_chemical_formula_structural   Mn(BiO3)2
_chemical_formula_sum   'Mn3 Bi6 O18'
_cell_volume   365.74470075
_cell_formula_units_Z   3
loop_
 _symmetry_equiv_pos_site_id
 _symmetry_equiv_pos_as_xyz
  1  'x, y, z'
loop_
 _atom_site_type_symbol
 _atom_site_label
 _atom_site_symmetry_multiplicity
 _atom_site_fract_x
 _atom_site_fract_y
 _atom_site_fract_z
 _atom_site_occupancy
  Mn  Mn0  1  0.000000  0.000000  0.500000  1
  Mn  Mn1  1  0.333333  0.666667  0.999761  1
  Mn  Mn2  1  0.666667  0.333333  0.000239  1
  Bi  Bi3  1  0.000000  0.377585  0.500000  1
  Bi  Bi4  1  0.292357  0.292357  0.000000  1
  Bi  Bi5  1  0.000000  0.707643  0.000000  1
  Bi  Bi6  1  0.622415  0.622415  0.500000  1
  Bi  Bi7  1  0.377585  0.000000  0.500000  1
  Bi  Bi8  1  0.707643  0.000000  0.000000  1
  O  O9  1  0.087134  0.200524  0.718173  1
  O  O10  1  0.232526  0.460486  0.215952  1
  O  O11  1  0.136142  0.602081  0.787832  1
  O  O12  1  0.397919  0.534062  0.787832  1
  O  O13  1  0.227960  0.767474  0.215952  1
  O  O14  1  0.113389  0.912866  0.718173  1
  O  O15  1  0.539514  0.772040  0.215952  1
  O  O16  1  0.200524  0.087134  0.281827  1
  O  O17  1  0.465938  0.863858  0.787832  1
  O  O18  1  0.799476  0.886611  0.718173  1
  O  O19  1  0.460486  0.232526  0.784048  1
  O  O20  1  0.602081  0.136142  0.212168  1
  O  O21  1  0.534062  0.397919  0.212168  1
  O  O22  1  0.767474  0.227960  0.784048  1
  O  O23  1  0.912866  0.113389  0.281827  1
  O  O24  1  0.772040  0.539514  0.784048  1
  O  O25  1  0.863858  0.465938  0.212168  1
  O  O26  1  0.886611  0.799476  0.281827  1
