# generated using pymatgen
data_Ho5Tm5InPb5
_symmetry_space_group_name_H-M   'P 1'
_cell_length_a   6.58944900
_cell_length_b   8.96306803
_cell_length_c   8.98382409
_cell_angle_alpha   120.07607842
_cell_angle_beta   90.00028276
_cell_angle_gamma   89.99992451
_symmetry_Int_Tables_number   1
_chemical_formula_structural   Ho5Tm5InPb5
_chemical_formula_sum   'Ho5 Tm5 In1 Pb5'
_cell_volume   459.16017926
_cell_formula_units_Z   1
loop_
 _symmetry_equiv_pos_site_id
 _symmetry_equiv_pos_as_xyz
  1  'x, y, z'
loop_
 _atom_site_type_symbol
 _atom_site_label
 _atom_site_symmetry_multiplicity
 _atom_site_fract_x
 _atom_site_fract_y
 _atom_site_fract_z
 _atom_site_occupancy
  Ho  Ho0  1  0.750001  0.237702  0.000908  1
  Ho  Ho1  1  0.749993  0.762584  0.767534  1
  Ho  Ho2  1  0.250001  0.763792  0.998890  1
  Ho  Ho3  1  0.250003  0.236161  0.236091  1
  Ho  Ho4  1  0.249996  0.999474  0.763146  1
  Tm  Tm5  1  0.501988  0.336571  0.670182  1
  Tm  Tm6  1  0.502102  0.666413  0.329871  1
  Tm  Tm7  1  0.997898  0.666429  0.329876  1
  Tm  Tm8  1  0.998012  0.336587  0.670176  1
  Tm  Tm9  1  0.750002  0.995839  0.233224  1
  In  In10  1  0.749994  0.602213  0.000035  1
  Pb  Pb11  1  0.750001  0.393971  0.395000  1
  Pb  Pb12  1  0.750004  0.999310  0.604669  1
  Pb  Pb13  1  0.249991  0.396834  0.000117  1
  Pb  Pb14  1  0.250009  0.604470  0.602935  1
  Pb  Pb15  1  0.250003  0.001652  0.397345  1
