# generated using pymatgen
data_Sc2Ga9PtRh2
_symmetry_space_group_name_H-M   'P 1'
_cell_length_a   7.52732799
_cell_length_b   7.52732806
_cell_length_c   9.38581000
_cell_angle_alpha   90.00000000
_cell_angle_beta   90.00000000
_cell_angle_gamma   120.16467707
_symmetry_Int_Tables_number   1
_chemical_formula_structural   Sc2Ga9PtRh2
_chemical_formula_sum   'Sc4 Ga18 Pt2 Rh4'
_cell_volume   459.79157947
_cell_formula_units_Z   2
loop_
 _symmetry_equiv_pos_site_id
 _symmetry_equiv_pos_as_xyz
  1  'x, y, z'
loop_
 _atom_site_type_symbol
 _atom_site_label
 _atom_site_symmetry_multiplicity
 _atom_site_fract_x
 _atom_site_fract_y
 _atom_site_fract_z
 _atom_site_occupancy
  Sc  Sc0  1  0.996304  0.671479  0.250000  1
  Sc  Sc1  1  0.003696  0.328521  0.750000  1
  Sc  Sc2  1  0.671479  0.996304  0.250000  1
  Sc  Sc3  1  0.328521  0.003696  0.750000  1
  Ga  Ga4  1  0.132585  0.132585  0.250000  1
  Ga  Ga5  1  0.867415  0.867415  0.750000  1
  Ga  Ga6  1  0.994738  0.338249  0.083990  1
  Ga  Ga7  1  0.005262  0.661751  0.916010  1
  Ga  Ga8  1  0.005262  0.661751  0.583990  1
  Ga  Ga9  1  0.338249  0.994738  0.416010  1
  Ga  Ga10  1  0.994738  0.338249  0.416010  1
  Ga  Ga11  1  0.661751  0.005262  0.583990  1
  Ga  Ga12  1  0.661751  0.005262  0.916010  1
  Ga  Ga13  1  0.338249  0.994738  0.083990  1
  Ga  Ga14  1  0.333800  0.333800  0.573504  1
  Ga  Ga15  1  0.666200  0.666200  0.426496  1
  Ga  Ga16  1  0.666200  0.666200  0.073504  1
  Ga  Ga17  1  0.333800  0.333800  0.926496  1
  Ga  Ga18  1  0.336818  0.553264  0.250000  1
  Ga  Ga19  1  0.663182  0.446736  0.750000  1
  Ga  Ga20  1  0.553264  0.336818  0.250000  1
  Ga  Ga21  1  0.446736  0.663182  0.750000  1
  Pt  Pt22  1  0.000000  0.000000  0.000000  1
  Pt  Pt23  1  0.000000  0.000000  0.500000  1
  Rh  Rh24  1  0.671308  0.328692  0.000000  1
  Rh  Rh25  1  0.328692  0.671308  0.000000  1
  Rh  Rh26  1  0.328692  0.671308  0.500000  1
  Rh  Rh27  1  0.671308  0.328692  0.500000  1
