# generated using pymatgen
data_Dy5(Hg2Pd)2
_symmetry_space_group_name_H-M   'P 1'
_cell_length_a   3.64969500
_cell_length_b   7.95993100
_cell_length_c   18.21258800
_cell_angle_alpha   90.00000000
_cell_angle_beta   90.00000000
_cell_angle_gamma   90.00000000
_symmetry_Int_Tables_number   1
_chemical_formula_structural   Dy5(Hg2Pd)2
_chemical_formula_sum   'Dy10 Hg8 Pd4'
_cell_volume   529.09972877
_cell_formula_units_Z   2
loop_
 _symmetry_equiv_pos_site_id
 _symmetry_equiv_pos_as_xyz
  1  'x, y, z'
loop_
 _atom_site_type_symbol
 _atom_site_label
 _atom_site_symmetry_multiplicity
 _atom_site_fract_x
 _atom_site_fract_y
 _atom_site_fract_z
 _atom_site_occupancy
  Dy  Dy0  1  0.000000  0.500000  0.500000  1
  Dy  Dy1  1  0.000000  0.000000  0.000000  1
  Dy  Dy2  1  0.000000  0.737759  0.283549  1
  Dy  Dy3  1  0.000000  0.262241  0.716451  1
  Dy  Dy4  1  0.000000  0.762241  0.783549  1
  Dy  Dy5  1  0.000000  0.237759  0.216451  1
  Dy  Dy6  1  0.000000  0.614537  0.084154  1
  Dy  Dy7  1  0.000000  0.385463  0.915846  1
  Dy  Dy8  1  0.000000  0.885463  0.584154  1
  Dy  Dy9  1  0.000000  0.114537  0.415846  1
  Hg  Hg10  1  0.500000  0.711814  0.934246  1
  Hg  Hg11  1  0.500000  0.288186  0.065754  1
  Hg  Hg12  1  0.500000  0.788186  0.434246  1
  Hg  Hg13  1  0.500000  0.211814  0.565754  1
  Hg  Hg14  1  0.500000  0.579212  0.647756  1
  Hg  Hg15  1  0.500000  0.420788  0.352244  1
  Hg  Hg16  1  0.500000  0.920788  0.147756  1
  Hg  Hg17  1  0.500000  0.079212  0.852244  1
  Pd  Pd18  1  0.500000  0.526288  0.195769  1
  Pd  Pd19  1  0.500000  0.473712  0.804231  1
  Pd  Pd20  1  0.500000  0.973712  0.695769  1
  Pd  Pd21  1  0.500000  0.026288  0.304231  1
