# generated using pymatgen
data_BiI28
_symmetry_space_group_name_H-M   'P 1'
_cell_length_a   10.67681737
_cell_length_b   14.33344904
_cell_length_c   12.98270300
_cell_angle_alpha   108.44914254
_cell_angle_beta   105.43469067
_cell_angle_gamma   86.57346759
_symmetry_Int_Tables_number   1
_chemical_formula_structural   BiI28
_chemical_formula_sum   'Bi1 I28'
_cell_volume   1816.08072199
_cell_formula_units_Z   1
loop_
 _symmetry_equiv_pos_site_id
 _symmetry_equiv_pos_as_xyz
  1  'x, y, z'
loop_
 _atom_site_type_symbol
 _atom_site_label
 _atom_site_symmetry_multiplicity
 _atom_site_fract_x
 _atom_site_fract_y
 _atom_site_fract_z
 _atom_site_occupancy
  Bi  Bi0  1  0.500000  0.000000  0.000000  1
  I  I1  1  0.100557  0.111579  0.411094  1
  I  I2  1  0.572356  0.151552  0.447003  1
  I  I3  1  0.304657  0.270747  0.851923  1
  I  I4  1  0.791785  0.279216  0.869163  1
  I  I5  1  0.201890  0.502738  0.650414  1
  I  I6  1  0.767034  0.568753  0.734100  1
  I  I7  1  0.427644  0.848448  0.552997  1
  I  I8  1  0.899443  0.888421  0.588906  1
  I  I9  1  0.208215  0.720784  0.130837  1
  I  I10  1  0.695343  0.729253  0.148077  1
  I  I11  1  0.232966  0.431247  0.265900  1
  I  I12  1  0.798110  0.497262  0.349586  1
  I  I13  1  0.851070  0.076543  0.739865  1
  I  I14  1  0.316663  0.957540  0.771455  1
  I  I15  1  0.988283  0.645859  0.940112  1
  I  I16  1  0.491252  0.779086  0.965915  1
  I  I17  1  0.703753  0.357805  0.420386  1
  I  I18  1  0.178130  0.271578  0.342072  1
  I  I19  1  0.683337  0.042460  0.228545  1
  I  I20  1  0.148930  0.923457  0.260135  1
  I  I21  1  0.508748  0.220914  0.034085  1
  I  I22  1  0.011717  0.354141  0.059888  1
  I  I23  1  0.821870  0.728422  0.657928  1
  I  I24  1  0.296247  0.642195  0.579614  1
  I  I25  1  0.089834  0.325713  0.698927  1
  I  I26  1  0.478657  0.221055  0.638410  1
  I  I27  1  0.521343  0.778945  0.361590  1
  I  I28  1  0.910166  0.674287  0.301073  1
