# generated using pymatgen
data_LaTh(SiTc2)4
_symmetry_space_group_name_H-M   'P 1'
_cell_length_a   4.18376700
_cell_length_b   7.20678601
_cell_length_c   15.71169495
_cell_angle_alpha   90.17205478
_cell_angle_beta   90.00000000
_cell_angle_gamma   90.00000000
_symmetry_Int_Tables_number   1
_chemical_formula_structural   LaTh(SiTc2)4
_chemical_formula_sum   'La2 Th2 Si8 Tc16'
_cell_volume   473.72924648
_cell_formula_units_Z   2
loop_
 _symmetry_equiv_pos_site_id
 _symmetry_equiv_pos_as_xyz
  1  'x, y, z'
loop_
 _atom_site_type_symbol
 _atom_site_label
 _atom_site_symmetry_multiplicity
 _atom_site_fract_x
 _atom_site_fract_y
 _atom_site_fract_z
 _atom_site_occupancy
  La  La0  1  0.000000  0.589943  0.116692  1
  La  La1  1  0.000000  0.410057  0.883308  1
  Th  Th2  1  0.500000  0.091409  0.382777  1
  Th  Th3  1  0.500000  0.908591  0.617223  1
  Si  Si4  1  0.000000  0.826486  0.473302  1
  Si  Si5  1  0.000000  0.173514  0.526698  1
  Si  Si6  1  0.500000  0.321796  0.027407  1
  Si  Si7  1  0.500000  0.678204  0.972593  1
  Si  Si8  1  0.000000  0.311555  0.273704  1
  Si  Si9  1  0.000000  0.688445  0.726296  1
  Si  Si10  1  0.500000  0.808474  0.226446  1
  Si  Si11  1  0.500000  0.191526  0.773554  1
  Tc  Tc12  1  0.000000  0.137163  0.052746  1
  Tc  Tc13  1  0.000000  0.862837  0.947254  1
  Tc  Tc14  1  0.500000  0.641127  0.449136  1
  Tc  Tc15  1  0.500000  0.358873  0.550864  1
  Tc  Tc16  1  0.000000  0.737793  0.320742  1
  Tc  Tc17  1  0.000000  0.262207  0.679258  1
  Tc  Tc18  1  0.500000  0.235133  0.181432  1
  Tc  Tc19  1  0.500000  0.764867  0.818568  1
  Tc  Tc20  1  0.000000  0.432733  0.421042  1
  Tc  Tc21  1  0.000000  0.567267  0.578958  1
  Tc  Tc22  1  0.500000  0.937040  0.079590  1
  Tc  Tc23  1  0.500000  0.062960  0.920410  1
  Tc  Tc24  1  0.000000  0.004511  0.206930  1
  Tc  Tc25  1  0.000000  0.995489  0.793070  1
  Tc  Tc26  1  0.500000  0.503238  0.295066  1
  Tc  Tc27  1  0.500000  0.496762  0.704934  1
