# generated using pymatgen
data_Y3Er6ScCd3Co
_symmetry_space_group_name_H-M   'P 1'
_cell_length_a   9.50362300
_cell_length_b   9.50361934
_cell_length_c   9.57096700
_cell_angle_alpha   90.00000000
_cell_angle_beta   90.00000000
_cell_angle_gamma   120.00031680
_symmetry_Int_Tables_number   1
_chemical_formula_structural   Y3Er6ScCd3Co
_chemical_formula_sum   'Y6 Er12 Sc2 Cd6 Co2'
_cell_volume   748.62322571
_cell_formula_units_Z   2
loop_
 _symmetry_equiv_pos_site_id
 _symmetry_equiv_pos_as_xyz
  1  'x, y, z'
loop_
 _atom_site_type_symbol
 _atom_site_label
 _atom_site_symmetry_multiplicity
 _atom_site_fract_x
 _atom_site_fract_y
 _atom_site_fract_z
 _atom_site_occupancy
  Y  Y0  1  0.541104  0.458916  0.250000  1
  Y  Y1  1  0.541102  0.082190  0.250000  1
  Y  Y2  1  0.917809  0.458907  0.250000  1
  Y  Y3  1  0.458896  0.541084  0.750000  1
  Y  Y4  1  0.458898  0.917810  0.750000  1
  Y  Y5  1  0.082191  0.541093  0.750000  1
  Er  Er6  1  0.210921  0.789086  0.437708  1
  Er  Er7  1  0.210913  0.421826  0.437707  1
  Er  Er8  1  0.578157  0.789080  0.437705  1
  Er  Er9  1  0.789079  0.210914  0.562292  1
  Er  Er10  1  0.789087  0.578174  0.562293  1
  Er  Er11  1  0.421843  0.210920  0.562295  1
  Er  Er12  1  0.789079  0.210914  0.937708  1
  Er  Er13  1  0.789087  0.578174  0.937707  1
  Er  Er14  1  0.421843  0.210920  0.937705  1
  Er  Er15  1  0.210921  0.789086  0.062292  1
  Er  Er16  1  0.210913  0.421826  0.062293  1
  Er  Er17  1  0.578157  0.789080  0.062295  1
  Sc  Sc18  1  0.000000  0.000000  0.500000  1
  Sc  Sc19  1  0.000000  0.000000  0.000000  1
  Cd  Cd20  1  0.889011  0.111007  0.250000  1
  Cd  Cd21  1  0.889015  0.778004  0.250000  1
  Cd  Cd22  1  0.221990  0.110994  0.250000  1
  Cd  Cd23  1  0.110989  0.888993  0.750000  1
  Cd  Cd24  1  0.110985  0.221996  0.750000  1
  Cd  Cd25  1  0.778010  0.889006  0.750000  1
  Co  Co26  1  0.333347  0.666672  0.250000  1
  Co  Co27  1  0.666653  0.333328  0.750000  1
