# generated using pymatgen
data_ErLu2In3GePt2
_symmetry_space_group_name_H-M   'P 1'
_cell_length_a   7.43599401
_cell_length_b   7.42112272
_cell_length_c   4.09069600
_cell_angle_alpha   90.00000000
_cell_angle_beta   90.00000000
_cell_angle_gamma   120.05967037
_symmetry_Int_Tables_number   1
_chemical_formula_structural   ErLu2In3GePt2
_chemical_formula_sum   'Er1 Lu2 In3 Ge1 Pt2'
_cell_volume   195.37771961
_cell_formula_units_Z   1
loop_
 _symmetry_equiv_pos_site_id
 _symmetry_equiv_pos_as_xyz
  1  'x, y, z'
loop_
 _atom_site_type_symbol
 _atom_site_label
 _atom_site_symmetry_multiplicity
 _atom_site_fract_x
 _atom_site_fract_y
 _atom_site_fract_z
 _atom_site_occupancy
  Er  Er0  1  0.010335  0.597491  0.500000  1
  Lu  Lu1  1  0.587088  0.988122  0.500000  1
  Lu  Lu2  1  0.401197  0.412928  0.500000  1
  In  In3  1  0.005843  0.257823  0.000000  1
  In  In4  1  0.252512  0.994616  0.000000  1
  In  In5  1  0.742014  0.747877  0.000000  1
  Ge  Ge6  1  0.666073  0.332958  0.000000  1
  Pt  Pt7  1  0.000074  0.001106  0.500000  1
  Pt  Pt8  1  0.334863  0.667080  0.000000  1
