# generated using pymatgen
data_DyHo3(ErIn)6
_symmetry_space_group_name_H-M   'P 1'
_cell_length_a   9.10435227
_cell_length_b   9.10435081
_cell_length_c   9.10765812
_cell_angle_alpha   96.40045826
_cell_angle_beta   96.40281925
_cell_angle_gamma   140.97983195
_symmetry_Int_Tables_number   1
_chemical_formula_structural   DyHo3(ErIn)6
_chemical_formula_sum   'Dy1 Ho3 Er6 In6'
_cell_volume   448.02734016
_cell_formula_units_Z   1
loop_
 _symmetry_equiv_pos_site_id
 _symmetry_equiv_pos_as_xyz
  1  'x, y, z'
loop_
 _atom_site_type_symbol
 _atom_site_label
 _atom_site_symmetry_multiplicity
 _atom_site_fract_x
 _atom_site_fract_y
 _atom_site_fract_z
 _atom_site_occupancy
  Dy  Dy0  1  0.081980  0.782081  0.864062  1
  Ho  Ho1  1  0.717654  0.418251  0.135905  1
  Ho  Ho2  1  0.282541  0.581632  0.864173  1
  Ho  Ho3  1  0.582009  0.717651  0.299659  1
  Er  Er4  1  0.217488  0.082012  0.299499  1
  Er  Er5  1  0.917902  0.217519  0.135421  1
  Er  Er6  1  0.750006  0.249846  0.499896  1
  Er  Er7  1  0.250050  0.749890  0.499896  1
  Er  Er8  1  0.782504  0.918335  0.700840  1
  Er  Er9  1  0.417807  0.282605  0.700413  1
  In  In10  1  0.838086  0.661553  0.499639  1
  In  In11  1  0.338811  0.838507  0.177318  1
  In  In12  1  0.749830  0.750384  0.000097  1
  In  In13  1  0.661816  0.161438  0.823254  1
  In  In14  1  0.161804  0.338027  0.499832  1
  In  In15  1  0.249712  0.250268  0.000097  1
