# generated using pymatgen
data_Tb2SmRuBr3
_symmetry_space_group_name_H-M   'P 1'
_cell_length_a   4.19399600
_cell_length_b   8.52613843
_cell_length_c   11.88667800
_cell_angle_alpha   85.92837081
_cell_angle_beta   90.00000000
_cell_angle_gamma   90.00000000
_symmetry_Int_Tables_number   1
_chemical_formula_structural   Tb2SmRuBr3
_chemical_formula_sum   'Tb4 Sm2 Ru2 Br6'
_cell_volume   423.97804940
_cell_formula_units_Z   2
loop_
 _symmetry_equiv_pos_site_id
 _symmetry_equiv_pos_as_xyz
  1  'x, y, z'
loop_
 _atom_site_type_symbol
 _atom_site_label
 _atom_site_symmetry_multiplicity
 _atom_site_fract_x
 _atom_site_fract_y
 _atom_site_fract_z
 _atom_site_occupancy
  Tb  Tb0  1  0.250000  0.277948  0.397687  1
  Tb  Tb1  1  0.750000  0.722052  0.602313  1
  Tb  Tb2  1  0.250000  0.865251  0.368282  1
  Tb  Tb3  1  0.750000  0.134749  0.631718  1
  Sm  Sm4  1  0.250000  0.883884  0.828473  1
  Sm  Sm5  1  0.750000  0.116116  0.171527  1
  Ru  Ru6  1  0.250000  0.940713  0.595924  1
  Ru  Ru7  1  0.750000  0.059287  0.404076  1
  Br  Br8  1  0.250000  0.427485  0.628918  1
  Br  Br9  1  0.750000  0.572515  0.371082  1
  Br  Br10  1  0.250000  0.876844  0.107436  1
  Br  Br11  1  0.750000  0.123156  0.892564  1
  Br  Br12  1  0.250000  0.360252  0.143724  1
  Br  Br13  1  0.750000  0.639748  0.856276  1
