# generated using pymatgen
data_HfTa2(CrP)3
_symmetry_space_group_name_H-M   'P 1'
_cell_length_a   6.51180500
_cell_length_b   6.54032326
_cell_length_c   3.32904400
_cell_angle_alpha   90.00000000
_cell_angle_beta   90.00000000
_cell_angle_gamma   119.85585941
_symmetry_Int_Tables_number   1
_chemical_formula_structural   HfTa2(CrP)3
_chemical_formula_sum   'Hf1 Ta2 Cr3 P3'
_cell_volume   122.96449522
_cell_formula_units_Z   1
loop_
 _symmetry_equiv_pos_site_id
 _symmetry_equiv_pos_as_xyz
  1  'x, y, z'
loop_
 _atom_site_type_symbol
 _atom_site_label
 _atom_site_symmetry_multiplicity
 _atom_site_fract_x
 _atom_site_fract_y
 _atom_site_fract_z
 _atom_site_occupancy
  Hf  Hf0  1  0.594908  0.000000  0.500000  1
  Ta  Ta1  1  0.998420  0.595611  0.500000  1
  Ta  Ta2  1  0.402809  0.404389  0.500000  1
  Cr  Cr3  1  0.249434  0.000000  0.000000  1
  Cr  Cr4  1  0.751037  0.747324  0.000000  1
  Cr  Cr5  1  0.003713  0.252676  0.000000  1
  P  P6  1  0.667254  0.337057  0.000000  1
  P  P7  1  0.330196  0.662943  0.000000  1
  P  P8  1  0.002230  0.000000  0.500000  1
