# generated using pymatgen
data_Sm4Sn10PdRh5
_symmetry_space_group_name_H-M   'P 1'
_cell_length_a   13.56870009
_cell_length_b   13.56869868
_cell_length_c   7.33350600
_cell_angle_alpha   90.15723094
_cell_angle_beta   89.84276774
_cell_angle_gamma   160.99763713
_symmetry_Int_Tables_number   1
_chemical_formula_structural   Sm4Sn10PdRh5
_chemical_formula_sum   'Sm4 Sn10 Pd1 Rh5'
_cell_volume   439.62293510
_cell_formula_units_Z   1
loop_
 _symmetry_equiv_pos_site_id
 _symmetry_equiv_pos_as_xyz
  1  'x, y, z'
loop_
 _atom_site_type_symbol
 _atom_site_label
 _atom_site_symmetry_multiplicity
 _atom_site_fract_x
 _atom_site_fract_y
 _atom_site_fract_z
 _atom_site_occupancy
  Sm  Sm0  1  0.173543  0.826457  0.755994  1
  Sm  Sm1  1  0.827160  0.172840  0.254527  1
  Sm  Sm2  1  0.475153  0.524847  0.740945  1
  Sm  Sm3  1  0.523212  0.476788  0.233859  1
  Sn  Sn4  1  0.879795  0.120205  0.730143  1
  Sn  Sn5  1  0.121130  0.878870  0.225866  1
  Sn  Sn6  1  0.704928  0.295072  0.049067  1
  Sn  Sn7  1  0.295874  0.704126  0.550199  1
  Sn  Sn8  1  0.597491  0.402509  0.617910  1
  Sn  Sn9  1  0.403174  0.596826  0.113500  1
  Sn  Sn10  1  0.950592  0.049408  0.396996  1
  Sn  Sn11  1  0.047776  0.952224  0.903271  1
  Sn  Sn12  1  0.290490  0.709510  0.976335  1
  Sn  Sn13  1  0.710043  0.289957  0.475687  1
  Pd  Pd14  1  0.050372  0.949628  0.517951  1
  Rh  Rh15  1  0.949340  0.050660  0.017779  1
  Rh  Rh16  1  0.776807  0.223193  0.764294  1
  Rh  Rh17  1  0.222906  0.777094  0.265039  1
  Rh  Rh18  1  0.394204  0.605796  0.482389  1
  Rh  Rh19  1  0.606010  0.393990  0.984244  1
