# generated using pymatgen
data_TbYbCuNi3
_symmetry_space_group_name_H-M   'P 1'
_cell_length_a   4.99622158
_cell_length_b   5.08258050
_cell_length_c   5.08258000
_cell_angle_alpha   59.99999022
_cell_angle_beta   59.42654553
_cell_angle_gamma   59.42653819
_symmetry_Int_Tables_number   1
_chemical_formula_structural   TbYbCuNi3
_chemical_formula_sum   'Tb1 Yb1 Cu1 Ni3'
_cell_volume   90.46401795
_cell_formula_units_Z   1
loop_
 _symmetry_equiv_pos_site_id
 _symmetry_equiv_pos_as_xyz
  1  'x, y, z'
loop_
 _atom_site_type_symbol
 _atom_site_label
 _atom_site_symmetry_multiplicity
 _atom_site_fract_x
 _atom_site_fract_y
 _atom_site_fract_z
 _atom_site_occupancy
  Tb  Tb0  1  0.001810  0.999397  0.999397  1
  Yb  Yb1  1  0.752237  0.749256  0.749256  1
  Cu  Cu2  1  0.872722  0.375759  0.375759  1
  Ni  Ni3  1  0.374411  0.873719  0.375935  1
  Ni  Ni4  1  0.374411  0.375935  0.375935  1
  Ni  Ni5  1  0.374411  0.375935  0.873719  1
