# generated using pymatgen
data_Yb11Eu8PaPt16
_symmetry_space_group_name_H-M   'P 1'
_cell_length_a   7.69076977
_cell_length_b   7.83216311
_cell_length_c   14.87797300
_cell_angle_alpha   90.08657836
_cell_angle_beta   90.37731988
_cell_angle_gamma   89.94792289
_symmetry_Int_Tables_number   1
_chemical_formula_structural   Yb11Eu8PaPt16
_chemical_formula_sum   'Yb11 Eu8 Pa1 Pt16'
_cell_volume   896.15928973
_cell_formula_units_Z   1
loop_
 _symmetry_equiv_pos_site_id
 _symmetry_equiv_pos_as_xyz
  1  'x, y, z'
loop_
 _atom_site_type_symbol
 _atom_site_label
 _atom_site_symmetry_multiplicity
 _atom_site_fract_x
 _atom_site_fract_y
 _atom_site_fract_z
 _atom_site_occupancy
  Yb  Yb0  1  0.837334  0.665028  0.622125  1
  Yb  Yb1  1  0.663748  0.166988  0.376921  1
  Yb  Yb2  1  0.160111  0.335500  0.122072  1
  Yb  Yb3  1  0.660692  0.165403  0.120898  1
  Yb  Yb4  1  0.163269  0.331734  0.377481  1
  Yb  Yb5  1  0.337736  0.831635  0.621548  1
  Yb  Yb6  1  0.838908  0.665031  0.878775  1
  Yb  Yb7  1  0.172145  0.494009  0.747919  1
  Yb  Yb8  1  0.684390  0.005692  0.747838  1
  Yb  Yb9  1  0.824049  0.499659  0.250273  1
  Yb  Yb10  1  0.322778  0.997322  0.251675  1
  Eu  Eu11  1  0.502466  0.326790  0.903036  1
  Eu  Eu12  1  0.996097  0.180700  0.595891  1
  Eu  Eu13  1  0.504060  0.677877  0.401337  1
  Eu  Eu14  1  0.998500  0.821360  0.100049  1
  Eu  Eu15  1  0.502345  0.674005  0.100160  1
  Eu  Eu16  1  0.003797  0.820639  0.402121  1
  Eu  Eu17  1  0.497491  0.317258  0.596277  1
  Eu  Eu18  1  0.994794  0.183319  0.903652  1
  Pa  Pa19  1  0.338979  0.840899  0.876306  1
  Pt  Pt20  1  0.311622  0.029145  0.031525  1
  Pt  Pt21  1  0.832100  0.465511  0.458305  1
  Pt  Pt22  1  0.670515  0.966298  0.543415  1
  Pt  Pt23  1  0.184020  0.560757  0.956832  1
  Pt  Pt24  1  0.654887  0.957263  0.952283  1
  Pt  Pt25  1  0.167350  0.530161  0.543544  1
  Pt  Pt26  1  0.334175  0.032682  0.458131  1
  Pt  Pt27  1  0.837911  0.464133  0.040385  1
  Pt  Pt28  1  0.532299  0.633541  0.760776  1
  Pt  Pt29  1  0.054256  0.867256  0.756959  1
  Pt  Pt30  1  0.454903  0.373345  0.247375  1
  Pt  Pt31  1  0.955416  0.122791  0.248060  1
  Pt  Pt32  1  0.312744  0.124945  0.757852  1
  Pt  Pt33  1  0.793242  0.372449  0.749661  1
  Pt  Pt34  1  0.700360  0.866909  0.248935  1
  Pt  Pt35  1  0.200509  0.631967  0.249612  1
