# generated using pymatgen
data_Hf4Si2(IrRh)5
_symmetry_space_group_name_H-M   'P 1'
_cell_length_a   4.02813100
_cell_length_b   5.58013233
_cell_length_c   10.92887663
_cell_angle_alpha   89.96096462
_cell_angle_beta   90.00000000
_cell_angle_gamma   90.00000000
_symmetry_Int_Tables_number   1
_chemical_formula_structural   Hf4Si2(IrRh)5
_chemical_formula_sum   'Hf4 Si2 Ir5 Rh5'
_cell_volume   245.65381122
_cell_formula_units_Z   1
loop_
 _symmetry_equiv_pos_site_id
 _symmetry_equiv_pos_as_xyz
  1  'x, y, z'
loop_
 _atom_site_type_symbol
 _atom_site_label
 _atom_site_symmetry_multiplicity
 _atom_site_fract_x
 _atom_site_fract_y
 _atom_site_fract_z
 _atom_site_occupancy
  Hf  Hf0  1  0.500000  0.175834  0.639105  1
  Hf  Hf1  1  0.500000  0.823510  0.359232  1
  Hf  Hf2  1  0.500000  0.677624  0.859803  1
  Hf  Hf3  1  0.500000  0.324073  0.141097  1
  Si  Si4  1  0.000000  0.499152  0.501079  1
  Si  Si5  1  0.000000  0.999472  0.000988  1
  Ir  Ir6  1  0.500000  0.181520  0.895389  1
  Ir  Ir7  1  0.500000  0.819793  0.103579  1
  Ir  Ir8  1  0.500000  0.680942  0.604910  1
  Ir  Ir9  1  0.500000  0.319915  0.396136  1
  Ir  Ir10  1  0.000000  0.430819  0.743943  1
  Rh  Rh11  1  0.000000  0.570489  0.256514  1
  Rh  Rh12  1  0.000000  0.996418  0.498901  1
  Rh  Rh13  1  0.000000  0.498534  0.000058  1
  Rh  Rh14  1  0.000000  0.070440  0.243029  1
  Rh  Rh15  1  0.000000  0.931465  0.756237  1
