# generated using pymatgen
data_Ho13Er3(CoHg)4
_symmetry_space_group_name_H-M   'P 1'
_cell_length_a   9.38425900
_cell_length_b   9.38414179
_cell_length_c   9.38571606
_cell_angle_alpha   59.99527991
_cell_angle_beta   60.00770884
_cell_angle_gamma   60.01069279
_symmetry_Int_Tables_number   1
_chemical_formula_structural   Ho13Er3(CoHg)4
_chemical_formula_sum   'Ho13 Er3 Co4 Hg4'
_cell_volume   584.50986386
_cell_formula_units_Z   1
loop_
 _symmetry_equiv_pos_site_id
 _symmetry_equiv_pos_as_xyz
  1  'x, y, z'
loop_
 _atom_site_type_symbol
 _atom_site_label
 _atom_site_symmetry_multiplicity
 _atom_site_fract_x
 _atom_site_fract_y
 _atom_site_fract_z
 _atom_site_occupancy
  Ho  Ho0  1  0.597761  0.597953  0.597650  1
  Ho  Ho1  1  0.597666  0.597925  0.206598  1
  Ho  Ho2  1  0.597650  0.206637  0.597761  1
  Ho  Ho3  1  0.206598  0.597813  0.597666  1
  Ho  Ho4  1  0.061411  0.438867  0.438512  1
  Ho  Ho5  1  0.438512  0.061210  0.061411  1
  Ho  Ho6  1  0.438645  0.061355  0.438645  1
  Ho  Ho7  1  0.061327  0.438673  0.061327  1
  Ho  Ho8  1  0.438482  0.438779  0.061485  1
  Ho  Ho9  1  0.061485  0.061254  0.438482  1
  Ho  Ho10  1  0.188440  0.811560  0.811875  1
  Ho  Ho11  1  0.811875  0.188125  0.188440  1
  Ho  Ho12  1  0.811537  0.188463  0.811537  1
  Er  Er13  1  0.188571  0.811429  0.188571  1
  Er  Er14  1  0.811480  0.811348  0.188694  1
  Er  Er15  1  0.188694  0.188478  0.811480  1
  Co  Co16  1  0.391067  0.391400  0.391433  1
  Co  Co17  1  0.391201  0.391161  0.826138  1
  Co  Co18  1  0.391433  0.826102  0.391067  1
  Co  Co19  1  0.826138  0.391502  0.391201  1
  Hg  Hg20  1  0.833763  0.833754  0.834120  1
  Hg  Hg21  1  0.834097  0.833747  0.498051  1
  Hg  Hg22  1  0.834120  0.498364  0.833763  1
  Hg  Hg23  1  0.498051  0.834105  0.834097  1
