# generated using pymatgen
data_Ba2Nb4VFe3(PO4)12
_symmetry_space_group_name_H-M   'P 1'
_cell_length_a   8.64747200
_cell_length_b   9.28317520
_cell_length_c   12.68978400
_cell_angle_alpha   84.82044600
_cell_angle_beta   90.00000000
_cell_angle_gamma   90.00000000
_symmetry_Int_Tables_number   1
_chemical_formula_structural   Ba2Nb4VFe3(PO4)12
_chemical_formula_sum   'Ba2 Nb4 V1 Fe3 P12 O48'
_cell_volume   1014.52545023
_cell_formula_units_Z   1
loop_
 _symmetry_equiv_pos_site_id
 _symmetry_equiv_pos_as_xyz
  1  'x, y, z'
loop_
 _atom_site_type_symbol
 _atom_site_label
 _atom_site_symmetry_multiplicity
 _atom_site_fract_x
 _atom_site_fract_y
 _atom_site_fract_z
 _atom_site_occupancy
  Ba  Ba0  1  0.999826  0.000145  0.499886  1
  Ba  Ba1  1  0.499990  0.499904  0.499459  1
  Nb  Nb2  1  0.499744  0.211179  0.852615  1
  Nb  Nb3  1  0.999344  0.288524  0.147557  1
  Nb  Nb4  1  0.500691  0.788565  0.147496  1
  Nb  Nb5  1  0.000631  0.711506  0.852718  1
  V  V6  1  0.500339  0.802963  0.648880  1
  Fe  Fe7  1  0.001513  0.694666  0.350514  1
  Fe  Fe8  1  0.498611  0.194603  0.350754  1
  Fe  Fe9  1  0.998373  0.305211  0.649270  1
  P  P10  1  0.354046  0.857959  0.393360  1
  P  P11  1  0.282470  0.502488  0.745420  1
  P  P12  1  0.145427  0.357755  0.394127  1
  P  P13  1  0.862013  0.360576  0.889160  1
  P  P14  1  0.361980  0.139544  0.110877  1
  P  P15  1  0.782997  0.996719  0.255155  1
  P  P16  1  0.216613  0.003635  0.745184  1
  P  P17  1  0.638577  0.860733  0.889672  1
  P  P18  1  0.138195  0.639430  0.110889  1
  P  P19  1  0.855599  0.642116  0.605889  1
  P  P20  1  0.717000  0.496708  0.255099  1
  P  P21  1  0.645513  0.142575  0.605933  1
  O  O22  1  0.309054  0.919646  0.668080  1
  O  O23  1  0.180980  0.820811  0.390419  1
  O  O24  1  0.432605  0.785200  0.492858  1
  O  O25  1  0.436267  0.790708  0.297874  1
  O  O26  1  0.392090  0.605437  0.681142  1
  O  O27  1  0.132656  0.523041  0.385436  1
  O  O28  1  0.189111  0.420035  0.668099  1
  O  O29  1  0.380738  0.390218  0.817756  1
  O  O30  1  0.125119  0.472537  0.117636  1
  O  O31  1  0.818946  0.415285  0.179085  1
  O  O32  1  0.318555  0.320400  0.391190  1
  O  O33  1  0.067388  0.285866  0.494477  1
  O  O34  1  0.063039  0.290083  0.298768  1
  O  O35  1  0.686497  0.322451  0.887550  1
  O  O36  1  0.927019  0.300238  0.998823  1
  O  O37  1  0.948593  0.292982  0.802785  1
  O  O38  1  0.448559  0.207115  0.197316  1
  O  O39  1  0.427015  0.199969  0.001208  1
  O  O40  1  0.186456  0.177870  0.112532  1
  O  O41  1  0.880816  0.109738  0.182541  1
  O  O42  1  0.366952  0.023198  0.385120  1
  O  O43  1  0.107493  0.106871  0.681203  1
  O  O44  1  0.318800  0.084987  0.821081  1
  O  O45  1  0.625528  0.027761  0.882722  1
  O  O46  1  0.374799  0.972682  0.117469  1
  O  O47  1  0.681183  0.915382  0.179104  1
  O  O48  1  0.892576  0.893549  0.318814  1
  O  O49  1  0.631970  0.977642  0.613833  1
  O  O50  1  0.119033  0.890601  0.817730  1
  O  O51  1  0.814158  0.822560  0.888007  1
  O  O52  1  0.574116  0.800761  0.999472  1
  O  O53  1  0.551039  0.793057  0.804186  1
  O  O54  1  0.051449  0.707079  0.197196  1
  O  O55  1  0.073114  0.699791  0.001228  1
  O  O56  1  0.313648  0.677645  0.112358  1
  O  O57  1  0.937555  0.709957  0.701272  1
  O  O58  1  0.933259  0.714124  0.505501  1
  O  O59  1  0.682341  0.678868  0.608443  1
  O  O60  1  0.181004  0.584399  0.821266  1
  O  O61  1  0.874870  0.527563  0.882372  1
  O  O62  1  0.619213  0.609626  0.182513  1
  O  O63  1  0.810530  0.579771  0.332116  1
  O  O64  1  0.867987  0.476902  0.614698  1
  O  O65  1  0.607387  0.393492  0.318739  1
  O  O66  1  0.563268  0.210243  0.701442  1
  O  O67  1  0.567534  0.214726  0.505588  1
  O  O68  1  0.818663  0.179755  0.608882  1
  O  O69  1  0.689538  0.079874  0.332160  1
