# generated using pymatgen
data_La5Lu3(P3Pd4)4
_symmetry_space_group_name_H-M   'P 1'
_cell_length_a   13.25733300
_cell_length_b   13.25733224
_cell_length_c   4.11612200
_cell_angle_alpha   90.00000000
_cell_angle_beta   90.00000000
_cell_angle_gamma   120.00000439
_symmetry_Int_Tables_number   1
_chemical_formula_structural   La5Lu3(P3Pd4)4
_chemical_formula_sum   'La5 Lu3 P12 Pd16'
_cell_volume   626.51454286
_cell_formula_units_Z   1
loop_
 _symmetry_equiv_pos_site_id
 _symmetry_equiv_pos_as_xyz
  1  'x, y, z'
loop_
 _atom_site_type_symbol
 _atom_site_label
 _atom_site_symmetry_multiplicity
 _atom_site_fract_x
 _atom_site_fract_y
 _atom_site_fract_z
 _atom_site_occupancy
  La  La0  1  0.188716  0.188716  0.500000  1
  La  La1  1  0.811284  0.000000  0.500000  1
  La  La2  1  0.000000  0.811284  0.500000  1
  La  La3  1  0.333333  0.666667  0.000000  1
  La  La4  1  0.666667  0.333333  0.000000  1
  Lu  Lu5  1  0.560107  0.560107  0.000000  1
  Lu  Lu6  1  0.439893  0.000000  0.000000  1
  Lu  Lu7  1  0.000000  0.439893  0.000000  1
  P  P8  1  0.823679  0.823679  0.000000  1
  P  P9  1  0.176321  0.000000  0.000000  1
  P  P10  1  0.000000  0.176321  0.000000  1
  P  P11  1  0.167481  0.476107  0.500000  1
  P  P12  1  0.523893  0.691375  0.500000  1
  P  P13  1  0.308625  0.832519  0.500000  1
  P  P14  1  0.691375  0.523893  0.500000  1
  P  P15  1  0.832519  0.308625  0.500000  1
  P  P16  1  0.476107  0.167481  0.500000  1
  P  P17  1  0.358586  0.358586  0.000000  1
  P  P18  1  0.641414  0.000000  0.000000  1
  P  P19  1  0.000000  0.641414  0.000000  1
  Pd  Pd20  1  0.724448  0.724448  0.500000  1
  Pd  Pd21  1  0.275552  0.000000  0.500000  1
  Pd  Pd22  1  0.000000  0.275552  0.500000  1
  Pd  Pd23  1  0.188901  0.381117  0.000000  1
  Pd  Pd24  1  0.618883  0.807784  0.000000  1
  Pd  Pd25  1  0.192216  0.811099  0.000000  1
  Pd  Pd26  1  0.807784  0.618883  0.000000  1
  Pd  Pd27  1  0.811099  0.192216  0.000000  1
  Pd  Pd28  1  0.381117  0.188901  0.000000  1
  Pd  Pd29  1  0.362365  0.489359  0.500000  1
  Pd  Pd30  1  0.510641  0.873005  0.500000  1
  Pd  Pd31  1  0.126995  0.637635  0.500000  1
  Pd  Pd32  1  0.873005  0.510641  0.500000  1
  Pd  Pd33  1  0.637635  0.126995  0.500000  1
  Pd  Pd34  1  0.489359  0.362365  0.500000  1
  Pd  Pd35  1  0.000000  0.000000  0.000000  1
