# generated using pymatgen
data_ErTm4Bi3
_symmetry_space_group_name_H-M   'P 1'
_cell_length_a   8.17726500
_cell_length_b   9.45573100
_cell_length_c   11.88769400
_cell_angle_alpha   90.00000000
_cell_angle_beta   90.00000000
_cell_angle_gamma   90.00000000
_symmetry_Int_Tables_number   1
_chemical_formula_structural   ErTm4Bi3
_chemical_formula_sum   'Er4 Tm16 Bi12'
_cell_volume   919.18049130
_cell_formula_units_Z   4
loop_
 _symmetry_equiv_pos_site_id
 _symmetry_equiv_pos_as_xyz
  1  'x, y, z'
loop_
 _atom_site_type_symbol
 _atom_site_label
 _atom_site_symmetry_multiplicity
 _atom_site_fract_x
 _atom_site_fract_y
 _atom_site_fract_z
 _atom_site_occupancy
  Er  Er0  1  0.313469  0.250000  0.217612  1
  Er  Er1  1  0.813469  0.250000  0.282388  1
  Er  Er2  1  0.686531  0.750000  0.782388  1
  Er  Er3  1  0.186531  0.750000  0.717612  1
  Tm  Tm4  1  0.352879  0.750000  0.216759  1
  Tm  Tm5  1  0.852879  0.750000  0.283241  1
  Tm  Tm6  1  0.647121  0.250000  0.783241  1
  Tm  Tm7  1  0.147121  0.250000  0.716759  1
  Tm  Tm8  1  0.691741  0.565564  0.058656  1
  Tm  Tm9  1  0.191741  0.934436  0.441344  1
  Tm  Tm10  1  0.308259  0.065564  0.941344  1
  Tm  Tm11  1  0.808259  0.434436  0.558656  1
  Tm  Tm12  1  0.308259  0.434436  0.941344  1
  Tm  Tm13  1  0.808259  0.065564  0.558656  1
  Tm  Tm14  1  0.691741  0.934436  0.058656  1
  Tm  Tm15  1  0.191741  0.565564  0.441344  1
  Tm  Tm16  1  0.477609  0.250000  0.488981  1
  Tm  Tm17  1  0.977609  0.250000  0.011019  1
  Tm  Tm18  1  0.522391  0.750000  0.511019  1
  Tm  Tm19  1  0.022391  0.750000  0.988981  1
  Bi  Bi20  1  0.403756  0.750000  0.957123  1
  Bi  Bi21  1  0.903756  0.750000  0.542877  1
  Bi  Bi22  1  0.596244  0.250000  0.042877  1
  Bi  Bi23  1  0.096244  0.250000  0.457123  1
  Bi  Bi24  1  0.565133  0.995837  0.325278  1
  Bi  Bi25  1  0.065133  0.504163  0.174722  1
  Bi  Bi26  1  0.434867  0.495837  0.674722  1
  Bi  Bi27  1  0.934867  0.004163  0.825278  1
  Bi  Bi28  1  0.434867  0.004163  0.674722  1
  Bi  Bi29  1  0.934867  0.495837  0.825278  1
  Bi  Bi30  1  0.565133  0.504163  0.325278  1
  Bi  Bi31  1  0.065133  0.995837  0.174722  1
