# generated using pymatgen
data_YbTm3(Ga2Ag)4
_symmetry_space_group_name_H-M   'P 1'
_cell_length_a   4.33409600
_cell_length_b   6.94432125
_cell_length_c   10.24875232
_cell_angle_alpha   90.41067273
_cell_angle_beta   90.00000000
_cell_angle_gamma   90.00000000
_symmetry_Int_Tables_number   1
_chemical_formula_structural   YbTm3(Ga2Ag)4
_chemical_formula_sum   'Yb1 Tm3 Ga8 Ag4'
_cell_volume   308.45241314
_cell_formula_units_Z   1
loop_
 _symmetry_equiv_pos_site_id
 _symmetry_equiv_pos_as_xyz
  1  'x, y, z'
loop_
 _atom_site_type_symbol
 _atom_site_label
 _atom_site_symmetry_multiplicity
 _atom_site_fract_x
 _atom_site_fract_y
 _atom_site_fract_z
 _atom_site_occupancy
  Yb  Yb0  1  0.250000  0.275274  0.672094  1
  Tm  Tm1  1  0.250000  0.778467  0.827095  1
  Tm  Tm2  1  0.750000  0.224242  0.173061  1
  Tm  Tm3  1  0.750000  0.722425  0.327815  1
  Ga  Ga4  1  0.250000  0.705139  0.536203  1
  Ga  Ga5  1  0.750000  0.297663  0.463794  1
  Ga  Ga6  1  0.750000  0.794627  0.037183  1
  Ga  Ga7  1  0.250000  0.200558  0.964807  1
  Ga  Ga8  1  0.250000  0.927719  0.154945  1
  Ga  Ga9  1  0.750000  0.070337  0.847995  1
  Ga  Ga10  1  0.750000  0.572103  0.651744  1
  Ga  Ga11  1  0.250000  0.429151  0.344863  1
  Ag  Ag12  1  0.250000  0.543294  0.097775  1
  Ag  Ag13  1  0.750000  0.456811  0.901833  1
  Ag  Ag14  1  0.750000  0.958076  0.597477  1
  Ag  Ag15  1  0.250000  0.044115  0.401316  1
