# generated using pymatgen
data_Ti3Nb5(GaC3)2
_symmetry_space_group_name_H-M   'P 1'
_cell_length_a   3.12436700
_cell_length_b   3.12436745
_cell_length_c   23.82295300
_cell_angle_alpha   90.00000000
_cell_angle_beta   90.00000000
_cell_angle_gamma   119.99998466
_symmetry_Int_Tables_number   1
_chemical_formula_structural   Ti3Nb5(GaC3)2
_chemical_formula_sum   'Ti3 Nb5 Ga2 C6'
_cell_volume   201.39581392
_cell_formula_units_Z   1
loop_
 _symmetry_equiv_pos_site_id
 _symmetry_equiv_pos_as_xyz
  1  'x, y, z'
loop_
 _atom_site_type_symbol
 _atom_site_label
 _atom_site_symmetry_multiplicity
 _atom_site_fract_x
 _atom_site_fract_y
 _atom_site_fract_z
 _atom_site_occupancy
  Ti  Ti0  1  0.666667  0.333333  0.555311  1
  Ti  Ti1  1  0.666667  0.333333  0.948933  1
  Ti  Ti2  1  0.333333  0.666667  0.050542  1
  Nb  Nb3  1  0.000000  0.000000  0.340064  1
  Nb  Nb4  1  0.000000  0.000000  0.659453  1
  Nb  Nb5  1  0.000000  0.000000  0.844626  1
  Nb  Nb6  1  0.000000  0.000000  0.154952  1
  Nb  Nb7  1  0.333333  0.666667  0.446770  1
  Ga  Ga8  1  0.333333  0.666667  0.247341  1
  Ga  Ga9  1  0.666667  0.333333  0.751761  1
  C  C10  1  0.000000  0.000000  0.502094  1
  C  C11  1  0.000000  0.000000  0.999784  1
  C  C12  1  0.666667  0.333333  0.391238  1
  C  C13  1  0.333333  0.666667  0.607644  1
  C  C14  1  0.333333  0.666667  0.894691  1
  C  C15  1  0.666667  0.333333  0.104795  1
