# generated using pymatgen
data_Er10Tl4Cd4IrPd3
_symmetry_space_group_name_H-M   'P 1'
_cell_length_a   3.60042600
_cell_length_b   8.05794255
_cell_length_c   18.42248901
_cell_angle_alpha   90.08181065
_cell_angle_beta   90.00000000
_cell_angle_gamma   90.00000000
_symmetry_Int_Tables_number   1
_chemical_formula_structural   Er10Tl4Cd4IrPd3
_chemical_formula_sum   'Er10 Tl4 Cd4 Ir1 Pd3'
_cell_volume   534.47318276
_cell_formula_units_Z   1
loop_
 _symmetry_equiv_pos_site_id
 _symmetry_equiv_pos_as_xyz
  1  'x, y, z'
loop_
 _atom_site_type_symbol
 _atom_site_label
 _atom_site_symmetry_multiplicity
 _atom_site_fract_x
 _atom_site_fract_y
 _atom_site_fract_z
 _atom_site_occupancy
  Er  Er0  1  0.000000  0.498674  0.500534  1
  Er  Er1  1  0.000000  0.999464  0.999195  1
  Er  Er2  1  0.000000  0.738766  0.278391  1
  Er  Er3  1  0.000000  0.248213  0.719561  1
  Er  Er4  1  0.000000  0.749448  0.780889  1
  Er  Er5  1  0.000000  0.266887  0.219522  1
  Er  Er6  1  0.000000  0.619078  0.089952  1
  Er  Er7  1  0.000000  0.380250  0.913646  1
  Er  Er8  1  0.000000  0.878442  0.586860  1
  Er  Er9  1  0.000000  0.118216  0.411344  1
  Tl  Tl10  1  0.500000  0.709492  0.934107  1
  Tl  Tl11  1  0.500000  0.290354  0.065243  1
  Tl  Tl12  1  0.500000  0.790087  0.434807  1
  Tl  Tl13  1  0.500000  0.208214  0.565470  1
  Cd  Cd14  1  0.500000  0.571908  0.649338  1
  Cd  Cd15  1  0.500000  0.428848  0.352477  1
  Cd  Cd16  1  0.500000  0.932111  0.149100  1
  Cd  Cd17  1  0.500000  0.073185  0.850860  1
  Ir  Ir18  1  0.500000  0.535787  0.197886  1
  Pd  Pd19  1  0.500000  0.463324  0.802110  1
  Pd  Pd20  1  0.500000  0.962930  0.698082  1
  Pd  Pd21  1  0.500000  0.036325  0.300624  1
