# generated using pymatgen
data_Rb4Li2YAlBi4
_symmetry_space_group_name_H-M   'P 1'
_cell_length_a   10.01289981
_cell_length_b   10.01290080
_cell_length_c   10.01289925
_cell_angle_alpha   137.51909902
_cell_angle_beta   61.28904240
_cell_angle_gamma   137.97809120
_symmetry_Int_Tables_number   1
_chemical_formula_structural   Rb4Li2YAlBi4
_chemical_formula_sum   'Rb4 Li2 Y1 Al1 Bi4'
_cell_volume   448.75146080
_cell_formula_units_Z   1
loop_
 _symmetry_equiv_pos_site_id
 _symmetry_equiv_pos_as_xyz
  1  'x, y, z'
loop_
 _atom_site_type_symbol
 _atom_site_label
 _atom_site_symmetry_multiplicity
 _atom_site_fract_x
 _atom_site_fract_y
 _atom_site_fract_z
 _atom_site_occupancy
  Rb  Rb0  1  0.331591  0.772122  0.096098  1
  Rb  Rb1  1  0.168409  0.264507  0.440529  1
  Rb  Rb2  1  0.823977  0.727879  0.559470  1
  Rb  Rb3  1  0.676024  0.235493  0.903902  1
  Li  Li4  1  0.750000  0.250000  0.500000  1
  Li  Li5  1  0.250000  0.749999  0.500000  1
  Y  Y6  1  0.250000  0.250000  0.000000  1
  Al  Al7  1  0.750000  0.750000  0.000000  1
  Bi  Bi8  1  0.888495  0.223364  0.143011  1
  Bi  Bi9  1  0.611507  0.754517  0.334869  1
  Bi  Bi10  1  0.419648  0.276637  0.665131  1
  Bi  Bi11  1  0.080352  0.745484  0.856990  1
