# generated using pymatgen
data_U4Al(SiTc)6
_symmetry_space_group_name_H-M   'P 1'
_cell_length_a   7.14201226
_cell_length_b   7.14201204
_cell_length_c   7.14201198
_cell_angle_alpha   110.67638488
_cell_angle_beta   108.87201625
_cell_angle_gamma   108.87202367
_symmetry_Int_Tables_number   1
_chemical_formula_structural   U4Al(SiTc)6
_chemical_formula_sum   'U4 Al1 Si6 Tc6'
_cell_volume   280.34665366
_cell_formula_units_Z   1
loop_
 _symmetry_equiv_pos_site_id
 _symmetry_equiv_pos_as_xyz
  1  'x, y, z'
loop_
 _atom_site_type_symbol
 _atom_site_label
 _atom_site_symmetry_multiplicity
 _atom_site_fract_x
 _atom_site_fract_y
 _atom_site_fract_z
 _atom_site_occupancy
  U  U0  1  0.500000  0.493415  0.506585  1
  U  U1  1  0.986829  0.493415  0.993415  1
  U  U2  1  0.500000  0.006585  0.993415  1
  U  U3  1  0.013171  0.006585  0.506585  1
  Al  Al4  1  0.500000  0.750000  0.250000  1
  Si  Si5  1  0.694612  0.997339  0.691951  1
  Si  Si6  1  0.694612  0.697273  0.002661  1
  Si  Si7  1  0.305388  0.308049  0.002661  1
  Si  Si8  1  0.000000  0.685067  0.685067  1
  Si  Si9  1  0.000000  0.314933  0.314933  1
  Si  Si10  1  0.305388  0.997339  0.302727  1
  Tc  Tc11  1  0.747059  0.243215  0.496156  1
  Tc  Tc12  1  0.252941  0.749097  0.496156  1
  Tc  Tc13  1  0.252941  0.503844  0.756785  1
  Tc  Tc14  1  0.000000  0.000000  0.000000  1
  Tc  Tc15  1  0.500000  0.250000  0.750000  1
  Tc  Tc16  1  0.747059  0.503844  0.250903  1
