# generated using pymatgen
data_Tb2CoGeF14
_symmetry_space_group_name_H-M   'P 1'
_cell_length_a   5.43139456
_cell_length_b   8.73733876
_cell_length_c   11.72315700
_cell_angle_alpha   62.27421101
_cell_angle_beta   90.04346188
_cell_angle_gamma   89.99223905
_symmetry_Int_Tables_number   1
_chemical_formula_structural   Tb2CoGeF14
_chemical_formula_sum   'Tb4 Co2 Ge2 F28'
_cell_volume   492.45735121
_cell_formula_units_Z   2
loop_
 _symmetry_equiv_pos_site_id
 _symmetry_equiv_pos_as_xyz
  1  'x, y, z'
loop_
 _atom_site_type_symbol
 _atom_site_label
 _atom_site_symmetry_multiplicity
 _atom_site_fract_x
 _atom_site_fract_y
 _atom_site_fract_z
 _atom_site_occupancy
  Tb  Tb0  1  0.263060  0.809548  0.265322  1
  Tb  Tb1  1  0.736940  0.190452  0.734678  1
  Tb  Tb2  1  0.761305  0.190329  0.236618  1
  Tb  Tb3  1  0.238695  0.809671  0.763382  1
  Co  Co4  1  0.259324  0.274019  0.456924  1
  Co  Co5  1  0.740676  0.725981  0.543076  1
  Ge  Ge6  1  0.758595  0.726137  0.042675  1
  Ge  Ge7  1  0.241405  0.273863  0.957325  1
  F  F8  1  0.925378  0.705920  0.422722  1
  F  F9  1  0.074622  0.294080  0.577278  1
  F  F10  1  0.432278  0.293959  0.077747  1
  F  F11  1  0.567722  0.706041  0.922253  1
  F  F12  1  0.483946  0.727742  0.132494  1
  F  F13  1  0.516054  0.272258  0.867506  1
  F  F14  1  0.983872  0.271140  0.370253  1
  F  F15  1  0.016128  0.728860  0.629747  1
  F  F16  1  0.947188  0.740605  0.168222  1
  F  F17  1  0.052812  0.259395  0.831778  1
  F  F18  1  0.443941  0.259594  0.331928  1
  F  F19  1  0.556059  0.740406  0.668072  1
  F  F20  1  0.772583  0.490888  0.136641  1
  F  F21  1  0.227417  0.509112  0.863359  1
  F  F22  1  0.271776  0.507291  0.364087  1
  F  F23  1  0.728224  0.492709  0.635913  1
  F  F24  1  0.957185  0.281803  0.040186  1
  F  F25  1  0.042815  0.718197  0.959814  1
  F  F26  1  0.459658  0.717396  0.461087  1
  F  F27  1  0.540342  0.282604  0.538913  1
  F  F28  1  0.741180  0.957686  0.455980  1
  F  F29  1  0.258820  0.042314  0.544020  1
  F  F30  1  0.239430  0.038967  0.047428  1
  F  F31  1  0.760570  0.961033  0.952572  1
  F  F32  1  0.596707  0.969030  0.227334  1
  F  F33  1  0.403293  0.030970  0.772666  1
  F  F34  1  0.095534  0.031108  0.272875  1
  F  F35  1  0.904466  0.968892  0.727125  1
