# generated using pymatgen
data_AcTb(CuSi)2
_symmetry_space_group_name_H-M   'P 1'
_cell_length_a   4.23708400
_cell_length_b   4.23708404
_cell_length_c   8.04420800
_cell_angle_alpha   90.00000000
_cell_angle_beta   90.00000000
_cell_angle_gamma   119.99998411
_symmetry_Int_Tables_number   1
_chemical_formula_structural   AcTb(CuSi)2
_chemical_formula_sum   'Ac1 Tb1 Cu2 Si2'
_cell_volume   125.06855853
_cell_formula_units_Z   1
loop_
 _symmetry_equiv_pos_site_id
 _symmetry_equiv_pos_as_xyz
  1  'x, y, z'
loop_
 _atom_site_type_symbol
 _atom_site_label
 _atom_site_symmetry_multiplicity
 _atom_site_fract_x
 _atom_site_fract_y
 _atom_site_fract_z
 _atom_site_occupancy
  Ac  Ac0  1  0.000000  0.000000  0.000000  1
  Tb  Tb1  1  0.000000  0.000000  0.500000  1
  Cu  Cu2  1  0.333333  0.666667  0.281766  1
  Cu  Cu3  1  0.666667  0.333333  0.718234  1
  Si  Si4  1  0.666667  0.333333  0.274812  1
  Si  Si5  1  0.333333  0.666667  0.725188  1
