# generated using pymatgen
data_Th2Mn2Fe7Co3P7
_symmetry_space_group_name_H-M   'P 1'
_cell_length_a   9.12975208
_cell_length_b   9.12205572
_cell_length_c   3.67909800
_cell_angle_alpha   90.00000000
_cell_angle_beta   90.00000000
_cell_angle_gamma   120.04353905
_symmetry_Int_Tables_number   1
_chemical_formula_structural   Th2Mn2Fe7Co3P7
_chemical_formula_sum   'Th2 Mn2 Fe7 Co3 P7'
_cell_volume   265.23631683
_cell_formula_units_Z   1
loop_
 _symmetry_equiv_pos_site_id
 _symmetry_equiv_pos_as_xyz
  1  'x, y, z'
loop_
 _atom_site_type_symbol
 _atom_site_label
 _atom_site_symmetry_multiplicity
 _atom_site_fract_x
 _atom_site_fract_y
 _atom_site_fract_z
 _atom_site_occupancy
  Th  Th0  1  0.330982  0.664022  0.000000  1
  Th  Th1  1  0.999270  0.000322  0.500000  1
  Mn  Mn2  1  0.774906  0.556270  0.500000  1
  Mn  Mn3  1  0.444797  0.216675  0.500000  1
  Fe  Fe4  1  0.543854  0.059517  0.000000  1
  Fe  Fe5  1  0.938687  0.483801  0.000000  1
  Fe  Fe6  1  0.516738  0.454163  0.000000  1
  Fe  Fe7  1  0.616650  0.898452  0.500000  1
  Fe  Fe8  1  0.102862  0.718787  0.500000  1
  Fe  Fe9  1  0.280341  0.383745  0.500000  1
  Fe  Fe10  1  0.787801  0.231643  0.500000  1
  Co  Co11  1  0.030773  0.269127  0.000000  1
  Co  Co12  1  0.731349  0.763675  0.000000  1
  Co  Co13  1  0.236715  0.968663  0.000000  1
  P  P14  1  0.766608  0.033009  0.000000  1
  P  P15  1  0.971622  0.737402  0.000000  1
  P  P16  1  0.262432  0.234188  0.000000  1
  P  P17  1  0.379005  0.933353  0.500000  1
  P  P18  1  0.059293  0.439436  0.500000  1
  P  P19  1  0.556825  0.621966  0.500000  1
  P  P20  1  0.668494  0.331781  0.000000  1
