# generated using pymatgen
data_Ho3Lu(B4Ir)4
_symmetry_space_group_name_H-M   'P 1'
_cell_length_a   3.56145800
_cell_length_b   5.95289060
_cell_length_c   11.54690516
_cell_angle_alpha   89.94867662
_cell_angle_beta   90.00000000
_cell_angle_gamma   90.00000000
_symmetry_Int_Tables_number   1
_chemical_formula_structural   Ho3Lu(B4Ir)4
_chemical_formula_sum   'Ho3 Lu1 B16 Ir4'
_cell_volume   244.80548979
_cell_formula_units_Z   1
loop_
 _symmetry_equiv_pos_site_id
 _symmetry_equiv_pos_as_xyz
  1  'x, y, z'
loop_
 _atom_site_type_symbol
 _atom_site_label
 _atom_site_symmetry_multiplicity
 _atom_site_fract_x
 _atom_site_fract_y
 _atom_site_fract_z
 _atom_site_occupancy
  Ho  Ho0  1  0.000000  0.632126  0.351515  1
  Ho  Ho1  1  0.000000  0.367663  0.648652  1
  Ho  Ho2  1  0.000000  0.132293  0.148207  1
  Lu  Lu3  1  0.000000  0.868071  0.851652  1
  B  B4  1  0.500000  0.791801  0.187754  1
  B  B5  1  0.500000  0.206107  0.812416  1
  B  B6  1  0.500000  0.291923  0.312002  1
  B  B7  1  0.500000  0.708151  0.688733  1
  B  B8  1  0.500000  0.864286  0.029049  1
  B  B9  1  0.500000  0.135512  0.969648  1
  B  B10  1  0.500000  0.363852  0.470318  1
  B  B11  1  0.500000  0.636463  0.530008  1
  B  B12  1  0.500000  0.887884  0.453339  1
  B  B13  1  0.500000  0.111974  0.547133  1
  B  B14  1  0.500000  0.388187  0.046253  1
  B  B15  1  0.500000  0.613585  0.952451  1
  B  B16  1  0.500000  0.977103  0.306945  1
  B  B17  1  0.500000  0.022543  0.693839  1
  B  B18  1  0.500000  0.477063  0.192607  1
  B  B19  1  0.500000  0.524171  0.807289  1
  Ir  Ir20  1  0.000000  0.645032  0.095938  1
  Ir  Ir21  1  0.000000  0.354834  0.902741  1
  Ir  Ir22  1  0.000000  0.143804  0.403420  1
  Ir  Ir23  1  0.000000  0.855572  0.598092  1
