# generated using pymatgen
data_UPaReB6
_symmetry_space_group_name_H-M   'P 1'
_cell_length_a   3.67614500
_cell_length_b   9.32101500
_cell_length_c   11.41562200
_cell_angle_alpha   90.00000000
_cell_angle_beta   90.00000000
_cell_angle_gamma   90.00000000
_symmetry_Int_Tables_number   1
_chemical_formula_structural   UPaReB6
_chemical_formula_sum   'U4 Pa4 Re4 B24'
_cell_volume   391.16088475
_cell_formula_units_Z   4
loop_
 _symmetry_equiv_pos_site_id
 _symmetry_equiv_pos_as_xyz
  1  'x, y, z'
loop_
 _atom_site_type_symbol
 _atom_site_label
 _atom_site_symmetry_multiplicity
 _atom_site_fract_x
 _atom_site_fract_y
 _atom_site_fract_z
 _atom_site_occupancy
  U  U0  1  0.000000  0.956664  0.395937  1
  U  U1  1  0.000000  0.043336  0.604063  1
  U  U2  1  0.000000  0.456664  0.104063  1
  U  U3  1  0.000000  0.543336  0.895937  1
  Pa  Pa4  1  0.000000  0.334738  0.407206  1
  Pa  Pa5  1  0.000000  0.665262  0.592794  1
  Pa  Pa6  1  0.000000  0.834738  0.092794  1
  Pa  Pa7  1  0.000000  0.165262  0.907206  1
  Re  Re8  1  0.000000  0.645994  0.319438  1
  Re  Re9  1  0.000000  0.354006  0.680562  1
  Re  Re10  1  0.000000  0.145994  0.180562  1
  Re  Re11  1  0.000000  0.854006  0.819438  1
  B  B12  1  0.500000  0.551107  0.431951  1
  B  B13  1  0.500000  0.448893  0.568049  1
  B  B14  1  0.500000  0.051107  0.068049  1
  B  B15  1  0.500000  0.948893  0.931951  1
  B  B16  1  0.500000  0.743580  0.423188  1
  B  B17  1  0.500000  0.256420  0.576812  1
  B  B18  1  0.500000  0.243580  0.076812  1
  B  B19  1  0.500000  0.756420  0.923188  1
  B  B20  1  0.500000  0.803793  0.273736  1
  B  B21  1  0.500000  0.196207  0.726264  1
  B  B22  1  0.500000  0.303793  0.226264  1
  B  B23  1  0.500000  0.696207  0.773736  1
  B  B24  1  0.500000  0.644554  0.188268  1
  B  B25  1  0.500000  0.355446  0.811732  1
  B  B26  1  0.500000  0.144554  0.311732  1
  B  B27  1  0.500000  0.855446  0.688268  1
  B  B28  1  0.500000  0.987081  0.219567  1
  B  B29  1  0.500000  0.012919  0.780433  1
  B  B30  1  0.500000  0.487081  0.280433  1
  B  B31  1  0.500000  0.512919  0.719567  1
  B  B32  1  0.500000  0.641314  0.039151  1
  B  B33  1  0.500000  0.358686  0.960849  1
  B  B34  1  0.500000  0.141314  0.460849  1
  B  B35  1  0.500000  0.858686  0.539151  1
