# generated using pymatgen
data_NdDy16Tm3Pb16
_symmetry_space_group_name_H-M   'P 1'
_cell_length_a   8.19306875
_cell_length_b   8.28362074
_cell_length_c   15.66881460
_cell_angle_alpha   90.02412758
_cell_angle_beta   89.65922285
_cell_angle_gamma   89.78926553
_symmetry_Int_Tables_number   1
_chemical_formula_structural   NdDy16Tm3Pb16
_chemical_formula_sum   'Nd1 Dy16 Tm3 Pb16'
_cell_volume   1063.38929923
_cell_formula_units_Z   1
loop_
 _symmetry_equiv_pos_site_id
 _symmetry_equiv_pos_as_xyz
  1  'x, y, z'
loop_
 _atom_site_type_symbol
 _atom_site_label
 _atom_site_symmetry_multiplicity
 _atom_site_fract_x
 _atom_site_fract_y
 _atom_site_fract_z
 _atom_site_occupancy
  Nd  Nd0  1  0.971041  0.821595  0.596991  1
  Dy  Dy1  1  0.625997  0.157615  0.622183  1
  Dy  Dy2  1  0.124549  0.341084  0.880169  1
  Dy  Dy3  1  0.376249  0.842291  0.121778  1
  Dy  Dy4  1  0.872361  0.656745  0.377502  1
  Dy  Dy5  1  0.373455  0.842446  0.377420  1
  Dy  Dy6  1  0.875781  0.657715  0.121234  1
  Dy  Dy7  1  0.622650  0.158003  0.878852  1
  Dy  Dy8  1  0.125763  0.342196  0.621480  1
  Dy  Dy9  1  0.464616  0.675148  0.599205  1
  Dy  Dy10  1  0.962390  0.824632  0.900019  1
  Dy  Dy11  1  0.537209  0.324890  0.100298  1
  Dy  Dy12  1  0.034510  0.177607  0.400247  1
  Dy  Dy13  1  0.534308  0.323934  0.400282  1
  Dy  Dy14  1  0.036736  0.175603  0.099911  1
  Dy  Dy15  1  0.463317  0.675221  0.901708  1
  Dy  Dy16  1  0.792738  0.496006  0.750826  1
  Tm  Tm17  1  0.292688  0.005062  0.751074  1
  Tm  Tm18  1  0.207182  0.503991  0.249774  1
  Tm  Tm19  1  0.706904  0.995839  0.248954  1
  Pb  Pb20  1  0.714053  0.968055  0.454230  1
  Pb  Pb21  1  0.218285  0.533532  0.044117  1
  Pb  Pb22  1  0.281365  0.031623  0.956823  1
  Pb  Pb23  1  0.781369  0.462677  0.542238  1
  Pb  Pb24  1  0.289459  0.039633  0.542176  1
  Pb  Pb25  1  0.781532  0.465962  0.957482  1
  Pb  Pb26  1  0.718054  0.967098  0.043410  1
  Pb  Pb27  1  0.216104  0.535938  0.456592  1
  Pb  Pb28  1  0.428812  0.374585  0.750320  1
  Pb  Pb29  1  0.930706  0.125939  0.750584  1
  Pb  Pb30  1  0.569313  0.624710  0.249648  1
  Pb  Pb31  1  0.068544  0.874070  0.249773  1
  Pb  Pb32  1  0.650828  0.844834  0.750571  1
  Pb  Pb33  1  0.156002  0.653902  0.752292  1
  Pb  Pb34  1  0.347388  0.156414  0.249988  1
  Pb  Pb35  1  0.847742  0.343409  0.249853  1
