# generated using pymatgen
data_Pr16MgIn3Os4
_symmetry_space_group_name_H-M   'P 1'
_cell_length_a   10.04748609
_cell_length_b   10.04819193
_cell_length_c   10.04742314
_cell_angle_alpha   59.93105109
_cell_angle_beta   59.92722445
_cell_angle_gamma   59.93341932
_symmetry_Int_Tables_number   1
_chemical_formula_structural   Pr16MgIn3Os4
_chemical_formula_sum   'Pr16 Mg1 In3 Os4'
_cell_volume   716.14422739
_cell_formula_units_Z   1
loop_
 _symmetry_equiv_pos_site_id
 _symmetry_equiv_pos_as_xyz
  1  'x, y, z'
loop_
 _atom_site_type_symbol
 _atom_site_label
 _atom_site_symmetry_multiplicity
 _atom_site_fract_x
 _atom_site_fract_y
 _atom_site_fract_z
 _atom_site_occupancy
  Pr  Pr0  1  0.289655  0.903502  0.903487  1
  Pr  Pr1  1  0.691023  0.691023  0.308348  1
  Pr  Pr2  1  0.903493  0.903501  0.289653  1
  Pr  Pr3  1  0.306782  0.693009  0.306780  1
  Pr  Pr4  1  0.693014  0.306782  0.306781  1
  Pr  Pr5  1  0.061646  0.440368  0.440384  1
  Pr  Pr6  1  0.443406  0.056462  0.056470  1
  Pr  Pr7  1  0.056467  0.056463  0.443409  1
  Pr  Pr8  1  0.306781  0.306779  0.693020  1
  Pr  Pr9  1  0.440371  0.061656  0.440376  1
  Pr  Pr10  1  0.903276  0.903279  0.903274  1
  Pr  Pr11  1  0.440382  0.440369  0.061641  1
  Pr  Pr12  1  0.308345  0.691026  0.691021  1
  Pr  Pr13  1  0.691023  0.308342  0.691025  1
  Pr  Pr14  1  0.056462  0.443418  0.056465  1
  Pr  Pr15  1  0.903497  0.289654  0.903491  1
  Mg  Mg16  1  0.674942  0.674940  0.674943  1
  In  In17  1  0.669682  0.669673  0.992135  1
  In  In18  1  0.992134  0.669672  0.669683  1
  In  In19  1  0.669675  0.992139  0.669673  1
  Os  Os20  1  0.110866  0.110867  0.110858  1
  Os  Os21  1  0.111051  0.111039  0.664975  1
  Os  Os22  1  0.664974  0.111055  0.111046  1
  Os  Os23  1  0.111054  0.664979  0.111062  1
