# generated using pymatgen
data_TaCdSbPbO7
_symmetry_space_group_name_H-M   'P 1'
_cell_length_a   7.55565515
_cell_length_b   7.55565554
_cell_length_c   7.55565477
_cell_angle_alpha   120.60309524
_cell_angle_beta   120.61478369
_cell_angle_gamma   88.94849232
_symmetry_Int_Tables_number   1
_chemical_formula_structural   TaCdSbPbO7
_chemical_formula_sum   'Ta2 Cd2 Sb2 Pb2 O14'
_cell_volume   302.13861070
_cell_formula_units_Z   2
loop_
 _symmetry_equiv_pos_site_id
 _symmetry_equiv_pos_as_xyz
  1  'x, y, z'
loop_
 _atom_site_type_symbol
 _atom_site_label
 _atom_site_symmetry_multiplicity
 _atom_site_fract_x
 _atom_site_fract_y
 _atom_site_fract_z
 _atom_site_occupancy
  Ta  Ta0  1  0.500000  0.000000  0.000000  1
  Ta  Ta1  1  0.500000  0.500000  0.500000  1
  Cd  Cd2  1  0.000000  0.000000  0.000000  1
  Cd  Cd3  1  0.500000  0.500000  0.000000  1
  Sb  Sb4  1  0.500000  0.000000  0.500000  1
  Sb  Sb5  1  0.000000  0.500000  0.500000  1
  Pb  Pb6  1  0.000000  0.000000  0.500000  1
  Pb  Pb7  1  0.000000  0.500000  0.000000  1
  O  O8  1  0.446560  0.078654  0.763931  1
  O  O9  1  0.553440  0.317372  0.632094  1
  O  O10  1  0.185278  0.421346  0.367906  1
  O  O11  1  0.814722  0.182628  0.236069  1
  O  O12  1  0.553440  0.921346  0.236069  1
  O  O13  1  0.446560  0.682628  0.367906  1
  O  O14  1  0.814722  0.578654  0.632094  1
  O  O15  1  0.185278  0.817372  0.763931  1
  O  O16  1  0.584582  0.750000  0.834582  1
  O  O17  1  0.415418  0.250000  0.165418  1
  O  O18  1  0.176930  0.917061  0.259869  1
  O  O19  1  0.823070  0.082939  0.740131  1
  O  O20  1  0.842806  0.582939  0.259869  1
  O  O21  1  0.157194  0.417061  0.740131  1
