# generated using pymatgen
data_MnV7S12
_symmetry_space_group_name_H-M   'P 1'
_cell_length_a   5.56887600
_cell_length_b   5.56887729
_cell_length_c   12.06221900
_cell_angle_alpha   90.00000000
_cell_angle_beta   90.00000000
_cell_angle_gamma   120.00000421
_symmetry_Int_Tables_number   1
_chemical_formula_structural   MnV7S12
_chemical_formula_sum   'Mn1 V7 S12'
_cell_volume   323.96121464
_cell_formula_units_Z   1
loop_
 _symmetry_equiv_pos_site_id
 _symmetry_equiv_pos_as_xyz
  1  'x, y, z'
loop_
 _atom_site_type_symbol
 _atom_site_label
 _atom_site_symmetry_multiplicity
 _atom_site_fract_x
 _atom_site_fract_y
 _atom_site_fract_z
 _atom_site_occupancy
  Mn  Mn0  1  0.333333  0.666667  0.250000  1
  V  V1  1  0.000000  0.000000  0.502391  1
  V  V2  1  0.000000  0.000000  0.997609  1
  V  V3  1  0.333333  0.666667  0.997382  1
  V  V4  1  0.666667  0.333333  0.998463  1
  V  V5  1  0.666667  0.333333  0.501537  1
  V  V6  1  0.333333  0.666667  0.502618  1
  V  V7  1  0.666667  0.333333  0.750000  1
  S  S8  1  0.332593  0.329085  0.380147  1
  S  S9  1  0.670915  0.003508  0.380147  1
  S  S10  1  0.996492  0.667407  0.380147  1
  S  S11  1  0.333331  0.333356  0.623182  1
  S  S12  1  0.000025  0.666669  0.623182  1
  S  S13  1  0.666644  0.999975  0.623182  1
  S  S14  1  0.666644  0.666669  0.876818  1
  S  S15  1  0.333331  0.999975  0.876818  1
  S  S16  1  0.000025  0.333356  0.876818  1
  S  S17  1  0.670915  0.667407  0.119853  1
  S  S18  1  0.996492  0.329085  0.119853  1
  S  S19  1  0.332593  0.003508  0.119853  1
