# generated using pymatgen
data_Ba2Tb3Bi4
_symmetry_space_group_name_H-M   'P 1'
_cell_length_a   8.87054600
_cell_length_b   8.72120100
_cell_length_c   16.19495100
_cell_angle_alpha   90.00000000
_cell_angle_beta   90.00000000
_cell_angle_gamma   90.00000000
_symmetry_Int_Tables_number   1
_chemical_formula_structural   Ba2Tb3Bi4
_chemical_formula_sum   'Ba8 Tb12 Bi16'
_cell_volume   1252.87079746
_cell_formula_units_Z   4
loop_
 _symmetry_equiv_pos_site_id
 _symmetry_equiv_pos_as_xyz
  1  'x, y, z'
loop_
 _atom_site_type_symbol
 _atom_site_label
 _atom_site_symmetry_multiplicity
 _atom_site_fract_x
 _atom_site_fract_y
 _atom_site_fract_z
 _atom_site_occupancy
  Ba  Ba0  1  0.025241  0.173342  0.093352  1
  Ba  Ba1  1  0.525241  0.326658  0.406648  1
  Ba  Ba2  1  0.474759  0.673342  0.906648  1
  Ba  Ba3  1  0.974759  0.826658  0.593352  1
  Ba  Ba4  1  0.974759  0.826658  0.906648  1
  Ba  Ba5  1  0.474759  0.673342  0.593352  1
  Ba  Ba6  1  0.525241  0.326658  0.093352  1
  Ba  Ba7  1  0.025241  0.173342  0.406648  1
  Tb  Tb8  1  0.853273  0.646779  0.126215  1
  Tb  Tb9  1  0.353273  0.853221  0.373785  1
  Tb  Tb10  1  0.646727  0.146779  0.873785  1
  Tb  Tb11  1  0.146727  0.353221  0.626215  1
  Tb  Tb12  1  0.146727  0.353221  0.873785  1
  Tb  Tb13  1  0.646727  0.146779  0.626215  1
  Tb  Tb14  1  0.353273  0.853221  0.126215  1
  Tb  Tb15  1  0.853273  0.646779  0.373785  1
  Tb  Tb16  1  0.695750  0.996167  0.250000  1
  Tb  Tb17  1  0.195750  0.503833  0.250000  1
  Tb  Tb18  1  0.804250  0.496167  0.750000  1
  Tb  Tb19  1  0.304250  0.003833  0.750000  1
  Bi  Bi20  1  0.052072  0.848997  0.250000  1
  Bi  Bi21  1  0.552072  0.651003  0.250000  1
  Bi  Bi22  1  0.447928  0.348997  0.750000  1
  Bi  Bi23  1  0.947928  0.151003  0.750000  1
  Bi  Bi24  1  0.845180  0.353865  0.250000  1
  Bi  Bi25  1  0.345180  0.146135  0.250000  1
  Bi  Bi26  1  0.654820  0.853865  0.750000  1
  Bi  Bi27  1  0.154820  0.646135  0.750000  1
  Bi  Bi28  1  0.807107  0.448198  0.948313  1
  Bi  Bi29  1  0.307107  0.051802  0.551687  1
  Bi  Bi30  1  0.692893  0.948198  0.051687  1
  Bi  Bi31  1  0.192893  0.551802  0.448313  1
  Bi  Bi32  1  0.192893  0.551802  0.051687  1
  Bi  Bi33  1  0.692893  0.948198  0.448313  1
  Bi  Bi34  1  0.307107  0.051802  0.948313  1
  Bi  Bi35  1  0.807107  0.448198  0.551687  1
