# generated using pymatgen
data_Ce2Dy2Cd3Co2
_symmetry_space_group_name_H-M   'P 1'
_cell_length_a   3.61774700
_cell_length_b   7.64435209
_cell_length_c   8.05041836
_cell_angle_alpha   67.40242850
_cell_angle_beta   90.00000000
_cell_angle_gamma   90.00000000
_symmetry_Int_Tables_number   1
_chemical_formula_structural   Ce2Dy2Cd3Co2
_chemical_formula_sum   'Ce2 Dy2 Cd3 Co2'
_cell_volume   205.54437119
_cell_formula_units_Z   1
loop_
 _symmetry_equiv_pos_site_id
 _symmetry_equiv_pos_as_xyz
  1  'x, y, z'
loop_
 _atom_site_type_symbol
 _atom_site_label
 _atom_site_symmetry_multiplicity
 _atom_site_fract_x
 _atom_site_fract_y
 _atom_site_fract_z
 _atom_site_occupancy
  Ce  Ce0  1  0.500000  0.897330  0.210435  1
  Ce  Ce1  1  0.500000  0.102670  0.789565  1
  Dy  Dy2  1  0.500000  0.393814  0.318100  1
  Dy  Dy3  1  0.500000  0.606186  0.681900  1
  Cd  Cd4  1  0.000000  0.699325  0.989533  1
  Cd  Cd5  1  0.000000  0.300675  0.010467  1
  Cd  Cd6  1  0.000000  0.000000  0.500000  1
  Co  Co7  1  0.000000  0.672128  0.378264  1
  Co  Co8  1  0.000000  0.327872  0.621736  1
