# generated using pymatgen
data_KAlH6Ru
_symmetry_space_group_name_H-M   'P 1'
_cell_length_a   6.23517813
_cell_length_b   6.24451727
_cell_length_c   6.25582500
_cell_angle_alpha   42.62788940
_cell_angle_beta   42.63584763
_cell_angle_gamma   42.65663923
_symmetry_Int_Tables_number   1
_chemical_formula_structural   KAlH6Ru
_chemical_formula_sum   'K1 Al1 H6 Ru1'
_cell_volume   101.23112378
_cell_formula_units_Z   1
loop_
 _symmetry_equiv_pos_site_id
 _symmetry_equiv_pos_as_xyz
  1  'x, y, z'
loop_
 _atom_site_type_symbol
 _atom_site_label
 _atom_site_symmetry_multiplicity
 _atom_site_fract_x
 _atom_site_fract_y
 _atom_site_fract_z
 _atom_site_occupancy
  K  K0  1  0.789880  0.788814  0.787602  1
  Al  Al1  1  0.307586  0.309781  0.312385  1
  H  H2  1  0.753355  0.752611  0.262806  1
  H  H3  1  0.209079  0.727423  0.211329  1
  H  H4  1  0.726528  0.209556  0.210830  1
  H  H5  1  0.209778  0.210764  0.728469  1
  H  H6  1  0.754026  0.265707  0.752237  1
  H  H7  1  0.268117  0.753704  0.752764  1
  Ru  Ru8  1  0.981651  0.981636  0.981575  1
