# generated using pymatgen
data_Tm2InAuO7
_symmetry_space_group_name_H-M   'P 1'
_cell_length_a   6.35655631
_cell_length_b   6.41394290
_cell_length_c   7.33707600
_cell_angle_alpha   90.00000000
_cell_angle_beta   90.00000000
_cell_angle_gamma   109.32493638
_symmetry_Int_Tables_number   1
_chemical_formula_structural   Tm2InAuO7
_chemical_formula_sum   'Tm4 In2 Au2 O14'
_cell_volume   282.28264511
_cell_formula_units_Z   2
loop_
 _symmetry_equiv_pos_site_id
 _symmetry_equiv_pos_as_xyz
  1  'x, y, z'
loop_
 _atom_site_type_symbol
 _atom_site_label
 _atom_site_symmetry_multiplicity
 _atom_site_fract_x
 _atom_site_fract_y
 _atom_site_fract_z
 _atom_site_occupancy
  Tm  Tm0  1  0.530536  0.999982  0.750603  1
  Tm  Tm1  1  0.469464  0.000018  0.250603  1
  Tm  Tm2  1  0.500939  0.501114  0.499953  1
  Tm  Tm3  1  0.499061  0.498886  0.999953  1
  In  In4  1  0.004181  0.478460  0.749315  1
  In  In5  1  0.995819  0.521540  0.249315  1
  Au  Au6  1  0.999743  0.999895  0.499976  1
  Au  Au7  1  0.000257  0.000105  0.999976  1
  O  O8  1  0.644748  0.365311  0.749911  1
  O  O9  1  0.355252  0.634689  0.249911  1
  O  O10  1  0.919092  0.081117  0.750033  1
  O  O11  1  0.080908  0.918883  0.250033  1
  O  O12  1  0.916869  0.665070  0.522233  1
  O  O13  1  0.083131  0.334930  0.022233  1
  O  O14  1  0.337995  0.091019  0.975757  1
  O  O15  1  0.662005  0.908981  0.475757  1
  O  O16  1  0.362761  0.631017  0.750031  1
  O  O17  1  0.637239  0.368983  0.250031  1
  O  O18  1  0.917309  0.665490  0.976993  1
  O  O19  1  0.082691  0.334510  0.476993  1
  O  O20  1  0.337353  0.090062  0.525194  1
  O  O21  1  0.662647  0.909938  0.025194  1
