# generated using pymatgen
data_HoTh2ZnIn3Rh2
_symmetry_space_group_name_H-M   'P 1'
_cell_length_a   7.70540200
_cell_length_b   7.81317793
_cell_length_c   3.92588900
_cell_angle_alpha   90.00000000
_cell_angle_beta   90.00000000
_cell_angle_gamma   119.54473359
_symmetry_Int_Tables_number   1
_chemical_formula_structural   HoTh2ZnIn3Rh2
_chemical_formula_sum   'Ho1 Th2 Zn1 In3 Rh2'
_cell_volume   205.62020805
_cell_formula_units_Z   1
loop_
 _symmetry_equiv_pos_site_id
 _symmetry_equiv_pos_as_xyz
  1  'x, y, z'
loop_
 _atom_site_type_symbol
 _atom_site_label
 _atom_site_symmetry_multiplicity
 _atom_site_fract_x
 _atom_site_fract_y
 _atom_site_fract_z
 _atom_site_occupancy
  Ho  Ho0  1  0.408361  0.000000  0.500000  1
  Th  Th1  1  0.001898  0.417039  0.500000  1
  Th  Th2  1  0.584859  0.582961  0.500000  1
  Zn  Zn3  1  0.990621  0.000000  0.500000  1
  In  In4  1  0.256346  0.243264  0.000000  1
  In  In5  1  0.013082  0.756736  0.000000  1
  In  In6  1  0.730427  0.000000  0.000000  1
  Rh  Rh7  1  0.331220  0.648035  0.000000  1
  Rh  Rh8  1  0.683186  0.351965  0.000000  1
