# generated using pymatgen
data_Sm4Er4B24OsRu3
_symmetry_space_group_name_H-M   'P 1'
_cell_length_a   3.68039600
_cell_length_b   9.16675478
_cell_length_c   11.57981903
_cell_angle_alpha   90.03196812
_cell_angle_beta   90.00000000
_cell_angle_gamma   90.00000000
_symmetry_Int_Tables_number   1
_chemical_formula_structural   Sm4Er4B24OsRu3
_chemical_formula_sum   'Sm4 Er4 B24 Os1 Ru3'
_cell_volume   390.67162440
_cell_formula_units_Z   1
loop_
 _symmetry_equiv_pos_site_id
 _symmetry_equiv_pos_as_xyz
  1  'x, y, z'
loop_
 _atom_site_type_symbol
 _atom_site_label
 _atom_site_symmetry_multiplicity
 _atom_site_fract_x
 _atom_site_fract_y
 _atom_site_fract_z
 _atom_site_occupancy
  Sm  Sm0  1  0.000000  0.322873  0.414346  1
  Sm  Sm1  1  0.000000  0.677610  0.586008  1
  Sm  Sm2  1  0.000000  0.822487  0.085674  1
  Sm  Sm3  1  0.000000  0.177317  0.914262  1
  Er  Er4  1  0.000000  0.943876  0.371952  1
  Er  Er5  1  0.000000  0.056325  0.627339  1
  Er  Er6  1  0.000000  0.443772  0.128086  1
  Er  Er7  1  0.000000  0.555563  0.872409  1
  B  B8  1  0.500000  0.555547  0.431523  1
  B  B9  1  0.500000  0.444711  0.568533  1
  B  B10  1  0.500000  0.055417  0.068593  1
  B  B11  1  0.500000  0.944776  0.931519  1
  B  B12  1  0.500000  0.749518  0.418276  1
  B  B13  1  0.500000  0.250772  0.581607  1
  B  B14  1  0.500000  0.249495  0.081789  1
  B  B15  1  0.500000  0.750471  0.918231  1
  B  B16  1  0.500000  0.790802  0.266537  1
  B  B17  1  0.500000  0.209128  0.733335  1
  B  B18  1  0.500000  0.290835  0.233523  1
  B  B19  1  0.500000  0.708867  0.766511  1
  B  B20  1  0.500000  0.630954  0.184997  1
  B  B21  1  0.500000  0.368863  0.815069  1
  B  B22  1  0.500000  0.131031  0.315051  1
  B  B23  1  0.500000  0.869072  0.685035  1
  B  B24  1  0.500000  0.984676  0.213904  1
  B  B25  1  0.500000  0.015586  0.786047  1
  B  B26  1  0.500000  0.484669  0.286193  1
  B  B27  1  0.500000  0.515275  0.713930  1
  B  B28  1  0.500000  0.603241  0.028530  1
  B  B29  1  0.500000  0.396305  0.971700  1
  B  B30  1  0.500000  0.103789  0.471353  1
  B  B31  1  0.500000  0.896628  0.528247  1
  Os  Os32  1  0.000000  0.861183  0.819891  1
  Ru  Ru33  1  0.000000  0.638685  0.319956  1
  Ru  Ru34  1  0.000000  0.361262  0.680157  1
  Ru  Ru35  1  0.000000  0.138621  0.179887  1
