# generated using pymatgen
data_Na4Sr2MnV4FeO16
_symmetry_space_group_name_H-M   'P 1'
_cell_length_a   5.64822100
_cell_length_b   9.79197709
_cell_length_c   14.00242400
_cell_angle_alpha   89.94156307
_cell_angle_beta   90.00000000
_cell_angle_gamma   90.00000000
_symmetry_Int_Tables_number   1
_chemical_formula_structural   Na4Sr2MnV4FeO16
_chemical_formula_sum   'Na8 Sr4 Mn2 V8 Fe2 O32'
_cell_volume   774.43517105
_cell_formula_units_Z   2
loop_
 _symmetry_equiv_pos_site_id
 _symmetry_equiv_pos_as_xyz
  1  'x, y, z'
loop_
 _atom_site_type_symbol
 _atom_site_label
 _atom_site_symmetry_multiplicity
 _atom_site_fract_x
 _atom_site_fract_y
 _atom_site_fract_z
 _atom_site_occupancy
  Na  Na0  1  0.474137  0.816889  0.916045  1
  Na  Na1  1  0.974137  0.683111  0.083955  1
  Na  Na2  1  0.525863  0.183111  0.083955  1
  Na  Na3  1  0.025863  0.316889  0.916045  1
  Na  Na4  1  0.517852  0.149675  0.585760  1
  Na  Na5  1  0.017852  0.350325  0.414240  1
  Na  Na6  1  0.482148  0.850325  0.414240  1
  Na  Na7  1  0.982148  0.649675  0.585760  1
  Sr  Sr8  1  0.562566  0.459543  0.752134  1
  Sr  Sr9  1  0.062566  0.040457  0.247866  1
  Sr  Sr10  1  0.437434  0.540457  0.247866  1
  Sr  Sr11  1  0.937434  0.959543  0.752134  1
  Mn  Mn12  1  0.500000  0.500000  0.500000  1
  Mn  Mn13  1  0.000000  0.000000  0.500000  1
  V  V14  1  0.467416  0.817110  0.637307  1
  V  V15  1  0.967416  0.682890  0.362693  1
  V  V16  1  0.532584  0.182890  0.362693  1
  V  V17  1  0.032584  0.317110  0.637307  1
  V  V18  1  0.482324  0.147587  0.865315  1
  V  V19  1  0.982324  0.352413  0.134685  1
  V  V20  1  0.517676  0.852413  0.134685  1
  V  V21  1  0.017676  0.647587  0.865315  1
  Fe  Fe22  1  0.500000  0.500000  0.000000  1
  Fe  Fe23  1  0.000000  0.000000  0.000000  1
  O  O24  1  0.499571  0.639996  0.619916  1
  O  O25  1  0.999571  0.860004  0.380084  1
  O  O26  1  0.500429  0.360004  0.380084  1
  O  O27  1  0.000429  0.139996  0.619916  1
  O  O28  1  0.684794  0.907788  0.573840  1
  O  O29  1  0.184794  0.592212  0.426160  1
  O  O30  1  0.315206  0.092212  0.426160  1
  O  O31  1  0.815206  0.407788  0.573840  1
  O  O32  1  0.195943  0.080145  0.878674  1
  O  O33  1  0.695943  0.419855  0.121326  1
  O  O34  1  0.804057  0.919855  0.121326  1
  O  O35  1  0.304057  0.580145  0.878674  1
  O  O36  1  0.696905  0.038791  0.916862  1
  O  O37  1  0.196905  0.461209  0.083138  1
  O  O38  1  0.303095  0.961209  0.083138  1
  O  O39  1  0.803095  0.538791  0.916862  1
  O  O40  1  0.485347  0.303057  0.926369  1
  O  O41  1  0.985347  0.196943  0.073631  1
  O  O42  1  0.514653  0.696943  0.073631  1
  O  O43  1  0.014653  0.803057  0.926369  1
  O  O44  1  0.191306  0.866733  0.592384  1
  O  O45  1  0.691306  0.633267  0.407616  1
  O  O46  1  0.808694  0.133267  0.407616  1
  O  O47  1  0.308694  0.366733  0.592384  1
  O  O48  1  0.489314  0.864104  0.754921  1
  O  O49  1  0.989314  0.635896  0.245079  1
  O  O50  1  0.510686  0.135896  0.245079  1
  O  O51  1  0.010686  0.364104  0.754921  1
  O  O52  1  0.554868  0.185002  0.749057  1
  O  O53  1  0.054868  0.314998  0.250943  1
  O  O54  1  0.445132  0.814998  0.250943  1
  O  O55  1  0.945132  0.685002  0.749057  1
