# generated using pymatgen
data_TbYbDy2Ni13C4
_symmetry_space_group_name_H-M   'P 1'
_cell_length_a   8.35001702
_cell_length_b   8.34910270
_cell_length_c   3.84899000
_cell_angle_alpha   90.00000000
_cell_angle_beta   90.00000000
_cell_angle_gamma   91.07705263
_symmetry_Int_Tables_number   1
_chemical_formula_structural   TbYbDy2Ni13C4
_chemical_formula_sum   'Tb1 Yb1 Dy2 Ni13 C4'
_cell_volume   268.28550469
_cell_formula_units_Z   1
loop_
 _symmetry_equiv_pos_site_id
 _symmetry_equiv_pos_as_xyz
  1  'x, y, z'
loop_
 _atom_site_type_symbol
 _atom_site_label
 _atom_site_symmetry_multiplicity
 _atom_site_fract_x
 _atom_site_fract_y
 _atom_site_fract_z
 _atom_site_occupancy
  Tb  Tb0  1  0.346042  0.348762  0.500000  1
  Yb  Yb1  1  0.191760  0.808283  0.500000  1
  Dy  Dy2  1  0.812970  0.187059  0.500000  1
  Dy  Dy3  1  0.651356  0.654069  0.500000  1
  Ni  Ni4  1  0.000411  0.999353  0.000000  1
  Ni  Ni5  1  0.215583  0.571234  0.000000  1
  Ni  Ni6  1  0.784521  0.431237  0.000000  1
  Ni  Ni7  1  0.429114  0.784492  0.000000  1
  Ni  Ni8  1  0.569111  0.215543  0.000000  1
  Ni  Ni9  1  0.997714  0.501343  0.500000  1
  Ni  Ni10  1  0.499072  0.001578  0.500000  1
  Ni  Ni11  1  0.072628  0.290465  0.000000  1
  Ni  Ni12  1  0.925024  0.710147  0.000000  1
  Ni  Ni13  1  0.709367  0.926908  0.000000  1
  Ni  Ni14  1  0.289673  0.074461  0.000000  1
  Ni  Ni15  1  0.124247  0.116771  0.500000  1
  Ni  Ni16  1  0.882789  0.875383  0.500000  1
  C  C17  1  0.000737  0.501777  0.000000  1
  C  C18  1  0.498227  0.999510  0.000000  1
  C  C19  1  0.442704  0.557945  0.000000  1
  C  C20  1  0.556949  0.443683  0.000000  1
