# generated using pymatgen
data_YbAlAu5
_symmetry_space_group_name_H-M   'P 1'
_cell_length_a   5.68171668
_cell_length_b   5.68171683
_cell_length_c   5.68171702
_cell_angle_alpha   102.94215556
_cell_angle_beta   102.94215458
_cell_angle_gamma   123.50882370
_symmetry_Int_Tables_number   1
_chemical_formula_structural   YbAlAu5
_chemical_formula_sum   'Yb1 Al1 Au5'
_cell_volume   134.72280689
_cell_formula_units_Z   1
loop_
 _symmetry_equiv_pos_site_id
 _symmetry_equiv_pos_as_xyz
  1  'x, y, z'
loop_
 _atom_site_type_symbol
 _atom_site_label
 _atom_site_symmetry_multiplicity
 _atom_site_fract_x
 _atom_site_fract_y
 _atom_site_fract_z
 _atom_site_occupancy
  Yb  Yb0  1  0.000000  0.000000  0.000000  1
  Al  Al1  1  0.250000  0.750000  0.500000  1
  Au  Au2  1  0.700594  0.299406  0.000000  1
  Au  Au3  1  0.299406  0.700594  0.000000  1
  Au  Au4  1  0.299406  0.299406  0.598812  1
  Au  Au5  1  0.700594  0.700594  0.401188  1
  Au  Au6  1  0.750000  0.250000  0.500000  1
