# generated using pymatgen
data_Tb3U(VB4)4
_symmetry_space_group_name_H-M   'P 1'
_cell_length_a   3.47964200
_cell_length_b   5.99108731
_cell_length_c   11.60821654
_cell_angle_alpha   90.07586014
_cell_angle_beta   90.00000000
_cell_angle_gamma   90.00000000
_symmetry_Int_Tables_number   1
_chemical_formula_structural   Tb3U(VB4)4
_chemical_formula_sum   'Tb3 U1 V4 B16'
_cell_volume   241.99440971
_cell_formula_units_Z   1
loop_
 _symmetry_equiv_pos_site_id
 _symmetry_equiv_pos_as_xyz
  1  'x, y, z'
loop_
 _atom_site_type_symbol
 _atom_site_label
 _atom_site_symmetry_multiplicity
 _atom_site_fract_x
 _atom_site_fract_y
 _atom_site_fract_z
 _atom_site_occupancy
  Tb  Tb0  1  0.000000  0.874614  0.848102  1
  Tb  Tb1  1  0.000000  0.622827  0.350056  1
  Tb  Tb2  1  0.000000  0.375582  0.650745  1
  U  U3  1  0.000000  0.125869  0.151249  1
  V  V4  1  0.000000  0.125447  0.414313  1
  V  V5  1  0.000000  0.873109  0.581685  1
  V  V6  1  0.000000  0.627443  0.084729  1
  V  V7  1  0.000000  0.371891  0.919871  1
  B  B8  1  0.500000  0.472265  0.191330  1
  B  B9  1  0.500000  0.523444  0.808301  1
  B  B10  1  0.500000  0.977921  0.306860  1
  B  B11  1  0.500000  0.024215  0.691756  1
  B  B12  1  0.500000  0.282561  0.312782  1
  B  B13  1  0.500000  0.715248  0.685685  1
  B  B14  1  0.500000  0.788225  0.184656  1
  B  B15  1  0.500000  0.216914  0.814463  1
  B  B16  1  0.500000  0.363965  0.466603  1
  B  B17  1  0.500000  0.635820  0.532242  1
  B  B18  1  0.500000  0.866092  0.034277  1
  B  B19  1  0.500000  0.136438  0.968981  1
  B  B20  1  0.500000  0.385493  0.048057  1
  B  B21  1  0.500000  0.614041  0.953937  1
  B  B22  1  0.500000  0.886261  0.452885  1
  B  B23  1  0.500000  0.114317  0.546432  1
