# generated using pymatgen
data_AlNi4Mo7C2
_symmetry_space_group_name_H-M   'P 1'
_cell_length_a   8.02831188
_cell_length_b   7.95920519
_cell_length_c   7.95920570
_cell_angle_alpha   59.49045824
_cell_angle_beta   59.71236685
_cell_angle_gamma   59.71236906
_symmetry_Int_Tables_number   1
_chemical_formula_structural   AlNi4Mo7C2
_chemical_formula_sum   'Al2 Ni8 Mo14 C4'
_cell_volume   356.66541916
_cell_formula_units_Z   2
loop_
 _symmetry_equiv_pos_site_id
 _symmetry_equiv_pos_as_xyz
  1  'x, y, z'
loop_
 _atom_site_type_symbol
 _atom_site_label
 _atom_site_symmetry_multiplicity
 _atom_site_fract_x
 _atom_site_fract_y
 _atom_site_fract_z
 _atom_site_occupancy
  Al  Al0  1  0.125000  0.125000  0.625000  1
  Al  Al1  1  0.125000  0.625000  0.125000  1
  Ni  Ni2  1  0.922057  0.911884  0.244002  1
  Ni  Ni3  1  0.327329  0.336530  0.336530  1
  Ni  Ni4  1  0.250388  0.913470  0.913470  1
  Ni  Ni5  1  0.327943  0.005998  0.338116  1
  Ni  Ni6  1  0.999612  0.336530  0.336530  1
  Ni  Ni7  1  0.327943  0.338116  0.005998  1
  Ni  Ni8  1  0.922671  0.913470  0.913470  1
  Ni  Ni9  1  0.922057  0.244002  0.911884  1
  Mo  Mo10  1  0.125000  0.125000  0.125000  1
  Mo  Mo11  1  0.693435  0.306565  0.306565  1
  Mo  Mo12  1  0.936092  0.938318  0.559489  1
  Mo  Mo13  1  0.683900  0.690511  0.311682  1
  Mo  Mo14  1  0.683900  0.311682  0.690511  1
  Mo  Mo15  1  0.313908  0.690511  0.311682  1
  Mo  Mo16  1  0.566100  0.938318  0.559489  1
  Mo  Mo17  1  0.556565  0.943435  0.943435  1
  Mo  Mo18  1  0.932812  0.567188  0.567188  1
  Mo  Mo19  1  0.936092  0.559489  0.938318  1
  Mo  Mo20  1  0.313908  0.311682  0.690511  1
  Mo  Mo21  1  0.566100  0.559489  0.938318  1
  Mo  Mo22  1  0.625000  0.125000  0.125000  1
  Mo  Mo23  1  0.317188  0.682812  0.682812  1
  C  C24  1  0.625000  0.625000  0.625000  1
  C  C25  1  0.625000  0.625000  0.125000  1
  C  C26  1  0.125000  0.625000  0.625000  1
  C  C27  1  0.625000  0.125000  0.625000  1
