# generated using pymatgen
data_Gd3MgZn2Pt3
_symmetry_space_group_name_H-M   'P 1'
_cell_length_a   7.45607800
_cell_length_b   7.53001344
_cell_length_c   4.01657300
_cell_angle_alpha   90.00000000
_cell_angle_beta   90.00000000
_cell_angle_gamma   119.67572589
_symmetry_Int_Tables_number   1
_chemical_formula_structural   Gd3MgZn2Pt3
_chemical_formula_sum   'Gd3 Mg1 Zn2 Pt3'
_cell_volume   195.93063113
_cell_formula_units_Z   1
loop_
 _symmetry_equiv_pos_site_id
 _symmetry_equiv_pos_as_xyz
  1  'x, y, z'
loop_
 _atom_site_type_symbol
 _atom_site_label
 _atom_site_symmetry_multiplicity
 _atom_site_fract_x
 _atom_site_fract_y
 _atom_site_fract_z
 _atom_site_occupancy
  Gd  Gd0  1  0.408667  0.417900  0.000000  1
  Gd  Gd1  1  0.607258  0.000000  0.000000  1
  Gd  Gd2  1  0.990766  0.582100  0.000000  1
  Mg  Mg3  1  0.243481  0.000000  0.500000  1
  Zn  Zn4  1  0.003202  0.249156  0.500000  1
  Zn  Zn5  1  0.754046  0.750844  0.500000  1
  Pt  Pt6  1  0.996330  0.000000  0.000000  1
  Pt  Pt7  1  0.663743  0.331237  0.500000  1
  Pt  Pt8  1  0.332506  0.668763  0.500000  1
