# generated using pymatgen
data_Nb14SiGe3As4
_symmetry_space_group_name_H-M   'P 1'
_cell_length_a   3.52711900
_cell_length_b   7.98974434
_cell_length_c   14.26625689
_cell_angle_alpha   104.00331955
_cell_angle_beta   90.00000000
_cell_angle_gamma   102.75179340
_symmetry_Int_Tables_number   1
_chemical_formula_structural   Nb14SiGe3As4
_chemical_formula_sum   'Nb14 Si1 Ge3 As4'
_cell_volume   379.85869190
_cell_formula_units_Z   1
loop_
 _symmetry_equiv_pos_site_id
 _symmetry_equiv_pos_as_xyz
  1  'x, y, z'
loop_
 _atom_site_type_symbol
 _atom_site_label
 _atom_site_symmetry_multiplicity
 _atom_site_fract_x
 _atom_site_fract_y
 _atom_site_fract_z
 _atom_site_occupancy
  Nb  Nb0  1  0.000029  0.000058  0.000090  1
  Nb  Nb1  1  0.501088  0.002175  0.498949  1
  Nb  Nb2  1  0.428736  0.857473  0.825030  1
  Nb  Nb3  1  0.571235  0.142469  0.177180  1
  Nb  Nb4  1  0.197575  0.395149  0.310692  1
  Nb  Nb5  1  0.801727  0.603455  0.691218  1
  Nb  Nb6  1  0.210214  0.420428  0.797182  1
  Nb  Nb7  1  0.789991  0.579980  0.203525  1
  Nb  Nb8  1  0.333615  0.667228  0.032240  1
  Nb  Nb9  1  0.666551  0.333103  0.968386  1
  Nb  Nb10  1  0.000370  0.000740  0.660400  1
  Nb  Nb11  1  0.002501  0.005001  0.339809  1
  Nb  Nb12  1  0.178373  0.356743  0.543439  1
  Nb  Nb13  1  0.817577  0.635155  0.452317  1
  Si  Si14  1  0.629428  0.258854  0.400625  1
  Ge  Ge15  1  0.174296  0.348592  0.109137  1
  Ge  Ge16  1  0.825685  0.651371  0.891884  1
  Ge  Ge17  1  0.370444  0.740890  0.597830  1
  As  As18  1  0.373098  0.746195  0.334779  1
  As  As19  1  0.627449  0.254899  0.664895  1
  As  As20  1  0.062757  0.125513  0.847092  1
  As  As21  1  0.937264  0.874527  0.153304  1
