# generated using pymatgen
data_Yb3P6Ru2Rh7
_symmetry_space_group_name_H-M   'P 1'
_cell_length_a   3.92659300
_cell_length_b   11.25457000
_cell_length_c   12.65362400
_cell_angle_alpha   90.00000000
_cell_angle_beta   90.00000000
_cell_angle_gamma   90.00000000
_symmetry_Int_Tables_number   1
_chemical_formula_structural   Yb3P6Ru2Rh7
_chemical_formula_sum   'Yb6 P12 Ru4 Rh14'
_cell_volume   559.19041684
_cell_formula_units_Z   2
loop_
 _symmetry_equiv_pos_site_id
 _symmetry_equiv_pos_as_xyz
  1  'x, y, z'
loop_
 _atom_site_type_symbol
 _atom_site_label
 _atom_site_symmetry_multiplicity
 _atom_site_fract_x
 _atom_site_fract_y
 _atom_site_fract_z
 _atom_site_occupancy
  Yb  Yb0  1  0.000000  0.500000  0.526301  1
  Yb  Yb1  1  0.500000  0.000000  0.474690  1
  Yb  Yb2  1  0.500000  0.822946  0.207033  1
  Yb  Yb3  1  0.500000  0.177054  0.207033  1
  Yb  Yb4  1  0.000000  0.677687  0.793139  1
  Yb  Yb5  1  0.000000  0.322313  0.793139  1
  P  P6  1  0.500000  0.309661  0.615955  1
  P  P7  1  0.500000  0.690339  0.615955  1
  P  P8  1  0.000000  0.193286  0.382109  1
  P  P9  1  0.000000  0.806714  0.382109  1
  P  P10  1  0.500000  0.500000  0.881645  1
  P  P11  1  0.000000  0.000000  0.118918  1
  P  P12  1  0.500000  0.845819  0.894041  1
  P  P13  1  0.500000  0.154181  0.894041  1
  P  P14  1  0.000000  0.654326  0.105750  1
  P  P15  1  0.000000  0.345674  0.105750  1
  P  P16  1  0.500000  0.500000  0.347753  1
  P  P17  1  0.000000  0.000000  0.654003  1
  Ru  Ru18  1  0.000000  0.500000  0.988471  1
  Ru  Ru19  1  0.500000  0.000000  0.011946  1
  Ru  Ru20  1  0.500000  0.299123  0.430275  1
  Ru  Ru21  1  0.500000  0.700877  0.430275  1
  Rh  Rh22  1  0.000000  0.202443  0.570965  1
  Rh  Rh23  1  0.000000  0.797557  0.570965  1
  Rh  Rh24  1  0.500000  0.873816  0.712134  1
  Rh  Rh25  1  0.500000  0.126184  0.712134  1
  Rh  Rh26  1  0.000000  0.625484  0.286727  1
  Rh  Rh27  1  0.000000  0.374516  0.286727  1
  Rh  Rh28  1  0.500000  0.331269  0.990546  1
  Rh  Rh29  1  0.500000  0.668731  0.990546  1
  Rh  Rh30  1  0.000000  0.168647  0.009268  1
  Rh  Rh31  1  0.000000  0.831353  0.009268  1
  Rh  Rh32  1  0.500000  0.500000  0.161768  1
  Rh  Rh33  1  0.000000  0.000000  0.837674  1
  Rh  Rh34  1  0.500000  0.500000  0.697529  1
  Rh  Rh35  1  0.000000  0.000000  0.303420  1
