# generated using pymatgen
data_DyHo2Er(TiAl3)2
_symmetry_space_group_name_H-M   'P 1'
_cell_length_a   9.50533664
_cell_length_b   9.50533682
_cell_length_c   9.50533711
_cell_angle_alpha   34.76396105
_cell_angle_beta   34.76395993
_cell_angle_gamma   34.76396464
_symmetry_Int_Tables_number   1
_chemical_formula_structural   DyHo2Er(TiAl3)2
_chemical_formula_sum   'Dy1 Ho2 Er1 Ti2 Al6'
_cell_volume   249.21326317
_cell_formula_units_Z   1
loop_
 _symmetry_equiv_pos_site_id
 _symmetry_equiv_pos_as_xyz
  1  'x, y, z'
loop_
 _atom_site_type_symbol
 _atom_site_label
 _atom_site_symmetry_multiplicity
 _atom_site_fract_x
 _atom_site_fract_y
 _atom_site_fract_z
 _atom_site_occupancy
  Dy  Dy0  1  0.186818  0.186818  0.186818  1
  Ho  Ho1  1  0.313494  0.313494  0.313494  1
  Ho  Ho2  1  0.686738  0.686738  0.686738  1
  Er  Er3  1  0.813183  0.813183  0.813183  1
  Ti  Ti4  1  0.499638  0.499638  0.499638  1
  Ti  Ti5  1  0.000217  0.000217  0.000217  1
  Al  Al6  1  0.249753  0.249753  0.750143  1
  Al  Al7  1  0.750179  0.750179  0.249908  1
  Al  Al8  1  0.249753  0.750143  0.249753  1
  Al  Al9  1  0.750179  0.249908  0.750179  1
  Al  Al10  1  0.750143  0.249753  0.249753  1
  Al  Al11  1  0.249908  0.750179  0.750179  1
