# generated using pymatgen
data_HoErTh(GaPt)3
_symmetry_space_group_name_H-M   'P 1'
_cell_length_a   7.38089814
_cell_length_b   7.36511318
_cell_length_c   3.88364400
_cell_angle_alpha   90.00000000
_cell_angle_beta   90.00000000
_cell_angle_gamma   119.89364221
_symmetry_Int_Tables_number   1
_chemical_formula_structural   HoErTh(GaPt)3
_chemical_formula_sum   'Ho1 Er1 Th1 Ga3 Pt3'
_cell_volume   183.03035916
_cell_formula_units_Z   1
loop_
 _symmetry_equiv_pos_site_id
 _symmetry_equiv_pos_as_xyz
  1  'x, y, z'
loop_
 _atom_site_type_symbol
 _atom_site_label
 _atom_site_symmetry_multiplicity
 _atom_site_fract_x
 _atom_site_fract_y
 _atom_site_fract_z
 _atom_site_occupancy
  Ho  Ho0  1  0.593268  0.000732  0.500000  1
  Er  Er1  1  0.406557  0.407329  0.500000  1
  Th  Th2  1  0.999974  0.588526  0.500000  1
  Ga  Ga3  1  0.739382  0.751005  0.000000  1
  Ga  Ga4  1  0.260536  0.011904  0.000000  1
  Ga  Ga5  1  0.000231  0.241372  0.000000  1
  Pt  Pt6  1  0.667782  0.335073  0.000000  1
  Pt  Pt7  1  0.331879  0.666105  0.000000  1
  Pt  Pt8  1  0.000391  0.997954  0.500000  1
