# generated using pymatgen
data_Hf9Zr6Sc(Pt2N)4
_symmetry_space_group_name_H-M   'P 1'
_cell_length_a   8.82564300
_cell_length_b   8.81377977
_cell_length_c   8.81378000
_cell_angle_alpha   59.99999914
_cell_angle_beta   60.04445423
_cell_angle_gamma   60.04445160
_symmetry_Int_Tables_number   1
_chemical_formula_structural   Hf9Zr6Sc(Pt2N)4
_chemical_formula_sum   'Hf9 Zr6 Sc1 Pt8 N4'
_cell_volume   485.11782731
_cell_formula_units_Z   1
loop_
 _symmetry_equiv_pos_site_id
 _symmetry_equiv_pos_as_xyz
  1  'x, y, z'
loop_
 _atom_site_type_symbol
 _atom_site_label
 _atom_site_symmetry_multiplicity
 _atom_site_fract_x
 _atom_site_fract_y
 _atom_site_fract_z
 _atom_site_occupancy
  Hf  Hf0  1  0.625279  0.124026  0.625348  1
  Hf  Hf1  1  0.625279  0.625348  0.124026  1
  Hf  Hf2  1  0.625279  0.625348  0.625348  1
  Hf  Hf3  1  0.818892  0.818408  0.181350  1
  Hf  Hf4  1  0.181348  0.182012  0.818320  1
  Hf  Hf5  1  0.818892  0.181350  0.818408  1
  Hf  Hf6  1  0.181348  0.818320  0.182012  1
  Hf  Hf7  1  0.181348  0.818320  0.818320  1
  Hf  Hf8  1  0.818892  0.181350  0.181350  1
  Zr  Zr9  1  0.432676  0.433208  0.067058  1
  Zr  Zr10  1  0.067103  0.066153  0.433372  1
  Zr  Zr11  1  0.432676  0.067058  0.433208  1
  Zr  Zr12  1  0.067103  0.433372  0.066153  1
  Zr  Zr13  1  0.067103  0.433372  0.433372  1
  Zr  Zr14  1  0.432676  0.067058  0.067058  1
  Sc  Sc15  1  0.124180  0.625274  0.625274  1
  Pt  Pt16  1  0.775561  0.408147  0.408147  1
  Pt  Pt17  1  0.408502  0.776431  0.407534  1
  Pt  Pt18  1  0.408502  0.407534  0.776431  1
  Pt  Pt19  1  0.408502  0.407534  0.407534  1
  Pt  Pt20  1  0.468205  0.843932  0.843932  1
  Pt  Pt21  1  0.843531  0.467190  0.844639  1
  Pt  Pt22  1  0.843531  0.844639  0.467190  1
  Pt  Pt23  1  0.843531  0.844639  0.844639  1
  N  N24  1  0.632741  0.122420  0.122420  1
  N  N25  1  0.122440  0.632761  0.122400  1
  N  N26  1  0.122440  0.122400  0.632761  1
  N  N27  1  0.122440  0.122400  0.122400  1
