# generated using pymatgen
data_Er4Sc6Sn7Pt
_symmetry_space_group_name_H-M   'P 1'
_cell_length_a   7.54423422
_cell_length_b   7.96085712
_cell_length_c   14.69314600
_cell_angle_alpha   90.00000000
_cell_angle_beta   90.00000000
_cell_angle_gamma   89.23512466
_symmetry_Int_Tables_number   1
_chemical_formula_structural   Er4Sc6Sn7Pt
_chemical_formula_sum   'Er8 Sc12 Sn14 Pt2'
_cell_volume   882.37071741
_cell_formula_units_Z   2
loop_
 _symmetry_equiv_pos_site_id
 _symmetry_equiv_pos_as_xyz
  1  'x, y, z'
loop_
 _atom_site_type_symbol
 _atom_site_label
 _atom_site_symmetry_multiplicity
 _atom_site_fract_x
 _atom_site_fract_y
 _atom_site_fract_z
 _atom_site_occupancy
  Er  Er0  1  0.993469  0.174087  0.094353  1
  Er  Er1  1  0.006531  0.825913  0.905647  1
  Er  Er2  1  0.506679  0.682059  0.906981  1
  Er  Er3  1  0.006531  0.825913  0.594353  1
  Er  Er4  1  0.493321  0.317941  0.093019  1
  Er  Er5  1  0.993469  0.174087  0.405647  1
  Er  Er6  1  0.493321  0.317941  0.406981  1
  Er  Er7  1  0.506679  0.682059  0.593019  1
  Sc  Sc8  1  0.175224  0.497147  0.750000  1
  Sc  Sc9  1  0.824776  0.502853  0.250000  1
  Sc  Sc10  1  0.312191  0.995859  0.250000  1
  Sc  Sc11  1  0.687809  0.004141  0.750000  1
  Sc  Sc12  1  0.312310  0.160058  0.630339  1
  Sc  Sc13  1  0.687690  0.839942  0.369661  1
  Sc  Sc14  1  0.137925  0.679986  0.366867  1
  Sc  Sc15  1  0.687690  0.839942  0.130339  1
  Sc  Sc16  1  0.862075  0.320014  0.633133  1
  Sc  Sc17  1  0.312310  0.160058  0.869661  1
  Sc  Sc18  1  0.862075  0.320014  0.866867  1
  Sc  Sc19  1  0.137925  0.679986  0.133133  1
  Sn  Sn20  1  0.464671  0.625528  0.250000  1
  Sn  Sn21  1  0.535329  0.374472  0.750000  1
  Sn  Sn22  1  0.304441  0.854906  0.750000  1
  Sn  Sn23  1  0.695559  0.145094  0.250000  1
  Sn  Sn24  1  0.191999  0.358219  0.250000  1
  Sn  Sn25  1  0.808001  0.641781  0.750000  1
  Sn  Sn26  1  0.186088  0.464360  0.537684  1
  Sn  Sn27  1  0.813912  0.535640  0.462316  1
  Sn  Sn28  1  0.323124  0.957697  0.456906  1
  Sn  Sn29  1  0.813912  0.535640  0.037684  1
  Sn  Sn30  1  0.676876  0.042303  0.543094  1
  Sn  Sn31  1  0.186088  0.464360  0.962316  1
  Sn  Sn32  1  0.676876  0.042303  0.956906  1
  Sn  Sn33  1  0.323124  0.957697  0.043094  1
  Pt  Pt34  1  0.031590  0.109251  0.750000  1
  Pt  Pt35  1  0.968410  0.890749  0.250000  1
