# generated using pymatgen
data_Ba2NaGdPb2
_symmetry_space_group_name_H-M   'P 1'
_cell_length_a   11.21920800
_cell_length_b   11.21920768
_cell_length_c   7.41723900
_cell_angle_alpha   90.00000000
_cell_angle_beta   90.00000000
_cell_angle_gamma   97.98193023
_symmetry_Int_Tables_number   1
_chemical_formula_structural   Ba2NaGdPb2
_chemical_formula_sum   'Ba8 Na4 Gd4 Pb8'
_cell_volume   924.56758458
_cell_formula_units_Z   4
loop_
 _symmetry_equiv_pos_site_id
 _symmetry_equiv_pos_as_xyz
  1  'x, y, z'
loop_
 _atom_site_type_symbol
 _atom_site_label
 _atom_site_symmetry_multiplicity
 _atom_site_fract_x
 _atom_site_fract_y
 _atom_site_fract_z
 _atom_site_occupancy
  Ba  Ba0  1  0.075153  0.424847  0.250000  1
  Ba  Ba1  1  0.424847  0.075153  0.750000  1
  Ba  Ba2  1  0.924847  0.575153  0.750000  1
  Ba  Ba3  1  0.575153  0.924847  0.250000  1
  Ba  Ba4  1  0.672409  0.327591  0.219956  1
  Ba  Ba5  1  0.827591  0.172409  0.719956  1
  Ba  Ba6  1  0.327591  0.672409  0.780044  1
  Ba  Ba7  1  0.172409  0.827591  0.280044  1
  Na  Na8  1  0.379721  0.379721  0.000000  1
  Na  Na9  1  0.120279  0.120279  0.500000  1
  Na  Na10  1  0.620279  0.620279  0.000000  1
  Na  Na11  1  0.879721  0.879721  0.500000  1
  Gd  Gd12  1  0.129034  0.129034  0.000000  1
  Gd  Gd13  1  0.370966  0.370966  0.500000  1
  Gd  Gd14  1  0.870966  0.870966  0.000000  1
  Gd  Gd15  1  0.629034  0.629034  0.500000  1
  Pb  Pb16  1  0.861918  0.638081  0.250000  1
  Pb  Pb17  1  0.638081  0.861918  0.750000  1
  Pb  Pb18  1  0.138081  0.361918  0.750000  1
  Pb  Pb19  1  0.361918  0.138081  0.250000  1
  Pb  Pb20  1  0.884953  0.115047  0.224320  1
  Pb  Pb21  1  0.615047  0.384953  0.724320  1
  Pb  Pb22  1  0.115047  0.884953  0.775680  1
  Pb  Pb23  1  0.384953  0.615047  0.275680  1
