# generated using pymatgen
data_LiCdPd5Pb
_symmetry_space_group_name_H-M   'P 1'
_cell_length_a   5.83971900
_cell_length_b   5.72787422
_cell_length_c   4.67050800
_cell_angle_alpha   90.00000000
_cell_angle_beta   90.00000000
_cell_angle_gamma   120.64805221
_symmetry_Int_Tables_number   1
_chemical_formula_structural   LiCdPd5Pb
_chemical_formula_sum   'Li1 Cd1 Pd5 Pb1'
_cell_volume   134.40237407
_cell_formula_units_Z   1
loop_
 _symmetry_equiv_pos_site_id
 _symmetry_equiv_pos_as_xyz
  1  'x, y, z'
loop_
 _atom_site_type_symbol
 _atom_site_label
 _atom_site_symmetry_multiplicity
 _atom_site_fract_x
 _atom_site_fract_y
 _atom_site_fract_z
 _atom_site_occupancy
  Li  Li0  1  0.147083  0.294164  0.250000  1
  Cd  Cd1  1  0.663477  0.326954  0.250000  1
  Pd  Pd2  1  0.668919  0.827687  0.250000  1
  Pd  Pd3  1  0.158768  0.827687  0.250000  1
  Pd  Pd4  1  0.840422  0.680844  0.750000  1
  Pd  Pd5  1  0.334505  0.180204  0.750000  1
  Pd  Pd6  1  0.845697  0.180204  0.750000  1
  Pb  Pb7  1  0.341127  0.682256  0.750000  1
