# generated using pymatgen
data_Yb4Ce4Si8Pd7Pt
_symmetry_space_group_name_H-M   'P 1'
_cell_length_a   5.78226894
_cell_length_b   7.79063267
_cell_length_c   10.63950864
_cell_angle_alpha   88.04121024
_cell_angle_beta   89.83587714
_cell_angle_gamma   89.98198050
_symmetry_Int_Tables_number   1
_chemical_formula_structural   Yb4Ce4Si8Pd7Pt
_chemical_formula_sum   'Yb4 Ce4 Si8 Pd7 Pt1'
_cell_volume   479.00158394
_cell_formula_units_Z   1
loop_
 _symmetry_equiv_pos_site_id
 _symmetry_equiv_pos_as_xyz
  1  'x, y, z'
loop_
 _atom_site_type_symbol
 _atom_site_label
 _atom_site_symmetry_multiplicity
 _atom_site_fract_x
 _atom_site_fract_y
 _atom_site_fract_z
 _atom_site_occupancy
  Yb  Yb0  1  0.363486  0.967489  0.138535  1
  Yb  Yb1  1  0.635492  0.030920  0.860994  1
  Yb  Yb2  1  0.862644  0.531382  0.861641  1
  Yb  Yb3  1  0.136858  0.471090  0.138205  1
  Ce  Ce4  1  0.874406  0.825078  0.365027  1
  Ce  Ce5  1  0.126491  0.175161  0.634120  1
  Ce  Ce6  1  0.372281  0.674560  0.633904  1
  Ce  Ce7  1  0.627756  0.324978  0.365893  1
  Si  Si8  1  0.859969  0.537376  0.572170  1
  Si  Si9  1  0.140629  0.463034  0.427340  1
  Si  Si10  1  0.360206  0.963080  0.427450  1
  Si  Si11  1  0.640066  0.036724  0.571997  1
  Si  Si12  1  0.642820  0.625367  0.143245  1
  Si  Si13  1  0.358405  0.375100  0.854558  1
  Si  Si14  1  0.135069  0.871937  0.859099  1
  Si  Si15  1  0.858594  0.125190  0.145302  1
  Pd  Pd16  1  0.100389  0.161655  0.947492  1
  Pd  Pd17  1  0.401477  0.659342  0.946379  1
  Pd  Pd18  1  0.599277  0.338564  0.052643  1
  Pd  Pd19  1  0.894847  0.820191  0.670246  1
  Pd  Pd20  1  0.107338  0.180886  0.328857  1
  Pd  Pd21  1  0.396279  0.680249  0.329493  1
  Pd  Pd22  1  0.606653  0.319054  0.669924  1
  Pt  Pt23  1  0.898567  0.841592  0.055484  1
