# generated using pymatgen
data_Y5V3(Co4As3)4
_symmetry_space_group_name_H-M   'P 1'
_cell_length_a   12.52417400
_cell_length_b   12.52417377
_cell_length_c   3.80507000
_cell_angle_alpha   90.00000000
_cell_angle_beta   90.00000000
_cell_angle_gamma   120.00000590
_symmetry_Int_Tables_number   1
_chemical_formula_structural   Y5V3(Co4As3)4
_chemical_formula_sum   'Y5 V3 Co16 As12'
_cell_volume   516.88203029
_cell_formula_units_Z   1
loop_
 _symmetry_equiv_pos_site_id
 _symmetry_equiv_pos_as_xyz
  1  'x, y, z'
loop_
 _atom_site_type_symbol
 _atom_site_label
 _atom_site_symmetry_multiplicity
 _atom_site_fract_x
 _atom_site_fract_y
 _atom_site_fract_z
 _atom_site_occupancy
  Y  Y0  1  0.187050  0.187050  0.500000  1
  Y  Y1  1  0.812950  0.000000  0.500000  1
  Y  Y2  1  0.000000  0.812950  0.500000  1
  Y  Y3  1  0.333333  0.666667  0.000000  1
  Y  Y4  1  0.666667  0.333333  0.000000  1
  V  V5  1  0.560549  0.560549  0.000000  1
  V  V6  1  0.439451  0.000000  0.000000  1
  V  V7  1  0.000000  0.439451  0.000000  1
  Co  Co8  1  0.716726  0.716726  0.500000  1
  Co  Co9  1  0.283274  0.000000  0.500000  1
  Co  Co10  1  0.000000  0.283274  0.500000  1
  Co  Co11  1  0.176998  0.376847  0.000000  1
  Co  Co12  1  0.623153  0.800149  0.000000  1
  Co  Co13  1  0.199851  0.823002  0.000000  1
  Co  Co14  1  0.800149  0.623153  0.000000  1
  Co  Co15  1  0.823002  0.199851  0.000000  1
  Co  Co16  1  0.376847  0.176998  0.000000  1
  Co  Co17  1  0.355610  0.480061  0.500000  1
  Co  Co18  1  0.519939  0.875550  0.500000  1
  Co  Co19  1  0.124450  0.644390  0.500000  1
  Co  Co20  1  0.875550  0.519939  0.500000  1
  Co  Co21  1  0.644390  0.124450  0.500000  1
  Co  Co22  1  0.480061  0.355610  0.500000  1
  Co  Co23  1  0.000000  0.000000  0.000000  1
  As  As24  1  0.821610  0.821610  0.000000  1
  As  As25  1  0.178390  0.000000  0.000000  1
  As  As26  1  0.000000  0.178390  0.000000  1
  As  As27  1  0.165659  0.482233  0.500000  1
  As  As28  1  0.517767  0.683427  0.500000  1
  As  As29  1  0.316573  0.834341  0.500000  1
  As  As30  1  0.683427  0.517767  0.500000  1
  As  As31  1  0.834341  0.316573  0.500000  1
  As  As32  1  0.482233  0.165659  0.500000  1
  As  As33  1  0.363287  0.363287  0.000000  1
  As  As34  1  0.636713  0.000000  0.000000  1
  As  As35  1  0.000000  0.636713  0.000000  1
