# generated using pymatgen
data_BaCu4P4SeO17
_symmetry_space_group_name_H-M   'P 1'
_cell_length_a   9.80058900
_cell_length_b   9.80058900
_cell_length_c   7.23910400
_cell_angle_alpha   90.00000000
_cell_angle_beta   90.00000000
_cell_angle_gamma   90.00000000
_symmetry_Int_Tables_number   1
_chemical_formula_structural   BaCu4P4SeO17
_chemical_formula_sum   'Ba2 Cu8 P8 Se2 O34'
_cell_volume   695.32712178
_cell_formula_units_Z   2
loop_
 _symmetry_equiv_pos_site_id
 _symmetry_equiv_pos_as_xyz
  1  'x, y, z'
loop_
 _atom_site_type_symbol
 _atom_site_label
 _atom_site_symmetry_multiplicity
 _atom_site_fract_x
 _atom_site_fract_y
 _atom_site_fract_z
 _atom_site_occupancy
  Ba  Ba0  1  0.000000  0.000000  0.000000  1
  Ba  Ba1  1  0.500000  0.500000  0.000000  1
  Cu  Cu2  1  0.732801  0.017694  0.412287  1
  Cu  Cu3  1  0.482306  0.232801  0.412287  1
  Cu  Cu4  1  0.517695  0.767199  0.412287  1
  Cu  Cu5  1  0.267200  0.982306  0.412287  1
  Cu  Cu6  1  0.982306  0.267200  0.587713  1
  Cu  Cu7  1  0.232801  0.482306  0.587713  1
  Cu  Cu8  1  0.767199  0.517695  0.587713  1
  Cu  Cu9  1  0.017694  0.732801  0.587713  1
  P  P10  1  0.190369  0.270888  0.262229  1
  P  P11  1  0.770887  0.309630  0.262229  1
  P  P12  1  0.229112  0.690369  0.262229  1
  P  P13  1  0.809630  0.729113  0.262229  1
  P  P14  1  0.270888  0.190369  0.737771  1
  P  P15  1  0.690369  0.229112  0.737771  1
  P  P16  1  0.309630  0.770887  0.737771  1
  P  P17  1  0.729113  0.809630  0.737771  1
  Se  Se18  1  0.000000  0.500000  0.062996  1
  Se  Se19  1  0.500000  0.000000  0.937004  1
  O  O20  1  0.111083  0.315384  0.087293  1
  O  O21  1  0.815385  0.388916  0.087293  1
  O  O22  1  0.184615  0.611083  0.087293  1
  O  O23  1  0.888917  0.684615  0.087293  1
  O  O24  1  0.500000  0.000000  0.163536  1
  O  O25  1  0.811059  0.157247  0.250309  1
  O  O26  1  0.342753  0.311060  0.250309  1
  O  O27  1  0.657248  0.688940  0.250309  1
  O  O28  1  0.188940  0.842752  0.250309  1
  O  O29  1  0.160772  0.116049  0.280278  1
  O  O30  1  0.616049  0.339229  0.280278  1
  O  O31  1  0.383952  0.660772  0.280278  1
  O  O32  1  0.839229  0.883952  0.280278  1
  O  O33  1  0.130087  0.347449  0.438120  1
  O  O34  1  0.847449  0.369913  0.438120  1
  O  O35  1  0.152551  0.630087  0.438120  1
  O  O36  1  0.869914  0.652552  0.438120  1
  O  O37  1  0.347449  0.130087  0.561880  1
  O  O38  1  0.630087  0.152551  0.561880  1
  O  O39  1  0.369913  0.847449  0.561880  1
  O  O40  1  0.652552  0.869914  0.561880  1
  O  O41  1  0.116049  0.160772  0.719722  1
  O  O42  1  0.660772  0.383952  0.719722  1
  O  O43  1  0.339229  0.616049  0.719722  1
  O  O44  1  0.883952  0.839229  0.719722  1
  O  O45  1  0.842752  0.188940  0.749691  1
  O  O46  1  0.311060  0.342753  0.749691  1
  O  O47  1  0.688940  0.657248  0.749691  1
  O  O48  1  0.157247  0.811059  0.749691  1
  O  O49  1  0.000000  0.500000  0.836464  1
  O  O50  1  0.315384  0.111083  0.912707  1
  O  O51  1  0.611083  0.184615  0.912707  1
  O  O52  1  0.388916  0.815385  0.912707  1
  O  O53  1  0.684615  0.888917  0.912707  1
