# generated using pymatgen
data_Zr9Ti4Al9(CoOs3)2
_symmetry_space_group_name_H-M   'P 1'
_cell_length_a   8.96208797
_cell_length_b   8.96208598
_cell_length_c   8.99128898
_cell_angle_alpha   60.05803560
_cell_angle_beta   60.05804717
_cell_angle_gamma   60.01815721
_symmetry_Int_Tables_number   1
_chemical_formula_structural   Zr9Ti4Al9(CoOs3)2
_chemical_formula_sum   'Zr9 Ti4 Al9 Co2 Os6'
_cell_volume   511.17002547
_cell_formula_units_Z   1
loop_
 _symmetry_equiv_pos_site_id
 _symmetry_equiv_pos_as_xyz
  1  'x, y, z'
loop_
 _atom_site_type_symbol
 _atom_site_label
 _atom_site_symmetry_multiplicity
 _atom_site_fract_x
 _atom_site_fract_y
 _atom_site_fract_z
 _atom_site_occupancy
  Zr  Zr0  1  0.207013  0.207013  0.802547  1
  Zr  Zr1  1  0.801533  0.198874  0.200836  1
  Zr  Zr2  1  0.198874  0.801533  0.200836  1
  Zr  Zr3  1  0.805753  0.805753  0.185406  1
  Zr  Zr4  1  0.190187  0.794721  0.802362  1
  Zr  Zr5  1  0.794721  0.190187  0.802362  1
  Zr  Zr6  1  0.384875  0.384875  0.381022  1
  Zr  Zr7  1  0.385386  0.849951  0.382050  1
  Zr  Zr8  1  0.849951  0.385386  0.382050  1
  Ti  Ti9  1  0.383175  0.383175  0.854534  1
  Ti  Ti10  1  0.836212  0.491467  0.833981  1
  Ti  Ti11  1  0.491467  0.836212  0.833981  1
  Ti  Ti12  1  0.831111  0.831111  0.506686  1
  Al  Al13  1  0.167322  0.167322  0.164329  1
  Al  Al14  1  0.168936  0.500366  0.163291  1
  Al  Al15  1  0.500366  0.168936  0.163291  1
  Al  Al16  1  0.164456  0.164456  0.509672  1
  Al  Al17  1  0.615815  0.615815  0.623943  1
  Al  Al18  1  0.617306  0.143680  0.622343  1
  Al  Al19  1  0.143680  0.617306  0.622343  1
  Al  Al20  1  0.621576  0.621576  0.136838  1
  Al  Al21  1  0.828609  0.828609  0.829403  1
  Co  Co22  1  0.493611  0.493611  0.518602  1
  Co  Co23  1  0.007497  0.007497  0.993230  1
  Os  Os24  1  0.999411  0.999411  0.499877  1
  Os  Os25  1  0.499298  0.005004  0.995198  1
  Os  Os26  1  0.005004  0.499298  0.995198  1
  Os  Os27  1  0.502352  0.502352  0.993888  1
  Os  Os28  1  0.998733  0.505770  0.499949  1
  Os  Os29  1  0.505770  0.998733  0.499949  1
