# generated using pymatgen
data_Tb3Th2Sc3(CdIr)2
_symmetry_space_group_name_H-M   'P 1'
_cell_length_a   9.54873245
_cell_length_b   9.54873294
_cell_length_c   9.54873300
_cell_angle_alpha   60.00000325
_cell_angle_beta   60.00000154
_cell_angle_gamma   60.00000073
_symmetry_Int_Tables_number   1
_chemical_formula_structural   Tb3Th2Sc3(CdIr)2
_chemical_formula_sum   'Tb6 Th4 Sc6 Cd4 Ir4'
_cell_volume   615.63349661
_cell_formula_units_Z   2
loop_
 _symmetry_equiv_pos_site_id
 _symmetry_equiv_pos_as_xyz
  1  'x, y, z'
loop_
 _atom_site_type_symbol
 _atom_site_label
 _atom_site_symmetry_multiplicity
 _atom_site_fract_x
 _atom_site_fract_y
 _atom_site_fract_z
 _atom_site_occupancy
  Tb  Tb0  1  0.187924  0.812076  0.812076  1
  Tb  Tb1  1  0.812076  0.187924  0.187924  1
  Tb  Tb2  1  0.812076  0.187924  0.812076  1
  Tb  Tb3  1  0.187924  0.812076  0.187924  1
  Tb  Tb4  1  0.812076  0.812076  0.187924  1
  Tb  Tb5  1  0.187924  0.187924  0.812076  1
  Th  Th6  1  0.601139  0.601139  0.601139  1
  Th  Th7  1  0.601139  0.601139  0.196584  1
  Th  Th8  1  0.601139  0.196584  0.601139  1
  Th  Th9  1  0.196584  0.601139  0.601139  1
  Sc  Sc10  1  0.068231  0.431769  0.431769  1
  Sc  Sc11  1  0.431769  0.068231  0.068231  1
  Sc  Sc12  1  0.431769  0.068231  0.431769  1
  Sc  Sc13  1  0.068231  0.431769  0.068231  1
  Sc  Sc14  1  0.431769  0.431769  0.068231  1
  Sc  Sc15  1  0.068231  0.068231  0.431769  1
  Cd  Cd16  1  0.832405  0.832405  0.832405  1
  Cd  Cd17  1  0.832405  0.832405  0.502786  1
  Cd  Cd18  1  0.832405  0.502786  0.832405  1
  Cd  Cd19  1  0.502786  0.832405  0.832405  1
  Ir  Ir20  1  0.389973  0.389973  0.389973  1
  Ir  Ir21  1  0.389973  0.389973  0.830082  1
  Ir  Ir22  1  0.389973  0.830082  0.389973  1
  Ir  Ir23  1  0.830082  0.389973  0.389973  1
