# generated using pymatgen
data_Dy2Sc3Ta3(Co4P3)4
_symmetry_space_group_name_H-M   'P 1'
_cell_length_a   12.08720800
_cell_length_b   12.08720820
_cell_length_c   3.64717900
_cell_angle_alpha   90.00000000
_cell_angle_beta   90.00000000
_cell_angle_gamma   119.99999397
_symmetry_Int_Tables_number   1
_chemical_formula_structural   Dy2Sc3Ta3(Co4P3)4
_chemical_formula_sum   'Dy2 Sc3 Ta3 Co16 P12'
_cell_volume   461.46602838
_cell_formula_units_Z   1
loop_
 _symmetry_equiv_pos_site_id
 _symmetry_equiv_pos_as_xyz
  1  'x, y, z'
loop_
 _atom_site_type_symbol
 _atom_site_label
 _atom_site_symmetry_multiplicity
 _atom_site_fract_x
 _atom_site_fract_y
 _atom_site_fract_z
 _atom_site_occupancy
  Dy  Dy0  1  0.666667  0.333333  0.000000  1
  Dy  Dy1  1  0.333333  0.666667  0.000000  1
  Sc  Sc2  1  0.182950  0.182950  0.500000  1
  Sc  Sc3  1  0.817050  0.000000  0.500000  1
  Sc  Sc4  1  0.000000  0.817050  0.500000  1
  Ta  Ta5  1  0.554367  0.554367  0.000000  1
  Ta  Ta6  1  0.445633  0.000000  0.000000  1
  Ta  Ta7  1  0.000000  0.445633  0.000000  1
  Co  Co8  1  0.824572  0.194141  0.000000  1
  Co  Co9  1  0.805859  0.630431  0.000000  1
  Co  Co10  1  0.369569  0.175428  0.000000  1
  Co  Co11  1  0.194141  0.824572  0.000000  1
  Co  Co12  1  0.630431  0.805859  0.000000  1
  Co  Co13  1  0.175428  0.369569  0.000000  1
  Co  Co14  1  0.646183  0.125772  0.500000  1
  Co  Co15  1  0.874228  0.520410  0.500000  1
  Co  Co16  1  0.479590  0.353817  0.500000  1
  Co  Co17  1  0.125772  0.646183  0.500000  1
  Co  Co18  1  0.520410  0.874228  0.500000  1
  Co  Co19  1  0.353817  0.479590  0.500000  1
  Co  Co20  1  0.723923  0.723923  0.500000  1
  Co  Co21  1  0.276077  0.000000  0.500000  1
  Co  Co22  1  0.000000  0.276077  0.500000  1
  Co  Co23  1  0.000000  0.000000  0.000000  1
  P  P24  1  0.350834  0.350834  0.000000  1
  P  P25  1  0.649166  0.000000  0.000000  1
  P  P26  1  0.000000  0.649166  0.000000  1
  P  P27  1  0.832700  0.310865  0.500000  1
  P  P28  1  0.689135  0.521835  0.500000  1
  P  P29  1  0.478165  0.167300  0.500000  1
  P  P30  1  0.310865  0.832700  0.500000  1
  P  P31  1  0.521835  0.689135  0.500000  1
  P  P32  1  0.167300  0.478165  0.500000  1
  P  P33  1  0.826489  0.826489  0.000000  1
  P  P34  1  0.173511  0.000000  0.000000  1
  P  P35  1  0.000000  0.173511  0.000000  1
