# generated using pymatgen
data_Pr4Ga10(IrRh)3
_symmetry_space_group_name_H-M   'P 1'
_cell_length_a   8.67879983
_cell_length_b   8.70060478
_cell_length_c   8.70021176
_cell_angle_alpha   140.89588495
_cell_angle_beta   107.77563408
_cell_angle_gamma   85.37567334
_symmetry_Int_Tables_number   1
_chemical_formula_structural   Pr4Ga10(IrRh)3
_chemical_formula_sum   'Pr4 Ga10 Ir3 Rh3'
_cell_volume   380.99139572
_cell_formula_units_Z   1
loop_
 _symmetry_equiv_pos_site_id
 _symmetry_equiv_pos_as_xyz
  1  'x, y, z'
loop_
 _atom_site_type_symbol
 _atom_site_label
 _atom_site_symmetry_multiplicity
 _atom_site_fract_x
 _atom_site_fract_y
 _atom_site_fract_z
 _atom_site_occupancy
  Pr  Pr0  1  0.864434  0.635565  0.228956  1
  Pr  Pr1  1  0.134863  0.364478  0.770321  1
  Pr  Pr2  1  0.594466  0.864791  0.729797  1
  Pr  Pr3  1  0.406528  0.134974  0.271442  1
  Ga  Ga4  1  0.499923  0.750560  0.250515  1
  Ga  Ga5  1  0.499972  0.249434  0.749396  1
  Ga  Ga6  1  0.208217  0.958997  0.750749  1
  Ga  Ga7  1  0.791583  0.541595  0.749642  1
  Ga  Ga8  1  0.791606  0.041933  0.249990  1
  Ga  Ga9  1  0.208219  0.457470  0.249238  1
  Ga  Ga10  1  0.076145  0.907040  0.169195  1
  Ga  Ga11  1  0.923943  0.092738  0.831113  1
  Ga  Ga12  1  0.261820  0.593048  0.668847  1
  Ga  Ga13  1  0.738070  0.407232  0.330755  1
  Ir  Ir14  1  0.256769  0.852424  0.404264  1
  Ir  Ir15  1  0.744585  0.147539  0.597128  1
  Ir  Ir16  1  0.550122  0.646756  0.903320  1
  Rh  Rh17  1  0.448417  0.353457  0.094975  1
  Rh  Rh18  1  0.000133  0.750253  0.750516  1
  Rh  Rh19  1  0.000187  0.249716  0.249840  1
