# generated using pymatgen
data_TbHoPa2Zn4RuRh3
_symmetry_space_group_name_H-M   'P 1'
_cell_length_a   3.83165900
_cell_length_b   7.15469311
_cell_length_c   8.38887700
_cell_angle_alpha   91.37598666
_cell_angle_beta   90.00000000
_cell_angle_gamma   90.00000000
_symmetry_Int_Tables_number   1
_chemical_formula_structural   TbHoPa2Zn4RuRh3
_chemical_formula_sum   'Tb1 Ho1 Pa2 Zn4 Ru1 Rh3'
_cell_volume   229.90924673
_cell_formula_units_Z   1
loop_
 _symmetry_equiv_pos_site_id
 _symmetry_equiv_pos_as_xyz
  1  'x, y, z'
loop_
 _atom_site_type_symbol
 _atom_site_label
 _atom_site_symmetry_multiplicity
 _atom_site_fract_x
 _atom_site_fract_y
 _atom_site_fract_z
 _atom_site_occupancy
  Tb  Tb0  1  0.250000  0.056137  0.314506  1
  Ho  Ho1  1  0.750000  0.941049  0.684147  1
  Pa  Pa2  1  0.250000  0.556421  0.197067  1
  Pa  Pa3  1  0.750000  0.449458  0.811040  1
  Zn  Zn4  1  0.250000  0.114880  0.938028  1
  Zn  Zn5  1  0.750000  0.884379  0.060724  1
  Zn  Zn6  1  0.250000  0.631518  0.559585  1
  Zn  Zn7  1  0.750000  0.370352  0.443650  1
  Ru  Ru8  1  0.750000  0.740648  0.351753  1
  Rh  Rh9  1  0.250000  0.253230  0.645361  1
  Rh  Rh10  1  0.750000  0.284902  0.118882  1
  Rh  Rh11  1  0.250000  0.717027  0.875258  1
