# generated using pymatgen
data_Ac4P3Br
_symmetry_space_group_name_H-M   'P 1'
_cell_length_a   8.97477008
_cell_length_b   4.43255400
_cell_length_c   6.28526500
_cell_angle_alpha   90.00000000
_cell_angle_beta   89.99274844
_cell_angle_gamma   90.00000000
_symmetry_Int_Tables_number   1
_chemical_formula_structural   Ac4P3Br
_chemical_formula_sum   'Ac4 P3 Br1'
_cell_volume   250.03508666
_cell_formula_units_Z   1
loop_
 _symmetry_equiv_pos_site_id
 _symmetry_equiv_pos_as_xyz
  1  'x, y, z'
loop_
 _atom_site_type_symbol
 _atom_site_label
 _atom_site_symmetry_multiplicity
 _atom_site_fract_x
 _atom_site_fract_y
 _atom_site_fract_z
 _atom_site_occupancy
  Ac  Ac0  1  0.100332  0.749999  0.249933  1
  Ac  Ac1  1  0.649413  0.749999  0.250166  1
  Ac  Ac2  1  0.375217  0.249999  0.749788  1
  Ac  Ac3  1  0.875094  0.249999  0.750150  1
  P  P4  1  0.874880  0.249999  0.250144  1
  P  P5  1  0.130684  0.749999  0.749912  1
  P  P6  1  0.619592  0.749999  0.750151  1
  Br  Br7  1  0.374789  0.249999  0.249759  1
