# generated using pymatgen
data_Nd12Co4SnPd
_symmetry_space_group_name_H-M   'P 1'
_cell_length_a   8.60247128
_cell_length_b   8.60247243
_cell_length_c   8.60247141
_cell_angle_alpha   111.21926508
_cell_angle_beta   109.66467417
_cell_angle_gamma   107.55055947
_symmetry_Int_Tables_number   1
_chemical_formula_structural   Nd12Co4SnPd
_chemical_formula_sum   'Nd12 Co4 Sn1 Pd1'
_cell_volume   489.55370180
_cell_formula_units_Z   1
loop_
 _symmetry_equiv_pos_site_id
 _symmetry_equiv_pos_as_xyz
  1  'x, y, z'
loop_
 _atom_site_type_symbol
 _atom_site_label
 _atom_site_symmetry_multiplicity
 _atom_site_fract_x
 _atom_site_fract_y
 _atom_site_fract_z
 _atom_site_occupancy
  Nd  Nd0  1  0.405871  0.208313  0.197557  1
  Nd  Nd1  1  0.594129  0.791687  0.802443  1
  Nd  Nd2  1  0.010756  0.208313  0.802443  1
  Nd  Nd3  1  0.989244  0.791687  0.197557  1
  Nd  Nd4  1  0.184897  0.297565  0.482462  1
  Nd  Nd5  1  0.815103  0.702435  0.517538  1
  Nd  Nd6  1  0.184897  0.702435  0.887334  1
  Nd  Nd7  1  0.815103  0.297565  0.112666  1
  Nd  Nd8  1  0.317834  0.624219  0.306385  1
  Nd  Nd9  1  0.682166  0.375781  0.693615  1
  Nd  Nd10  1  0.317834  0.011449  0.693615  1
  Nd  Nd11  1  0.682166  0.988551  0.306385  1
  Co  Co12  1  0.377306  0.000000  0.377306  1
  Co  Co13  1  0.622694  0.000000  0.622694  1
  Co  Co14  1  0.111357  0.611357  0.500000  1
  Co  Co15  1  0.888643  0.388643  0.500000  1
  Sn  Sn16  1  0.500000  0.500000  0.000000  1
  Pd  Pd17  1  0.000000  0.000000  0.000000  1
