# generated using pymatgen
data_Ac3La(B2Ir5)2
_symmetry_space_group_name_H-M   'P 1'
_cell_length_a   11.26582895
_cell_length_b   11.26582905
_cell_length_c   11.26583064
_cell_angle_alpha   28.97637011
_cell_angle_beta   28.97636832
_cell_angle_gamma   28.97637451
_symmetry_Int_Tables_number   1
_chemical_formula_structural   Ac3La(B2Ir5)2
_chemical_formula_sum   'Ac3 La1 B4 Ir10'
_cell_volume   296.79994516
_cell_formula_units_Z   1
loop_
 _symmetry_equiv_pos_site_id
 _symmetry_equiv_pos_as_xyz
  1  'x, y, z'
loop_
 _atom_site_type_symbol
 _atom_site_label
 _atom_site_symmetry_multiplicity
 _atom_site_fract_x
 _atom_site_fract_y
 _atom_site_fract_z
 _atom_site_occupancy
  Ac  Ac0  1  0.150856  0.150856  0.150856  1
  Ac  Ac1  1  0.951092  0.951092  0.951092  1
  Ac  Ac2  1  0.848344  0.848344  0.848344  1
  La  La3  1  0.049994  0.049994  0.049994  1
  B  B4  1  0.618676  0.618676  0.618676  1
  B  B5  1  0.716410  0.716410  0.716410  1
  B  B6  1  0.381185  0.381185  0.381185  1
  B  B7  1  0.283650  0.283650  0.283650  1
  Ir  Ir8  1  0.410635  0.898091  0.410635  1
  Ir  Ir9  1  0.898091  0.410635  0.410635  1
  Ir  Ir10  1  0.500638  0.500638  0.000216  1
  Ir  Ir11  1  0.500638  0.000216  0.500638  1
  Ir  Ir12  1  0.000216  0.500638  0.500638  1
  Ir  Ir13  1  0.499767  0.499767  0.499767  1
  Ir  Ir14  1  0.588651  0.101870  0.588651  1
  Ir  Ir15  1  0.588651  0.588651  0.101870  1
  Ir  Ir16  1  0.101870  0.588651  0.588651  1
  Ir  Ir17  1  0.410635  0.410635  0.898091  1
