# generated using pymatgen
data_Y10TcAg3
_symmetry_space_group_name_H-M   'P 1'
_cell_length_a   9.50537600
_cell_length_b   9.50537679
_cell_length_c   9.81491800
_cell_angle_alpha   90.00000000
_cell_angle_beta   90.00000000
_cell_angle_gamma   119.99999725
_symmetry_Int_Tables_number   1
_chemical_formula_structural   Y10TcAg3
_chemical_formula_sum   'Y20 Tc2 Ag6'
_cell_volume   767.99069271
_cell_formula_units_Z   2
loop_
 _symmetry_equiv_pos_site_id
 _symmetry_equiv_pos_as_xyz
  1  'x, y, z'
loop_
 _atom_site_type_symbol
 _atom_site_label
 _atom_site_symmetry_multiplicity
 _atom_site_fract_x
 _atom_site_fract_y
 _atom_site_fract_z
 _atom_site_occupancy
  Y  Y0  1  0.000000  0.000000  0.500000  1
  Y  Y1  1  0.000000  0.000000  0.000000  1
  Y  Y2  1  0.208894  0.791106  0.440842  1
  Y  Y3  1  0.208894  0.417788  0.440842  1
  Y  Y4  1  0.582212  0.791106  0.440842  1
  Y  Y5  1  0.791106  0.208894  0.559158  1
  Y  Y6  1  0.791106  0.582212  0.559158  1
  Y  Y7  1  0.417788  0.208894  0.559158  1
  Y  Y8  1  0.791106  0.208894  0.940842  1
  Y  Y9  1  0.791106  0.582212  0.940842  1
  Y  Y10  1  0.417788  0.208894  0.940842  1
  Y  Y11  1  0.208894  0.791106  0.059158  1
  Y  Y12  1  0.208894  0.417788  0.059158  1
  Y  Y13  1  0.582212  0.791106  0.059158  1
  Y  Y14  1  0.540302  0.459698  0.250000  1
  Y  Y15  1  0.540302  0.080604  0.250000  1
  Y  Y16  1  0.919396  0.459698  0.250000  1
  Y  Y17  1  0.459698  0.540302  0.750000  1
  Y  Y18  1  0.459698  0.919396  0.750000  1
  Y  Y19  1  0.080604  0.540302  0.750000  1
  Tc  Tc20  1  0.333333  0.666667  0.250000  1
  Tc  Tc21  1  0.666667  0.333333  0.750000  1
  Ag  Ag22  1  0.884357  0.115643  0.250000  1
  Ag  Ag23  1  0.884357  0.768717  0.250000  1
  Ag  Ag24  1  0.231283  0.115643  0.250000  1
  Ag  Ag25  1  0.115643  0.884357  0.750000  1
  Ag  Ag26  1  0.115643  0.231283  0.750000  1
  Ag  Ag27  1  0.768717  0.884357  0.750000  1
