# generated using pymatgen
data_PuSe2O9
_symmetry_space_group_name_H-M   'P 1'
_cell_length_a   6.97241564
_cell_length_b   7.18502695
_cell_length_c   8.46550383
_cell_angle_alpha   87.57155199
_cell_angle_beta   81.08162317
_cell_angle_gamma   74.75574278
_symmetry_Int_Tables_number   1
_chemical_formula_structural   PuSe2O9
_chemical_formula_sum   'Pu2 Se4 O18'
_cell_volume   404.22649978
_cell_formula_units_Z   2
loop_
 _symmetry_equiv_pos_site_id
 _symmetry_equiv_pos_as_xyz
  1  'x, y, z'
loop_
 _atom_site_type_symbol
 _atom_site_label
 _atom_site_symmetry_multiplicity
 _atom_site_fract_x
 _atom_site_fract_y
 _atom_site_fract_z
 _atom_site_occupancy
  Pu  Pu0  1  0.795600  0.803947  0.748519  1
  Pu  Pu1  1  0.204400  0.196053  0.251481  1
  Se  Se2  1  0.977282  0.251738  0.853396  1
  Se  Se3  1  0.022718  0.748262  0.146604  1
  Se  Se4  1  0.397576  0.256974  0.640796  1
  Se  Se5  1  0.602424  0.743026  0.359204  1
  O  O6  1  0.575620  0.810140  0.883104  1
  O  O7  1  0.424380  0.189860  0.116896  1
  O  O8  1  0.015132  0.798853  0.613442  1
  O  O9  1  0.984868  0.201147  0.386558  1
  O  O10  1  0.895233  0.449683  0.751526  1
  O  O11  1  0.104767  0.550317  0.248474  1
  O  O12  1  0.015394  0.294784  0.034393  1
  O  O13  1  0.984606  0.705216  0.965607  1
  O  O14  1  0.837233  0.098407  0.861229  1
  O  O15  1  0.162767  0.901593  0.138771  1
  O  O16  1  0.211066  0.122940  0.738617  1
  O  O17  1  0.788934  0.877060  0.261383  1
  O  O18  1  0.385830  0.432444  0.758427  1
  O  O19  1  0.614170  0.567556  0.241573  1
  O  O20  1  0.332723  0.322874  0.462500  1
  O  O21  1  0.667277  0.677126  0.537500  1
  O  O22  1  0.605960  0.077318  0.619338  1
  O  O23  1  0.394040  0.922682  0.380662  1
