# generated using pymatgen
data_Ho2Er4CoTc
_symmetry_space_group_name_H-M   'P 1'
_cell_length_a   6.24846200
_cell_length_b   7.13874900
_cell_length_c   9.12031200
_cell_angle_alpha   90.00000000
_cell_angle_beta   90.00000000
_cell_angle_gamma   90.00000000
_symmetry_Int_Tables_number   1
_chemical_formula_structural   Ho2Er4CoTc
_chemical_formula_sum   'Ho4 Er8 Co2 Tc2'
_cell_volume   406.82247804
_cell_formula_units_Z   2
loop_
 _symmetry_equiv_pos_site_id
 _symmetry_equiv_pos_as_xyz
  1  'x, y, z'
loop_
 _atom_site_type_symbol
 _atom_site_label
 _atom_site_symmetry_multiplicity
 _atom_site_fract_x
 _atom_site_fract_y
 _atom_site_fract_z
 _atom_site_occupancy
  Ho  Ho0  1  0.370657  0.546823  0.250000  1
  Ho  Ho1  1  0.143796  0.040727  0.250000  1
  Ho  Ho2  1  0.870657  0.953177  0.750000  1
  Ho  Ho3  1  0.643796  0.459273  0.750000  1
  Er  Er4  1  0.668191  0.173273  0.063583  1
  Er  Er5  1  0.823255  0.681446  0.433349  1
  Er  Er6  1  0.323255  0.818554  0.933349  1
  Er  Er7  1  0.168191  0.326727  0.563583  1
  Er  Er8  1  0.668191  0.173273  0.436417  1
  Er  Er9  1  0.168191  0.326727  0.936417  1
  Er  Er10  1  0.323255  0.818554  0.566651  1
  Er  Er11  1  0.823255  0.681446  0.066651  1
  Co  Co12  1  0.540553  0.885473  0.250000  1
  Co  Co13  1  0.040553  0.614527  0.750000  1
  Tc  Tc14  1  0.962102  0.390919  0.250000  1
  Tc  Tc15  1  0.462102  0.109081  0.750000  1
