# generated using pymatgen
data_Ti5NbS8
_symmetry_space_group_name_H-M   'P 1'
_cell_length_a   9.52684871
_cell_length_b   9.50691134
_cell_length_c   3.39548200
_cell_angle_alpha   90.00000000
_cell_angle_beta   90.00000000
_cell_angle_gamma   119.48446240
_symmetry_Int_Tables_number   1
_chemical_formula_structural   Ti5NbS8
_chemical_formula_sum   'Ti5 Nb1 S8'
_cell_volume   267.70318156
_cell_formula_units_Z   1
loop_
 _symmetry_equiv_pos_site_id
 _symmetry_equiv_pos_as_xyz
  1  'x, y, z'
loop_
 _atom_site_type_symbol
 _atom_site_label
 _atom_site_symmetry_multiplicity
 _atom_site_fract_x
 _atom_site_fract_y
 _atom_site_fract_z
 _atom_site_occupancy
  Ti  Ti0  1  0.512433  0.873091  0.750000  1
  Ti  Ti1  1  0.644692  0.512016  0.250000  1
  Ti  Ti2  1  0.867873  0.353563  0.250000  1
  Ti  Ti3  1  0.131177  0.643949  0.750000  1
  Ti  Ti4  1  0.354583  0.489365  0.750000  1
  Nb  Nb5  1  0.488523  0.129932  0.250000  1
  S  S6  1  0.639484  0.691892  0.750000  1
  S  S7  1  0.947916  0.640613  0.250000  1
  S  S8  1  0.699033  0.047413  0.250000  1
  S  S9  1  0.299059  0.944284  0.750000  1
  S  S10  1  0.052012  0.357350  0.750000  1
  S  S11  1  0.357141  0.309535  0.250000  1
  S  S12  1  0.333344  0.668798  0.250000  1
  S  S13  1  0.672729  0.338199  0.750000  1
