# generated using pymatgen
data_K2AsPPt2
_symmetry_space_group_name_H-M   'P 1'
_cell_length_a   6.65879041
_cell_length_b   6.66031435
_cell_length_c   6.64187000
_cell_angle_alpha   90.00000000
_cell_angle_beta   90.00000000
_cell_angle_gamma   90.41361649
_symmetry_Int_Tables_number   1
_chemical_formula_structural   K2AsPPt2
_chemical_formula_sum   'K4 As2 P2 Pt4'
_cell_volume   294.55685041
_cell_formula_units_Z   2
loop_
 _symmetry_equiv_pos_site_id
 _symmetry_equiv_pos_as_xyz
  1  'x, y, z'
loop_
 _atom_site_type_symbol
 _atom_site_label
 _atom_site_symmetry_multiplicity
 _atom_site_fract_x
 _atom_site_fract_y
 _atom_site_fract_z
 _atom_site_occupancy
  K  K0  1  0.873272  0.876220  0.874213  1
  K  K1  1  0.626728  0.123780  0.374213  1
  K  K2  1  0.124093  0.372687  0.624804  1
  K  K3  1  0.375907  0.627313  0.124804  1
  As  As4  1  0.589802  0.596121  0.593334  1
  As  As5  1  0.910198  0.403879  0.093334  1
  P  P6  1  0.398909  0.094040  0.903100  1
  P  P7  1  0.101091  0.905960  0.403100  1
  Pt  Pt8  1  0.158578  0.135520  0.149580  1
  Pt  Pt9  1  0.341422  0.864480  0.649580  1
  Pt  Pt10  1  0.864175  0.660405  0.354968  1
  Pt  Pt11  1  0.635825  0.339595  0.854968  1
