# generated using pymatgen
data_DyY9(Bi3C)2
_symmetry_space_group_name_H-M   'P 1'
_cell_length_a   9.16168209
_cell_length_b   9.15942188
_cell_length_c   6.52119000
_cell_angle_alpha   90.00000000
_cell_angle_beta   90.00000000
_cell_angle_gamma   119.99184541
_symmetry_Int_Tables_number   1
_chemical_formula_structural   DyY9(Bi3C)2
_chemical_formula_sum   'Dy1 Y9 Bi6 C2'
_cell_volume   473.95427737
_cell_formula_units_Z   1
loop_
 _symmetry_equiv_pos_site_id
 _symmetry_equiv_pos_as_xyz
  1  'x, y, z'
loop_
 _atom_site_type_symbol
 _atom_site_label
 _atom_site_symmetry_multiplicity
 _atom_site_fract_x
 _atom_site_fract_y
 _atom_site_fract_z
 _atom_site_occupancy
  Dy  Dy0  1  0.000000  0.792365  0.250000  1
  Y  Y1  1  0.666708  0.333368  0.000002  1
  Y  Y2  1  0.333292  0.666662  0.000002  1
  Y  Y3  1  0.333292  0.666662  0.499998  1
  Y  Y4  1  0.666708  0.333368  0.499998  1
  Y  Y5  1  0.791633  0.791564  0.750000  1
  Y  Y6  1  0.208367  0.999931  0.750000  1
  Y  Y7  1  0.000000  0.208459  0.750000  1
  Y  Y8  1  0.208385  0.208375  0.250000  1
  Y  Y9  1  0.791615  0.999990  0.250000  1
  Bi  Bi10  1  0.401989  0.401998  0.750000  1
  Bi  Bi11  1  0.598011  0.000009  0.750000  1
  Bi  Bi12  1  0.000000  0.598021  0.750000  1
  Bi  Bi13  1  0.598106  0.598050  0.250000  1
  Bi  Bi14  1  0.401894  0.999944  0.250000  1
  Bi  Bi15  1  0.000000  0.402060  0.250000  1
  C  C16  1  0.000000  0.999587  0.000410  1
  C  C17  1  0.000000  0.999587  0.499590  1
