# generated using pymatgen
data_K3As7Se12
_symmetry_space_group_name_H-M   'P 1'
_cell_length_a   9.89813100
_cell_length_b   9.89813184
_cell_length_c   8.01185500
_cell_angle_alpha   90.00000000
_cell_angle_beta   90.00000000
_cell_angle_gamma   120.00000722
_symmetry_Int_Tables_number   1
_chemical_formula_structural   K3As7Se12
_chemical_formula_sum   'K3 As7 Se12'
_cell_volume   679.78270700
_cell_formula_units_Z   1
loop_
 _symmetry_equiv_pos_site_id
 _symmetry_equiv_pos_as_xyz
  1  'x, y, z'
loop_
 _atom_site_type_symbol
 _atom_site_label
 _atom_site_symmetry_multiplicity
 _atom_site_fract_x
 _atom_site_fract_y
 _atom_site_fract_z
 _atom_site_occupancy
  K  K0  1  0.000000  0.000000  0.000000  1
  K  K1  1  0.333333  0.666667  0.870784  1
  K  K2  1  0.666667  0.333333  0.129216  1
  As  As3  1  0.000000  0.000000  0.500000  1
  As  As4  1  0.277287  0.831234  0.394341  1
  As  As5  1  0.168766  0.446054  0.394341  1
  As  As6  1  0.553946  0.722713  0.394341  1
  As  As7  1  0.722713  0.168766  0.605659  1
  As  As8  1  0.831234  0.553946  0.605659  1
  As  As9  1  0.446054  0.277287  0.605659  1
  Se  Se10  1  0.242987  0.040260  0.299896  1
  Se  Se11  1  0.959740  0.202728  0.299896  1
  Se  Se12  1  0.797272  0.757013  0.299896  1
  Se  Se13  1  0.757013  0.959740  0.700104  1
  Se  Se14  1  0.040260  0.797272  0.700104  1
  Se  Se15  1  0.202728  0.242987  0.700104  1
  Se  Se16  1  0.519136  0.913354  0.226787  1
  Se  Se17  1  0.086646  0.605781  0.226787  1
  Se  Se18  1  0.394219  0.480864  0.226787  1
  Se  Se19  1  0.480864  0.086646  0.773213  1
  Se  Se20  1  0.913354  0.394219  0.773213  1
  Se  Se21  1  0.605781  0.519136  0.773213  1
