# generated using pymatgen
data_Nd2ErLu(SeO3)6
_symmetry_space_group_name_H-M   'P 1'
_cell_length_a   7.20519229
_cell_length_b   8.23769729
_cell_length_c   9.15727627
_cell_angle_alpha   70.91897365
_cell_angle_beta   70.17924073
_cell_angle_gamma   66.05691399
_symmetry_Int_Tables_number   1
_chemical_formula_structural   Nd2ErLu(SeO3)6
_chemical_formula_sum   'Nd2 Er1 Lu1 Se6 O18'
_cell_volume   455.85684757
_cell_formula_units_Z   1
loop_
 _symmetry_equiv_pos_site_id
 _symmetry_equiv_pos_as_xyz
  1  'x, y, z'
loop_
 _atom_site_type_symbol
 _atom_site_label
 _atom_site_symmetry_multiplicity
 _atom_site_fract_x
 _atom_site_fract_y
 _atom_site_fract_z
 _atom_site_occupancy
  Nd  Nd0  1  0.332566  0.730637  0.592517  1
  Nd  Nd1  1  0.668548  0.267853  0.407820  1
  Er  Er2  1  0.259443  0.264702  0.197775  1
  Lu  Lu3  1  0.740927  0.736655  0.802034  1
  Se  Se4  1  0.424996  0.782190  0.191770  1
  Se  Se5  1  0.576431  0.214866  0.807522  1
  Se  Se6  1  0.148263  0.748660  0.969096  1
  Se  Se7  1  0.850827  0.255434  0.028322  1
  Se  Se8  1  0.887017  0.751936  0.422999  1
  Se  Se9  1  0.112113  0.247419  0.579555  1
  O  O10  1  0.644909  0.792163  0.045012  1
  O  O11  1  0.355113  0.206080  0.952226  1
  O  O12  1  0.364672  0.950064  0.293587  1
  O  O13  1  0.638181  0.045666  0.706587  1
  O  O14  1  0.513926  0.601547  0.344247  1
  O  O15  1  0.488389  0.395930  0.654962  1
  O  O16  1  0.170918  0.562027  0.121478  1
  O  O17  1  0.826302  0.444050  0.877875  1
  O  O18  1  0.404505  0.712414  0.852908  1
  O  O19  1  0.595789  0.288498  0.145728  1
  O  O20  1  0.341753  0.247738  0.431869  1
  O  O21  1  0.657987  0.752494  0.571752  1
  O  O22  1  0.973393  0.294416  0.438275  1
  O  O23  1  0.024999  0.705932  0.564421  1
  O  O24  1  0.147650  0.024668  0.660090  1
  O  O25  1  0.852325  0.974345  0.340439  1
  O  O26  1  0.941467  0.301855  0.159150  1
  O  O27  1  0.056590  0.699760  0.839983  1
