# generated using pymatgen
data_Li2Sn8PdRu
_symmetry_space_group_name_H-M   'P 1'
_cell_length_a   7.47848606
_cell_length_b   7.47848572
_cell_length_c   7.47848493
_cell_angle_alpha   126.47627376
_cell_angle_beta   126.47626498
_cell_angle_gamma   79.10675749
_symmetry_Int_Tables_number   1
_chemical_formula_structural   Li2Sn8PdRu
_chemical_formula_sum   'Li2 Sn8 Pd1 Ru1'
_cell_volume   261.54412665
_cell_formula_units_Z   1
loop_
 _symmetry_equiv_pos_site_id
 _symmetry_equiv_pos_as_xyz
  1  'x, y, z'
loop_
 _atom_site_type_symbol
 _atom_site_label
 _atom_site_symmetry_multiplicity
 _atom_site_fract_x
 _atom_site_fract_y
 _atom_site_fract_z
 _atom_site_occupancy
  Li  Li0  1  0.002115  0.002115  0.000000  1
  Li  Li1  1  0.497885  0.497885  0.000000  1
  Sn  Sn2  1  0.710080  0.529013  0.509842  1
  Sn  Sn3  1  0.529013  0.019171  0.818933  1
  Sn  Sn4  1  0.200238  0.710080  0.181067  1
  Sn  Sn5  1  0.789920  0.299762  0.818933  1
  Sn  Sn6  1  0.480829  0.970987  0.181067  1
  Sn  Sn7  1  0.299762  0.480829  0.509842  1
  Sn  Sn8  1  0.970987  0.789920  0.490158  1
  Sn  Sn9  1  0.019171  0.200238  0.490158  1
  Pd  Pd10  1  0.250000  0.250000  0.000000  1
  Ru  Ru11  1  0.750000  0.750000  0.000000  1
