# generated using pymatgen
data_Tb7Y3Si5Sn
_symmetry_space_group_name_H-M   'P 1'
_cell_length_a   8.55774400
_cell_length_b   8.58601643
_cell_length_c   6.44148700
_cell_angle_alpha   90.00000000
_cell_angle_beta   90.00000000
_cell_angle_gamma   119.89113317
_symmetry_Int_Tables_number   1
_chemical_formula_structural   Tb7Y3Si5Sn
_chemical_formula_sum   'Tb7 Y3 Si5 Sn1'
_cell_volume   410.33933958
_cell_formula_units_Z   1
loop_
 _symmetry_equiv_pos_site_id
 _symmetry_equiv_pos_as_xyz
  1  'x, y, z'
loop_
 _atom_site_type_symbol
 _atom_site_label
 _atom_site_symmetry_multiplicity
 _atom_site_fract_x
 _atom_site_fract_y
 _atom_site_fract_z
 _atom_site_occupancy
  Tb  Tb0  1  0.999195  0.243265  0.250000  1
  Tb  Tb1  1  0.755929  0.756735  0.250000  1
  Tb  Tb2  1  0.241475  0.000000  0.250000  1
  Tb  Tb3  1  0.331737  0.658524  0.496820  1
  Tb  Tb4  1  0.673214  0.341476  0.003180  1
  Tb  Tb5  1  0.673214  0.341476  0.496820  1
  Tb  Tb6  1  0.331737  0.658524  0.003180  1
  Y  Y7  1  0.989349  0.748527  0.750000  1
  Y  Y8  1  0.764683  0.000000  0.750000  1
  Y  Y9  1  0.240822  0.251473  0.750000  1
  Si  Si10  1  0.393696  0.392687  0.250000  1
  Si  Si11  1  0.001009  0.607313  0.250000  1
  Si  Si12  1  0.998915  0.394164  0.750000  1
  Si  Si13  1  0.604751  0.605836  0.750000  1
  Si  Si14  1  0.605935  0.000000  0.250000  1
  Sn  Sn15  1  0.394340  0.000000  0.750000  1
