# generated using pymatgen
data_Ba6Lu2Mn3TcO18
_symmetry_space_group_name_H-M   'P 1'
_cell_length_a   5.87175300
_cell_length_b   5.87186034
_cell_length_c   14.47771401
_cell_angle_alpha   89.99945096
_cell_angle_beta   89.99712982
_cell_angle_gamma   119.99943835
_symmetry_Int_Tables_number   1
_chemical_formula_structural   Ba6Lu2Mn3TcO18
_chemical_formula_sum   'Ba6 Lu2 Mn3 Tc1 O18'
_cell_volume   432.29138239
_cell_formula_units_Z   1
loop_
 _symmetry_equiv_pos_site_id
 _symmetry_equiv_pos_as_xyz
  1  'x, y, z'
loop_
 _atom_site_type_symbol
 _atom_site_label
 _atom_site_symmetry_multiplicity
 _atom_site_fract_x
 _atom_site_fract_y
 _atom_site_fract_z
 _atom_site_occupancy
  Ba  Ba0  1  0.666672  0.333330  0.609715  1
  Ba  Ba1  1  0.333377  0.666711  0.417640  1
  Ba  Ba2  1  0.666632  0.333298  0.901676  1
  Ba  Ba3  1  0.999987  0.000009  0.243021  1
  Ba  Ba4  1  0.333275  0.666618  0.083589  1
  Ba  Ba5  1  0.999984  0.999976  0.753693  1
  Lu  Lu6  1  0.000033  0.000023  0.508561  1
  Lu  Lu7  1  0.999948  0.999963  0.996233  1
  Mn  Mn8  1  0.333478  0.666817  0.659322  1
  Mn  Mn9  1  0.666477  0.333242  0.152522  1
  Mn  Mn10  1  0.333629  0.666862  0.840922  1
  Tc  Tc11  1  0.666705  0.333361  0.340780  1
  O  O12  1  0.825688  0.174415  0.411208  1
  O  O13  1  0.825452  0.651002  0.088631  1
  O  O14  1  0.646390  0.823173  0.584362  1
  O  O15  1  0.825456  0.174397  0.088638  1
  O  O16  1  0.175614  0.351214  0.912810  1
  O  O17  1  0.825695  0.651352  0.411192  1
  O  O18  1  0.519754  0.480192  0.251641  1
  O  O19  1  0.348755  0.174409  0.411199  1
  O  O20  1  0.175618  0.824376  0.912804  1
  O  O21  1  0.519777  0.039598  0.251645  1
  O  O22  1  0.176822  0.823176  0.584357  1
  O  O23  1  0.478744  0.957469  0.748795  1
  O  O24  1  0.042446  0.521215  0.748799  1
  O  O25  1  0.478770  0.521233  0.748801  1
  O  O26  1  0.176821  0.353614  0.584359  1
  O  O27  1  0.648756  0.824370  0.912792  1
  O  O28  1  0.960428  0.480199  0.251651  1
  O  O29  1  0.348817  0.174383  0.088643  1
