# generated using pymatgen
data_PrDy15MgHg3Ir4
_symmetry_space_group_name_H-M   'P 1'
_cell_length_a   9.65860392
_cell_length_b   9.63786903
_cell_length_c   9.64999500
_cell_angle_alpha   59.95838201
_cell_angle_beta   60.02949058
_cell_angle_gamma   59.82090121
_symmetry_Int_Tables_number   1
_chemical_formula_structural   PrDy15MgHg3Ir4
_chemical_formula_sum   'Pr1 Dy15 Mg1 Hg3 Ir4'
_cell_volume   634.27288307
_cell_formula_units_Z   1
loop_
 _symmetry_equiv_pos_site_id
 _symmetry_equiv_pos_as_xyz
  1  'x, y, z'
loop_
 _atom_site_type_symbol
 _atom_site_label
 _atom_site_symmetry_multiplicity
 _atom_site_fract_x
 _atom_site_fract_y
 _atom_site_fract_z
 _atom_site_occupancy
  Pr  Pr0  1  0.937392  0.935210  0.563699  1
  Dy  Dy1  1  0.349813  0.348968  0.346551  1
  Dy  Dy2  1  0.349813  0.348968  0.954669  1
  Dy  Dy3  1  0.352587  0.953950  0.346732  1
  Dy  Dy4  1  0.945735  0.353004  0.350632  1
  Dy  Dy5  1  0.807492  0.191670  0.190770  1
  Dy  Dy6  1  0.187631  0.811197  0.812833  1
  Dy  Dy7  1  0.187631  0.811197  0.188340  1
  Dy  Dy8  1  0.807492  0.191670  0.810068  1
  Dy  Dy9  1  0.187680  0.189654  0.811333  1
  Dy  Dy10  1  0.807809  0.808932  0.191630  1
  Dy  Dy11  1  0.936765  0.558610  0.562524  1
  Dy  Dy12  1  0.557734  0.939177  0.940142  1
  Dy  Dy13  1  0.557734  0.939177  0.562947  1
  Dy  Dy14  1  0.936765  0.558610  0.942102  1
  Dy  Dy15  1  0.561420  0.562975  0.937802  1
  Mg  Mg16  1  0.283958  0.570908  0.572568  1
  Hg  Hg17  1  0.582948  0.587319  0.587446  1
  Hg  Hg18  1  0.582948  0.587319  0.242286  1
  Hg  Hg19  1  0.578763  0.245546  0.587845  1
  Ir  Ir20  1  0.141805  0.144247  0.139080  1
  Ir  Ir21  1  0.141805  0.144247  0.574868  1
  Ir  Ir22  1  0.140643  0.575062  0.142148  1
  Ir  Ir23  1  0.575636  0.142387  0.140988  1
