# generated using pymatgen
data_Hf18ZnMo8Rh
_symmetry_space_group_name_H-M   'P 1'
_cell_length_a   8.74068600
_cell_length_b   8.74068539
_cell_length_c   8.53934500
_cell_angle_alpha   90.00000000
_cell_angle_beta   90.00000000
_cell_angle_gamma   119.99999472
_symmetry_Int_Tables_number   1
_chemical_formula_structural   Hf18ZnMo8Rh
_chemical_formula_sum   'Hf18 Zn1 Mo8 Rh1'
_cell_volume   564.99710494
_cell_formula_units_Z   1
loop_
 _symmetry_equiv_pos_site_id
 _symmetry_equiv_pos_as_xyz
  1  'x, y, z'
loop_
 _atom_site_type_symbol
 _atom_site_label
 _atom_site_symmetry_multiplicity
 _atom_site_fract_x
 _atom_site_fract_y
 _atom_site_fract_z
 _atom_site_occupancy
  Hf  Hf0  1  0.198655  0.801345  0.447176  1
  Hf  Hf1  1  0.198655  0.397311  0.447176  1
  Hf  Hf2  1  0.602689  0.801345  0.447176  1
  Hf  Hf3  1  0.804703  0.195297  0.551338  1
  Hf  Hf4  1  0.804703  0.609407  0.551338  1
  Hf  Hf5  1  0.390593  0.195297  0.551338  1
  Hf  Hf6  1  0.804703  0.195297  0.948662  1
  Hf  Hf7  1  0.804703  0.609407  0.948662  1
  Hf  Hf8  1  0.390593  0.195297  0.948662  1
  Hf  Hf9  1  0.198655  0.801345  0.052824  1
  Hf  Hf10  1  0.198655  0.397311  0.052824  1
  Hf  Hf11  1  0.602689  0.801345  0.052824  1
  Hf  Hf12  1  0.542209  0.457791  0.250000  1
  Hf  Hf13  1  0.542209  0.084417  0.250000  1
  Hf  Hf14  1  0.915583  0.457791  0.250000  1
  Hf  Hf15  1  0.458746  0.541254  0.750000  1
  Hf  Hf16  1  0.458746  0.917493  0.750000  1
  Hf  Hf17  1  0.082507  0.541254  0.750000  1
  Zn  Zn18  1  0.666667  0.333333  0.750000  1
  Mo  Mo19  1  0.888107  0.111893  0.250000  1
  Mo  Mo20  1  0.888107  0.776214  0.250000  1
  Mo  Mo21  1  0.223786  0.111893  0.250000  1
  Mo  Mo22  1  0.110964  0.889036  0.750000  1
  Mo  Mo23  1  0.110964  0.221928  0.750000  1
  Mo  Mo24  1  0.778072  0.889036  0.750000  1
  Mo  Mo25  1  0.000000  0.000000  0.498118  1
  Mo  Mo26  1  0.000000  0.000000  0.001882  1
  Rh  Rh27  1  0.333333  0.666667  0.250000  1
