# generated using pymatgen
data_Th3Al2GaPd2Rh
_symmetry_space_group_name_H-M   'P 1'
_cell_length_a   7.29851334
_cell_length_b   7.34630861
_cell_length_c   4.14045000
_cell_angle_alpha   90.00000000
_cell_angle_beta   90.00000000
_cell_angle_gamma   120.16924867
_symmetry_Int_Tables_number   1
_chemical_formula_structural   Th3Al2GaPd2Rh
_chemical_formula_sum   'Th3 Al2 Ga1 Pd2 Rh1'
_cell_volume   191.92809348
_cell_formula_units_Z   1
loop_
 _symmetry_equiv_pos_site_id
 _symmetry_equiv_pos_as_xyz
  1  'x, y, z'
loop_
 _atom_site_type_symbol
 _atom_site_label
 _atom_site_symmetry_multiplicity
 _atom_site_fract_x
 _atom_site_fract_y
 _atom_site_fract_z
 _atom_site_occupancy
  Th  Th0  1  0.993729  0.421342  0.500000  1
  Th  Th1  1  0.584543  0.577535  0.500000  1
  Th  Th2  1  0.422070  0.005732  0.500000  1
  Al  Al3  1  0.233923  0.232749  0.000000  1
  Al  Al4  1  0.768110  0.002960  0.000000  1
  Ga  Ga5  1  0.998243  0.760929  0.000000  1
  Pd  Pd6  1  0.336862  0.665345  0.000000  1
  Pd  Pd7  1  0.999946  0.005936  0.500000  1
  Rh  Rh8  1  0.662574  0.327471  0.000000  1
