# generated using pymatgen
data_Dy13Ho7(Ir2Ru)4
_symmetry_space_group_name_H-M   'P 1'
_cell_length_a   10.81678709
_cell_length_b   10.81539409
_cell_length_c   6.42818501
_cell_angle_alpha   90.00320935
_cell_angle_beta   90.00328188
_cell_angle_gamma   90.01462043
_symmetry_Int_Tables_number   1
_chemical_formula_structural   Dy13Ho7(Ir2Ru)4
_chemical_formula_sum   'Dy13 Ho7 Ir8 Ru4'
_cell_volume   752.01929267
_cell_formula_units_Z   1
loop_
 _symmetry_equiv_pos_site_id
 _symmetry_equiv_pos_as_xyz
  1  'x, y, z'
loop_
 _atom_site_type_symbol
 _atom_site_label
 _atom_site_symmetry_multiplicity
 _atom_site_fract_x
 _atom_site_fract_y
 _atom_site_fract_z
 _atom_site_occupancy
  Dy  Dy0  1  0.293209  0.086623  0.377621  1
  Dy  Dy1  1  0.293189  0.913337  0.877544  1
  Dy  Dy2  1  0.706848  0.086678  0.877539  1
  Dy  Dy3  1  0.706781  0.913460  0.377658  1
  Dy  Dy4  1  0.586589  0.793295  0.877705  1
  Dy  Dy5  1  0.586672  0.206735  0.377712  1
  Dy  Dy6  1  0.413331  0.793261  0.377700  1
  Dy  Dy7  1  0.413375  0.206716  0.877748  1
  Dy  Dy8  1  0.206518  0.413359  0.622338  1
  Dy  Dy9  1  0.206654  0.586640  0.122397  1
  Dy  Dy10  1  0.793381  0.413200  0.122380  1
  Dy  Dy11  1  0.793416  0.586582  0.622389  1
  Dy  Dy12  1  0.913455  0.706782  0.122369  1
  Ho  Ho13  1  0.913425  0.293297  0.622293  1
  Ho  Ho14  1  0.086619  0.706714  0.622257  1
  Ho  Ho15  1  0.086493  0.293296  0.122198  1
  Ho  Ho16  1  0.000016  0.000027  0.499945  1
  Ho  Ho17  1  0.000018  0.000076  0.999858  1
  Ho  Ho18  1  0.499993  0.499985  0.999936  1
  Ho  Ho19  1  0.500005  0.500018  0.499955  1
  Ir  Ir20  1  0.848102  0.152365  0.250254  1
  Ir  Ir21  1  0.848038  0.847785  0.749950  1
  Ir  Ir22  1  0.151906  0.152337  0.750238  1
  Ir  Ir23  1  0.152020  0.847718  0.250312  1
  Ir  Ir24  1  0.652285  0.347877  0.749927  1
  Ir  Ir25  1  0.652106  0.652042  0.250047  1
  Ir  Ir26  1  0.347705  0.347931  0.249950  1
  Ir  Ir27  1  0.347726  0.652102  0.749959  1
  Ru  Ru28  1  0.499974  0.999968  0.121548  1
  Ru  Ru29  1  0.500019  0.000000  0.621570  1
  Ru  Ru30  1  0.000064  0.499872  0.878186  1
  Ru  Ru31  1  0.000070  0.499924  0.378517  1
