# generated using pymatgen
data_LaLu5Tc2
_symmetry_space_group_name_H-M   'P 1'
_cell_length_a   6.15851700
_cell_length_b   7.32253200
_cell_length_c   8.92033000
_cell_angle_alpha   90.00000000
_cell_angle_beta   90.00000000
_cell_angle_gamma   90.00000000
_symmetry_Int_Tables_number   1
_chemical_formula_structural   LaLu5Tc2
_chemical_formula_sum   'La2 Lu10 Tc4'
_cell_volume   402.27064688
_cell_formula_units_Z   2
loop_
 _symmetry_equiv_pos_site_id
 _symmetry_equiv_pos_as_xyz
  1  'x, y, z'
loop_
 _atom_site_type_symbol
 _atom_site_label
 _atom_site_symmetry_multiplicity
 _atom_site_fract_x
 _atom_site_fract_y
 _atom_site_fract_z
 _atom_site_occupancy
  La  La0  1  0.878218  0.546510  0.250000  1
  La  La1  1  0.621782  0.046510  0.250000  1
  Lu  Lu2  1  0.340893  0.676375  0.058384  1
  Lu  Lu3  1  0.159107  0.176375  0.441616  1
  Lu  Lu4  1  0.657591  0.324791  0.568323  1
  Lu  Lu5  1  0.842409  0.824791  0.931677  1
  Lu  Lu6  1  0.657591  0.324791  0.931677  1
  Lu  Lu7  1  0.842409  0.824791  0.568323  1
  Lu  Lu8  1  0.340893  0.676375  0.441616  1
  Lu  Lu9  1  0.159107  0.176375  0.058384  1
  Lu  Lu10  1  0.125177  0.460541  0.750000  1
  Lu  Lu11  1  0.374823  0.960541  0.750000  1
  Tc  Tc12  1  0.032092  0.874765  0.250000  1
  Tc  Tc13  1  0.467908  0.374765  0.250000  1
  Tc  Tc14  1  0.958289  0.115850  0.750000  1
  Tc  Tc15  1  0.541711  0.615850  0.750000  1
