# generated using pymatgen
data_Y12Si12Os3Rh
_symmetry_space_group_name_H-M   'P 1'
_cell_length_a   4.21683200
_cell_length_b   10.73198995
_cell_length_c   12.37429810
_cell_angle_alpha   90.07446514
_cell_angle_beta   90.00000000
_cell_angle_gamma   90.00000000
_symmetry_Int_Tables_number   1
_chemical_formula_structural   Y12Si12Os3Rh
_chemical_formula_sum   'Y12 Si12 Os3 Rh1'
_cell_volume   559.99837110
_cell_formula_units_Z   1
loop_
 _symmetry_equiv_pos_site_id
 _symmetry_equiv_pos_as_xyz
  1  'x, y, z'
loop_
 _atom_site_type_symbol
 _atom_site_label
 _atom_site_symmetry_multiplicity
 _atom_site_fract_x
 _atom_site_fract_y
 _atom_site_fract_z
 _atom_site_occupancy
  Y  Y0  1  0.250000  0.880419  0.021507  1
  Y  Y1  1  0.250000  0.619719  0.521299  1
  Y  Y2  1  0.750000  0.120421  0.979098  1
  Y  Y3  1  0.750000  0.381092  0.478373  1
  Y  Y4  1  0.250000  0.919932  0.604491  1
  Y  Y5  1  0.250000  0.579250  0.104378  1
  Y  Y6  1  0.750000  0.079251  0.395757  1
  Y  Y7  1  0.750000  0.420203  0.895405  1
  Y  Y8  1  0.250000  0.662216  0.800591  1
  Y  Y9  1  0.250000  0.837699  0.299870  1
  Y  Y10  1  0.750000  0.338572  0.199999  1
  Y  Y11  1  0.750000  0.160305  0.698698  1
  Si  Si12  1  0.250000  0.012555  0.822404  1
  Si  Si13  1  0.250000  0.493091  0.320636  1
  Si  Si14  1  0.750000  0.992271  0.179154  1
  Si  Si15  1  0.750000  0.507711  0.679481  1
  Si  Si16  1  0.250000  0.248733  0.839846  1
  Si  Si17  1  0.250000  0.250835  0.341399  1
  Si  Si18  1  0.750000  0.750324  0.159204  1
  Si  Si19  1  0.750000  0.747724  0.657249  1
  Si  Si20  1  0.250000  0.204731  0.544310  1
  Si  Si21  1  0.250000  0.296513  0.044442  1
  Si  Si22  1  0.750000  0.796653  0.455491  1
  Si  Si23  1  0.750000  0.699158  0.958278  1
  Os  Os24  1  0.250000  0.389980  0.680590  1
  Os  Os25  1  0.250000  0.110493  0.180901  1
  Os  Os26  1  0.750000  0.611022  0.319233  1
  Rh  Rh27  1  0.750000  0.889131  0.817914  1
