# generated using pymatgen
data_YbTm3Sc6(In2Pt)4
_symmetry_space_group_name_H-M   'P 1'
_cell_length_a   3.53286400
_cell_length_b   7.87355166
_cell_length_c   17.73745339
_cell_angle_alpha   89.65831510
_cell_angle_beta   90.00000000
_cell_angle_gamma   90.00000000
_symmetry_Int_Tables_number   1
_chemical_formula_structural   YbTm3Sc6(In2Pt)4
_chemical_formula_sum   'Yb1 Tm3 Sc6 In8 Pt4'
_cell_volume   493.37955102
_cell_formula_units_Z   1
loop_
 _symmetry_equiv_pos_site_id
 _symmetry_equiv_pos_as_xyz
  1  'x, y, z'
loop_
 _atom_site_type_symbol
 _atom_site_label
 _atom_site_symmetry_multiplicity
 _atom_site_fract_x
 _atom_site_fract_y
 _atom_site_fract_z
 _atom_site_occupancy
  Yb  Yb0  1  0.000000  0.999848  0.000452  1
  Tm  Tm1  1  0.000000  0.756302  0.780170  1
  Tm  Tm2  1  0.000000  0.258194  0.717825  1
  Tm  Tm3  1  0.000000  0.742732  0.281235  1
  Sc  Sc4  1  0.000000  0.117292  0.413970  1
  Sc  Sc5  1  0.000000  0.883518  0.583571  1
  Sc  Sc6  1  0.000000  0.379135  0.915123  1
  Sc  Sc7  1  0.000000  0.619281  0.088146  1
  Sc  Sc8  1  0.000000  0.245384  0.221812  1
  Sc  Sc9  1  0.000000  0.500498  0.498481  1
  In  In10  1  0.500000  0.415896  0.353752  1
  In  In11  1  0.500000  0.580973  0.643395  1
  In  In12  1  0.500000  0.079817  0.851475  1
  In  In13  1  0.500000  0.926035  0.149424  1
  In  In14  1  0.500000  0.300525  0.065813  1
  In  In15  1  0.500000  0.694643  0.938670  1
  In  In16  1  0.500000  0.204963  0.559298  1
  In  In17  1  0.500000  0.795200  0.438341  1
  Pt  Pt18  1  0.500000  0.034873  0.306098  1
  Pt  Pt19  1  0.500000  0.971160  0.691268  1
  Pt  Pt20  1  0.500000  0.471398  0.806047  1
  Pt  Pt21  1  0.500000  0.522332  0.195635  1
