# generated using pymatgen
data_PPt2Cl13
_symmetry_space_group_name_H-M   'P 1'
_cell_length_a   9.24318011
_cell_length_b   10.96659000
_cell_length_c   10.05690143
_cell_angle_alpha   90.00000000
_cell_angle_beta   101.05677584
_cell_angle_gamma   90.00000000
_symmetry_Int_Tables_number   1
_chemical_formula_structural   PPt2Cl13
_chemical_formula_sum   'P2 Pt4 Cl26'
_cell_volume   1000.50651074
_cell_formula_units_Z   2
loop_
 _symmetry_equiv_pos_site_id
 _symmetry_equiv_pos_as_xyz
  1  'x, y, z'
loop_
 _atom_site_type_symbol
 _atom_site_label
 _atom_site_symmetry_multiplicity
 _atom_site_fract_x
 _atom_site_fract_y
 _atom_site_fract_z
 _atom_site_occupancy
  P  P0  1  0.262294  0.750000  0.491400  1
  P  P1  1  0.737707  0.250000  0.508600  1
  Pt  Pt2  1  0.164075  0.250000  0.102874  1
  Pt  Pt3  1  0.671572  0.750000  0.145339  1
  Pt  Pt4  1  0.328428  0.250000  0.854661  1
  Pt  Pt5  1  0.835925  0.750000  0.897126  1
  Cl  Cl6  1  0.911145  0.250000  0.079808  1
  Cl  Cl7  1  0.841536  0.605048  0.077673  1
  Cl  Cl8  1  0.841536  0.894953  0.077673  1
  Cl  Cl9  1  0.424287  0.250000  0.094820  1
  Cl  Cl10  1  0.512540  0.600044  0.189113  1
  Cl  Cl11  1  0.512540  0.899956  0.189113  1
  Cl  Cl12  1  0.186772  0.101216  0.268034  1
  Cl  Cl13  1  0.186772  0.398784  0.268034  1
  Cl  Cl14  1  0.185386  0.750000  0.296969  1
  Cl  Cl15  1  0.789191  0.750000  0.369739  1
  Cl  Cl16  1  0.806154  0.104218  0.425829  1
  Cl  Cl17  1  0.806154  0.395782  0.425829  1
  Cl  Cl18  1  0.522226  0.250000  0.474170  1
  Cl  Cl19  1  0.477775  0.750000  0.525830  1
  Cl  Cl20  1  0.193847  0.604218  0.574171  1
  Cl  Cl21  1  0.193847  0.895782  0.574171  1
  Cl  Cl22  1  0.210809  0.250000  0.630261  1
  Cl  Cl23  1  0.814614  0.250000  0.703031  1
  Cl  Cl24  1  0.813229  0.601215  0.731966  1
  Cl  Cl25  1  0.813229  0.898785  0.731966  1
  Cl  Cl26  1  0.487459  0.100044  0.810887  1
  Cl  Cl27  1  0.487459  0.399956  0.810887  1
  Cl  Cl28  1  0.575712  0.750000  0.905180  1
  Cl  Cl29  1  0.158464  0.105048  0.922327  1
  Cl  Cl30  1  0.158464  0.394952  0.922327  1
  Cl  Cl31  1  0.088855  0.750000  0.920193  1
