# generated using pymatgen
data_Pu4CdRh4Pb
_symmetry_space_group_name_H-M   'P 1'
_cell_length_a   7.64635400
_cell_length_b   7.64635400
_cell_length_c   3.74726400
_cell_angle_alpha   90.00000000
_cell_angle_beta   90.00000000
_cell_angle_gamma   90.00000000
_symmetry_Int_Tables_number   1
_chemical_formula_structural   Pu4CdRh4Pb
_chemical_formula_sum   'Pu4 Cd1 Rh4 Pb1'
_cell_volume   219.09027063
_cell_formula_units_Z   1
loop_
 _symmetry_equiv_pos_site_id
 _symmetry_equiv_pos_as_xyz
  1  'x, y, z'
loop_
 _atom_site_type_symbol
 _atom_site_label
 _atom_site_symmetry_multiplicity
 _atom_site_fract_x
 _atom_site_fract_y
 _atom_site_fract_z
 _atom_site_occupancy
  Pu  Pu0  1  0.666559  0.167542  0.500000  1
  Pu  Pu1  1  0.167542  0.333441  0.500000  1
  Pu  Pu2  1  0.832458  0.666559  0.500000  1
  Pu  Pu3  1  0.333441  0.832458  0.500000  1
  Cd  Cd4  1  0.000000  0.000000  0.000000  1
  Rh  Rh5  1  0.868849  0.360438  0.000000  1
  Rh  Rh6  1  0.131151  0.639562  0.000000  1
  Rh  Rh7  1  0.639562  0.868849  0.000000  1
  Rh  Rh8  1  0.360438  0.131151  0.000000  1
  Pb  Pb9  1  0.500000  0.500000  0.000000  1
