# generated using pymatgen
data_PrNdMnZnO6
_symmetry_space_group_name_H-M   'P 1'
_cell_length_a   5.48136714
_cell_length_b   5.67434000
_cell_length_c   7.79800124
_cell_angle_alpha   89.99965168
_cell_angle_beta   90.01584129
_cell_angle_gamma   89.99941090
_symmetry_Int_Tables_number   1
_chemical_formula_structural   PrNdMnZnO6
_chemical_formula_sum   'Pr2 Nd2 Mn2 Zn2 O12'
_cell_volume   242.54232151
_cell_formula_units_Z   2
loop_
 _symmetry_equiv_pos_site_id
 _symmetry_equiv_pos_as_xyz
  1  'x, y, z'
loop_
 _atom_site_type_symbol
 _atom_site_label
 _atom_site_symmetry_multiplicity
 _atom_site_fract_x
 _atom_site_fract_y
 _atom_site_fract_z
 _atom_site_occupancy
  Pr  Pr0  1  0.987300  0.055230  0.249538  1
  Pr  Pr1  1  0.487313  0.444764  0.749542  1
  Nd  Nd2  1  0.013969  0.941977  0.750784  1
  Nd  Nd3  1  0.513969  0.558019  0.250781  1
  Mn  Mn4  1  0.999943  0.500186  0.499859  1
  Mn  Mn5  1  0.499918  0.999841  0.999857  1
  Zn  Zn6  1  0.499871  0.001016  0.500525  1
  Zn  Zn7  1  0.999872  0.498983  0.000527  1
  O  O8  1  0.090047  0.476406  0.259797  1
  O  O9  1  0.590032  0.023583  0.759794  1
  O  O10  1  0.914985  0.525325  0.740235  1
  O  O11  1  0.414981  0.974674  0.240236  1
  O  O12  1  0.283211  0.695899  0.543921  1
  O  O13  1  0.783191  0.804097  0.043918  1
  O  O14  1  0.714562  0.307215  0.454671  1
  O  O15  1  0.214538  0.192788  0.954671  1
  O  O16  1  0.190689  0.215767  0.548787  1
  O  O17  1  0.690682  0.284229  0.048781  1
  O  O18  1  0.805466  0.781560  0.451887  1
  O  O19  1  0.305460  0.718442  0.951889  1
