# generated using pymatgen
data_Tb2HoNiSn3Pd2
_symmetry_space_group_name_H-M   'P 1'
_cell_length_a   7.57969438
_cell_length_b   7.58385108
_cell_length_c   3.85391900
_cell_angle_alpha   90.00000000
_cell_angle_beta   90.00000000
_cell_angle_gamma   120.01813719
_symmetry_Int_Tables_number   1
_chemical_formula_structural   Tb2HoNiSn3Pd2
_chemical_formula_sum   'Tb2 Ho1 Ni1 Sn3 Pd2'
_cell_volume   191.82062584
_cell_formula_units_Z   1
loop_
 _symmetry_equiv_pos_site_id
 _symmetry_equiv_pos_as_xyz
  1  'x, y, z'
loop_
 _atom_site_type_symbol
 _atom_site_label
 _atom_site_symmetry_multiplicity
 _atom_site_fract_x
 _atom_site_fract_y
 _atom_site_fract_z
 _atom_site_occupancy
  Tb  Tb0  1  0.403096  0.403033  0.500000  1
  Tb  Tb1  1  0.596904  0.999938  0.500000  1
  Ho  Ho2  1  0.000000  0.597877  0.500000  1
  Ni  Ni3  1  0.000000  0.998619  0.500000  1
  Sn  Sn4  1  0.750136  0.749825  0.000000  1
  Sn  Sn5  1  0.249864  0.999689  0.000000  1
  Sn  Sn6  1  0.000000  0.249971  0.000000  1
  Pd  Pd7  1  0.669351  0.335199  0.000000  1
  Pd  Pd8  1  0.330649  0.665849  0.000000  1
