# generated using pymatgen
data_YTm5Nb2(Co4P3)4
_symmetry_space_group_name_H-M   'P 1'
_cell_length_a   3.69282700
_cell_length_b   10.59589500
_cell_length_c   12.28580300
_cell_angle_alpha   90.00000000
_cell_angle_beta   90.00000000
_cell_angle_gamma   90.00000000
_symmetry_Int_Tables_number   1
_chemical_formula_structural   YTm5Nb2(Co4P3)4
_chemical_formula_sum   'Y1 Tm5 Nb2 Co16 P12'
_cell_volume   480.72881621
_cell_formula_units_Z   1
loop_
 _symmetry_equiv_pos_site_id
 _symmetry_equiv_pos_as_xyz
  1  'x, y, z'
loop_
 _atom_site_type_symbol
 _atom_site_label
 _atom_site_symmetry_multiplicity
 _atom_site_fract_x
 _atom_site_fract_y
 _atom_site_fract_z
 _atom_site_occupancy
  Y  Y0  1  0.000000  0.500000  0.526980  1
  Tm  Tm1  1  0.500000  0.000000  0.472976  1
  Tm  Tm2  1  0.500000  0.820685  0.205250  1
  Tm  Tm3  1  0.500000  0.179315  0.205250  1
  Tm  Tm4  1  0.000000  0.679429  0.795017  1
  Tm  Tm5  1  0.000000  0.320571  0.795017  1
  Nb  Nb6  1  0.500000  0.500000  0.157056  1
  Nb  Nb7  1  0.000000  0.000000  0.842418  1
  Co  Co8  1  0.500000  0.500000  0.703022  1
  Co  Co9  1  0.000000  0.000000  0.298245  1
  Co  Co10  1  0.000000  0.500000  0.985482  1
  Co  Co11  1  0.500000  0.000000  0.014571  1
  Co  Co12  1  0.500000  0.332334  0.991308  1
  Co  Co13  1  0.500000  0.667666  0.991308  1
  Co  Co14  1  0.000000  0.167530  0.008710  1
  Co  Co15  1  0.000000  0.832470  0.008710  1
  Co  Co16  1  0.500000  0.294456  0.432306  1
  Co  Co17  1  0.500000  0.705544  0.432306  1
  Co  Co18  1  0.000000  0.204006  0.567483  1
  Co  Co19  1  0.000000  0.795994  0.567483  1
  Co  Co20  1  0.500000  0.876782  0.704307  1
  Co  Co21  1  0.500000  0.123218  0.704307  1
  Co  Co22  1  0.000000  0.623701  0.295345  1
  Co  Co23  1  0.000000  0.376299  0.295345  1
  P  P24  1  0.500000  0.500000  0.881309  1
  P  P25  1  0.000000  0.000000  0.119049  1
  P  P26  1  0.500000  0.500000  0.355991  1
  P  P27  1  0.000000  0.000000  0.642521  1
  P  P28  1  0.500000  0.311111  0.616490  1
  P  P29  1  0.500000  0.688889  0.616490  1
  P  P30  1  0.000000  0.187766  0.383965  1
  P  P31  1  0.000000  0.812234  0.383965  1
  P  P32  1  0.500000  0.840637  0.892408  1
  P  P33  1  0.500000  0.159363  0.892408  1
  P  P34  1  0.000000  0.659462  0.107599  1
  P  P35  1  0.000000  0.340538  0.107599  1
