# generated using pymatgen
data_LaPrAlOsI
_symmetry_space_group_name_H-M   'P 1'
_cell_length_a   4.37905500
_cell_length_b   4.37905363
_cell_length_c   17.71606000
_cell_angle_alpha   90.00000000
_cell_angle_beta   90.00000000
_cell_angle_gamma   120.00001793
_symmetry_Int_Tables_number   1
_chemical_formula_structural   LaPrAlOsI
_chemical_formula_sum   'La2 Pr2 Al2 Os2 I2'
_cell_volume   294.21062949
_cell_formula_units_Z   2
loop_
 _symmetry_equiv_pos_site_id
 _symmetry_equiv_pos_as_xyz
  1  'x, y, z'
loop_
 _atom_site_type_symbol
 _atom_site_label
 _atom_site_symmetry_multiplicity
 _atom_site_fract_x
 _atom_site_fract_y
 _atom_site_fract_z
 _atom_site_occupancy
  La  La0  1  0.000000  0.000000  0.605286  1
  La  La1  1  0.000000  0.000000  0.105286  1
  Pr  Pr2  1  0.000000  0.000000  0.395102  1
  Pr  Pr3  1  0.000000  0.000000  0.895102  1
  Al  Al4  1  0.333333  0.666667  0.499430  1
  Al  Al5  1  0.666667  0.333333  0.999430  1
  Os  Os6  1  0.666667  0.333333  0.499714  1
  Os  Os7  1  0.333333  0.666667  0.999714  1
  I  I8  1  0.333333  0.666667  0.250467  1
  I  I9  1  0.666667  0.333333  0.750467  1
