# generated using pymatgen
data_Hf2TaNb(AsC)2
_symmetry_space_group_name_H-M   'P 1'
_cell_length_a   3.37072800
_cell_length_b   3.37072757
_cell_length_c   12.28576700
_cell_angle_alpha   90.00000000
_cell_angle_beta   90.00000000
_cell_angle_gamma   120.00002388
_symmetry_Int_Tables_number   1
_chemical_formula_structural   Hf2TaNb(AsC)2
_chemical_formula_sum   'Hf2 Ta1 Nb1 As2 C2'
_cell_volume   120.88715682
_cell_formula_units_Z   1
loop_
 _symmetry_equiv_pos_site_id
 _symmetry_equiv_pos_as_xyz
  1  'x, y, z'
loop_
 _atom_site_type_symbol
 _atom_site_label
 _atom_site_symmetry_multiplicity
 _atom_site_fract_x
 _atom_site_fract_y
 _atom_site_fract_z
 _atom_site_occupancy
  Hf  Hf0  1  0.333333  0.666667  0.404381  1
  Hf  Hf1  1  0.666667  0.333333  0.904239  1
  Ta  Ta2  1  0.666667  0.333333  0.597505  1
  Nb  Nb3  1  0.333333  0.666667  0.097950  1
  As  As4  1  0.666667  0.333333  0.245537  1
  As  As5  1  0.333333  0.666667  0.744630  1
  C  C6  1  0.000000  0.000000  0.504122  1
  C  C7  1  0.000000  0.000000  0.001637  1
