# generated using pymatgen
data_Sc12Zn2WI16
_symmetry_space_group_name_H-M   'P 1'
_cell_length_a   9.29381367
_cell_length_b   11.96040081
_cell_length_c   12.65153400
_cell_angle_alpha   116.98750398
_cell_angle_beta   101.34765827
_cell_angle_gamma   100.83180948
_symmetry_Int_Tables_number   1
_chemical_formula_structural   Sc12Zn2WI16
_chemical_formula_sum   'Sc12 Zn2 W1 I16'
_cell_volume   1165.18817479
_cell_formula_units_Z   1
loop_
 _symmetry_equiv_pos_site_id
 _symmetry_equiv_pos_as_xyz
  1  'x, y, z'
loop_
 _atom_site_type_symbol
 _atom_site_label
 _atom_site_symmetry_multiplicity
 _atom_site_fract_x
 _atom_site_fract_y
 _atom_site_fract_z
 _atom_site_occupancy
  Sc  Sc0  1  0.090230  0.263692  0.355032  1
  Sc  Sc1  1  0.908486  0.733612  0.643478  1
  Sc  Sc2  1  0.774794  0.535594  0.331724  1
  Sc  Sc3  1  0.223069  0.462845  0.673899  1
  Sc  Sc4  1  0.282055  0.736448  0.644172  1
  Sc  Sc5  1  0.718235  0.266025  0.357055  1
  Sc  Sc6  1  0.147616  0.537128  0.325555  1
  Sc  Sc7  1  0.847718  0.464227  0.668688  1
  Sc  Sc8  1  0.417609  0.358156  0.275616  1
  Sc  Sc9  1  0.605955  0.641991  0.724586  1
  Sc  Sc10  1  0.469255  0.307004  0.519102  1
  Sc  Sc11  1  0.553374  0.693301  0.481171  1
  Zn  Zn12  1  0.988051  0.499806  0.500066  1
  Zn  Zn13  1  0.351102  0.500177  0.499817  1
  W  W14  1  0.662650  0.499930  0.500251  1
  I  I15  1  0.394142  0.737221  0.879300  1
  I  I16  1  0.605806  0.258420  0.112607  1
  I  I17  1  0.189287  0.964163  0.782250  1
  I  I18  1  0.813611  0.035978  0.217700  1
  I  I19  1  0.320377  0.093043  0.250672  1
  I  I20  1  0.649820  0.906998  0.749196  1
  I  I21  1  0.549643  0.436973  0.797971  1
  I  I22  1  0.424262  0.563492  0.202448  1
  I  I23  1  0.306665  0.825345  0.463906  1
  I  I24  1  0.694952  0.168500  0.537706  1
  I  I25  1  0.167802  0.174820  0.534879  1
  I  I26  1  0.837218  0.831008  0.463548  1
  I  I27  1  0.926385  0.575179  0.162003  1
  I  I28  1  0.072944  0.424426  0.837682  1
  I  I29  1  0.929411  0.741193  0.887787  1
  I  I30  1  0.077478  0.263306  0.120132  1
