# generated using pymatgen
data_Ca5La3(CdRu)2
_symmetry_space_group_name_H-M   'P 1'
_cell_length_a   10.06511971
_cell_length_b   10.10851742
_cell_length_c   10.10851712
_cell_angle_alpha   59.71616741
_cell_angle_beta   60.14191982
_cell_angle_gamma   60.14191588
_symmetry_Int_Tables_number   1
_chemical_formula_structural   Ca5La3(CdRu)2
_chemical_formula_sum   'Ca10 La6 Cd4 Ru4'
_cell_volume   727.21517108
_cell_formula_units_Z   2
loop_
 _symmetry_equiv_pos_site_id
 _symmetry_equiv_pos_as_xyz
  1  'x, y, z'
loop_
 _atom_site_type_symbol
 _atom_site_label
 _atom_site_symmetry_multiplicity
 _atom_site_fract_x
 _atom_site_fract_y
 _atom_site_fract_z
 _atom_site_occupancy
  Ca  Ca0  1  0.196724  0.803276  0.196724  1
  Ca  Ca1  1  0.803276  0.196724  0.803276  1
  Ca  Ca2  1  0.196724  0.196724  0.803276  1
  Ca  Ca3  1  0.803276  0.803276  0.196724  1
  Ca  Ca4  1  0.938729  0.561271  0.561271  1
  Ca  Ca5  1  0.561271  0.938729  0.938729  1
  Ca  Ca6  1  0.555876  0.944124  0.555876  1
  Ca  Ca7  1  0.944124  0.555876  0.944124  1
  Ca  Ca8  1  0.555876  0.555876  0.944124  1
  Ca  Ca9  1  0.944124  0.944124  0.555876  1
  La  La10  1  0.350577  0.341108  0.341108  1
  La  La11  1  0.341108  0.350577  0.967207  1
  La  La12  1  0.341108  0.967207  0.350577  1
  La  La13  1  0.967207  0.341108  0.341108  1
  La  La14  1  0.813197  0.186803  0.186803  1
  La  La15  1  0.186803  0.813197  0.813197  1
  Cd  Cd16  1  0.578985  0.579734  0.579734  1
  Cd  Cd17  1  0.579734  0.578985  0.261547  1
  Cd  Cd18  1  0.579734  0.261547  0.578985  1
  Cd  Cd19  1  0.261547  0.579734  0.579734  1
  Ru  Ru20  1  0.100218  0.157356  0.157356  1
  Ru  Ru21  1  0.157356  0.100218  0.585069  1
  Ru  Ru22  1  0.157356  0.585069  0.100218  1
  Ru  Ru23  1  0.585069  0.157356  0.157356  1
