# generated using pymatgen
data_Tb8DyEr11Sn16
_symmetry_space_group_name_H-M   'P 1'
_cell_length_a   8.00474911
_cell_length_b   8.14614013
_cell_length_c   15.39114304
_cell_angle_alpha   89.99278424
_cell_angle_beta   89.99593033
_cell_angle_gamma   89.98123342
_symmetry_Int_Tables_number   1
_chemical_formula_structural   Tb8DyEr11Sn16
_chemical_formula_sum   'Tb8 Dy1 Er11 Sn16'
_cell_volume   1003.62263499
_cell_formula_units_Z   1
loop_
 _symmetry_equiv_pos_site_id
 _symmetry_equiv_pos_as_xyz
  1  'x, y, z'
loop_
 _atom_site_type_symbol
 _atom_site_label
 _atom_site_symmetry_multiplicity
 _atom_site_fract_x
 _atom_site_fract_y
 _atom_site_fract_z
 _atom_site_occupancy
  Tb  Tb0  1  0.520483  0.319994  0.902539  1
  Tb  Tb1  1  0.020463  0.180100  0.597428  1
  Tb  Tb2  1  0.479513  0.680055  0.402539  1
  Tb  Tb3  1  0.979580  0.819988  0.097437  1
  Tb  Tb4  1  0.479579  0.680026  0.097581  1
  Tb  Tb5  1  0.979510  0.819922  0.402546  1
  Tb  Tb6  1  0.520474  0.319917  0.597417  1
  Tb  Tb7  1  0.020383  0.180119  0.902571  1
  Dy  Dy8  1  0.367551  0.835722  0.877997  1
  Er  Er9  1  0.867506  0.664184  0.622049  1
  Er  Er10  1  0.632543  0.164209  0.377924  1
  Er  Er11  1  0.132532  0.335790  0.122143  1
  Er  Er12  1  0.632519  0.164164  0.122052  1
  Er  Er13  1  0.132552  0.335811  0.377935  1
  Er  Er14  1  0.367453  0.835829  0.622046  1
  Er  Er15  1  0.867413  0.664202  0.877875  1
  Er  Er16  1  0.197792  0.503261  0.749903  1
  Er  Er17  1  0.698042  0.996635  0.749943  1
  Er  Er18  1  0.802049  0.496572  0.250009  1
  Er  Er19  1  0.302050  0.003434  0.250030  1
  Sn  Sn20  1  0.293398  0.036159  0.042184  1
  Sn  Sn21  1  0.793548  0.464162  0.458105  1
  Sn  Sn22  1  0.706448  0.964182  0.541880  1
  Sn  Sn23  1  0.206165  0.535334  0.958213  1
  Sn  Sn24  1  0.706996  0.964320  0.958181  1
  Sn  Sn25  1  0.206465  0.535824  0.541889  1
  Sn  Sn26  1  0.293538  0.035823  0.458121  1
  Sn  Sn27  1  0.793565  0.464166  0.041880  1
  Sn  Sn28  1  0.565112  0.619995  0.749845  1
  Sn  Sn29  1  0.064551  0.879772  0.749851  1
  Sn  Sn30  1  0.435182  0.379713  0.250014  1
  Sn  Sn31  1  0.935194  0.120277  0.250011  1
  Sn  Sn32  1  0.328510  0.146417  0.749873  1
  Sn  Sn33  1  0.828519  0.353881  0.749981  1
  Sn  Sn34  1  0.671387  0.853841  0.250005  1
  Sn  Sn35  1  0.171434  0.646199  0.249999  1
