# generated using pymatgen
data_Y6Ta2Nb2Ga12Os7
_symmetry_space_group_name_H-M   'P 1'
_cell_length_a   9.04397824
_cell_length_b   9.04594078
_cell_length_c   9.04593910
_cell_angle_alpha   60.01086454
_cell_angle_beta   60.00716474
_cell_angle_gamma   60.00716927
_symmetry_Int_Tables_number   1
_chemical_formula_structural   Y6Ta2Nb2Ga12Os7
_chemical_formula_sum   'Y6 Ta2 Nb2 Ga12 Os7'
_cell_volume   523.40106710
_cell_formula_units_Z   1
loop_
 _symmetry_equiv_pos_site_id
 _symmetry_equiv_pos_as_xyz
  1  'x, y, z'
loop_
 _atom_site_type_symbol
 _atom_site_label
 _atom_site_symmetry_multiplicity
 _atom_site_fract_x
 _atom_site_fract_y
 _atom_site_fract_z
 _atom_site_occupancy
  Y  Y0  1  0.709369  0.708749  0.291203  1
  Y  Y1  1  0.290679  0.708749  0.291203  1
  Y  Y2  1  0.709699  0.290301  0.290301  1
  Y  Y3  1  0.290679  0.291203  0.708749  1
  Y  Y4  1  0.709369  0.291203  0.708749  1
  Y  Y5  1  0.291594  0.708406  0.708406  1
  Ta  Ta6  1  0.365579  0.877993  0.877993  1
  Ta  Ta7  1  0.878435  0.877993  0.877993  1
  Nb  Nb8  1  0.878282  0.877884  0.365552  1
  Nb  Nb9  1  0.878282  0.365552  0.877884  1
  Ga  Ga10  1  0.119509  0.119267  0.641716  1
  Ga  Ga11  1  0.119509  0.641716  0.119267  1
  Ga  Ga12  1  0.641544  0.119404  0.119404  1
  Ga  Ga13  1  0.119647  0.119404  0.119404  1
  Ga  Ga14  1  0.663053  0.663036  0.010857  1
  Ga  Ga15  1  0.663053  0.010857  0.663036  1
  Ga  Ga16  1  0.010143  0.663288  0.663288  1
  Ga  Ga17  1  0.663280  0.663288  0.663288  1
  Ga  Ga18  1  0.335058  0.334916  0.994968  1
  Ga  Ga19  1  0.335058  0.994968  0.334916  1
  Ga  Ga20  1  0.995261  0.334867  0.334867  1
  Ga  Ga21  1  0.335004  0.334867  0.334867  1
  Os  Os22  1  0.000614  0.999386  0.999386  1
  Os  Os23  1  0.995557  0.995487  0.506109  1
  Os  Os24  1  0.502847  0.995487  0.506109  1
  Os  Os25  1  0.995740  0.504260  0.504260  1
  Os  Os26  1  0.502847  0.506109  0.995487  1
  Os  Os27  1  0.995557  0.506109  0.995487  1
  Os  Os28  1  0.504748  0.995252  0.995252  1
