# generated using pymatgen
data_Eu2Pd7
_symmetry_space_group_name_H-M   'P 1'
_cell_length_a   5.36233317
_cell_length_b   5.36233363
_cell_length_c   13.63624500
_cell_angle_alpha   90.00000000
_cell_angle_beta   90.00000000
_cell_angle_gamma   120.43770822
_symmetry_Int_Tables_number   1
_chemical_formula_structural   Eu2Pd7
_chemical_formula_sum   'Eu4 Pd14'
_cell_volume   338.06529484
_cell_formula_units_Z   2
loop_
 _symmetry_equiv_pos_site_id
 _symmetry_equiv_pos_as_xyz
  1  'x, y, z'
loop_
 _atom_site_type_symbol
 _atom_site_label
 _atom_site_symmetry_multiplicity
 _atom_site_fract_x
 _atom_site_fract_y
 _atom_site_fract_z
 _atom_site_occupancy
  Eu  Eu0  1  0.322722  0.322722  0.115941  1
  Eu  Eu1  1  0.677278  0.677278  0.615941  1
  Eu  Eu2  1  0.322722  0.322722  0.384059  1
  Eu  Eu3  1  0.677278  0.677278  0.884059  1
  Pd  Pd4  1  0.833404  0.833404  0.250000  1
  Pd  Pd5  1  0.166596  0.166596  0.750000  1
  Pd  Pd6  1  0.825144  0.329508  0.250000  1
  Pd  Pd7  1  0.174856  0.670492  0.750000  1
  Pd  Pd8  1  0.329508  0.825144  0.250000  1
  Pd  Pd9  1  0.670492  0.174856  0.750000  1
  Pd  Pd10  1  0.997691  0.660415  0.077327  1
  Pd  Pd11  1  0.002309  0.339585  0.577327  1
  Pd  Pd12  1  0.660415  0.997691  0.422673  1
  Pd  Pd13  1  0.339585  0.002309  0.922673  1
  Pd  Pd14  1  0.002309  0.339585  0.922673  1
  Pd  Pd15  1  0.997691  0.660415  0.422673  1
  Pd  Pd16  1  0.339585  0.002309  0.577327  1
  Pd  Pd17  1  0.660415  0.997691  0.077327  1
