# generated using pymatgen
data_Ce2DyEr7(Al2Ru3)2
_symmetry_space_group_name_H-M   'P 1'
_cell_length_a   8.41810282
_cell_length_b   8.32832027
_cell_length_c   8.30595139
_cell_angle_alpha   109.90422076
_cell_angle_beta   109.42973321
_cell_angle_gamma   110.20914119
_symmetry_Int_Tables_number   1
_chemical_formula_structural   Ce2DyEr7(Al2Ru3)2
_chemical_formula_sum   'Ce2 Dy1 Er7 Al4 Ru6'
_cell_volume   441.89526707
_cell_formula_units_Z   1
loop_
 _symmetry_equiv_pos_site_id
 _symmetry_equiv_pos_as_xyz
  1  'x, y, z'
loop_
 _atom_site_type_symbol
 _atom_site_label
 _atom_site_symmetry_multiplicity
 _atom_site_fract_x
 _atom_site_fract_y
 _atom_site_fract_z
 _atom_site_occupancy
  Ce  Ce0  1  0.943607  0.252099  0.195377  1
  Ce  Ce1  1  0.196772  0.941666  0.251575  1
  Dy  Dy2  1  0.779754  0.784356  0.777421  1
  Er  Er3  1  0.317818  0.567268  0.753631  1
  Er  Er4  1  0.750721  0.317631  0.569228  1
  Er  Er5  1  0.568538  0.747974  0.313778  1
  Er  Er6  1  0.718914  0.502444  0.998576  1
  Er  Er7  1  0.999003  0.719242  0.505730  1
  Er  Er8  1  0.500652  0.993208  0.716014  1
  Er  Er9  1  0.254173  0.187107  0.931904  1
  Al  Al10  1  0.415193  0.410554  0.407884  1
  Al  Al11  1  0.092392  0.492335  0.996122  1
  Al  Al12  1  0.998172  0.091765  0.503813  1
  Al  Al13  1  0.502796  0.009063  0.094175  1
  Ru  Ru14  1  0.867381  0.117007  0.741458  1
  Ru  Ru15  1  0.754027  0.899633  0.122846  1
  Ru  Ru16  1  0.126963  0.762267  0.904882  1
  Ru  Ru17  1  0.226219  0.595065  0.365313  1
  Ru  Ru18  1  0.360150  0.224594  0.598525  1
  Ru  Ru19  1  0.626758  0.384721  0.251746  1
