# generated using pymatgen
data_Pr9HoCdSi4Ge
_symmetry_space_group_name_H-M   'P 1'
_cell_length_a   7.78647700
_cell_length_b   9.28026705
_cell_length_c   7.78647700
_cell_angle_alpha   114.80416688
_cell_angle_beta   90.00000000
_cell_angle_gamma   114.80416008
_symmetry_Int_Tables_number   1
_chemical_formula_structural   Pr9HoCdSi4Ge
_chemical_formula_sum   'Pr9 Ho1 Cd1 Si4 Ge1'
_cell_volume   452.93207353
_cell_formula_units_Z   1
loop_
 _symmetry_equiv_pos_site_id
 _symmetry_equiv_pos_as_xyz
  1  'x, y, z'
loop_
 _atom_site_type_symbol
 _atom_site_label
 _atom_site_symmetry_multiplicity
 _atom_site_fract_x
 _atom_site_fract_y
 _atom_site_fract_z
 _atom_site_occupancy
  Pr  Pr0  1  0.528458  0.056916  0.528458  1
  Pr  Pr1  1  0.524979  0.720613  0.671249  1
  Pr  Pr2  1  0.195634  0.720613  0.049365  1
  Pr  Pr3  1  0.671249  0.720613  0.195634  1
  Pr  Pr4  1  0.049365  0.720613  0.524979  1
  Pr  Pr5  1  0.450942  0.277225  0.300844  1
  Pr  Pr6  1  0.826282  0.277225  0.976379  1
  Pr  Pr7  1  0.300844  0.277225  0.826282  1
  Pr  Pr8  1  0.976379  0.277225  0.450942  1
  Ho  Ho9  1  0.982384  0.964769  0.982384  1
  Cd  Cd10  1  0.755437  0.510873  0.755437  1
  Si  Si11  1  0.884016  0.996151  0.617623  1
  Si  Si12  1  0.112134  0.996151  0.378527  1
  Si  Si13  1  0.617623  0.996151  0.112134  1
  Si  Si14  1  0.378527  0.996151  0.884016  1
  Ge  Ge15  1  0.245745  0.491490  0.245745  1
