# generated using pymatgen
data_Dy3ErAl18CuRh5
_symmetry_space_group_name_H-M   'P 1'
_cell_length_a   7.55931070
_cell_length_b   7.56087056
_cell_length_c   9.42705212
_cell_angle_alpha   90.06407817
_cell_angle_beta   90.07286200
_cell_angle_gamma   119.57069608
_symmetry_Int_Tables_number   1
_chemical_formula_structural   Dy3ErAl18CuRh5
_chemical_formula_sum   'Dy3 Er1 Al18 Cu1 Rh5'
_cell_volume   468.62110235
_cell_formula_units_Z   1
loop_
 _symmetry_equiv_pos_site_id
 _symmetry_equiv_pos_as_xyz
  1  'x, y, z'
loop_
 _atom_site_type_symbol
 _atom_site_label
 _atom_site_symmetry_multiplicity
 _atom_site_fract_x
 _atom_site_fract_y
 _atom_site_fract_z
 _atom_site_occupancy
  Dy  Dy0  1  0.994902  0.672572  0.749617  1
  Dy  Dy1  1  0.005222  0.327425  0.250390  1
  Dy  Dy2  1  0.672371  0.994795  0.749617  1
  Er  Er3  1  0.327434  0.005186  0.250220  1
  Al  Al4  1  0.129559  0.129370  0.751235  1
  Al  Al5  1  0.871087  0.870748  0.248876  1
  Al  Al6  1  0.000930  0.338412  0.577105  1
  Al  Al7  1  0.999633  0.662248  0.422381  1
  Al  Al8  1  0.000534  0.665499  0.075146  1
  Al  Al9  1  0.334989  0.999970  0.925913  1
  Al  Al10  1  0.999986  0.334985  0.925412  1
  Al  Al11  1  0.664522  0.000011  0.075167  1
  Al  Al12  1  0.661044  0.999132  0.422260  1
  Al  Al13  1  0.338236  0.000871  0.576570  1
  Al  Al14  1  0.333039  0.332656  0.051200  1
  Al  Al15  1  0.667025  0.666979  0.949582  1
  Al  Al16  1  0.664118  0.664096  0.551891  1
  Al  Al17  1  0.335840  0.335384  0.447329  1
  Al  Al18  1  0.339405  0.549831  0.750343  1
  Al  Al19  1  0.660089  0.449528  0.249655  1
  Al  Al20  1  0.549762  0.339260  0.750321  1
  Al  Al21  1  0.450069  0.661008  0.249681  1
  Cu  Cu22  1  0.999877  0.000048  0.499910  1
  Rh  Rh23  1  0.672017  0.327592  0.499741  1
  Rh  Rh24  1  0.327890  0.672334  0.499760  1
  Rh  Rh25  1  0.327820  0.672173  0.000170  1
  Rh  Rh26  1  0.672205  0.327730  0.000221  1
  Rh  Rh27  1  0.000395  0.000158  0.000290  1
