# generated using pymatgen
data_TbYb(DyB8)2
_symmetry_space_group_name_H-M   'P 1'
_cell_length_a   7.11141361
_cell_length_b   7.11131469
_cell_length_c   4.02699100
_cell_angle_alpha   90.00000000
_cell_angle_beta   90.00000000
_cell_angle_gamma   89.99848496
_symmetry_Int_Tables_number   1
_chemical_formula_structural   TbYb(DyB8)2
_chemical_formula_sum   'Tb1 Yb1 Dy2 B16'
_cell_volume   203.65097564
_cell_formula_units_Z   1
loop_
 _symmetry_equiv_pos_site_id
 _symmetry_equiv_pos_as_xyz
  1  'x, y, z'
loop_
 _atom_site_type_symbol
 _atom_site_label
 _atom_site_symmetry_multiplicity
 _atom_site_fract_x
 _atom_site_fract_y
 _atom_site_fract_z
 _atom_site_occupancy
  Tb  Tb0  1  0.817365  0.317550  0.000000  1
  Yb  Yb1  1  0.682782  0.817204  0.000000  1
  Dy  Dy2  1  0.182438  0.682637  0.000000  1
  Dy  Dy3  1  0.318706  0.181277  0.000000  1
  B  B4  1  0.500385  0.501684  0.797068  1
  B  B5  1  0.998502  0.999337  0.797068  1
  B  B6  1  0.500385  0.501684  0.202932  1
  B  B7  1  0.998502  0.999337  0.202932  1
  B  B8  1  0.913531  0.586669  0.500000  1
  B  B9  1  0.087171  0.413024  0.500000  1
  B  B10  1  0.412939  0.913593  0.500000  1
  B  B11  1  0.586379  0.087046  0.500000  1
  B  B12  1  0.675844  0.538382  0.500000  1
  B  B13  1  0.324573  0.461228  0.500000  1
  B  B14  1  0.176566  0.962044  0.500000  1
  B  B15  1  0.823631  0.038010  0.500000  1
  B  B16  1  0.461787  0.676489  0.500000  1
  B  B17  1  0.537732  0.323546  0.500000  1
  B  B18  1  0.038957  0.175270  0.500000  1
  B  B19  1  0.961827  0.823988  0.500000  1
