# generated using pymatgen
data_DyEr3CoB16Ir3
_symmetry_space_group_name_H-M   'P 1'
_cell_length_a   3.52768400
_cell_length_b   5.94220147
_cell_length_c   11.51399010
_cell_angle_alpha   89.82137806
_cell_angle_beta   90.00000000
_cell_angle_gamma   90.00000000
_symmetry_Int_Tables_number   1
_chemical_formula_structural   DyEr3CoB16Ir3
_chemical_formula_sum   'Dy1 Er3 Co1 B16 Ir3'
_cell_volume   241.35749481
_cell_formula_units_Z   1
loop_
 _symmetry_equiv_pos_site_id
 _symmetry_equiv_pos_as_xyz
  1  'x, y, z'
loop_
 _atom_site_type_symbol
 _atom_site_label
 _atom_site_symmetry_multiplicity
 _atom_site_fract_x
 _atom_site_fract_y
 _atom_site_fract_z
 _atom_site_occupancy
  Dy  Dy0  1  0.500000  0.371737  0.147386  1
  Er  Er1  1  0.500000  0.630022  0.854366  1
  Er  Er2  1  0.500000  0.131530  0.649873  1
  Er  Er3  1  0.500000  0.868909  0.346142  1
  Co  Co4  1  0.500000  0.856945  0.095732  1
  B  B5  1  0.000000  0.110421  0.046707  1
  B  B6  1  0.000000  0.886150  0.954335  1
  B  B7  1  0.000000  0.387451  0.546934  1
  B  B8  1  0.000000  0.613597  0.452136  1
  B  B9  1  0.000000  0.135481  0.468678  1
  B  B10  1  0.000000  0.865106  0.529884  1
  B  B11  1  0.000000  0.364510  0.969433  1
  B  B12  1  0.000000  0.638976  0.032283  1
  B  B13  1  0.000000  0.019098  0.190298  1
  B  B14  1  0.000000  0.976865  0.808129  1
  B  B15  1  0.000000  0.474430  0.693020  1
  B  B16  1  0.000000  0.526617  0.306131  1
  B  B17  1  0.000000  0.208086  0.311251  1
  B  B18  1  0.000000  0.792136  0.688435  1
  B  B19  1  0.000000  0.290071  0.814077  1
  B  B20  1  0.000000  0.714506  0.184252  1
  Ir  Ir21  1  0.500000  0.356473  0.404725  1
  Ir  Ir22  1  0.500000  0.645790  0.597278  1
  Ir  Ir23  1  0.500000  0.135096  0.908517  1
