# generated using pymatgen
data_Dy4Lu11Th(CdPt)4
_symmetry_space_group_name_H-M   'P 1'
_cell_length_a   9.54645603
_cell_length_b   9.53172827
_cell_length_c   9.53172882
_cell_angle_alpha   60.43992237
_cell_angle_beta   60.43285774
_cell_angle_gamma   60.43286040
_symmetry_Int_Tables_number   1
_chemical_formula_structural   Dy4Lu11Th(CdPt)4
_chemical_formula_sum   'Dy4 Lu11 Th1 Cd4 Pt4'
_cell_volume   619.33132274
_cell_formula_units_Z   1
loop_
 _symmetry_equiv_pos_site_id
 _symmetry_equiv_pos_as_xyz
  1  'x, y, z'
loop_
 _atom_site_type_symbol
 _atom_site_label
 _atom_site_symmetry_multiplicity
 _atom_site_fract_x
 _atom_site_fract_y
 _atom_site_fract_z
 _atom_site_occupancy
  Dy  Dy0  1  0.567949  0.934291  0.567773  1
  Dy  Dy1  1  0.937887  0.563397  0.937807  1
  Dy  Dy2  1  0.567949  0.567773  0.934291  1
  Dy  Dy3  1  0.937887  0.937807  0.563397  1
  Lu  Lu4  1  0.355672  0.355397  0.935288  1
  Lu  Lu5  1  0.355672  0.935288  0.355397  1
  Lu  Lu6  1  0.935325  0.355688  0.355688  1
  Lu  Lu7  1  0.814307  0.187449  0.187449  1
  Lu  Lu8  1  0.191263  0.811515  0.811515  1
  Lu  Lu9  1  0.187113  0.814471  0.187297  1
  Lu  Lu10  1  0.812007  0.190853  0.811477  1
  Lu  Lu11  1  0.187113  0.187297  0.814471  1
  Lu  Lu12  1  0.812007  0.811477  0.190853  1
  Lu  Lu13  1  0.936937  0.565359  0.565359  1
  Lu  Lu14  1  0.560393  0.941640  0.941640  1
  Th  Th15  1  0.349293  0.348760  0.348760  1
  Cd  Cd16  1  0.582957  0.581131  0.581131  1
  Cd  Cd17  1  0.581921  0.583671  0.253321  1
  Cd  Cd18  1  0.581921  0.253321  0.583671  1
  Cd  Cd19  1  0.252283  0.582293  0.582293  1
  Pt  Pt20  1  0.144979  0.144426  0.144426  1
  Pt  Pt21  1  0.137503  0.138022  0.571785  1
  Pt  Pt22  1  0.137503  0.571785  0.138022  1
  Pt  Pt23  1  0.572164  0.136892  0.136892  1
