# generated using pymatgen
data_Hf16PdRh7O4
_symmetry_space_group_name_H-M   'P 1'
_cell_length_a   8.74260419
_cell_length_b   8.73785057
_cell_length_c   8.73785100
_cell_angle_alpha   60.00000215
_cell_angle_beta   60.01798700
_cell_angle_gamma   60.01797888
_symmetry_Int_Tables_number   1
_chemical_formula_structural   Hf16PdRh7O4
_chemical_formula_sum   'Hf16 Pd1 Rh7 O4'
_cell_volume   472.12072697
_cell_formula_units_Z   1
loop_
 _symmetry_equiv_pos_site_id
 _symmetry_equiv_pos_as_xyz
  1  'x, y, z'
loop_
 _atom_site_type_symbol
 _atom_site_label
 _atom_site_symmetry_multiplicity
 _atom_site_fract_x
 _atom_site_fract_y
 _atom_site_fract_z
 _atom_site_occupancy
  Hf  Hf0  1  0.125423  0.624859  0.624859  1
  Hf  Hf1  1  0.624578  0.121229  0.627097  1
  Hf  Hf2  1  0.624578  0.627097  0.121229  1
  Hf  Hf3  1  0.624578  0.627097  0.627097  1
  Hf  Hf4  1  0.816170  0.816407  0.183712  1
  Hf  Hf5  1  0.184616  0.184441  0.815471  1
  Hf  Hf6  1  0.816170  0.183712  0.816407  1
  Hf  Hf7  1  0.184616  0.815471  0.184441  1
  Hf  Hf8  1  0.184616  0.815471  0.815471  1
  Hf  Hf9  1  0.816170  0.183712  0.183712  1
  Hf  Hf10  1  0.434758  0.434566  0.065338  1
  Hf  Hf11  1  0.067994  0.062127  0.434939  1
  Hf  Hf12  1  0.434758  0.065338  0.434566  1
  Hf  Hf13  1  0.067994  0.434939  0.062127  1
  Hf  Hf14  1  0.067994  0.434939  0.434939  1
  Hf  Hf15  1  0.434758  0.065338  0.065338  1
  Pd  Pd16  1  0.776485  0.407838  0.407838  1
  Rh  Rh17  1  0.404853  0.783746  0.405700  1
  Rh  Rh18  1  0.404853  0.405700  0.783746  1
  Rh  Rh19  1  0.404853  0.405700  0.405700  1
  Rh  Rh20  1  0.466035  0.844655  0.844655  1
  Rh  Rh21  1  0.844807  0.466527  0.844333  1
  Rh  Rh22  1  0.844807  0.844333  0.466527  1
  Rh  Rh23  1  0.844807  0.844333  0.844333  1
  O  O24  1  0.624396  0.125201  0.125201  1
  O  O25  1  0.124778  0.624801  0.125211  1
  O  O26  1  0.124778  0.125211  0.624801  1
  O  O27  1  0.124778  0.125211  0.125211  1
