# generated using pymatgen
data_Ba3PrZrSe6
_symmetry_space_group_name_H-M   'P 1'
_cell_length_a   8.83241310
_cell_length_b   8.83241223
_cell_length_c   8.83241348
_cell_angle_alpha   92.55171618
_cell_angle_beta   92.55172346
_cell_angle_gamma   92.55171667
_symmetry_Int_Tables_number   1
_chemical_formula_structural   Ba3PrZrSe6
_chemical_formula_sum   'Ba6 Pr2 Zr2 Se12'
_cell_volume   686.91727498
_cell_formula_units_Z   2
loop_
 _symmetry_equiv_pos_site_id
 _symmetry_equiv_pos_as_xyz
  1  'x, y, z'
loop_
 _atom_site_type_symbol
 _atom_site_label
 _atom_site_symmetry_multiplicity
 _atom_site_fract_x
 _atom_site_fract_y
 _atom_site_fract_z
 _atom_site_occupancy
  Ba  Ba0  1  0.875311  0.624689  0.250000  1
  Ba  Ba1  1  0.250000  0.875311  0.624689  1
  Ba  Ba2  1  0.624689  0.250000  0.875311  1
  Ba  Ba3  1  0.750000  0.124689  0.375311  1
  Ba  Ba4  1  0.375311  0.750000  0.124689  1
  Ba  Ba5  1  0.124689  0.375311  0.750000  1
  Pr  Pr6  1  0.250000  0.250000  0.250000  1
  Pr  Pr7  1  0.750000  0.750000  0.750000  1
  Zr  Zr8  1  0.500000  0.500000  0.500000  1
  Zr  Zr9  1  0.000000  0.000000  0.000000  1
  Se  Se10  1  0.202960  0.547476  0.415300  1
  Se  Se11  1  0.415300  0.202960  0.547476  1
  Se  Se12  1  0.547476  0.415300  0.202960  1
  Se  Se13  1  0.915300  0.047476  0.702960  1
  Se  Se14  1  0.702960  0.915300  0.047476  1
  Se  Se15  1  0.047476  0.702960  0.915300  1
  Se  Se16  1  0.797040  0.452524  0.584700  1
  Se  Se17  1  0.584700  0.797040  0.452524  1
  Se  Se18  1  0.452524  0.584700  0.797040  1
  Se  Se19  1  0.084700  0.952524  0.297040  1
  Se  Se20  1  0.297040  0.084700  0.952524  1
  Se  Se21  1  0.952524  0.297040  0.084700  1
