# generated using pymatgen
data_Dy8ReOsBr8
_symmetry_space_group_name_H-M   'P 1'
_cell_length_a   9.00989929
_cell_length_b   9.00990034
_cell_length_c   6.56900098
_cell_angle_alpha   89.69944849
_cell_angle_beta   89.69945015
_cell_angle_gamma   89.36745525
_symmetry_Int_Tables_number   1
_chemical_formula_structural   Dy8ReOsBr8
_chemical_formula_sum   'Dy8 Re1 Os1 Br8'
_cell_volume   533.21328796
_cell_formula_units_Z   1
loop_
 _symmetry_equiv_pos_site_id
 _symmetry_equiv_pos_as_xyz
  1  'x, y, z'
loop_
 _atom_site_type_symbol
 _atom_site_label
 _atom_site_symmetry_multiplicity
 _atom_site_fract_x
 _atom_site_fract_y
 _atom_site_fract_z
 _atom_site_occupancy
  Dy  Dy0  1  0.247832  0.901268  0.011740  1
  Dy  Dy1  1  0.751373  0.099134  0.989362  1
  Dy  Dy2  1  0.098732  0.752168  0.488260  1
  Dy  Dy3  1  0.900866  0.248627  0.510638  1
  Dy  Dy4  1  0.753063  0.902996  0.506412  1
  Dy  Dy5  1  0.246866  0.097050  0.492514  1
  Dy  Dy6  1  0.097004  0.246937  0.993588  1
  Dy  Dy7  1  0.902950  0.753134  0.007486  1
  Re  Re8  1  0.995343  0.004657  0.250000  1
  Os  Os9  1  0.004708  0.995292  0.750000  1
  Br  Br10  1  0.417932  0.817736  0.413161  1
  Br  Br11  1  0.582441  0.182051  0.588218  1
  Br  Br12  1  0.182264  0.582068  0.086839  1
  Br  Br13  1  0.817949  0.417559  0.911782  1
  Br  Br14  1  0.413447  0.188480  0.089841  1
  Br  Br15  1  0.587229  0.811519  0.909991  1
  Br  Br16  1  0.811520  0.586553  0.410159  1
  Br  Br17  1  0.188481  0.412771  0.590009  1
