# generated using pymatgen
data_LiPr2Si4Pd
_symmetry_space_group_name_H-M   'P 1'
_cell_length_a   3.94398000
_cell_length_b   7.49373200
_cell_length_c   10.44419100
_cell_angle_alpha   90.00000000
_cell_angle_beta   90.00000000
_cell_angle_gamma   90.00000000
_symmetry_Int_Tables_number   1
_chemical_formula_structural   LiPr2Si4Pd
_chemical_formula_sum   'Li2 Pr4 Si8 Pd2'
_cell_volume   308.67941370
_cell_formula_units_Z   2
loop_
 _symmetry_equiv_pos_site_id
 _symmetry_equiv_pos_as_xyz
  1  'x, y, z'
loop_
 _atom_site_type_symbol
 _atom_site_label
 _atom_site_symmetry_multiplicity
 _atom_site_fract_x
 _atom_site_fract_y
 _atom_site_fract_z
 _atom_site_occupancy
  Li  Li0  1  0.750000  0.001491  0.605304  1
  Li  Li1  1  0.750000  0.501491  0.894696  1
  Pr  Pr2  1  0.250000  0.145000  0.872013  1
  Pr  Pr3  1  0.250000  0.645000  0.627987  1
  Pr  Pr4  1  0.750000  0.862836  0.132621  1
  Pr  Pr5  1  0.750000  0.362836  0.367379  1
  Si  Si6  1  0.250000  0.216556  0.571083  1
  Si  Si7  1  0.250000  0.716556  0.928917  1
  Si  Si8  1  0.750000  0.778396  0.425322  1
  Si  Si9  1  0.750000  0.278396  0.074678  1
  Si  Si10  1  0.250000  0.665750  0.316992  1
  Si  Si11  1  0.250000  0.165750  0.183008  1
  Si  Si12  1  0.750000  0.334290  0.675440  1
  Si  Si13  1  0.750000  0.834290  0.824560  1
  Pd  Pd14  1  0.250000  0.995680  0.389219  1
  Pd  Pd15  1  0.250000  0.495680  0.110781  1
