# generated using pymatgen
data_Be4Ni2IrRh
_symmetry_space_group_name_H-M   'P 1'
_cell_length_a   3.83046000
_cell_length_b   5.40764800
_cell_length_c   11.48451100
_cell_angle_alpha   90.00000000
_cell_angle_beta   90.00047880
_cell_angle_gamma   90.00000000
_symmetry_Int_Tables_number   1
_chemical_formula_structural   Be4Ni2IrRh
_chemical_formula_sum   'Be12 Ni6 Ir3 Rh3'
_cell_volume   237.88762689
_cell_formula_units_Z   3
loop_
 _symmetry_equiv_pos_site_id
 _symmetry_equiv_pos_as_xyz
  1  'x, y, z'
loop_
 _atom_site_type_symbol
 _atom_site_label
 _atom_site_symmetry_multiplicity
 _atom_site_fract_x
 _atom_site_fract_y
 _atom_site_fract_z
 _atom_site_occupancy
  Be  Be0  1  0.500000  0.249962  0.999881  1
  Be  Be1  1  0.500000  0.750037  0.999881  1
  Be  Be2  1  0.000680  0.249949  0.166679  1
  Be  Be3  1  0.000680  0.750050  0.166679  1
  Be  Be4  1  0.500675  0.249956  0.333466  1
  Be  Be5  1  0.500675  0.750043  0.333466  1
  Be  Be6  1  0.000000  0.249885  0.500131  1
  Be  Be7  1  0.000000  0.750116  0.500131  1
  Be  Be8  1  0.499325  0.249993  0.666650  1
  Be  Be9  1  0.499325  0.750006  0.666650  1
  Be  Be10  1  0.999318  0.249853  0.833186  1
  Be  Be11  1  0.999318  0.750146  0.833186  1
  Ni  Ni12  1  0.000004  0.000000  0.000027  1
  Ni  Ni13  1  0.500464  0.500000  0.166673  1
  Ni  Ni14  1  0.000469  0.000000  0.333319  1
  Ni  Ni15  1  0.500003  0.500000  0.499955  1
  Ni  Ni16  1  0.999533  0.000000  0.666658  1
  Ni  Ni17  1  0.499537  0.500000  0.833379  1
  Ir  Ir18  1  0.000001  0.500000  0.999382  1
  Ir  Ir19  1  0.500528  0.000000  0.166669  1
  Ir  Ir20  1  0.000532  0.500000  0.333955  1
  Rh  Rh21  1  0.500000  0.000000  0.500404  1
  Rh  Rh22  1  0.999468  0.500000  0.666664  1
  Rh  Rh23  1  0.499468  0.000000  0.832927  1
