# generated using pymatgen
data_SrTb5YNiI12
_symmetry_space_group_name_H-M   'P 1'
_cell_length_a   9.82797896
_cell_length_b   9.83052682
_cell_length_c   9.83127786
_cell_angle_alpha   106.28601141
_cell_angle_beta   106.26635912
_cell_angle_gamma   106.28732350
_symmetry_Int_Tables_number   1
_chemical_formula_structural   SrTb5YNiI12
_chemical_formula_sum   'Sr1 Tb5 Y1 Ni1 I12'
_cell_volume   806.07099708
_cell_formula_units_Z   1
loop_
 _symmetry_equiv_pos_site_id
 _symmetry_equiv_pos_as_xyz
  1  'x, y, z'
loop_
 _atom_site_type_symbol
 _atom_site_label
 _atom_site_symmetry_multiplicity
 _atom_site_fract_x
 _atom_site_fract_y
 _atom_site_fract_z
 _atom_site_occupancy
  Sr  Sr0  1  0.500014  0.500014  0.499978  1
  Tb  Tb1  1  0.709607  0.907422  0.978860  1
  Tb  Tb2  1  0.979033  0.709621  0.907313  1
  Tb  Tb3  1  0.092668  0.020957  0.290404  1
  Tb  Tb4  1  0.290305  0.092578  0.020785  1
  Tb  Tb5  1  0.020886  0.290351  0.092418  1
  Y  Y6  1  0.907457  0.978956  0.709595  1
  Ni  Ni7  1  0.000096  0.999997  0.000432  1
  I  I8  1  0.926121  0.322091  0.777420  1
  I  I9  1  0.777536  0.926201  0.322736  1
  I  I10  1  0.322384  0.777509  0.926142  1
  I  I11  1  0.073812  0.677633  0.222433  1
  I  I12  1  0.222028  0.073702  0.677619  1
  I  I13  1  0.677597  0.222465  0.073816  1
  I  I14  1  0.551525  0.863706  0.630655  1
  I  I15  1  0.630568  0.551091  0.863468  1
  I  I16  1  0.863564  0.630895  0.551196  1
  I  I17  1  0.448914  0.136500  0.369377  1
  I  I18  1  0.369422  0.448916  0.136494  1
  I  I19  1  0.136465  0.369394  0.448860  1
