# generated using pymatgen
data_Pr2TcP4Ir3
_symmetry_space_group_name_H-M   'P 1'
_cell_length_a   4.24391500
_cell_length_b   4.24391500
_cell_length_c   9.48760500
_cell_angle_alpha   90.00000000
_cell_angle_beta   90.00000000
_cell_angle_gamma   90.00000000
_symmetry_Int_Tables_number   1
_chemical_formula_structural   Pr2TcP4Ir3
_chemical_formula_sum   'Pr2 Tc1 P4 Ir3'
_cell_volume   170.87949396
_cell_formula_units_Z   1
loop_
 _symmetry_equiv_pos_site_id
 _symmetry_equiv_pos_as_xyz
  1  'x, y, z'
loop_
 _atom_site_type_symbol
 _atom_site_label
 _atom_site_symmetry_multiplicity
 _atom_site_fract_x
 _atom_site_fract_y
 _atom_site_fract_z
 _atom_site_occupancy
  Pr  Pr0  1  0.000000  0.500000  0.236820  1
  Pr  Pr1  1  0.500000  0.000000  0.763180  1
  Tc  Tc2  1  0.000000  0.000000  0.500000  1
  P  P3  1  0.000000  0.000000  0.000000  1
  P  P4  1  0.500000  0.500000  0.000000  1
  P  P5  1  0.000000  0.500000  0.627634  1
  P  P6  1  0.500000  0.000000  0.372366  1
  Ir  Ir7  1  0.500000  0.500000  0.500000  1
  Ir  Ir8  1  0.000000  0.500000  0.887148  1
  Ir  Ir9  1  0.500000  0.000000  0.112852  1
