# generated using pymatgen
data_CeEr3InPt11
_symmetry_space_group_name_H-M   'P 1'
_cell_length_a   4.20654800
_cell_length_b   5.84958428
_cell_length_c   11.65825106
_cell_angle_alpha   87.63546188
_cell_angle_beta   90.00000000
_cell_angle_gamma   90.00000000
_symmetry_Int_Tables_number   1
_chemical_formula_structural   CeEr3InPt11
_chemical_formula_sum   'Ce1 Er3 In1 Pt11'
_cell_volume   286.62516681
_cell_formula_units_Z   1
loop_
 _symmetry_equiv_pos_site_id
 _symmetry_equiv_pos_as_xyz
  1  'x, y, z'
loop_
 _atom_site_type_symbol
 _atom_site_label
 _atom_site_symmetry_multiplicity
 _atom_site_fract_x
 _atom_site_fract_y
 _atom_site_fract_z
 _atom_site_occupancy
  Ce  Ce0  1  0.500000  0.757941  0.376146  1
  Er  Er1  1  0.500000  0.715528  0.862183  1
  Er  Er2  1  0.500000  0.284875  0.135764  1
  Er  Er3  1  0.500000  0.241589  0.626882  1
  In  In4  1  0.000000  0.000267  0.998402  1
  Pt  Pt5  1  0.000000  0.019052  0.249146  1
  Pt  Pt6  1  0.000000  0.981342  0.750450  1
  Pt  Pt7  1  0.000000  0.499334  0.999445  1
  Pt  Pt8  1  0.000000  0.499976  0.501114  1
  Pt  Pt9  1  0.000000  0.519701  0.248867  1
  Pt  Pt10  1  0.000000  0.480155  0.750650  1
  Pt  Pt11  1  0.500000  0.257218  0.377685  1
  Pt  Pt12  1  0.500000  0.226090  0.880759  1
  Pt  Pt13  1  0.500000  0.774873  0.118331  1
  Pt  Pt14  1  0.500000  0.742404  0.623096  1
  Pt  Pt15  1  0.000000  0.999654  0.501079  1
