# generated using pymatgen
data_La4AgIr
_symmetry_space_group_name_H-M   'P 1'
_cell_length_a   10.07513984
_cell_length_b   10.07514041
_cell_length_c   10.07514100
_cell_angle_alpha   60.00000133
_cell_angle_beta   59.99999947
_cell_angle_gamma   60.00000341
_symmetry_Int_Tables_number   1
_chemical_formula_structural   La4AgIr
_chemical_formula_sum   'La16 Ag4 Ir4'
_cell_volume   723.16656475
_cell_formula_units_Z   4
loop_
 _symmetry_equiv_pos_site_id
 _symmetry_equiv_pos_as_xyz
  1  'x, y, z'
loop_
 _atom_site_type_symbol
 _atom_site_label
 _atom_site_symmetry_multiplicity
 _atom_site_fract_x
 _atom_site_fract_y
 _atom_site_fract_z
 _atom_site_occupancy
  La  La0  1  0.598806  0.598806  0.598806  1
  La  La1  1  0.598806  0.598806  0.203581  1
  La  La2  1  0.598806  0.203581  0.598806  1
  La  La3  1  0.203581  0.598806  0.598806  1
  La  La4  1  0.059484  0.440516  0.440516  1
  La  La5  1  0.440516  0.059484  0.059484  1
  La  La6  1  0.440516  0.059484  0.440516  1
  La  La7  1  0.059484  0.440516  0.059484  1
  La  La8  1  0.440516  0.440516  0.059484  1
  La  La9  1  0.059484  0.059484  0.440516  1
  La  La10  1  0.188794  0.811206  0.811206  1
  La  La11  1  0.811206  0.188794  0.188794  1
  La  La12  1  0.811206  0.188794  0.811206  1
  La  La13  1  0.188794  0.811206  0.188794  1
  La  La14  1  0.811206  0.811206  0.188794  1
  La  La15  1  0.188794  0.188794  0.811206  1
  Ag  Ag16  1  0.830682  0.830682  0.830682  1
  Ag  Ag17  1  0.830682  0.830682  0.507952  1
  Ag  Ag18  1  0.830682  0.507952  0.830682  1
  Ag  Ag19  1  0.507952  0.830682  0.830682  1
  Ir  Ir20  1  0.391380  0.391380  0.391380  1
  Ir  Ir21  1  0.391380  0.391380  0.825860  1
  Ir  Ir22  1  0.391380  0.825860  0.391380  1
  Ir  Ir23  1  0.825860  0.391380  0.391380  1
