# generated using pymatgen
data_Fe4Se3S
_symmetry_space_group_name_H-M   'P 1'
_cell_length_a   6.86553964
_cell_length_b   6.86553941
_cell_length_c   6.86553993
_cell_angle_alpha   135.53945759
_cell_angle_beta   135.53945137
_cell_angle_gamma   64.69315540
_symmetry_Int_Tables_number   1
_chemical_formula_structural   Fe4Se3S
_chemical_formula_sum   'Fe4 Se3 S1'
_cell_volume   156.52845238
_cell_formula_units_Z   1
loop_
 _symmetry_equiv_pos_site_id
 _symmetry_equiv_pos_as_xyz
  1  'x, y, z'
loop_
 _atom_site_type_symbol
 _atom_site_label
 _atom_site_symmetry_multiplicity
 _atom_site_fract_x
 _atom_site_fract_y
 _atom_site_fract_z
 _atom_site_occupancy
  Fe  Fe0  1  0.249889  0.249889  0.505427  1
  Fe  Fe1  1  0.744462  0.744462  0.494573  1
  Fe  Fe2  1  0.249889  0.744462  0.000000  1
  Fe  Fe3  1  0.744462  0.249889  0.000000  1
  Se  Se4  1  0.879632  0.879632  0.000000  1
  Se  Se5  1  0.617220  0.117220  0.500000  1
  Se  Se6  1  0.117220  0.617220  0.500000  1
  S  S7  1  0.397225  0.397225  0.000000  1
