# generated using pymatgen
data_Nd2Zn(Ga3Pt2)3
_symmetry_space_group_name_H-M   'P 1'
_cell_length_a   4.14741300
_cell_length_b   7.41154402
_cell_length_c   21.11085593
_cell_angle_alpha   90.06027273
_cell_angle_beta   90.00000000
_cell_angle_gamma   90.00000000
_symmetry_Int_Tables_number   1
_chemical_formula_structural   Nd2Zn(Ga3Pt2)3
_chemical_formula_sum   'Nd4 Zn2 Ga18 Pt12'
_cell_volume   648.92062644
_cell_formula_units_Z   2
loop_
 _symmetry_equiv_pos_site_id
 _symmetry_equiv_pos_as_xyz
  1  'x, y, z'
loop_
 _atom_site_type_symbol
 _atom_site_label
 _atom_site_symmetry_multiplicity
 _atom_site_fract_x
 _atom_site_fract_y
 _atom_site_fract_z
 _atom_site_occupancy
  Nd  Nd0  1  0.250000  0.115512  0.641372  1
  Nd  Nd1  1  0.750000  0.884214  0.358755  1
  Nd  Nd2  1  0.250000  0.383228  0.140804  1
  Nd  Nd3  1  0.750000  0.616686  0.859303  1
  Zn  Zn4  1  0.750000  0.352750  0.383975  1
  Zn  Zn5  1  0.750000  0.884356  0.982987  1
  Ga  Ga6  1  0.750000  0.683614  0.200373  1
  Ga  Ga7  1  0.250000  0.869248  0.490560  1
  Ga  Ga8  1  0.250000  0.634887  0.989796  1
  Ga  Ga9  1  0.250000  0.318588  0.800339  1
  Ga  Ga10  1  0.750000  0.077626  0.207204  1
  Ga  Ga11  1  0.250000  0.648311  0.616938  1
  Ga  Ga12  1  0.250000  0.577347  0.294307  1
  Ga  Ga13  1  0.250000  0.185110  0.301690  1
  Ga  Ga14  1  0.750000  0.145757  0.884051  1
  Ga  Ga15  1  0.250000  0.920928  0.792946  1
  Ga  Ga16  1  0.750000  0.370883  0.009287  1
  Ga  Ga17  1  0.750000  0.613017  0.482386  1
  Ga  Ga18  1  0.750000  0.130630  0.508845  1
  Ga  Ga19  1  0.250000  0.108766  0.016341  1
  Ga  Ga20  1  0.250000  0.853180  0.115835  1
  Ga  Ga21  1  0.250000  0.384072  0.515923  1
  Ga  Ga22  1  0.750000  0.421217  0.706536  1
  Ga  Ga23  1  0.750000  0.819388  0.699850  1
  Pt  Pt24  1  0.750000  0.383249  0.261295  1
  Pt  Pt25  1  0.250000  0.883219  0.237666  1
  Pt  Pt26  1  0.250000  0.617197  0.737272  1
  Pt  Pt27  1  0.750000  0.117789  0.763039  1
  Pt  Pt28  1  0.250000  0.159855  0.425578  1
  Pt  Pt29  1  0.750000  0.423522  0.585961  1
  Pt  Pt30  1  0.750000  0.080893  0.087123  1
  Pt  Pt31  1  0.250000  0.923664  0.912460  1
  Pt  Pt32  1  0.750000  0.835255  0.573865  1
  Pt  Pt33  1  0.250000  0.335126  0.925889  1
  Pt  Pt34  1  0.750000  0.661915  0.075694  1
  Pt  Pt35  1  0.250000  0.579002  0.413751  1
