# generated using pymatgen
data_Y14Ho2In4Pd3Rh
_symmetry_space_group_name_H-M   'P 1'
_cell_length_a   9.74167899
_cell_length_b   9.76169943
_cell_length_c   9.74501558
_cell_angle_alpha   59.94334744
_cell_angle_beta   59.87627475
_cell_angle_gamma   59.93199132
_symmetry_Int_Tables_number   1
_chemical_formula_structural   Y14Ho2In4Pd3Rh
_chemical_formula_sum   'Y14 Ho2 In4 Pd3 Rh1'
_cell_volume   654.04857594
_cell_formula_units_Z   1
loop_
 _symmetry_equiv_pos_site_id
 _symmetry_equiv_pos_as_xyz
  1  'x, y, z'
loop_
 _atom_site_type_symbol
 _atom_site_label
 _atom_site_symmetry_multiplicity
 _atom_site_fract_x
 _atom_site_fract_y
 _atom_site_fract_z
 _atom_site_occupancy
  Y  Y0  1  0.186331  0.187632  0.814364  1
  Y  Y1  1  0.603630  0.603967  0.188436  1
  Y  Y2  1  0.440591  0.059564  0.440282  1
  Y  Y3  1  0.439960  0.439916  0.056195  1
  Y  Y4  1  0.811928  0.186781  0.814511  1
  Y  Y5  1  0.186959  0.812596  0.187849  1
  Y  Y6  1  0.439960  0.063929  0.056195  1
  Y  Y7  1  0.186331  0.811674  0.814364  1
  Y  Y8  1  0.063920  0.439955  0.056170  1
  Y  Y9  1  0.812654  0.812763  0.187128  1
  Y  Y10  1  0.193928  0.600113  0.605846  1
  Y  Y11  1  0.059384  0.440674  0.440558  1
  Y  Y12  1  0.059384  0.059385  0.440558  1
  Y  Y13  1  0.812654  0.187456  0.187128  1
  Ho  Ho14  1  0.598540  0.197793  0.604787  1
  Ho  Ho15  1  0.598540  0.598881  0.604787  1
  In  In16  1  0.834125  0.834054  0.833910  1
  In  In17  1  0.833270  0.832932  0.500866  1
  In  In18  1  0.500423  0.833184  0.833209  1
  In  In19  1  0.834125  0.497911  0.833910  1
  Pd  Pd20  1  0.395817  0.816957  0.393604  1
  Pd  Pd21  1  0.395817  0.393622  0.393604  1
  Pd  Pd22  1  0.816197  0.394790  0.394224  1
  Rh  Rh23  1  0.395537  0.393474  0.817517  1
