# generated using pymatgen
data_Er2Tm7Lu3(GaCo2)2
_symmetry_space_group_name_H-M   'P 1'
_cell_length_a   8.12470680
_cell_length_b   8.14136664
_cell_length_c   8.14262838
_cell_angle_alpha   112.15085675
_cell_angle_beta   109.71083127
_cell_angle_gamma   106.65806554
_symmetry_Int_Tables_number   1
_chemical_formula_structural   Er2Tm7Lu3(GaCo2)2
_chemical_formula_sum   'Er2 Tm7 Lu3 Ga2 Co4'
_cell_volume   413.35938414
_cell_formula_units_Z   1
loop_
 _symmetry_equiv_pos_site_id
 _symmetry_equiv_pos_as_xyz
  1  'x, y, z'
loop_
 _atom_site_type_symbol
 _atom_site_label
 _atom_site_symmetry_multiplicity
 _atom_site_fract_x
 _atom_site_fract_y
 _atom_site_fract_z
 _atom_site_occupancy
  Er  Er0  1  0.960425  0.261592  0.699128  1
  Er  Er1  1  0.040881  0.738972  0.301796  1
  Tm  Tm2  1  0.672353  0.483709  0.809745  1
  Tm  Tm3  1  0.562261  0.260214  0.301396  1
  Tm  Tm4  1  0.436698  0.739571  0.697451  1
  Tm  Tm5  1  0.181930  0.781062  0.961776  1
  Tm  Tm6  1  0.818557  0.780366  0.598953  1
  Tm  Tm7  1  0.180602  0.219677  0.400467  1
  Tm  Tm8  1  0.818672  0.219048  0.039085  1
  Lu  Lu9  1  0.672499  0.862085  0.188208  1
  Lu  Lu10  1  0.327781  0.515641  0.189683  1
  Lu  Lu11  1  0.326930  0.137612  0.811634  1
  Ga  Ga12  1  0.999328  0.500139  0.500213  1
  Ga  Ga13  1  0.500978  0.999221  0.500043  1
  Co  Co14  1  0.117662  0.116346  0.001048  1
  Co  Co15  1  0.882900  0.884383  0.998764  1
  Co  Co16  1  0.659456  0.499531  0.160586  1
  Co  Co17  1  0.340088  0.500829  0.840024  1
