# generated using pymatgen
data_Tb4Dy2Al24Ru7Rh
_symmetry_space_group_name_H-M   'P 1'
_cell_length_a   8.81527435
_cell_length_b   8.81658526
_cell_length_c   9.59475835
_cell_angle_alpha   89.90519779
_cell_angle_beta   89.96969259
_cell_angle_gamma   119.93937423
_symmetry_Int_Tables_number   1
_chemical_formula_structural   Tb4Dy2Al24Ru7Rh
_chemical_formula_sum   'Tb4 Dy2 Al24 Ru7 Rh1'
_cell_volume   646.19676787
_cell_formula_units_Z   1
loop_
 _symmetry_equiv_pos_site_id
 _symmetry_equiv_pos_as_xyz
  1  'x, y, z'
loop_
 _atom_site_type_symbol
 _atom_site_label
 _atom_site_symmetry_multiplicity
 _atom_site_fract_x
 _atom_site_fract_y
 _atom_site_fract_z
 _atom_site_occupancy
  Tb  Tb0  1  0.191698  0.806122  0.249299  1
  Tb  Tb1  1  0.193546  0.386602  0.249414  1
  Tb  Tb2  1  0.614971  0.807639  0.249074  1
  Tb  Tb3  1  0.808273  0.193877  0.750704  1
  Dy  Dy4  1  0.806176  0.612899  0.750584  1
  Dy  Dy5  1  0.385549  0.192712  0.750986  1
  Al  Al6  1  0.561470  0.438277  0.250250  1
  Al  Al7  1  0.561712  0.123003  0.249179  1
  Al  Al8  1  0.876481  0.437816  0.250276  1
  Al  Al9  1  0.438799  0.561476  0.749755  1
  Al  Al10  1  0.438208  0.877210  0.750791  1
  Al  Al11  1  0.123284  0.562224  0.749724  1
  Al  Al12  1  0.325422  0.164597  0.422687  1
  Al  Al13  1  0.838888  0.164375  0.423566  1
  Al  Al14  1  0.836872  0.674419  0.423080  1
  Al  Al15  1  0.674708  0.835276  0.577775  1
  Al  Al16  1  0.160979  0.835737  0.576745  1
  Al  Al17  1  0.163185  0.325461  0.577398  1
  Al  Al18  1  0.674213  0.836846  0.922687  1
  Al  Al19  1  0.162899  0.837386  0.923517  1
  Al  Al20  1  0.163428  0.325965  0.922977  1
  Al  Al21  1  0.325885  0.163048  0.076861  1
  Al  Al22  1  0.836964  0.162739  0.076166  1
  Al  Al23  1  0.836640  0.673942  0.076530  1
  Al  Al24  1  0.667464  0.335125  0.517154  1
  Al  Al25  1  0.332449  0.664959  0.483330  1
  Al  Al26  1  0.333387  0.666807  0.016278  1
  Al  Al27  1  0.666508  0.333269  0.983241  1
  Al  Al28  1  0.999965  0.999641  0.249957  1
  Al  Al29  1  0.000271  0.000122  0.750030  1
  Ru  Ru30  1  0.999983  0.000012  0.500031  1
  Ru  Ru31  1  0.999999  0.000029  0.999939  1
  Ru  Ru32  1  0.500044  0.499868  0.500259  1
  Ru  Ru33  1  0.999823  0.500055  0.500211  1
  Ru  Ru34  1  0.500057  0.499928  0.999756  1
  Ru  Ru35  1  0.499960  0.000169  0.999778  1
  Ru  Ru36  1  0.999858  0.500120  0.999792  1
  Rh  Rh37  1  0.499985  0.000250  0.500218  1
