# generated using pymatgen
data_YTm2Lu(MoN3)4
_symmetry_space_group_name_H-M   'P 1'
_cell_length_a   7.28516037
_cell_length_b   7.28516049
_cell_length_c   6.22169414
_cell_angle_alpha   73.42528986
_cell_angle_beta   73.42529049
_cell_angle_gamma   81.05086134
_symmetry_Int_Tables_number   1
_chemical_formula_structural   YTm2Lu(MoN3)4
_chemical_formula_sum   'Y1 Tm2 Lu1 Mo4 N12'
_cell_volume   302.34576068
_cell_formula_units_Z   1
loop_
 _symmetry_equiv_pos_site_id
 _symmetry_equiv_pos_as_xyz
  1  'x, y, z'
loop_
 _atom_site_type_symbol
 _atom_site_label
 _atom_site_symmetry_multiplicity
 _atom_site_fract_x
 _atom_site_fract_y
 _atom_site_fract_z
 _atom_site_occupancy
  Y  Y0  1  0.293009  0.706991  0.750000  1
  Tm  Tm1  1  0.709288  0.290712  0.250000  1
  Tm  Tm2  1  0.085002  0.914998  0.250000  1
  Lu  Lu3  1  0.913038  0.086962  0.750000  1
  Mo  Mo4  1  0.801501  0.617960  0.771706  1
  Mo  Mo5  1  0.198123  0.380474  0.231092  1
  Mo  Mo6  1  0.619526  0.801877  0.268908  1
  Mo  Mo7  1  0.382040  0.198499  0.728294  1
  N  N8  1  0.214886  0.001940  0.847844  1
  N  N9  1  0.371273  0.347446  0.429544  1
  N  N10  1  0.633937  0.653385  0.566354  1
  N  N11  1  0.628259  0.108470  0.663976  1
  N  N12  1  0.998060  0.785114  0.652156  1
  N  N13  1  0.782222  0.002933  0.149513  1
  N  N14  1  0.108588  0.626518  0.166555  1
  N  N15  1  0.891530  0.371741  0.836024  1
  N  N16  1  0.997067  0.217778  0.350487  1
  N  N17  1  0.346615  0.366063  0.933646  1
  N  N18  1  0.652554  0.628727  0.070456  1
  N  N19  1  0.373482  0.891412  0.333445  1
