# generated using pymatgen
data_La3Dy4Ho(CdIr)2
_symmetry_space_group_name_H-M   'P 1'
_cell_length_a   9.82970609
_cell_length_b   9.82970599
_cell_length_c   9.83025300
_cell_angle_alpha   59.99815578
_cell_angle_beta   59.99815611
_cell_angle_gamma   60.00368074
_symmetry_Int_Tables_number   1
_chemical_formula_structural   La3Dy4Ho(CdIr)2
_chemical_formula_sum   'La6 Dy8 Ho2 Cd4 Ir4'
_cell_volume   671.63099690
_cell_formula_units_Z   2
loop_
 _symmetry_equiv_pos_site_id
 _symmetry_equiv_pos_as_xyz
  1  'x, y, z'
loop_
 _atom_site_type_symbol
 _atom_site_label
 _atom_site_symmetry_multiplicity
 _atom_site_fract_x
 _atom_site_fract_y
 _atom_site_fract_z
 _atom_site_occupancy
  La  La0  1  0.193145  0.806855  0.806855  1
  La  La1  1  0.806855  0.193145  0.193145  1
  La  La2  1  0.806855  0.193145  0.806855  1
  La  La3  1  0.193145  0.806855  0.193145  1
  La  La4  1  0.806704  0.806704  0.193296  1
  La  La5  1  0.193296  0.193296  0.806704  1
  Dy  Dy6  1  0.596541  0.596541  0.596794  1
  Dy  Dy7  1  0.596541  0.596541  0.210125  1
  Dy  Dy8  1  0.596794  0.210125  0.596541  1
  Dy  Dy9  1  0.210125  0.596794  0.596541  1
  Dy  Dy10  1  0.063421  0.436579  0.436579  1
  Dy  Dy11  1  0.436579  0.063421  0.063421  1
  Dy  Dy12  1  0.436579  0.063421  0.436579  1
  Dy  Dy13  1  0.063421  0.436579  0.063421  1
  Ho  Ho14  1  0.436712  0.436712  0.063288  1
  Ho  Ho15  1  0.063288  0.063288  0.436712  1
  Cd  Cd16  1  0.828718  0.828718  0.828643  1
  Cd  Cd17  1  0.828718  0.828718  0.513921  1
  Cd  Cd18  1  0.828643  0.513921  0.828718  1
  Cd  Cd19  1  0.513921  0.828643  0.828718  1
  Ir  Ir20  1  0.391156  0.391156  0.390891  1
  Ir  Ir21  1  0.391156  0.391156  0.826797  1
  Ir  Ir22  1  0.390891  0.826797  0.391156  1
  Ir  Ir23  1  0.826797  0.390891  0.391156  1
