# generated using pymatgen
data_Ru(RhS4)2
_symmetry_space_group_name_H-M   'P 1'
_cell_length_a   5.69970730
_cell_length_b   5.68754680
_cell_length_c   5.68234356
_cell_angle_alpha   89.83144105
_cell_angle_beta   89.85573027
_cell_angle_gamma   89.58571414
_symmetry_Int_Tables_number   1
_chemical_formula_structural   Ru(RhS4)2
_chemical_formula_sum   'Ru1 Rh2 S8'
_cell_volume   184.20034464
_cell_formula_units_Z   1
loop_
 _symmetry_equiv_pos_site_id
 _symmetry_equiv_pos_as_xyz
  1  'x, y, z'
loop_
 _atom_site_type_symbol
 _atom_site_label
 _atom_site_symmetry_multiplicity
 _atom_site_fract_x
 _atom_site_fract_y
 _atom_site_fract_z
 _atom_site_occupancy
  Ru  Ru0  1  0.000000  0.500000  0.500000  1
  Rh  Rh1  1  0.500000  0.000000  0.500000  1
  Rh  Rh2  1  0.500000  0.500000  0.000000  1
  S  S3  1  0.393499  0.894111  0.105280  1
  S  S4  1  0.104248  0.393556  0.890395  1
  S  S5  1  0.893671  0.110434  0.396253  1
  S  S6  1  0.606501  0.105889  0.894720  1
  S  S7  1  0.895752  0.606444  0.109605  1
  S  S8  1  0.106329  0.889566  0.603747  1
  S  S9  1  0.616855  0.608780  0.609474  1
  S  S10  1  0.383145  0.391220  0.390526  1
