# generated using pymatgen
data_CsTl2BiBr6
_symmetry_space_group_name_H-M   'P 1'
_cell_length_a   8.29359846
_cell_length_b   13.92420475
_cell_length_c   14.28931600
_cell_angle_alpha   98.62632428
_cell_angle_beta   106.87009418
_cell_angle_gamma   89.99999988
_symmetry_Int_Tables_number   1
_chemical_formula_structural   CsTl2BiBr6
_chemical_formula_sum   'Cs4 Tl8 Bi4 Br24'
_cell_volume   1559.62427091
_cell_formula_units_Z   4
loop_
 _symmetry_equiv_pos_site_id
 _symmetry_equiv_pos_as_xyz
  1  'x, y, z'
loop_
 _atom_site_type_symbol
 _atom_site_label
 _atom_site_symmetry_multiplicity
 _atom_site_fract_x
 _atom_site_fract_y
 _atom_site_fract_z
 _atom_site_occupancy
  Cs  Cs0  1  0.211598  0.569643  0.896914  1
  Cs  Cs1  1  0.788402  0.430357  0.103086  1
  Cs  Cs2  1  0.685314  0.069643  0.896914  1
  Cs  Cs3  1  0.314686  0.930357  0.103086  1
  Tl  Tl4  1  0.530019  0.368528  0.686297  1
  Tl  Tl5  1  0.023424  0.200135  0.676410  1
  Tl  Tl6  1  0.347014  0.299865  0.323590  1
  Tl  Tl7  1  0.469981  0.631472  0.313703  1
  Tl  Tl8  1  0.843723  0.131472  0.313703  1
  Tl  Tl9  1  0.976576  0.799865  0.323590  1
  Tl  Tl10  1  0.156277  0.868528  0.686297  1
  Tl  Tl11  1  0.652986  0.700135  0.676410  1
  Bi  Bi12  1  0.000000  0.500000  0.500000  1
  Bi  Bi13  1  0.777991  0.750000  0.000000  1
  Bi  Bi14  1  0.222009  0.250000  0.000000  1
  Bi  Bi15  1  0.500000  0.000000  0.500000  1
  Br  Br16  1  0.861713  0.692996  0.500391  1
  Br  Br17  1  0.607093  0.684688  0.131015  1
  Br  Br18  1  0.857778  0.473721  0.656059  1
  Br  Br19  1  0.304769  0.573392  0.652459  1
  Br  Br20  1  0.347690  0.073392  0.652459  1
  Br  Br21  1  0.523922  0.184688  0.131015  1
  Br  Br22  1  0.201719  0.026279  0.343941  1
  Br  Br23  1  0.095402  0.700121  0.128956  1
  Br  Br24  1  0.138287  0.307004  0.499609  1
  Br  Br25  1  0.292569  0.439774  0.116689  1
  Br  Br26  1  0.798281  0.973721  0.656059  1
  Br  Br27  1  0.638679  0.192996  0.500391  1
  Br  Br28  1  0.707431  0.560226  0.883311  1
  Br  Br29  1  0.142222  0.526279  0.343941  1
  Br  Br30  1  0.904598  0.299879  0.871044  1
  Br  Br31  1  0.695231  0.426608  0.347541  1
  Br  Br32  1  0.361321  0.807004  0.499609  1
  Br  Br33  1  0.476078  0.815312  0.868985  1
  Br  Br34  1  0.966444  0.799879  0.871044  1
  Br  Br35  1  0.033556  0.200121  0.128956  1
  Br  Br36  1  0.392907  0.315312  0.868985  1
  Br  Br37  1  0.652310  0.926608  0.347541  1
  Br  Br38  1  0.175877  0.060226  0.883311  1
  Br  Br39  1  0.824123  0.939774  0.116689  1
