# generated using pymatgen
data_YTm15In4Ru3Rh
_symmetry_space_group_name_H-M   'P 1'
_cell_length_a   9.53972569
_cell_length_b   9.51623336
_cell_length_c   9.55550600
_cell_angle_alpha   59.86326344
_cell_angle_beta   59.94529322
_cell_angle_gamma   59.68843719
_symmetry_Int_Tables_number   1
_chemical_formula_structural   YTm15In4Ru3Rh
_chemical_formula_sum   'Y1 Tm15 In4 Ru3 Rh1'
_cell_volume   611.05351466
_cell_formula_units_Z   1
loop_
 _symmetry_equiv_pos_site_id
 _symmetry_equiv_pos_as_xyz
  1  'x, y, z'
loop_
 _atom_site_type_symbol
 _atom_site_label
 _atom_site_symmetry_multiplicity
 _atom_site_fract_x
 _atom_site_fract_y
 _atom_site_fract_z
 _atom_site_occupancy
  Y  Y0  1  0.058688  0.059912  0.440700  1
  Tm  Tm1  1  0.443234  0.058724  0.441807  1
  Tm  Tm2  1  0.060002  0.444006  0.058407  1
  Tm  Tm3  1  0.044908  0.652380  0.651355  1
  Tm  Tm4  1  0.436642  0.441218  0.061070  1
  Tm  Tm5  1  0.652211  0.044578  0.651605  1
  Tm  Tm6  1  0.191340  0.809703  0.190724  1
  Tm  Tm7  1  0.193736  0.189733  0.808265  1
  Tm  Tm8  1  0.808772  0.809007  0.191111  1
  Tm  Tm9  1  0.443235  0.058725  0.056235  1
  Tm  Tm10  1  0.808964  0.189823  0.192661  1
  Tm  Tm11  1  0.060002  0.444006  0.437584  1
  Tm  Tm12  1  0.808964  0.189823  0.808552  1
  Tm  Tm13  1  0.191341  0.809703  0.808233  1
  Tm  Tm14  1  0.650406  0.651460  0.045532  1
  Tm  Tm15  1  0.650407  0.651459  0.652604  1
  In  In16  1  0.417085  0.417384  0.416789  1
  In  In17  1  0.747450  0.418468  0.417041  1
  In  In18  1  0.418094  0.749183  0.416361  1
  In  In19  1  0.417086  0.417384  0.748740  1
  Ru  Ru20  1  0.858444  0.857350  0.420253  1
  Ru  Ru21  1  0.858444  0.857351  0.863952  1
  Ru  Ru22  1  0.421296  0.858309  0.860198  1
  Rh  Rh23  1  0.859249  0.420317  0.860217  1
