# generated using pymatgen
data_Rb6GaSb3
_symmetry_space_group_name_H-M   'P 1'
_cell_length_a   6.33707600
_cell_length_b   10.91804258
_cell_length_c   12.55432346
_cell_angle_alpha   79.17852266
_cell_angle_beta   90.00000000
_cell_angle_gamma   90.00000000
_symmetry_Int_Tables_number   1
_chemical_formula_structural   Rb6GaSb3
_chemical_formula_sum   'Rb12 Ga2 Sb6'
_cell_volume   853.16775678
_cell_formula_units_Z   2
loop_
 _symmetry_equiv_pos_site_id
 _symmetry_equiv_pos_as_xyz
  1  'x, y, z'
loop_
 _atom_site_type_symbol
 _atom_site_label
 _atom_site_symmetry_multiplicity
 _atom_site_fract_x
 _atom_site_fract_y
 _atom_site_fract_z
 _atom_site_occupancy
  Rb  Rb0  1  0.750000  0.460335  0.078005  1
  Rb  Rb1  1  0.250000  0.539665  0.921995  1
  Rb  Rb2  1  0.750000  0.741689  0.226149  1
  Rb  Rb3  1  0.250000  0.258311  0.773851  1
  Rb  Rb4  1  0.250000  0.559972  0.542557  1
  Rb  Rb5  1  0.750000  0.440028  0.457443  1
  Rb  Rb6  1  0.250000  0.863408  0.022535  1
  Rb  Rb7  1  0.750000  0.136592  0.977465  1
  Rb  Rb8  1  0.250000  0.872406  0.678408  1
  Rb  Rb9  1  0.750000  0.127594  0.321592  1
  Rb  Rb10  1  0.250000  0.917804  0.369313  1
  Rb  Rb11  1  0.750000  0.082196  0.630687  1
  Ga  Ga12  1  0.750000  0.677563  0.720087  1
  Ga  Ga13  1  0.250000  0.322437  0.279913  1
  Sb  Sb14  1  0.250000  0.213300  0.488261  1
  Sb  Sb15  1  0.750000  0.786700  0.511739  1
  Sb  Sb16  1  0.250000  0.568084  0.227540  1
  Sb  Sb17  1  0.750000  0.431916  0.772460  1
  Sb  Sb18  1  0.750000  0.819850  0.875717  1
  Sb  Sb19  1  0.250000  0.180150  0.124283  1
