# generated using pymatgen
data_Sr3Ca2(SiN3)2
_symmetry_space_group_name_H-M   'P 1'
_cell_length_a   5.94265948
_cell_length_b   5.94265912
_cell_length_c   13.10797831
_cell_angle_alpha   80.66449831
_cell_angle_beta   80.66449984
_cell_angle_gamma   65.75953481
_symmetry_Int_Tables_number   1
_chemical_formula_structural   Sr3Ca2(SiN3)2
_chemical_formula_sum   'Sr6 Ca4 Si4 N12'
_cell_volume   414.14724377
_cell_formula_units_Z   2
loop_
 _symmetry_equiv_pos_site_id
 _symmetry_equiv_pos_as_xyz
  1  'x, y, z'
loop_
 _atom_site_type_symbol
 _atom_site_label
 _atom_site_symmetry_multiplicity
 _atom_site_fract_x
 _atom_site_fract_y
 _atom_site_fract_z
 _atom_site_occupancy
  Sr  Sr0  1  0.608151  0.391849  0.750000  1
  Sr  Sr1  1  0.391849  0.608151  0.250000  1
  Sr  Sr2  1  0.200578  0.677210  0.995261  1
  Sr  Sr3  1  0.322790  0.799422  0.504739  1
  Sr  Sr4  1  0.799422  0.322790  0.004739  1
  Sr  Sr5  1  0.677210  0.200578  0.495261  1
  Ca  Ca6  1  0.921539  0.772251  0.716593  1
  Ca  Ca7  1  0.227749  0.078461  0.783407  1
  Ca  Ca8  1  0.078461  0.227749  0.283407  1
  Ca  Ca9  1  0.772251  0.921539  0.216593  1
  Si  Si10  1  0.082813  0.360980  0.577664  1
  Si  Si11  1  0.639020  0.917187  0.922336  1
  Si  Si12  1  0.917187  0.639020  0.422336  1
  Si  Si13  1  0.360980  0.082813  0.077664  1
  N  N14  1  0.013876  0.105590  0.629003  1
  N  N15  1  0.894410  0.986124  0.870997  1
  N  N16  1  0.986124  0.894410  0.370997  1
  N  N17  1  0.105590  0.013876  0.129003  1
  N  N18  1  0.798579  0.639669  0.558887  1
  N  N19  1  0.360331  0.201421  0.941113  1
  N  N20  1  0.201421  0.360331  0.441113  1
  N  N21  1  0.639669  0.798579  0.058887  1
  N  N22  1  0.271966  0.412409  0.652941  1
  N  N23  1  0.587591  0.728034  0.847059  1
  N  N24  1  0.728034  0.587591  0.347059  1
  N  N25  1  0.412409  0.271966  0.152941  1
