# generated using pymatgen
data_Sc2FeTc2(B2Ru)2
_symmetry_space_group_name_H-M   'P 1'
_cell_length_a   3.02151300
_cell_length_b   8.45255603
_cell_length_c   9.87289708
_cell_angle_alpha   90.01189468
_cell_angle_beta   90.00000000
_cell_angle_gamma   90.00000000
_symmetry_Int_Tables_number   1
_chemical_formula_structural   Sc2FeTc2(B2Ru)2
_chemical_formula_sum   'Sc4 Fe2 Tc4 B8 Ru4'
_cell_volume   252.14892770
_cell_formula_units_Z   2
loop_
 _symmetry_equiv_pos_site_id
 _symmetry_equiv_pos_as_xyz
  1  'x, y, z'
loop_
 _atom_site_type_symbol
 _atom_site_label
 _atom_site_symmetry_multiplicity
 _atom_site_fract_x
 _atom_site_fract_y
 _atom_site_fract_z
 _atom_site_occupancy
  Sc  Sc0  1  0.500000  0.838492  0.178290  1
  Sc  Sc1  1  0.500000  0.161508  0.821710  1
  Sc  Sc2  1  0.500000  0.661587  0.678287  1
  Sc  Sc3  1  0.500000  0.338413  0.321713  1
  Fe  Fe4  1  0.000000  0.000000  0.000000  1
  Fe  Fe5  1  0.000000  0.500000  0.500000  1
  Tc  Tc6  1  0.000000  0.664210  0.955928  1
  Tc  Tc7  1  0.000000  0.335790  0.044072  1
  Tc  Tc8  1  0.000000  0.835854  0.455878  1
  Tc  Tc9  1  0.000000  0.164146  0.544122  1
  B  B10  1  0.500000  0.967839  0.589101  1
  B  B11  1  0.500000  0.032161  0.410899  1
  B  B12  1  0.500000  0.858219  0.907318  1
  B  B13  1  0.500000  0.141781  0.092682  1
  B  B14  1  0.500000  0.641797  0.407318  1
  B  B15  1  0.500000  0.358203  0.592682  1
  B  B16  1  0.500000  0.467809  0.910932  1
  B  B17  1  0.500000  0.532191  0.089068  1
  Ru  Ru18  1  0.000000  0.409746  0.755612  1
  Ru  Ru19  1  0.000000  0.590254  0.244388  1
  Ru  Ru20  1  0.000000  0.909730  0.744373  1
  Ru  Ru21  1  0.000000  0.090270  0.255627  1
