# generated using pymatgen
data_TbY2Pa(Ga3Rh)6
_symmetry_space_group_name_H-M   'P 1'
_cell_length_a   7.60494237
_cell_length_b   7.59908399
_cell_length_c   9.48285200
_cell_angle_alpha   90.00000000
_cell_angle_beta   90.00000000
_cell_angle_gamma   119.82632168
_symmetry_Int_Tables_number   1
_chemical_formula_structural   TbY2Pa(Ga3Rh)6
_chemical_formula_sum   'Tb1 Y2 Pa1 Ga18 Rh6'
_cell_volume   475.42736639
_cell_formula_units_Z   1
loop_
 _symmetry_equiv_pos_site_id
 _symmetry_equiv_pos_as_xyz
  1  'x, y, z'
loop_
 _atom_site_type_symbol
 _atom_site_label
 _atom_site_symmetry_multiplicity
 _atom_site_fract_x
 _atom_site_fract_y
 _atom_site_fract_z
 _atom_site_occupancy
  Tb  Tb0  1  0.003200  0.332121  0.750000  1
  Y  Y1  1  0.669274  0.997590  0.250000  1
  Y  Y2  1  0.331379  0.002166  0.750000  1
  Pa  Pa3  1  0.998206  0.668072  0.250000  1
  Ga  Ga4  1  0.332085  0.332038  0.565983  1
  Ga  Ga5  1  0.665025  0.667696  0.435976  1
  Ga  Ga6  1  0.665025  0.667696  0.064024  1
  Ga  Ga7  1  0.332085  0.332038  0.934017  1
  Ga  Ga8  1  0.338536  0.544402  0.250000  1
  Ga  Ga9  1  0.660436  0.452673  0.750000  1
  Ga  Ga10  1  0.544919  0.340612  0.250000  1
  Ga  Ga11  1  0.453327  0.660654  0.750000  1
  Ga  Ga12  1  0.999575  0.331529  0.079178  1
  Ga  Ga13  1  0.999809  0.665577  0.918302  1
  Ga  Ga14  1  0.999809  0.665577  0.581698  1
  Ga  Ga15  1  0.337263  0.002549  0.420620  1
  Ga  Ga16  1  0.999575  0.331529  0.420822  1
  Ga  Ga17  1  0.665580  0.000412  0.580272  1
  Ga  Ga18  1  0.665580  0.000412  0.919728  1
  Ga  Ga19  1  0.337263  0.002549  0.079380  1
  Ga  Ga20  1  0.126681  0.125768  0.250000  1
  Ga  Ga21  1  0.876535  0.877147  0.750000  1
  Rh  Rh22  1  0.999639  0.997688  0.001924  1
  Rh  Rh23  1  0.999639  0.997688  0.498076  1
  Rh  Rh24  1  0.672871  0.330721  0.001795  1
  Rh  Rh25  1  0.326902  0.671187  0.002015  1
  Rh  Rh26  1  0.326902  0.671187  0.497985  1
  Rh  Rh27  1  0.672871  0.330721  0.498205  1
