# generated using pymatgen
data_Sm2URu2
_symmetry_space_group_name_H-M   'P 1'
_cell_length_a   6.01568062
_cell_length_b   6.01568119
_cell_length_c   6.01568054
_cell_angle_alpha   139.55355525
_cell_angle_beta   121.91218558
_cell_angle_gamma   73.16410287
_symmetry_Int_Tables_number   1
_chemical_formula_structural   Sm2URu2
_chemical_formula_sum   'Sm2 U1 Ru2'
_cell_volume   117.34799812
_cell_formula_units_Z   1
loop_
 _symmetry_equiv_pos_site_id
 _symmetry_equiv_pos_as_xyz
  1  'x, y, z'
loop_
 _atom_site_type_symbol
 _atom_site_label
 _atom_site_symmetry_multiplicity
 _atom_site_fract_x
 _atom_site_fract_y
 _atom_site_fract_z
 _atom_site_occupancy
  Sm  Sm0  1  0.695361  0.195361  0.500000  1
  Sm  Sm1  1  0.304639  0.804638  0.500000  1
  U  U2  1  0.000000  0.000000  0.000000  1
  Ru  Ru3  1  0.756377  0.500000  0.256377  1
  Ru  Ru4  1  0.243623  0.500000  0.743622  1
