# generated using pymatgen
data_Zr6P2CO
_symmetry_space_group_name_H-M   'P 1'
_cell_length_a   5.74781712
_cell_length_b   5.74782005
_cell_length_c   8.46177900
_cell_angle_alpha   89.76798805
_cell_angle_beta   90.23201206
_cell_angle_gamma   144.95032861
_symmetry_Int_Tables_number   1
_chemical_formula_structural   Zr6P2CO
_chemical_formula_sum   'Zr6 P2 C1 O1'
_cell_volume   160.54336993
_cell_formula_units_Z   1
loop_
 _symmetry_equiv_pos_site_id
 _symmetry_equiv_pos_as_xyz
  1  'x, y, z'
loop_
 _atom_site_type_symbol
 _atom_site_label
 _atom_site_symmetry_multiplicity
 _atom_site_fract_x
 _atom_site_fract_y
 _atom_site_fract_z
 _atom_site_occupancy
  Zr  Zr0  1  0.639792  0.360209  0.057104  1
  Zr  Zr1  1  0.935195  0.064806  0.249668  1
  Zr  Zr2  1  0.635151  0.364850  0.441090  1
  Zr  Zr3  1  0.364850  0.635151  0.558909  1
  Zr  Zr4  1  0.064806  0.935195  0.750332  1
  Zr  Zr5  1  0.360209  0.639792  0.942896  1
  P  P6  1  0.254568  0.745433  0.248835  1
  P  P7  1  0.745433  0.254568  0.751165  1
  C  C8  1  0.000000  0.000000  0.499999  1
  O  O9  1  0.000000  0.000000  0.000000  1
