# generated using pymatgen
data_YEr3(GaRu)4
_symmetry_space_group_name_H-M   'P 1'
_cell_length_a   7.14999932
_cell_length_b   4.49246300
_cell_length_c   7.12493751
_cell_angle_alpha   90.00000000
_cell_angle_beta   90.15362391
_cell_angle_gamma   90.00000000
_symmetry_Int_Tables_number   1
_chemical_formula_structural   YEr3(GaRu)4
_chemical_formula_sum   'Y1 Er3 Ga4 Ru4'
_cell_volume   228.86006025
_cell_formula_units_Z   1
loop_
 _symmetry_equiv_pos_site_id
 _symmetry_equiv_pos_as_xyz
  1  'x, y, z'
loop_
 _atom_site_type_symbol
 _atom_site_label
 _atom_site_symmetry_multiplicity
 _atom_site_fract_x
 _atom_site_fract_y
 _atom_site_fract_z
 _atom_site_occupancy
  Y  Y0  1  0.985025  0.249999  0.805062  1
  Er  Er1  1  0.016850  0.749999  0.199416  1
  Er  Er2  1  0.516631  0.749999  0.302118  1
  Er  Er3  1  0.483680  0.249999  0.697644  1
  Ga  Ga4  1  0.302406  0.249999  0.104769  1
  Ga  Ga5  1  0.801889  0.249999  0.395243  1
  Ga  Ga6  1  0.198617  0.749999  0.603531  1
  Ga  Ga7  1  0.697480  0.749999  0.895341  1
  Ru  Ru8  1  0.658966  0.249999  0.064613  1
  Ru  Ru9  1  0.161984  0.249999  0.434327  1
  Ru  Ru10  1  0.837587  0.749999  0.561874  1
  Ru  Ru11  1  0.338880  0.749999  0.936060  1
