# generated using pymatgen
data_Er7Lu3(Bi2Rh)2
_symmetry_space_group_name_H-M   'P 1'
_cell_length_a   7.89221677
_cell_length_b   8.96603060
_cell_length_c   12.36463697
_cell_angle_alpha   89.95256869
_cell_angle_beta   90.13014047
_cell_angle_gamma   90.07360772
_symmetry_Int_Tables_number   1
_chemical_formula_structural   Er7Lu3(Bi2Rh)2
_chemical_formula_sum   'Er14 Lu6 Bi8 Rh4'
_cell_volume   874.94139684
_cell_formula_units_Z   2
loop_
 _symmetry_equiv_pos_site_id
 _symmetry_equiv_pos_as_xyz
  1  'x, y, z'
loop_
 _atom_site_type_symbol
 _atom_site_label
 _atom_site_symmetry_multiplicity
 _atom_site_fract_x
 _atom_site_fract_y
 _atom_site_fract_z
 _atom_site_occupancy
  Er  Er0  1  0.661587  0.749368  0.708543  1
  Er  Er1  1  0.338413  0.250632  0.291457  1
  Er  Er2  1  0.160922  0.249698  0.791739  1
  Er  Er3  1  0.839078  0.750302  0.208261  1
  Er  Er4  1  0.125043  0.750863  0.809906  1
  Er  Er5  1  0.874957  0.249137  0.190094  1
  Er  Er6  1  0.625249  0.251369  0.690841  1
  Er  Er7  1  0.374751  0.748631  0.309159  1
  Er  Er8  1  0.551837  0.749910  0.998484  1
  Er  Er9  1  0.448163  0.250090  0.001516  1
  Er  Er10  1  0.050574  0.252130  0.501360  1
  Er  Er11  1  0.949426  0.747870  0.498640  1
  Er  Er12  1  0.676403  0.043564  0.433810  1
  Er  Er13  1  0.323597  0.956436  0.566190  1
  Lu  Lu14  1  0.826889  0.455763  0.933935  1
  Lu  Lu15  1  0.173111  0.544237  0.066065  1
  Lu  Lu16  1  0.327186  0.545233  0.566295  1
  Lu  Lu17  1  0.172992  0.955998  0.065920  1
  Lu  Lu18  1  0.672814  0.454767  0.433705  1
  Lu  Lu19  1  0.827008  0.044002  0.934080  1
  Bi  Bi20  1  0.932750  0.008760  0.672622  1
  Bi  Bi21  1  0.067250  0.991240  0.327378  1
  Bi  Bi22  1  0.435189  0.991776  0.827151  1
  Bi  Bi23  1  0.065155  0.508308  0.326294  1
  Bi  Bi24  1  0.564811  0.008224  0.172849  1
  Bi  Bi25  1  0.934845  0.491692  0.673706  1
  Bi  Bi26  1  0.565762  0.491439  0.172675  1
  Bi  Bi27  1  0.434238  0.508561  0.827325  1
  Rh  Rh28  1  0.926693  0.749783  0.991254  1
  Rh  Rh29  1  0.073307  0.250217  0.008746  1
  Rh  Rh30  1  0.425318  0.251868  0.509318  1
  Rh  Rh31  1  0.574682  0.748132  0.490682  1
