# generated using pymatgen
data_PRh3S7
_symmetry_space_group_name_H-M   'P 1'
_cell_length_a   5.70074343
_cell_length_b   5.70074361
_cell_length_c   5.70074425
_cell_angle_alpha   90.24054600
_cell_angle_beta   90.24054890
_cell_angle_gamma   90.24054298
_symmetry_Int_Tables_number   1
_chemical_formula_structural   PRh3S7
_chemical_formula_sum   'P1 Rh3 S7'
_cell_volume   185.26059189
_cell_formula_units_Z   1
loop_
 _symmetry_equiv_pos_site_id
 _symmetry_equiv_pos_as_xyz
  1  'x, y, z'
loop_
 _atom_site_type_symbol
 _atom_site_label
 _atom_site_symmetry_multiplicity
 _atom_site_fract_x
 _atom_site_fract_y
 _atom_site_fract_z
 _atom_site_occupancy
  P  P0  1  0.611556  0.611556  0.611556  1
  Rh  Rh1  1  0.993716  0.501428  0.501416  1
  Rh  Rh2  1  0.501416  0.993716  0.501428  1
  Rh  Rh3  1  0.501428  0.501416  0.993716  1
  S  S4  1  0.397401  0.890925  0.105831  1
  S  S5  1  0.105831  0.397401  0.890925  1
  S  S6  1  0.890925  0.105831  0.397401  1
  S  S7  1  0.604568  0.108407  0.893001  1
  S  S8  1  0.893001  0.604568  0.108407  1
  S  S9  1  0.108407  0.893001  0.604568  1
  S  S10  1  0.391751  0.391751  0.391751  1
