# generated using pymatgen
data_Er5FeRhO12
_symmetry_space_group_name_H-M   'P 1'
_cell_length_a   6.75197986
_cell_length_b   6.75198005
_cell_length_c   7.23660787
_cell_angle_alpha   74.29307326
_cell_angle_beta   74.29308329
_cell_angle_gamma   51.39004620
_symmetry_Int_Tables_number   1
_chemical_formula_structural   Er5FeRhO12
_chemical_formula_sum   'Er5 Fe1 Rh1 O12'
_cell_volume   245.88800545
_cell_formula_units_Z   1
loop_
 _symmetry_equiv_pos_site_id
 _symmetry_equiv_pos_as_xyz
  1  'x, y, z'
loop_
 _atom_site_type_symbol
 _atom_site_label
 _atom_site_symmetry_multiplicity
 _atom_site_fract_x
 _atom_site_fract_y
 _atom_site_fract_z
 _atom_site_occupancy
  Er  Er0  1  0.304817  0.302579  0.359790  1
  Er  Er1  1  0.697421  0.695183  0.640210  1
  Er  Er2  1  0.312179  0.308390  0.827793  1
  Er  Er3  1  0.691610  0.687821  0.172207  1
  Er  Er4  1  0.002626  0.997374  0.500000  1
  Fe  Fe5  1  0.242525  0.757475  0.000000  1
  Rh  Rh6  1  0.754704  0.245296  0.000000  1
  O  O7  1  0.902258  0.433254  0.916515  1
  O  O8  1  0.420093  0.902155  0.917818  1
  O  O9  1  0.097845  0.579907  0.082182  1
  O  O10  1  0.566746  0.097742  0.083485  1
  O  O11  1  0.101462  0.593566  0.573968  1
  O  O12  1  0.599889  0.092217  0.575898  1
  O  O13  1  0.907783  0.400111  0.424102  1
  O  O14  1  0.406434  0.898538  0.426032  1
  O  O15  1  0.994900  0.004954  0.812853  1
  O  O16  1  0.995046  0.005100  0.187147  1
  O  O17  1  0.501226  0.499564  0.809132  1
  O  O18  1  0.500436  0.498774  0.190868  1
