# generated using pymatgen
data_Hf3Ga3ReAu2
_symmetry_space_group_name_H-M   'P 1'
_cell_length_a   7.32341700
_cell_length_b   7.32341661
_cell_length_c   6.96630600
_cell_angle_alpha   90.00000000
_cell_angle_beta   90.00000000
_cell_angle_gamma   119.99999726
_symmetry_Int_Tables_number   1
_chemical_formula_structural   Hf3Ga3ReAu2
_chemical_formula_sum   'Hf6 Ga6 Re2 Au4'
_cell_volume   323.56437229
_cell_formula_units_Z   2
loop_
 _symmetry_equiv_pos_site_id
 _symmetry_equiv_pos_as_xyz
  1  'x, y, z'
loop_
 _atom_site_type_symbol
 _atom_site_label
 _atom_site_symmetry_multiplicity
 _atom_site_fract_x
 _atom_site_fract_y
 _atom_site_fract_z
 _atom_site_occupancy
  Hf  Hf0  1  0.733714  0.043503  0.000000  1
  Hf  Hf1  1  0.309789  0.266286  0.000000  1
  Hf  Hf2  1  0.956497  0.690211  0.000000  1
  Hf  Hf3  1  0.318995  0.267046  0.500000  1
  Hf  Hf4  1  0.732954  0.051948  0.500000  1
  Hf  Hf5  1  0.948052  0.681005  0.500000  1
  Ga  Ga6  1  0.612326  0.666448  0.748721  1
  Ga  Ga7  1  0.054123  0.387674  0.748721  1
  Ga  Ga8  1  0.333552  0.945877  0.748721  1
  Ga  Ga9  1  0.612326  0.666448  0.251279  1
  Ga  Ga10  1  0.054123  0.387674  0.251279  1
  Ga  Ga11  1  0.333552  0.945877  0.251279  1
  Re  Re12  1  0.000000  0.000000  0.252656  1
  Re  Re13  1  0.000000  0.000000  0.747344  1
  Au  Au14  1  0.333333  0.666667  0.000000  1
  Au  Au15  1  0.333333  0.666667  0.500000  1
  Au  Au16  1  0.666667  0.333333  0.767004  1
  Au  Au17  1  0.666667  0.333333  0.232996  1
