# generated using pymatgen
data_TcPb3BrClO5
_symmetry_space_group_name_H-M   'P 1'
_cell_length_a   7.40896680
_cell_length_b   7.40896726
_cell_length_c   11.18195500
_cell_angle_alpha   90.00000000
_cell_angle_beta   90.00000000
_cell_angle_gamma   135.00532106
_symmetry_Int_Tables_number   1
_chemical_formula_structural   TcPb3BrClO5
_chemical_formula_sum   'Tc2 Pb6 Br2 Cl2 O10'
_cell_volume   433.98800879
_cell_formula_units_Z   2
loop_
 _symmetry_equiv_pos_site_id
 _symmetry_equiv_pos_as_xyz
  1  'x, y, z'
loop_
 _atom_site_type_symbol
 _atom_site_label
 _atom_site_symmetry_multiplicity
 _atom_site_fract_x
 _atom_site_fract_y
 _atom_site_fract_z
 _atom_site_occupancy
  Tc  Tc0  1  0.768435  0.231565  0.250000  1
  Tc  Tc1  1  0.231565  0.768435  0.750000  1
  Pb  Pb2  1  0.653907  0.346093  0.529217  1
  Pb  Pb3  1  0.346093  0.653907  0.029217  1
  Pb  Pb4  1  0.653907  0.346093  0.970783  1
  Pb  Pb5  1  0.888996  0.111004  0.750000  1
  Pb  Pb6  1  0.346093  0.653907  0.470783  1
  Pb  Pb7  1  0.111004  0.888996  0.250000  1
  Br  Br8  1  0.000000  0.000000  0.500000  1
  Br  Br9  1  0.000000  0.000000  0.000000  1
  Cl  Cl10  1  0.520617  0.479383  0.250000  1
  Cl  Cl11  1  0.479383  0.520617  0.750000  1
  O  O12  1  0.498289  0.042200  0.368251  1
  O  O13  1  0.042200  0.498289  0.631749  1
  O  O14  1  0.501711  0.957800  0.868251  1
  O  O15  1  0.501711  0.957800  0.631749  1
  O  O16  1  0.108135  0.891865  0.750000  1
  O  O17  1  0.042200  0.498289  0.868251  1
  O  O18  1  0.498289  0.042200  0.131749  1
  O  O19  1  0.957800  0.501711  0.368251  1
  O  O20  1  0.891865  0.108135  0.250000  1
  O  O21  1  0.957800  0.501711  0.131749  1
