# generated using pymatgen
data_Tb4Tm6Sn7Au
_symmetry_space_group_name_H-M   'P 1'
_cell_length_a   7.78726200
_cell_length_b   8.24966000
_cell_length_c   15.26784000
_cell_angle_alpha   90.00000000
_cell_angle_beta   90.00000000
_cell_angle_gamma   90.00000000
_symmetry_Int_Tables_number   1
_chemical_formula_structural   Tb4Tm6Sn7Au
_chemical_formula_sum   'Tb8 Tm12 Sn14 Au2'
_cell_volume   980.84060541
_cell_formula_units_Z   2
loop_
 _symmetry_equiv_pos_site_id
 _symmetry_equiv_pos_as_xyz
  1  'x, y, z'
loop_
 _atom_site_type_symbol
 _atom_site_label
 _atom_site_symmetry_multiplicity
 _atom_site_fract_x
 _atom_site_fract_y
 _atom_site_fract_z
 _atom_site_occupancy
  Tb  Tb0  1  0.509406  0.312070  0.906008  1
  Tb  Tb1  1  0.009406  0.187930  0.593992  1
  Tb  Tb2  1  0.488491  0.680129  0.405471  1
  Tb  Tb3  1  0.988491  0.819871  0.094529  1
  Tb  Tb4  1  0.488491  0.680129  0.094529  1
  Tb  Tb5  1  0.988491  0.819871  0.405471  1
  Tb  Tb6  1  0.509406  0.312070  0.593992  1
  Tb  Tb7  1  0.009406  0.187930  0.906008  1
  Tm  Tm8  1  0.347410  0.831033  0.868995  1
  Tm  Tm9  1  0.847410  0.668967  0.631005  1
  Tm  Tm10  1  0.650448  0.165708  0.375247  1
  Tm  Tm11  1  0.150448  0.334292  0.124753  1
  Tm  Tm12  1  0.650448  0.165708  0.124753  1
  Tm  Tm13  1  0.150448  0.334292  0.375247  1
  Tm  Tm14  1  0.347410  0.831033  0.631005  1
  Tm  Tm15  1  0.847410  0.668967  0.868995  1
  Tm  Tm16  1  0.196915  0.499347  0.750000  1
  Tm  Tm17  1  0.696915  0.000653  0.750000  1
  Tm  Tm18  1  0.816434  0.501086  0.250000  1
  Tm  Tm19  1  0.316434  0.998914  0.250000  1
  Sn  Sn20  1  0.309925  0.037928  0.037878  1
  Sn  Sn21  1  0.809925  0.462072  0.462122  1
  Sn  Sn22  1  0.693930  0.962588  0.542141  1
  Sn  Sn23  1  0.193930  0.537412  0.957859  1
  Sn  Sn24  1  0.693930  0.962588  0.957859  1
  Sn  Sn25  1  0.193930  0.537412  0.542141  1
  Sn  Sn26  1  0.309925  0.037928  0.462122  1
  Sn  Sn27  1  0.809925  0.462072  0.037878  1
  Sn  Sn28  1  0.452304  0.381123  0.250000  1
  Sn  Sn29  1  0.952304  0.118877  0.250000  1
  Sn  Sn30  1  0.305676  0.138447  0.750000  1
  Sn  Sn31  1  0.805676  0.361553  0.750000  1
  Sn  Sn32  1  0.679629  0.850221  0.250000  1
  Sn  Sn33  1  0.179629  0.649779  0.250000  1
  Au  Au34  1  0.549822  0.623898  0.750000  1
  Au  Au35  1  0.049822  0.876102  0.750000  1
