# generated using pymatgen
data_Nd4Y4Re(B8Os)3
_symmetry_space_group_name_H-M   'P 1'
_cell_length_a   3.71974300
_cell_length_b   9.27340691
_cell_length_c   11.70775401
_cell_angle_alpha   89.90986552
_cell_angle_beta   90.00000000
_cell_angle_gamma   90.00000000
_symmetry_Int_Tables_number   1
_chemical_formula_structural   Nd4Y4Re(B8Os)3
_chemical_formula_sum   'Nd4 Y4 Re1 B24 Os3'
_cell_volume   403.85485076
_cell_formula_units_Z   1
loop_
 _symmetry_equiv_pos_site_id
 _symmetry_equiv_pos_as_xyz
  1  'x, y, z'
loop_
 _atom_site_type_symbol
 _atom_site_label
 _atom_site_symmetry_multiplicity
 _atom_site_fract_x
 _atom_site_fract_y
 _atom_site_fract_z
 _atom_site_occupancy
  Nd  Nd0  1  0.000000  0.823092  0.085363  1
  Nd  Nd1  1  0.000000  0.178963  0.912242  1
  Nd  Nd2  1  0.000000  0.322904  0.415658  1
  Nd  Nd3  1  0.000000  0.676306  0.586935  1
  Y  Y4  1  0.000000  0.443399  0.128424  1
  Y  Y5  1  0.000000  0.555638  0.871971  1
  Y  Y6  1  0.000000  0.942970  0.371979  1
  Y  Y7  1  0.000000  0.056691  0.627420  1
  Re  Re8  1  0.000000  0.361528  0.679802  1
  B  B9  1  0.500000  0.055499  0.069092  1
  B  B10  1  0.500000  0.944699  0.930533  1
  B  B11  1  0.500000  0.555162  0.430478  1
  B  B12  1  0.500000  0.445590  0.569279  1
  B  B13  1  0.500000  0.248416  0.082524  1
  B  B14  1  0.500000  0.751729  0.917687  1
  B  B15  1  0.500000  0.748231  0.417255  1
  B  B16  1  0.500000  0.251673  0.582730  1
  B  B17  1  0.500000  0.289142  0.232944  1
  B  B18  1  0.500000  0.710213  0.767837  1
  B  B19  1  0.500000  0.789678  0.267087  1
  B  B20  1  0.500000  0.209744  0.732796  1
  B  B21  1  0.500000  0.130154  0.313801  1
  B  B22  1  0.500000  0.869353  0.686676  1
  B  B23  1  0.500000  0.630788  0.186035  1
  B  B24  1  0.500000  0.369459  0.813503  1
  B  B25  1  0.500000  0.485416  0.286499  1
  B  B26  1  0.500000  0.515683  0.713658  1
  B  B27  1  0.500000  0.985163  0.213056  1
  B  B28  1  0.500000  0.015019  0.786335  1
  B  B29  1  0.500000  0.102812  0.470805  1
  B  B30  1  0.500000  0.895731  0.528354  1
  B  B31  1  0.500000  0.604043  0.029195  1
  B  B32  1  0.500000  0.396375  0.971995  1
  Os  Os33  1  0.000000  0.138433  0.179936  1
  Os  Os34  1  0.000000  0.861593  0.820517  1
  Os  Os35  1  0.000000  0.638712  0.319603  1
