# generated using pymatgen
data_PrYFe3P7Ru9
_symmetry_space_group_name_H-M   'P 1'
_cell_length_a   9.35545300
_cell_length_b   9.35545228
_cell_length_c   3.87599000
_cell_angle_alpha   90.00000000
_cell_angle_beta   90.00000000
_cell_angle_gamma   119.99999193
_symmetry_Int_Tables_number   1
_chemical_formula_structural   PrYFe3P7Ru9
_chemical_formula_sum   'Pr1 Y1 Fe3 P7 Ru9'
_cell_volume   293.79400140
_cell_formula_units_Z   1
loop_
 _symmetry_equiv_pos_site_id
 _symmetry_equiv_pos_as_xyz
  1  'x, y, z'
loop_
 _atom_site_type_symbol
 _atom_site_label
 _atom_site_symmetry_multiplicity
 _atom_site_fract_x
 _atom_site_fract_y
 _atom_site_fract_z
 _atom_site_occupancy
  Pr  Pr0  1  0.333333  0.666667  0.000000  1
  Y  Y1  1  0.666667  0.333333  0.500000  1
  Fe  Fe2  1  0.156209  0.889866  0.000000  1
  Fe  Fe3  1  0.110134  0.266343  0.000000  1
  Fe  Fe4  1  0.733657  0.843791  0.000000  1
  P  P5  1  0.412406  0.107122  0.000000  1
  P  P6  1  0.892878  0.305285  0.000000  1
  P  P7  1  0.694715  0.587594  0.000000  1
  P  P8  1  0.112081  0.720123  0.500000  1
  P  P9  1  0.279877  0.391958  0.500000  1
  P  P10  1  0.608042  0.887919  0.500000  1
  P  P11  1  0.000000  0.000000  0.000000  1
  Ru  Ru12  1  0.420682  0.358798  0.000000  1
  Ru  Ru13  1  0.641202  0.061883  0.000000  1
  Ru  Ru14  1  0.938117  0.579318  0.000000  1
  Ru  Ru15  1  0.386354  0.951395  0.500000  1
  Ru  Ru16  1  0.048605  0.434958  0.500000  1
  Ru  Ru17  1  0.565042  0.613646  0.500000  1
  Ru  Ru18  1  0.203104  0.114900  0.500000  1
  Ru  Ru19  1  0.885100  0.088206  0.500000  1
  Ru  Ru20  1  0.911794  0.796896  0.500000  1
