# generated using pymatgen
data_PrHoNp2F14
_symmetry_space_group_name_H-M   'P 1'
_cell_length_a   6.03084336
_cell_length_b   6.37327380
_cell_length_c   8.66032400
_cell_angle_alpha   103.15080984
_cell_angle_beta   90.14518617
_cell_angle_gamma   89.93405569
_symmetry_Int_Tables_number   1
_chemical_formula_structural   PrHoNp2F14
_chemical_formula_sum   'Pr1 Ho1 Np2 F14'
_cell_volume   324.13933225
_cell_formula_units_Z   1
loop_
 _symmetry_equiv_pos_site_id
 _symmetry_equiv_pos_as_xyz
  1  'x, y, z'
loop_
 _atom_site_type_symbol
 _atom_site_label
 _atom_site_symmetry_multiplicity
 _atom_site_fract_x
 _atom_site_fract_y
 _atom_site_fract_z
 _atom_site_occupancy
  Pr  Pr0  1  0.699575  0.646709  0.679505  1
  Ho  Ho1  1  0.198872  0.344640  0.311227  1
  Np  Np2  1  0.707347  0.814243  0.226615  1
  Np  Np3  1  0.206453  0.187935  0.774558  1
  F  F4  1  0.919000  0.464579  0.472895  1
  F  F5  1  0.397477  0.520293  0.510611  1
  F  F6  1  0.428251  0.917670  0.766046  1
  F  F7  1  0.938820  0.082532  0.237018  1
  F  F8  1  0.945184  0.947315  0.759047  1
  F  F9  1  0.445817  0.063778  0.245761  1
  F  F10  1  0.985728  0.461996  0.791780  1
  F  F11  1  0.478569  0.543494  0.214892  1
  F  F12  1  0.695636  0.758885  0.972723  1
  F  F13  1  0.196552  0.244769  0.032640  1
  F  F14  1  0.698557  0.869676  0.482520  1
  F  F15  1  0.199039  0.140326  0.517632  1
  F  F16  1  0.507015  0.381673  0.784105  1
  F  F17  1  0.004828  0.609492  0.220425  1
