# generated using pymatgen
data_Ba4SrSi2Sn
_symmetry_space_group_name_H-M   'P 1'
_cell_length_a   8.50964200
_cell_length_b   8.50964200
_cell_length_c   17.34064500
_cell_angle_alpha   90.00000000
_cell_angle_beta   90.00000000
_cell_angle_gamma   90.00000000
_symmetry_Int_Tables_number   1
_chemical_formula_structural   Ba4SrSi2Sn
_chemical_formula_sum   'Ba16 Sr4 Si8 Sn4'
_cell_volume   1255.70558786
_cell_formula_units_Z   4
loop_
 _symmetry_equiv_pos_site_id
 _symmetry_equiv_pos_as_xyz
  1  'x, y, z'
loop_
 _atom_site_type_symbol
 _atom_site_label
 _atom_site_symmetry_multiplicity
 _atom_site_fract_x
 _atom_site_fract_y
 _atom_site_fract_z
 _atom_site_occupancy
  Ba  Ba0  1  0.310051  0.671462  0.113640  1
  Ba  Ba1  1  0.171462  0.189949  0.113640  1
  Ba  Ba2  1  0.328538  0.689949  0.386360  1
  Ba  Ba3  1  0.671462  0.689949  0.886360  1
  Ba  Ba4  1  0.189949  0.171462  0.386360  1
  Ba  Ba5  1  0.671462  0.310051  0.386360  1
  Ba  Ba6  1  0.171462  0.810051  0.613640  1
  Ba  Ba7  1  0.328538  0.310051  0.886360  1
  Ba  Ba8  1  0.189949  0.828538  0.886360  1
  Ba  Ba9  1  0.828538  0.189949  0.613640  1
  Ba  Ba10  1  0.310051  0.328538  0.613640  1
  Ba  Ba11  1  0.810051  0.828538  0.386360  1
  Ba  Ba12  1  0.810051  0.171462  0.886360  1
  Ba  Ba13  1  0.828538  0.810051  0.113640  1
  Ba  Ba14  1  0.689949  0.328538  0.113640  1
  Ba  Ba15  1  0.689949  0.671462  0.613640  1
  Sr  Sr16  1  0.500000  0.000000  0.732426  1
  Sr  Sr17  1  0.500000  0.000000  0.232426  1
  Sr  Sr18  1  0.000000  0.500000  0.267574  1
  Sr  Sr19  1  0.000000  0.500000  0.767574  1
  Si  Si20  1  0.103419  0.103419  0.750000  1
  Si  Si21  1  0.396581  0.603419  0.750000  1
  Si  Si22  1  0.603419  0.603419  0.250000  1
  Si  Si23  1  0.103419  0.896581  0.250000  1
  Si  Si24  1  0.603419  0.396581  0.750000  1
  Si  Si25  1  0.896581  0.896581  0.750000  1
  Si  Si26  1  0.396581  0.396581  0.250000  1
  Si  Si27  1  0.896581  0.103419  0.250000  1
  Sn  Sn28  1  0.000000  0.500000  0.987346  1
  Sn  Sn29  1  0.500000  0.000000  0.012654  1
  Sn  Sn30  1  0.500000  0.000000  0.512654  1
  Sn  Sn31  1  0.000000  0.500000  0.487346  1
