# generated using pymatgen
data_Ba6LaSc(BO3)6
_symmetry_space_group_name_H-M   'P 1'
_cell_length_a   8.21795750
_cell_length_b   8.21795806
_cell_length_c   8.21795885
_cell_angle_alpha   105.74788179
_cell_angle_beta   105.74788480
_cell_angle_gamma   105.74788949
_symmetry_Int_Tables_number   1
_chemical_formula_structural   Ba6LaSc(BO3)6
_chemical_formula_sum   'Ba6 La1 Sc1 B6 O18'
_cell_volume   477.11612440
_cell_formula_units_Z   1
loop_
 _symmetry_equiv_pos_site_id
 _symmetry_equiv_pos_as_xyz
  1  'x, y, z'
loop_
 _atom_site_type_symbol
 _atom_site_label
 _atom_site_symmetry_multiplicity
 _atom_site_fract_x
 _atom_site_fract_y
 _atom_site_fract_z
 _atom_site_occupancy
  Ba  Ba0  1  0.649738  0.266864  0.164048  1
  Ba  Ba1  1  0.164048  0.649738  0.266863  1
  Ba  Ba2  1  0.733136  0.835952  0.350262  1
  Ba  Ba3  1  0.266864  0.164048  0.649738  1
  Ba  Ba4  1  0.835952  0.350262  0.733136  1
  Ba  Ba5  1  0.350262  0.733136  0.835952  1
  La  La6  1  0.000000  0.000000  0.000000  1
  Sc  Sc7  1  0.500000  0.500000  0.500000  1
  B  B8  1  0.300011  0.378741  0.050985  1
  B  B9  1  0.378741  0.050986  0.300011  1
  B  B10  1  0.050986  0.300011  0.378741  1
  B  B11  1  0.949014  0.699989  0.621259  1
  B  B12  1  0.621259  0.949014  0.699989  1
  B  B13  1  0.699989  0.621259  0.949014  1
  O  O14  1  0.723719  0.805790  0.011855  1
  O  O15  1  0.795261  0.551690  0.059343  1
  O  O16  1  0.988145  0.276281  0.194210  1
  O  O17  1  0.448309  0.940656  0.204739  1
  O  O18  1  0.427069  0.491590  0.227230  1
  O  O19  1  0.194210  0.988145  0.276281  1
  O  O20  1  0.491590  0.227230  0.427068  1
  O  O21  1  0.940656  0.204740  0.448309  1
  O  O22  1  0.227230  0.427069  0.491590  1
  O  O23  1  0.772770  0.572931  0.508410  1
  O  O24  1  0.059344  0.795260  0.551691  1
  O  O25  1  0.508410  0.772770  0.572932  1
  O  O26  1  0.805790  0.011855  0.723719  1
  O  O27  1  0.572931  0.508410  0.772770  1
  O  O28  1  0.551691  0.059344  0.795261  1
  O  O29  1  0.011855  0.723719  0.805790  1
  O  O30  1  0.204739  0.448310  0.940657  1
  O  O31  1  0.276281  0.194210  0.988145  1
