# generated using pymatgen
data_CaPrHoGa8Ag3
_symmetry_space_group_name_H-M   'P 1'
_cell_length_a   4.38736799
_cell_length_b   8.41666962
_cell_length_c   8.41667090
_cell_angle_alpha   70.08054229
_cell_angle_beta   74.89221393
_cell_angle_gamma   74.89221085
_symmetry_Int_Tables_number   1
_chemical_formula_structural   CaPrHoGa8Ag3
_chemical_formula_sum   'Ca1 Pr1 Ho1 Ga8 Ag3'
_cell_volume   277.00699179
_cell_formula_units_Z   1
loop_
 _symmetry_equiv_pos_site_id
 _symmetry_equiv_pos_as_xyz
  1  'x, y, z'
loop_
 _atom_site_type_symbol
 _atom_site_label
 _atom_site_symmetry_multiplicity
 _atom_site_fract_x
 _atom_site_fract_y
 _atom_site_fract_z
 _atom_site_occupancy
  Ca  Ca0  1  0.198939  0.801061  0.801061  1
  Pr  Pr1  1  0.500522  0.499478  0.499478  1
  Ho  Ho2  1  0.799193  0.200807  0.200807  1
  Ga  Ga3  1  0.356993  0.359175  0.926839  1
  Ga  Ga4  1  0.644675  0.636939  0.073710  1
  Ga  Ga5  1  0.356993  0.926839  0.359175  1
  Ga  Ga6  1  0.644675  0.073710  0.636939  1
  Ga  Ga7  1  0.160395  0.470361  0.208847  1
  Ga  Ga8  1  0.838826  0.527847  0.794503  1
  Ga  Ga9  1  0.160395  0.208847  0.470361  1
  Ga  Ga10  1  0.838826  0.794503  0.527847  1
  Ag  Ag11  1  0.499373  0.000627  0.000627  1
  Ag  Ag12  1  0.000098  0.805448  0.194357  1
  Ag  Ag13  1  0.000098  0.194357  0.805448  1
