# generated using pymatgen
data_NaMn2(Sb6Os)2
_symmetry_space_group_name_H-M   'P 1'
_cell_length_a   8.17446958
_cell_length_b   8.17446922
_cell_length_c   8.19321644
_cell_angle_alpha   109.42556594
_cell_angle_beta   109.28898348
_cell_angle_gamma   109.60688573
_symmetry_Int_Tables_number   1
_chemical_formula_structural   NaMn2(Sb6Os)2
_chemical_formula_sum   'Na1 Mn2 Sb12 Os2'
_cell_volume   421.93202395
_cell_formula_units_Z   1
loop_
 _symmetry_equiv_pos_site_id
 _symmetry_equiv_pos_as_xyz
  1  'x, y, z'
loop_
 _atom_site_type_symbol
 _atom_site_label
 _atom_site_symmetry_multiplicity
 _atom_site_fract_x
 _atom_site_fract_y
 _atom_site_fract_z
 _atom_site_occupancy
  Na  Na0  1  0.000000  0.000000  0.000000  1
  Mn  Mn1  1  0.500000  0.000000  0.000000  1
  Mn  Mn2  1  0.000000  0.500000  0.000000  1
  Sb  Sb3  1  0.843120  0.663260  0.506380  1
  Sb  Sb4  1  0.156880  0.336740  0.493620  1
  Sb  Sb5  1  0.154116  0.657703  0.811819  1
  Sb  Sb6  1  0.845884  0.342297  0.188181  1
  Sb  Sb7  1  0.659404  0.505319  0.842702  1
  Sb  Sb8  1  0.340596  0.494681  0.157298  1
  Sb  Sb9  1  0.662617  0.816702  0.157298  1
  Sb  Sb10  1  0.337383  0.183298  0.842702  1
  Sb  Sb11  1  0.504795  0.842686  0.658767  1
  Sb  Sb12  1  0.495205  0.157314  0.341233  1
  Sb  Sb13  1  0.183919  0.846028  0.341233  1
  Sb  Sb14  1  0.816081  0.153972  0.658767  1
  Os  Os15  1  0.500000  0.500000  0.500000  1
  Os  Os16  1  0.000000  0.000000  0.500000  1
