# generated using pymatgen
data_Y3Be2Ir6W
_symmetry_space_group_name_H-M   'P 1'
_cell_length_a   5.53705700
_cell_length_b   5.53705723
_cell_length_c   15.04132700
_cell_angle_alpha   90.00000000
_cell_angle_beta   90.00000000
_cell_angle_gamma   120.00000461
_symmetry_Int_Tables_number   1
_chemical_formula_structural   Y3Be2Ir6W
_chemical_formula_sum   'Y6 Be4 Ir12 W2'
_cell_volume   399.36938640
_cell_formula_units_Z   2
loop_
 _symmetry_equiv_pos_site_id
 _symmetry_equiv_pos_as_xyz
  1  'x, y, z'
loop_
 _atom_site_type_symbol
 _atom_site_label
 _atom_site_symmetry_multiplicity
 _atom_site_fract_x
 _atom_site_fract_y
 _atom_site_fract_z
 _atom_site_occupancy
  Y  Y0  1  0.333333  0.666667  0.538079  1
  Y  Y1  1  0.666667  0.333333  0.461921  1
  Y  Y2  1  0.666667  0.333333  0.038079  1
  Y  Y3  1  0.333333  0.666667  0.961921  1
  Y  Y4  1  0.333333  0.666667  0.750000  1
  Y  Y5  1  0.666667  0.333333  0.250000  1
  Be  Be6  1  0.000000  0.000000  0.250000  1
  Be  Be7  1  0.000000  0.000000  0.750000  1
  Be  Be8  1  0.333333  0.666667  0.250000  1
  Be  Be9  1  0.666667  0.333333  0.750000  1
  Ir  Ir10  1  0.168718  0.337436  0.135393  1
  Ir  Ir11  1  0.831282  0.662564  0.864607  1
  Ir  Ir12  1  0.662564  0.831282  0.135393  1
  Ir  Ir13  1  0.831282  0.662564  0.635393  1
  Ir  Ir14  1  0.337436  0.168718  0.864607  1
  Ir  Ir15  1  0.168718  0.337436  0.364607  1
  Ir  Ir16  1  0.168718  0.831282  0.135393  1
  Ir  Ir17  1  0.337436  0.168718  0.635393  1
  Ir  Ir18  1  0.831282  0.168718  0.864607  1
  Ir  Ir19  1  0.662564  0.831282  0.364607  1
  Ir  Ir20  1  0.831282  0.168718  0.635393  1
  Ir  Ir21  1  0.168718  0.831282  0.364607  1
  W  W22  1  0.000000  0.000000  0.000000  1
  W  W23  1  0.000000  0.000000  0.500000  1
