# generated using pymatgen
data_Be3VNiRu
_symmetry_space_group_name_H-M   'P 1'
_cell_length_a   4.42072900
_cell_length_b   4.42072822
_cell_length_c   7.08582400
_cell_angle_alpha   90.00000000
_cell_angle_beta   90.00000000
_cell_angle_gamma   119.99999839
_symmetry_Int_Tables_number   1
_chemical_formula_structural   Be3VNiRu
_chemical_formula_sum   'Be6 V2 Ni2 Ru2'
_cell_volume   119.92471851
_cell_formula_units_Z   2
loop_
 _symmetry_equiv_pos_site_id
 _symmetry_equiv_pos_as_xyz
  1  'x, y, z'
loop_
 _atom_site_type_symbol
 _atom_site_label
 _atom_site_symmetry_multiplicity
 _atom_site_fract_x
 _atom_site_fract_y
 _atom_site_fract_z
 _atom_site_occupancy
  Be  Be0  1  0.831405  0.662809  0.247045  1
  Be  Be1  1  0.168595  0.831405  0.747045  1
  Be  Be2  1  0.662809  0.831405  0.747045  1
  Be  Be3  1  0.337191  0.168595  0.247045  1
  Be  Be4  1  0.831405  0.168595  0.247045  1
  Be  Be5  1  0.168595  0.337191  0.747045  1
  V  V6  1  0.666667  0.333333  0.935926  1
  V  V7  1  0.333333  0.666667  0.435926  1
  Ni  Ni8  1  0.000000  0.000000  0.993500  1
  Ni  Ni9  1  0.000000  0.000000  0.493500  1
  Ru  Ru10  1  0.333333  0.666667  0.079437  1
  Ru  Ru11  1  0.666667  0.333333  0.579437  1
