# generated using pymatgen
data_Ti4B8Mo3Ru7
_symmetry_space_group_name_H-M   'P 1'
_cell_length_a   3.01266800
_cell_length_b   8.52749298
_cell_length_c   9.87799683
_cell_angle_alpha   90.76645818
_cell_angle_beta   90.00000000
_cell_angle_gamma   90.00000000
_symmetry_Int_Tables_number   1
_chemical_formula_structural   Ti4B8Mo3Ru7
_chemical_formula_sum   'Ti4 B8 Mo3 Ru7'
_cell_volume   253.74802318
_cell_formula_units_Z   1
loop_
 _symmetry_equiv_pos_site_id
 _symmetry_equiv_pos_as_xyz
  1  'x, y, z'
loop_
 _atom_site_type_symbol
 _atom_site_label
 _atom_site_symmetry_multiplicity
 _atom_site_fract_x
 _atom_site_fract_y
 _atom_site_fract_z
 _atom_site_occupancy
  Ti  Ti0  1  0.500000  0.837760  0.179515  1
  Ti  Ti1  1  0.500000  0.161190  0.825404  1
  Ti  Ti2  1  0.500000  0.659006  0.681559  1
  Ti  Ti3  1  0.500000  0.343075  0.311748  1
  B  B4  1  0.500000  0.966903  0.589219  1
  B  B5  1  0.500000  0.034680  0.412818  1
  B  B6  1  0.500000  0.853339  0.899294  1
  B  B7  1  0.500000  0.148654  0.102616  1
  B  B8  1  0.500000  0.647846  0.398632  1
  B  B9  1  0.500000  0.351080  0.599859  1
  B  B10  1  0.500000  0.464138  0.913274  1
  B  B11  1  0.500000  0.535600  0.084588  1
  Mo  Mo12  1  0.000000  0.664823  0.949828  1
  Mo  Mo13  1  0.000000  0.334213  0.048380  1
  Mo  Mo14  1  0.000000  0.838655  0.452919  1
  Ru  Ru15  1  0.000000  0.164652  0.549831  1
  Ru  Ru16  1  0.000000  0.999636  0.002047  1
  Ru  Ru17  1  0.000000  0.403240  0.759368  1
  Ru  Ru18  1  0.000000  0.593526  0.238338  1
  Ru  Ru19  1  0.000000  0.495981  0.498656  1
  Ru  Ru20  1  0.000000  0.909058  0.738125  1
  Ru  Ru21  1  0.000000  0.092943  0.263981  1
