# generated using pymatgen
data_Ni6P3Ru2
_symmetry_space_group_name_H-M   'P 1'
_cell_length_a   3.61207800
_cell_length_b   5.62509400
_cell_length_c   12.45104300
_cell_angle_alpha   90.00000000
_cell_angle_beta   90.00000000
_cell_angle_gamma   90.00000000
_symmetry_Int_Tables_number   1
_chemical_formula_structural   Ni6P3Ru2
_chemical_formula_sum   'Ni12 P6 Ru4'
_cell_volume   252.98375662
_cell_formula_units_Z   2
loop_
 _symmetry_equiv_pos_site_id
 _symmetry_equiv_pos_as_xyz
  1  'x, y, z'
loop_
 _atom_site_type_symbol
 _atom_site_label
 _atom_site_symmetry_multiplicity
 _atom_site_fract_x
 _atom_site_fract_y
 _atom_site_fract_z
 _atom_site_occupancy
  Ni  Ni0  1  0.500000  0.451577  0.099010  1
  Ni  Ni1  1  0.500000  0.057583  0.000000  1
  Ni  Ni2  1  0.500000  0.364844  0.709174  1
  Ni  Ni3  1  0.000000  0.942417  0.500000  1
  Ni  Ni4  1  0.000000  0.635156  0.790826  1
  Ni  Ni5  1  0.000000  0.635156  0.209174  1
  Ni  Ni6  1  0.500000  0.273950  0.500000  1
  Ni  Ni7  1  0.000000  0.726050  0.000000  1
  Ni  Ni8  1  0.500000  0.451577  0.900990  1
  Ni  Ni9  1  0.500000  0.364844  0.290826  1
  Ni  Ni10  1  0.000000  0.548423  0.599010  1
  Ni  Ni11  1  0.000000  0.548423  0.400990  1
  P  P12  1  0.000000  0.173826  0.354419  1
  P  P13  1  0.500000  0.826174  0.854419  1
  P  P14  1  0.000000  0.326712  0.000000  1
  P  P15  1  0.500000  0.673288  0.500000  1
  P  P16  1  0.500000  0.826174  0.145581  1
  P  P17  1  0.000000  0.173826  0.645581  1
  Ru  Ru18  1  0.500000  0.900412  0.664874  1
  Ru  Ru19  1  0.000000  0.099588  0.835126  1
  Ru  Ru20  1  0.000000  0.099588  0.164874  1
  Ru  Ru21  1  0.500000  0.900412  0.335126  1
