# generated using pymatgen
data_Tl3Ir3RhPbO13
_symmetry_space_group_name_H-M   'P 1'
_cell_length_a   7.29283839
_cell_length_b   7.31045399
_cell_length_c   7.29283919
_cell_angle_alpha   60.30688824
_cell_angle_beta   60.16398793
_cell_angle_gamma   60.30689655
_symmetry_Int_Tables_number   1
_chemical_formula_structural   Tl3Ir3RhPbO13
_chemical_formula_sum   'Tl3 Ir3 Rh1 Pb1 O13'
_cell_volume   276.54252731
_cell_formula_units_Z   1
loop_
 _symmetry_equiv_pos_site_id
 _symmetry_equiv_pos_as_xyz
  1  'x, y, z'
loop_
 _atom_site_type_symbol
 _atom_site_label
 _atom_site_symmetry_multiplicity
 _atom_site_fract_x
 _atom_site_fract_y
 _atom_site_fract_z
 _atom_site_occupancy
  Tl  Tl0  1  0.997422  0.998103  0.997422  1
  Tl  Tl1  1  0.504813  0.998827  0.998304  1
  Tl  Tl2  1  0.998304  0.998827  0.504813  1
  Ir  Ir3  1  0.998088  0.501092  0.500492  1
  Ir  Ir4  1  0.500492  0.501092  0.998088  1
  Ir  Ir5  1  0.500887  0.997799  0.500887  1
  Rh  Rh6  1  0.500754  0.501152  0.500754  1
  Pb  Pb7  1  0.000619  0.498210  0.000619  1
  O  O8  1  0.831137  0.421719  0.422205  1
  O  O9  1  0.422310  0.823861  0.824908  1
  O  O10  1  0.422205  0.421719  0.831137  1
  O  O11  1  0.824908  0.823861  0.422310  1
  O  O12  1  0.826108  0.421449  0.826108  1
  O  O13  1  0.424112  0.828533  0.424112  1
  O  O14  1  0.168352  0.578551  0.578583  1
  O  O15  1  0.578313  0.175380  0.174540  1
  O  O16  1  0.578583  0.578551  0.168352  1
  O  O17  1  0.174540  0.175380  0.578313  1
  O  O18  1  0.173927  0.578748  0.173927  1
  O  O19  1  0.576828  0.170396  0.576828  1
  O  O20  1  0.122299  0.131750  0.122299  1
