# generated using pymatgen
data_CaCe(PPd)2
_symmetry_space_group_name_H-M   'P 1'
_cell_length_a   4.20465000
_cell_length_b   4.20464988
_cell_length_c   7.76228500
_cell_angle_alpha   90.00000000
_cell_angle_beta   90.00000000
_cell_angle_gamma   120.00001667
_symmetry_Int_Tables_number   1
_chemical_formula_structural   CaCe(PPd)2
_chemical_formula_sum   'Ca1 Ce1 P2 Pd2'
_cell_volume   118.84470356
_cell_formula_units_Z   1
loop_
 _symmetry_equiv_pos_site_id
 _symmetry_equiv_pos_as_xyz
  1  'x, y, z'
loop_
 _atom_site_type_symbol
 _atom_site_label
 _atom_site_symmetry_multiplicity
 _atom_site_fract_x
 _atom_site_fract_y
 _atom_site_fract_z
 _atom_site_occupancy
  Ca  Ca0  1  0.000000  0.000000  0.500000  1
  Ce  Ce1  1  0.000000  0.000000  0.000000  1
  P  P2  1  0.333333  0.666667  0.769608  1
  P  P3  1  0.666667  0.333333  0.230392  1
  Pd  Pd4  1  0.333333  0.666667  0.254560  1
  Pd  Pd5  1  0.666667  0.333333  0.745440  1
