# generated using pymatgen
data_Gd(Al5Os)2
_symmetry_space_group_name_H-M   'P 1'
_cell_length_a   6.86519847
_cell_length_b   6.86572489
_cell_length_c   9.16569100
_cell_angle_alpha   90.00000000
_cell_angle_beta   90.00000000
_cell_angle_gamma   96.56824133
_symmetry_Int_Tables_number   1
_chemical_formula_structural   Gd(Al5Os)2
_chemical_formula_sum   'Gd2 Al20 Os4'
_cell_volume   429.18520371
_cell_formula_units_Z   2
loop_
 _symmetry_equiv_pos_site_id
 _symmetry_equiv_pos_as_xyz
  1  'x, y, z'
loop_
 _atom_site_type_symbol
 _atom_site_label
 _atom_site_symmetry_multiplicity
 _atom_site_fract_x
 _atom_site_fract_y
 _atom_site_fract_z
 _atom_site_occupancy
  Gd  Gd0  1  0.872789  0.127074  0.750000  1
  Gd  Gd1  1  0.127211  0.872926  0.250000  1
  Al  Al2  1  0.413922  0.143398  0.750000  1
  Al  Al3  1  0.143358  0.413949  0.250000  1
  Al  Al4  1  0.586078  0.856602  0.250000  1
  Al  Al5  1  0.856642  0.586051  0.750000  1
  Al  Al6  1  0.519344  0.780745  0.750000  1
  Al  Al7  1  0.780718  0.519350  0.250000  1
  Al  Al8  1  0.480656  0.219255  0.250000  1
  Al  Al9  1  0.219282  0.480650  0.750000  1
  Al  Al10  1  0.842404  0.157583  0.399296  1
  Al  Al11  1  0.157596  0.842417  0.600704  1
  Al  Al12  1  0.842404  0.157583  0.100704  1
  Al  Al13  1  0.157596  0.842417  0.899296  1
  Al  Al14  1  0.623110  0.376884  0.548775  1
  Al  Al15  1  0.376890  0.623116  0.451225  1
  Al  Al16  1  0.623110  0.376884  0.951225  1
  Al  Al17  1  0.376890  0.623116  0.048775  1
  Al  Al18  1  0.774609  0.774537  0.999977  1
  Al  Al19  1  0.774609  0.774537  0.500023  1
  Al  Al20  1  0.225391  0.225463  0.000023  1
  Al  Al21  1  0.225391  0.225463  0.499977  1
  Os  Os22  1  0.500000  0.000000  0.000000  1
  Os  Os23  1  0.000000  0.500000  0.000000  1
  Os  Os24  1  0.500000  0.000000  0.500000  1
  Os  Os25  1  0.000000  0.500000  0.500000  1
