# generated using pymatgen
data_Rb4Hf6CI18
_symmetry_space_group_name_H-M   'P 1'
_cell_length_a   11.32359522
_cell_length_b   11.52609992
_cell_length_c   11.65640932
_cell_angle_alpha   118.34775243
_cell_angle_beta   100.30897909
_cell_angle_gamma   103.92939020
_symmetry_Int_Tables_number   1
_chemical_formula_structural   Rb4Hf6CI18
_chemical_formula_sum   'Rb4 Hf6 C1 I18'
_cell_volume   1220.56148624
_cell_formula_units_Z   1
loop_
 _symmetry_equiv_pos_site_id
 _symmetry_equiv_pos_as_xyz
  1  'x, y, z'
loop_
 _atom_site_type_symbol
 _atom_site_label
 _atom_site_symmetry_multiplicity
 _atom_site_fract_x
 _atom_site_fract_y
 _atom_site_fract_z
 _atom_site_occupancy
  Rb  Rb0  1  0.185281  0.724695  0.563227  1
  Rb  Rb1  1  0.847310  0.963067  0.773046  1
  Rb  Rb2  1  0.152690  0.036933  0.226954  1
  Rb  Rb3  1  0.814719  0.275305  0.436773  1
  Hf  Hf4  1  0.364987  0.450054  0.794524  1
  Hf  Hf5  1  0.376195  0.612456  0.117989  1
  Hf  Hf6  1  0.630948  0.713700  0.040519  1
  Hf  Hf7  1  0.635013  0.549946  0.205476  1
  Hf  Hf8  1  0.369052  0.286300  0.959481  1
  Hf  Hf9  1  0.623805  0.387544  0.882011  1
  C  C10  1  0.500000  0.500000  0.000000  1
  I  I11  1  0.813868  0.426343  0.107515  1
  I  I12  1  0.514837  0.697997  0.395138  1
  I  I13  1  0.185237  0.989042  0.902158  1
  I  I14  1  0.186132  0.573657  0.892485  1
  I  I15  1  0.822401  0.822705  0.301425  1
  I  I16  1  0.504126  0.301261  0.202630  1
  I  I17  1  0.792324  0.233546  0.720963  1
  I  I18  1  0.177599  0.177295  0.698575  1
  I  I19  1  0.507889  0.896971  0.190364  1
  I  I20  1  0.809330  0.623948  0.906610  1
  I  I21  1  0.207676  0.766454  0.279037  1
  I  I22  1  0.173441  0.380516  0.508587  1
  I  I23  1  0.495874  0.698739  0.797370  1
  I  I24  1  0.814763  0.010958  0.097842  1
  I  I25  1  0.485163  0.302003  0.604862  1
  I  I26  1  0.190670  0.376052  0.093390  1
  I  I27  1  0.826559  0.619484  0.491413  1
  I  I28  1  0.492111  0.103029  0.809636  1
