# generated using pymatgen
data_Zr6V5Re4Mo3
_symmetry_space_group_name_H-M   'P 1'
_cell_length_a   5.25272443
_cell_length_b   5.26637709
_cell_length_c   12.93065900
_cell_angle_alpha   90.07314319
_cell_angle_beta   90.09637065
_cell_angle_gamma   120.18217976
_symmetry_Int_Tables_number   1
_chemical_formula_structural   Zr6V5Re4Mo3
_chemical_formula_sum   'Zr6 V5 Re4 Mo3'
_cell_volume   309.20445626
_cell_formula_units_Z   1
loop_
 _symmetry_equiv_pos_site_id
 _symmetry_equiv_pos_as_xyz
  1  'x, y, z'
loop_
 _atom_site_type_symbol
 _atom_site_label
 _atom_site_symmetry_multiplicity
 _atom_site_fract_x
 _atom_site_fract_y
 _atom_site_fract_z
 _atom_site_occupancy
  Zr  Zr0  1  0.333801  0.665339  0.919016  1
  Zr  Zr1  1  0.000969  0.000063  0.247588  1
  Zr  Zr2  1  0.667651  0.332810  0.582447  1
  Zr  Zr3  1  0.332349  0.667190  0.667553  1
  Zr  Zr4  1  0.999031  0.999937  0.002411  1
  Zr  Zr5  1  0.666199  0.334661  0.330984  1
  V  V6  1  0.334285  0.669602  0.290071  1
  V  V7  1  0.665715  0.330398  0.959929  1
  V  V8  1  0.000000  0.500000  0.125000  1
  V  V9  1  0.666123  0.833463  0.455924  1
  V  V10  1  0.333877  0.166537  0.794076  1
  Re  Re11  1  0.500000  0.500000  0.125000  1
  Re  Re12  1  0.168926  0.833610  0.454771  1
  Re  Re13  1  0.831074  0.166390  0.795229  1
  Re  Re14  1  0.500000  0.000000  0.125000  1
  Mo  Mo15  1  0.168496  0.336190  0.455263  1
  Mo  Mo16  1  0.831504  0.663810  0.794737  1
  Mo  Mo17  1  0.000000  0.000000  0.625000  1
