# generated using pymatgen
data_Er4LuZn2Sb
_symmetry_space_group_name_H-M   'P 1'
_cell_length_a   8.44572854
_cell_length_b   8.44572787
_cell_length_c   8.44572848
_cell_angle_alpha   123.65574615
_cell_angle_beta   123.65574175
_cell_angle_gamma   83.77671766
_symmetry_Int_Tables_number   1
_chemical_formula_structural   Er4LuZn2Sb
_chemical_formula_sum   'Er8 Lu2 Zn4 Sb2'
_cell_volume   399.86526754
_cell_formula_units_Z   2
loop_
 _symmetry_equiv_pos_site_id
 _symmetry_equiv_pos_as_xyz
  1  'x, y, z'
loop_
 _atom_site_type_symbol
 _atom_site_label
 _atom_site_symmetry_multiplicity
 _atom_site_fract_x
 _atom_site_fract_y
 _atom_site_fract_z
 _atom_site_occupancy
  Er  Er0  1  0.011044  0.511044  0.809761  1
  Er  Er1  1  0.701283  0.201283  0.190239  1
  Er  Er2  1  0.511044  0.701283  0.500000  1
  Er  Er3  1  0.201283  0.011044  0.500000  1
  Er  Er4  1  0.988956  0.488956  0.190239  1
  Er  Er5  1  0.298717  0.798717  0.809761  1
  Er  Er6  1  0.488956  0.298717  0.500000  1
  Er  Er7  1  0.798717  0.988956  0.500000  1
  Lu  Lu8  1  0.000000  0.000000  0.000000  1
  Lu  Lu9  1  0.500000  0.500000  0.000000  1
  Zn  Zn10  1  0.637006  0.137006  0.774011  1
  Zn  Zn11  1  0.362994  0.862994  0.225989  1
  Zn  Zn12  1  0.137006  0.362994  0.500000  1
  Zn  Zn13  1  0.862994  0.637006  0.500000  1
  Sb  Sb14  1  0.750000  0.750000  0.000000  1
  Sb  Sb15  1  0.250000  0.250000  0.000000  1
