# generated using pymatgen
data_Nb12Al3Ga(PtN)4
_symmetry_space_group_name_H-M   'P 1'
_cell_length_a   7.07210360
_cell_length_b   7.07210360
_cell_length_c   7.07210360
_cell_angle_alpha   90.08173277
_cell_angle_beta   89.91826723
_cell_angle_gamma   89.91826723
_symmetry_Int_Tables_number   1
_chemical_formula_structural   Nb12Al3Ga(PtN)4
_chemical_formula_sum   'Nb12 Al3 Ga1 Pt4 N4'
_cell_volume   353.70770095
_cell_formula_units_Z   1
loop_
 _symmetry_equiv_pos_site_id
 _symmetry_equiv_pos_as_xyz
  1  'x, y, z'
loop_
 _atom_site_type_symbol
 _atom_site_label
 _atom_site_symmetry_multiplicity
 _atom_site_fract_x
 _atom_site_fract_y
 _atom_site_fract_z
 _atom_site_occupancy
  Nb  Nb0  1  0.789514  0.955435  0.376393  1
  Nb  Nb1  1  0.709815  0.044702  0.876586  1
  Nb  Nb2  1  0.210360  0.455495  0.124105  1
  Nb  Nb3  1  0.290308  0.544251  0.623605  1
  Nb  Nb4  1  0.955298  0.376586  0.790185  1
  Nb  Nb5  1  0.044565  0.876393  0.710486  1
  Nb  Nb6  1  0.455749  0.123605  0.209692  1
  Nb  Nb7  1  0.544505  0.624105  0.289640  1
  Nb  Nb8  1  0.375895  0.789640  0.955495  1
  Nb  Nb9  1  0.876395  0.709692  0.044251  1
  Nb  Nb10  1  0.123607  0.210486  0.455435  1
  Nb  Nb11  1  0.623414  0.290185  0.544702  1
  Al  Al12  1  0.428246  0.928203  0.571540  1
  Al  Al13  1  0.928460  0.571754  0.428203  1
  Al  Al14  1  0.071797  0.071540  0.071754  1
  Ga  Ga15  1  0.570746  0.429254  0.929254  1
  Pt  Pt16  1  0.178035  0.821965  0.321965  1
  Pt  Pt17  1  0.320205  0.176306  0.821205  1
  Pt  Pt18  1  0.823694  0.321205  0.179795  1
  Pt  Pt19  1  0.678795  0.679795  0.676306  1
  N  N20  1  0.875598  0.124402  0.624402  1
  N  N21  1  0.624075  0.875353  0.123723  1
  N  N22  1  0.124647  0.623723  0.875925  1
  N  N23  1  0.376277  0.375925  0.375353  1
