# generated using pymatgen
data_DyEr3BCl6
_symmetry_space_group_name_H-M   'P 1'
_cell_length_a   3.83478200
_cell_length_b   12.57298778
_cell_length_c   13.03534445
_cell_angle_alpha   90.19275505
_cell_angle_beta   90.00000000
_cell_angle_gamma   90.00000000
_symmetry_Int_Tables_number   1
_chemical_formula_structural   DyEr3BCl6
_chemical_formula_sum   'Dy2 Er6 B2 Cl12'
_cell_volume   628.49123817
_cell_formula_units_Z   2
loop_
 _symmetry_equiv_pos_site_id
 _symmetry_equiv_pos_as_xyz
  1  'x, y, z'
loop_
 _atom_site_type_symbol
 _atom_site_label
 _atom_site_symmetry_multiplicity
 _atom_site_fract_x
 _atom_site_fract_y
 _atom_site_fract_z
 _atom_site_occupancy
  Dy  Dy0  1  0.500000  0.126574  0.851045  1
  Dy  Dy1  1  0.500000  0.873426  0.148955  1
  Er  Er2  1  0.000000  0.105515  0.083589  1
  Er  Er3  1  0.000000  0.894485  0.916411  1
  Er  Er4  1  0.000000  0.605343  0.416563  1
  Er  Er5  1  0.000000  0.394657  0.583437  1
  Er  Er6  1  0.500000  0.626025  0.648255  1
  Er  Er7  1  0.500000  0.373975  0.351745  1
  B  B8  1  0.500000  0.000000  0.000000  1
  B  B9  1  0.500000  0.500000  0.500000  1
  Cl  Cl10  1  0.500000  0.269062  0.681486  1
  Cl  Cl11  1  0.500000  0.730938  0.318514  1
  Cl  Cl12  1  0.500000  0.767918  0.817144  1
  Cl  Cl13  1  0.500000  0.232082  0.182856  1
  Cl  Cl14  1  0.000000  0.257430  0.930689  1
  Cl  Cl15  1  0.000000  0.742570  0.069311  1
  Cl  Cl16  1  0.000000  0.477924  0.244073  1
  Cl  Cl17  1  0.000000  0.522076  0.755927  1
  Cl  Cl18  1  0.000000  0.979782  0.257129  1
  Cl  Cl19  1  0.000000  0.020218  0.742871  1
  Cl  Cl20  1  0.000000  0.244134  0.429171  1
  Cl  Cl21  1  0.000000  0.755866  0.570829  1
