# generated using pymatgen
data_Y6Hf2Fe(Co5P4)3
_symmetry_space_group_name_H-M   'P 1'
_cell_length_a   3.71417400
_cell_length_b   10.67073000
_cell_length_c   12.35085600
_cell_angle_alpha   90.00000000
_cell_angle_beta   90.00000000
_cell_angle_gamma   90.00000000
_symmetry_Int_Tables_number   1
_chemical_formula_structural   Y6Hf2Fe(Co5P4)3
_chemical_formula_sum   'Y6 Hf2 Fe1 Co15 P12'
_cell_volume   489.50083270
_cell_formula_units_Z   1
loop_
 _symmetry_equiv_pos_site_id
 _symmetry_equiv_pos_as_xyz
  1  'x, y, z'
loop_
 _atom_site_type_symbol
 _atom_site_label
 _atom_site_symmetry_multiplicity
 _atom_site_fract_x
 _atom_site_fract_y
 _atom_site_fract_z
 _atom_site_occupancy
  Y  Y0  1  0.000000  0.500000  0.528057  1
  Y  Y1  1  0.500000  0.000000  0.471844  1
  Y  Y2  1  0.500000  0.821447  0.204581  1
  Y  Y3  1  0.500000  0.178553  0.204581  1
  Y  Y4  1  0.000000  0.677574  0.795437  1
  Y  Y5  1  0.000000  0.322426  0.795437  1
  Hf  Hf6  1  0.500000  0.500000  0.156378  1
  Hf  Hf7  1  0.000000  0.000000  0.843051  1
  Fe  Fe8  1  0.000000  0.500000  0.987093  1
  Co  Co9  1  0.500000  0.500000  0.702907  1
  Co  Co10  1  0.000000  0.000000  0.297017  1
  Co  Co11  1  0.500000  0.000000  0.013198  1
  Co  Co12  1  0.500000  0.329748  0.994193  1
  Co  Co13  1  0.500000  0.670252  0.994193  1
  Co  Co14  1  0.000000  0.166919  0.006592  1
  Co  Co15  1  0.000000  0.833081  0.006592  1
  Co  Co16  1  0.500000  0.295414  0.433235  1
  Co  Co17  1  0.500000  0.704586  0.433235  1
  Co  Co18  1  0.000000  0.204627  0.567265  1
  Co  Co19  1  0.000000  0.795373  0.567265  1
  Co  Co20  1  0.500000  0.878494  0.702679  1
  Co  Co21  1  0.500000  0.121506  0.702679  1
  Co  Co22  1  0.000000  0.622058  0.297130  1
  Co  Co23  1  0.000000  0.377942  0.297130  1
  P  P24  1  0.500000  0.500000  0.885772  1
  P  P25  1  0.000000  0.000000  0.116604  1
  P  P26  1  0.500000  0.500000  0.360823  1
  P  P27  1  0.000000  0.000000  0.638931  1
  P  P28  1  0.500000  0.309575  0.615801  1
  P  P29  1  0.500000  0.690425  0.615801  1
  P  P30  1  0.000000  0.190428  0.384359  1
  P  P31  1  0.000000  0.809572  0.384359  1
  P  P32  1  0.500000  0.838984  0.893411  1
  P  P33  1  0.500000  0.161016  0.893411  1
  P  P34  1  0.000000  0.660254  0.104481  1
  P  P35  1  0.000000  0.339746  0.104481  1
