# generated using pymatgen
data_SrH7Ir
_symmetry_space_group_name_H-M   'P 1'
_cell_length_a   4.96532429
_cell_length_b   4.96478313
_cell_length_c   8.40073800
_cell_angle_alpha   90.00000000
_cell_angle_beta   90.00000000
_cell_angle_gamma   63.00276885
_symmetry_Int_Tables_number   1
_chemical_formula_structural   SrH7Ir
_chemical_formula_sum   'Sr2 H14 Ir2'
_cell_volume   184.52572402
_cell_formula_units_Z   2
loop_
 _symmetry_equiv_pos_site_id
 _symmetry_equiv_pos_as_xyz
  1  'x, y, z'
loop_
 _atom_site_type_symbol
 _atom_site_label
 _atom_site_symmetry_multiplicity
 _atom_site_fract_x
 _atom_site_fract_y
 _atom_site_fract_z
 _atom_site_occupancy
  Sr  Sr0  1  0.000000  0.000000  0.000000  1
  Sr  Sr1  1  0.000000  0.000000  0.500000  1
  H  H2  1  0.839920  0.840908  0.250000  1
  H  H3  1  0.160080  0.159092  0.750000  1
  H  H4  1  0.689384  0.689310  0.441442  1
  H  H5  1  0.310616  0.310690  0.941442  1
  H  H6  1  0.310616  0.310690  0.558558  1
  H  H7  1  0.689384  0.689310  0.058558  1
  H  H8  1  0.481723  0.481622  0.351039  1
  H  H9  1  0.518277  0.518378  0.851039  1
  H  H10  1  0.518277  0.518378  0.648961  1
  H  H11  1  0.481723  0.481622  0.148961  1
  H  H12  1  0.331242  0.973641  0.250000  1
  H  H13  1  0.668758  0.026359  0.750000  1
  H  H14  1  0.973714  0.331536  0.250000  1
  H  H15  1  0.026286  0.668464  0.750000  1
  Ir  Ir16  1  0.644577  0.644717  0.250000  1
  Ir  Ir17  1  0.355423  0.355283  0.750000  1
