# generated using pymatgen
data_Dy5Nb3Co16(SiP)6
_symmetry_space_group_name_H-M   'P 1'
_cell_length_a   12.28910500
_cell_length_b   12.28910415
_cell_length_c   3.73884600
_cell_angle_alpha   90.00000000
_cell_angle_beta   90.00000000
_cell_angle_gamma   119.99999422
_symmetry_Int_Tables_number   1
_chemical_formula_structural   Dy5Nb3Co16(SiP)6
_chemical_formula_sum   'Dy5 Nb3 Co16 Si6 P6'
_cell_volume   488.99983652
_cell_formula_units_Z   1
loop_
 _symmetry_equiv_pos_site_id
 _symmetry_equiv_pos_as_xyz
  1  'x, y, z'
loop_
 _atom_site_type_symbol
 _atom_site_label
 _atom_site_symmetry_multiplicity
 _atom_site_fract_x
 _atom_site_fract_y
 _atom_site_fract_z
 _atom_site_occupancy
  Dy  Dy0  1  0.816000  0.000000  0.500000  1
  Dy  Dy1  1  0.000000  0.816000  0.500000  1
  Dy  Dy2  1  0.184000  0.184000  0.500000  1
  Dy  Dy3  1  0.333333  0.666667  0.000000  1
  Dy  Dy4  1  0.666667  0.333333  0.000000  1
  Nb  Nb5  1  0.440187  0.000000  0.000000  1
  Nb  Nb6  1  0.000000  0.440187  0.000000  1
  Nb  Nb7  1  0.559813  0.559813  0.000000  1
  Co  Co8  1  0.276058  0.000000  0.500000  1
  Co  Co9  1  0.000000  0.276058  0.500000  1
  Co  Co10  1  0.723942  0.723942  0.500000  1
  Co  Co11  1  0.629361  0.807829  0.000000  1
  Co  Co12  1  0.192171  0.821532  0.000000  1
  Co  Co13  1  0.178468  0.370639  0.000000  1
  Co  Co14  1  0.370639  0.178468  0.000000  1
  Co  Co15  1  0.807829  0.629361  0.000000  1
  Co  Co16  1  0.821532  0.192171  0.000000  1
  Co  Co17  1  0.523184  0.879313  0.500000  1
  Co  Co18  1  0.120687  0.643871  0.500000  1
  Co  Co19  1  0.356129  0.476816  0.500000  1
  Co  Co20  1  0.476816  0.356129  0.500000  1
  Co  Co21  1  0.879313  0.523184  0.500000  1
  Co  Co22  1  0.643871  0.120687  0.500000  1
  Co  Co23  1  0.000000  0.000000  0.000000  1
  Si  Si24  1  0.522547  0.691497  0.500000  1
  Si  Si25  1  0.308503  0.831050  0.500000  1
  Si  Si26  1  0.168950  0.477453  0.500000  1
  Si  Si27  1  0.477453  0.168950  0.500000  1
  Si  Si28  1  0.691497  0.522547  0.500000  1
  Si  Si29  1  0.831050  0.308503  0.500000  1
  P  P30  1  0.180497  0.000000  0.000000  1
  P  P31  1  0.000000  0.180497  0.000000  1
  P  P32  1  0.819503  0.819503  0.000000  1
  P  P33  1  0.642744  0.000000  0.000000  1
  P  P34  1  0.000000  0.642744  0.000000  1
  P  P35  1  0.357256  0.357256  0.000000  1
