# generated using pymatgen
data_Lu4MnAlB12
_symmetry_space_group_name_H-M   'P 1'
_cell_length_a   3.52641500
_cell_length_b   9.03827201
_cell_length_c   11.37558899
_cell_angle_alpha   89.88598161
_cell_angle_beta   90.00000000
_cell_angle_gamma   90.00000000
_symmetry_Int_Tables_number   1
_chemical_formula_structural   Lu4MnAlB12
_chemical_formula_sum   'Lu8 Mn2 Al2 B24'
_cell_volume   362.56999415
_cell_formula_units_Z   2
loop_
 _symmetry_equiv_pos_site_id
 _symmetry_equiv_pos_as_xyz
  1  'x, y, z'
loop_
 _atom_site_type_symbol
 _atom_site_label
 _atom_site_symmetry_multiplicity
 _atom_site_fract_x
 _atom_site_fract_y
 _atom_site_fract_z
 _atom_site_occupancy
  Lu  Lu0  1  0.000000  0.328923  0.417855  1
  Lu  Lu1  1  0.000000  0.671077  0.582145  1
  Lu  Lu2  1  0.000000  0.818492  0.088596  1
  Lu  Lu3  1  0.000000  0.181508  0.911404  1
  Lu  Lu4  1  0.000000  0.937112  0.371916  1
  Lu  Lu5  1  0.000000  0.062888  0.628084  1
  Lu  Lu6  1  0.000000  0.447216  0.131283  1
  Lu  Lu7  1  0.000000  0.552784  0.868717  1
  Mn  Mn8  1  0.000000  0.639261  0.321746  1
  Mn  Mn9  1  0.000000  0.360739  0.678254  1
  Al  Al10  1  0.000000  0.138667  0.178773  1
  Al  Al11  1  0.000000  0.861333  0.821227  1
  B  B12  1  0.500000  0.553534  0.432370  1
  B  B13  1  0.500000  0.446466  0.567630  1
  B  B14  1  0.500000  0.050792  0.063987  1
  B  B15  1  0.500000  0.949208  0.936013  1
  B  B16  1  0.500000  0.746614  0.418028  1
  B  B17  1  0.500000  0.253386  0.581972  1
  B  B18  1  0.500000  0.251366  0.078945  1
  B  B19  1  0.500000  0.748634  0.921055  1
  B  B20  1  0.500000  0.790724  0.265299  1
  B  B21  1  0.500000  0.209276  0.734701  1
  B  B22  1  0.500000  0.295178  0.238393  1
  B  B23  1  0.500000  0.704822  0.761607  1
  B  B24  1  0.500000  0.631179  0.186745  1
  B  B25  1  0.500000  0.368821  0.813255  1
  B  B26  1  0.500000  0.132141  0.318693  1
  B  B27  1  0.500000  0.867859  0.681307  1
  B  B28  1  0.500000  0.978645  0.212296  1
  B  B29  1  0.500000  0.021355  0.787704  1
  B  B30  1  0.500000  0.483716  0.289017  1
  B  B31  1  0.500000  0.516284  0.710983  1
  B  B32  1  0.500000  0.603037  0.028161  1
  B  B33  1  0.500000  0.396963  0.971839  1
  B  B34  1  0.500000  0.103259  0.470742  1
  B  B35  1  0.500000  0.896741  0.529258  1
