# generated using pymatgen
data_KU2Tl7S10
_symmetry_space_group_name_H-M   'P 1'
_cell_length_a   7.74728242
_cell_length_b   11.51356321
_cell_length_c   7.61020300
_cell_angle_alpha   101.35293798
_cell_angle_beta   102.29381919
_cell_angle_gamma   110.40112979
_symmetry_Int_Tables_number   1
_chemical_formula_structural   KU2Tl7S10
_chemical_formula_sum   'K1 U2 Tl7 S10'
_cell_volume   593.79382699
_cell_formula_units_Z   1
loop_
 _symmetry_equiv_pos_site_id
 _symmetry_equiv_pos_as_xyz
  1  'x, y, z'
loop_
 _atom_site_type_symbol
 _atom_site_label
 _atom_site_symmetry_multiplicity
 _atom_site_fract_x
 _atom_site_fract_y
 _atom_site_fract_z
 _atom_site_occupancy
  K  K0  1  0.999932  0.999943  0.499967  1
  U  U1  1  0.190287  0.193954  0.100854  1
  U  U2  1  0.809642  0.805970  0.899119  1
  Tl  Tl3  1  0.000166  0.500078  0.000030  1
  Tl  Tl4  1  0.398334  0.904561  0.203277  1
  Tl  Tl5  1  0.599089  0.598594  0.296125  1
  Tl  Tl6  1  0.779463  0.299638  0.403695  1
  Tl  Tl7  1  0.220552  0.700436  0.596308  1
  Tl  Tl8  1  0.400934  0.401409  0.703883  1
  Tl  Tl9  1  0.601689  0.095481  0.796759  1
  S  S10  1  0.521139  0.311333  0.064927  1
  S  S11  1  0.842633  0.036672  0.105406  1
  S  S12  1  0.973497  0.760697  0.185316  1
  S  S13  1  0.185436  0.394958  0.303638  1
  S  S14  1  0.361552  0.158410  0.392883  1
  S  S15  1  0.638383  0.841606  0.606990  1
  S  S16  1  0.814565  0.604936  0.696265  1
  S  S17  1  0.026590  0.239279  0.814835  1
  S  S18  1  0.157460  0.963438  0.894664  1
  S  S19  1  0.478661  0.688605  0.935057  1
