# generated using pymatgen
data_Lu2Ta3Nb(B2Ru5)2
_symmetry_space_group_name_H-M   'P 1'
_cell_length_a   9.51823871
_cell_length_b   9.51823867
_cell_length_c   3.08052300
_cell_angle_alpha   90.00000000
_cell_angle_beta   90.00000000
_cell_angle_gamma   90.31493422
_symmetry_Int_Tables_number   1
_chemical_formula_structural   Lu2Ta3Nb(B2Ru5)2
_chemical_formula_sum   'Lu2 Ta3 Nb1 B4 Ru10'
_cell_volume   279.08151870
_cell_formula_units_Z   1
loop_
 _symmetry_equiv_pos_site_id
 _symmetry_equiv_pos_as_xyz
  1  'x, y, z'
loop_
 _atom_site_type_symbol
 _atom_site_label
 _atom_site_symmetry_multiplicity
 _atom_site_fract_x
 _atom_site_fract_y
 _atom_site_fract_z
 _atom_site_occupancy
  Lu  Lu0  1  0.824058  0.675981  0.000000  1
  Lu  Lu1  1  0.175981  0.324058  0.000000  1
  Ta  Ta2  1  0.676284  0.176284  0.000000  1
  Ta  Ta3  1  0.499874  0.500022  0.000000  1
  Ta  Ta4  1  0.000022  0.999874  0.000000  1
  Nb  Nb5  1  0.323909  0.823909  0.000000  1
  B  B6  1  0.621220  0.878652  0.000000  1
  B  B7  1  0.378652  0.121220  0.000000  1
  B  B8  1  0.120359  0.620359  0.000000  1
  B  B9  1  0.879727  0.379727  0.000000  1
  Ru  Ru10  1  0.561972  0.721911  0.500000  1
  Ru  Ru11  1  0.438955  0.278074  0.500000  1
  Ru  Ru12  1  0.078929  0.784733  0.500000  1
  Ru  Ru13  1  0.919844  0.214941  0.500000  1
  Ru  Ru14  1  0.284733  0.578929  0.500000  1
  Ru  Ru15  1  0.714941  0.419844  0.500000  1
  Ru  Ru16  1  0.221911  0.061972  0.500000  1
  Ru  Ru17  1  0.778074  0.938955  0.500000  1
  Ru  Ru18  1  0.500808  0.000808  0.500000  1
  Ru  Ru19  1  0.999746  0.499746  0.500000  1
