# generated using pymatgen
data_La2Pr4(Ir5Rh)3
_symmetry_space_group_name_H-M   'P 1'
_cell_length_a   5.40339400
_cell_length_b   5.40339309
_cell_length_c   17.69810300
_cell_angle_alpha   90.00000000
_cell_angle_beta   90.00000000
_cell_angle_gamma   119.99999331
_symmetry_Int_Tables_number   1
_chemical_formula_structural   La2Pr4(Ir5Rh)3
_chemical_formula_sum   'La2 Pr4 Ir15 Rh3'
_cell_volume   447.49746424
_cell_formula_units_Z   1
loop_
 _symmetry_equiv_pos_site_id
 _symmetry_equiv_pos_as_xyz
  1  'x, y, z'
loop_
 _atom_site_type_symbol
 _atom_site_label
 _atom_site_symmetry_multiplicity
 _atom_site_fract_x
 _atom_site_fract_y
 _atom_site_fract_z
 _atom_site_occupancy
  La  La0  1  0.333333  0.666667  0.750000  1
  La  La1  1  0.666667  0.333333  0.250000  1
  Pr  Pr2  1  0.333333  0.666667  0.541191  1
  Pr  Pr3  1  0.666667  0.333333  0.041032  1
  Pr  Pr4  1  0.666667  0.333333  0.458968  1
  Pr  Pr5  1  0.333333  0.666667  0.958809  1
  Ir  Ir6  1  0.166542  0.333084  0.127643  1
  Ir  Ir7  1  0.833373  0.666748  0.627597  1
  Ir  Ir8  1  0.666916  0.833458  0.127643  1
  Ir  Ir9  1  0.166542  0.833458  0.127643  1
  Ir  Ir10  1  0.833373  0.166627  0.627597  1
  Ir  Ir11  1  0.333252  0.166627  0.627597  1
  Ir  Ir12  1  0.833373  0.666748  0.872403  1
  Ir  Ir13  1  0.833373  0.166627  0.872403  1
  Ir  Ir14  1  0.333252  0.166627  0.872403  1
  Ir  Ir15  1  0.666916  0.833458  0.372357  1
  Ir  Ir16  1  0.166542  0.833458  0.372357  1
  Ir  Ir17  1  0.166542  0.333084  0.372357  1
  Ir  Ir18  1  0.000000  0.000000  0.250000  1
  Ir  Ir19  1  0.000000  0.000000  0.999763  1
  Ir  Ir20  1  0.000000  0.000000  0.500237  1
  Rh  Rh21  1  0.000000  0.000000  0.750000  1
  Rh  Rh22  1  0.333333  0.666667  0.250000  1
  Rh  Rh23  1  0.666667  0.333333  0.750000  1
