# generated using pymatgen
data_Dy18Lu2Bi3Pb13
_symmetry_space_group_name_H-M   'P 1'
_cell_length_a   8.28267125
_cell_length_b   15.62545476
_cell_length_c   8.30949400
_cell_angle_alpha   90.12286800
_cell_angle_beta   89.94197559
_cell_angle_gamma   89.74423446
_symmetry_Int_Tables_number   1
_chemical_formula_structural   Dy18Lu2Bi3Pb13
_chemical_formula_sum   'Dy18 Lu2 Bi3 Pb13'
_cell_volume   1075.40515936
_cell_formula_units_Z   1
loop_
 _symmetry_equiv_pos_site_id
 _symmetry_equiv_pos_as_xyz
  1  'x, y, z'
loop_
 _atom_site_type_symbol
 _atom_site_label
 _atom_site_symmetry_multiplicity
 _atom_site_fract_x
 _atom_site_fract_y
 _atom_site_fract_z
 _atom_site_occupancy
  Dy  Dy0  1  0.617868  0.621013  0.160798  1
  Dy  Dy1  1  0.114683  0.878737  0.341677  1
  Dy  Dy2  1  0.384219  0.122264  0.842969  1
  Dy  Dy3  1  0.881593  0.378504  0.656728  1
  Dy  Dy4  1  0.377453  0.378838  0.841789  1
  Dy  Dy5  1  0.879493  0.121062  0.659818  1
  Dy  Dy6  1  0.620369  0.879829  0.159158  1
  Dy  Dy7  1  0.120444  0.621005  0.341341  1
  Dy  Dy8  1  0.451470  0.604315  0.666461  1
  Dy  Dy9  1  0.943450  0.892929  0.831168  1
  Dy  Dy10  1  0.556398  0.107247  0.331381  1
  Dy  Dy11  1  0.049831  0.395922  0.174444  1
  Dy  Dy12  1  0.542836  0.397218  0.331857  1
  Dy  Dy13  1  0.041917  0.104744  0.169023  1
  Dy  Dy14  1  0.458732  0.895717  0.669940  1
  Dy  Dy15  1  0.960255  0.603000  0.823883  1
  Dy  Dy16  1  0.786636  0.749357  0.497963  1
  Dy  Dy17  1  0.286483  0.746685  0.000808  1
  Lu  Lu18  1  0.214148  0.252743  0.502188  1
  Lu  Lu19  1  0.713854  0.248415  0.998859  1
  Bi  Bi20  1  0.725108  0.453441  0.975207  1
  Bi  Bi21  1  0.228377  0.046876  0.522311  1
  Bi  Bi22  1  0.271201  0.954354  0.022135  1
  Pb  Pb23  1  0.776494  0.543696  0.472198  1
  Pb  Pb24  1  0.277215  0.543415  0.029186  1
  Pb  Pb25  1  0.776924  0.956052  0.472398  1
  Pb  Pb26  1  0.722093  0.044948  0.972763  1
  Pb  Pb27  1  0.220477  0.455545  0.530356  1
  Pb  Pb28  1  0.423652  0.752420  0.370323  1
  Pb  Pb29  1  0.923493  0.749041  0.128372  1
  Pb  Pb30  1  0.574625  0.250893  0.630337  1
  Pb  Pb31  1  0.074454  0.249207  0.870918  1
  Pb  Pb32  1  0.643308  0.748631  0.848347  1
  Pb  Pb33  1  0.144974  0.751469  0.651211  1
  Pb  Pb34  1  0.357351  0.249774  0.154527  1
  Pb  Pb35  1  0.858118  0.250698  0.347162  1
