# generated using pymatgen
data_Nd20Si9Te7
_symmetry_space_group_name_H-M   'P 1'
_cell_length_a   8.05804394
_cell_length_b   8.11985652
_cell_length_c   15.57221500
_cell_angle_alpha   90.10047407
_cell_angle_beta   89.73079991
_cell_angle_gamma   90.00604645
_symmetry_Int_Tables_number   1
_chemical_formula_structural   Nd20Si9Te7
_chemical_formula_sum   'Nd20 Si9 Te7'
_cell_volume   1018.87971178
_cell_formula_units_Z   1
loop_
 _symmetry_equiv_pos_site_id
 _symmetry_equiv_pos_as_xyz
  1  'x, y, z'
loop_
 _atom_site_type_symbol
 _atom_site_label
 _atom_site_symmetry_multiplicity
 _atom_site_fract_x
 _atom_site_fract_y
 _atom_site_fract_z
 _atom_site_occupancy
  Nd  Nd0  1  0.239530  0.999488  0.751516  1
  Nd  Nd1  1  0.761114  0.000791  0.247140  1
  Nd  Nd2  1  0.261035  0.497365  0.242661  1
  Nd  Nd3  1  0.739277  0.501897  0.750781  1
  Nd  Nd4  1  0.069585  0.672838  0.622036  1
  Nd  Nd5  1  0.930369  0.324954  0.377247  1
  Nd  Nd6  1  0.432204  0.173380  0.376201  1
  Nd  Nd7  1  0.947087  0.329779  0.115491  1
  Nd  Nd8  1  0.570487  0.826564  0.624737  1
  Nd  Nd9  1  0.076497  0.667526  0.886191  1
  Nd  Nd10  1  0.563754  0.825093  0.879802  1
  Nd  Nd11  1  0.433047  0.184963  0.119435  1
  Nd  Nd12  1  0.412167  0.328846  0.624354  1
  Nd  Nd13  1  0.586411  0.672296  0.374911  1
  Nd  Nd14  1  0.085328  0.828519  0.373464  1
  Nd  Nd15  1  0.574658  0.667387  0.119588  1
  Nd  Nd16  1  0.911286  0.170927  0.627254  1
  Nd  Nd17  1  0.403496  0.339468  0.883980  1
  Nd  Nd18  1  0.912415  0.172322  0.875415  1
  Nd  Nd19  1  0.090804  0.815153  0.122753  1
  Si  Si20  1  0.120933  0.384084  0.751277  1
  Si  Si21  1  0.874439  0.612612  0.249032  1
  Si  Si22  1  0.378529  0.886621  0.248712  1
  Si  Si23  1  0.616597  0.119153  0.752711  1
  Si  Si24  1  0.358638  0.621603  0.751505  1
  Si  Si25  1  0.646487  0.381670  0.248511  1
  Si  Si26  1  0.143896  0.117244  0.248440  1
  Si  Si27  1  0.861219  0.876885  0.752468  1
  Si  Si28  1  0.256877  0.506065  0.048846  1
  Te  Te29  1  0.244188  0.003040  0.543333  1
  Te  Te30  1  0.755144  0.996309  0.455784  1
  Te  Te31  1  0.254728  0.503658  0.454049  1
  Te  Te32  1  0.757577  0.993166  0.042310  1
  Te  Te33  1  0.744214  0.495961  0.543364  1
  Te  Te34  1  0.241917  0.007783  0.958221  1
  Te  Te35  1  0.744069  0.494591  0.956485  1
