# generated using pymatgen
data_KLiHo(P3Pd10)2
_symmetry_space_group_name_H-M   'P 1'
_cell_length_a   8.65876144
_cell_length_b   8.65871929
_cell_length_c   8.65873100
_cell_angle_alpha   60.00047004
_cell_angle_beta   60.00043175
_cell_angle_gamma   59.99997907
_symmetry_Int_Tables_number   1
_chemical_formula_structural   KLiHo(P3Pd10)2
_chemical_formula_sum   'K1 Li1 Ho1 P6 Pd20'
_cell_volume   459.04110446
_cell_formula_units_Z   1
loop_
 _symmetry_equiv_pos_site_id
 _symmetry_equiv_pos_as_xyz
  1  'x, y, z'
loop_
 _atom_site_type_symbol
 _atom_site_label
 _atom_site_symmetry_multiplicity
 _atom_site_fract_x
 _atom_site_fract_y
 _atom_site_fract_z
 _atom_site_occupancy
  K  K0  1  0.250000  0.250001  0.250000  1
  Li  Li1  1  0.000000  0.000001  0.999999  1
  Ho  Ho2  1  0.750000  0.750000  0.750000  1
  P  P3  1  0.738818  0.261183  0.261183  1
  P  P4  1  0.261183  0.738817  0.738815  1
  P  P5  1  0.261183  0.738818  0.261185  1
  P  P6  1  0.738818  0.261182  0.738817  1
  P  P7  1  0.261182  0.261183  0.738819  1
  P  P8  1  0.738816  0.738818  0.261182  1
  Pd  Pd9  1  0.389720  0.389720  0.389718  1
  Pd  Pd10  1  0.617070  0.617073  0.617070  1
  Pd  Pd11  1  0.389718  0.389719  0.830845  1
  Pd  Pd12  1  0.389721  0.830839  0.389720  1
  Pd  Pd13  1  0.617071  0.617071  0.148789  1
  Pd  Pd14  1  0.617071  0.148786  0.617071  1
  Pd  Pd15  1  0.830843  0.389721  0.389718  1
  Pd  Pd16  1  0.148788  0.617072  0.617070  1
  Pd  Pd17  1  0.348796  0.995266  0.995268  1
  Pd  Pd18  1  0.660669  0.995266  0.995269  1
  Pd  Pd19  1  0.995268  0.348797  0.660668  1
  Pd  Pd20  1  0.995267  0.660671  0.348796  1
  Pd  Pd21  1  0.995267  0.348797  0.995267  1
  Pd  Pd22  1  0.660670  0.995267  0.348796  1
  Pd  Pd23  1  0.995266  0.660671  0.995267  1
  Pd  Pd24  1  0.348797  0.995266  0.660669  1
  Pd  Pd25  1  0.995268  0.995266  0.348796  1
  Pd  Pd26  1  0.995268  0.995266  0.660669  1
  Pd  Pd27  1  0.660668  0.348796  0.995268  1
  Pd  Pd28  1  0.348795  0.660670  0.995268  1
