# generated using pymatgen
data_Tb16MgAg3IrPt3
_symmetry_space_group_name_H-M   'P 1'
_cell_length_a   9.67699941
_cell_length_b   9.66735065
_cell_length_c   9.66735100
_cell_angle_alpha   60.00000222
_cell_angle_beta   60.03297995
_cell_angle_gamma   60.03298147
_symmetry_Int_Tables_number   1
_chemical_formula_structural   Tb16MgAg3IrPt3
_chemical_formula_sum   'Tb16 Mg1 Ag3 Ir1 Pt3'
_cell_volume   639.81880457
_cell_formula_units_Z   1
loop_
 _symmetry_equiv_pos_site_id
 _symmetry_equiv_pos_as_xyz
  1  'x, y, z'
loop_
 _atom_site_type_symbol
 _atom_site_label
 _atom_site_symmetry_multiplicity
 _atom_site_fract_x
 _atom_site_fract_y
 _atom_site_fract_z
 _atom_site_occupancy
  Tb  Tb0  1  0.192369  0.810921  0.810921  1
  Tb  Tb1  1  0.812834  0.187832  0.187832  1
  Tb  Tb2  1  0.068326  0.433677  0.064320  1
  Tb  Tb3  1  0.069479  0.643507  0.643507  1
  Tb  Tb4  1  0.645544  0.650079  0.650079  1
  Tb  Tb5  1  0.068326  0.064320  0.433677  1
  Tb  Tb6  1  0.192369  0.810921  0.185787  1
  Tb  Tb7  1  0.812834  0.811503  0.187832  1
  Tb  Tb8  1  0.812834  0.187832  0.811503  1
  Tb  Tb9  1  0.433462  0.065582  0.435375  1
  Tb  Tb10  1  0.433462  0.435375  0.065582  1
  Tb  Tb11  1  0.433462  0.065582  0.065582  1
  Tb  Tb12  1  0.068326  0.433677  0.433677  1
  Tb  Tb13  1  0.192369  0.185787  0.810921  1
  Tb  Tb14  1  0.645544  0.650079  0.054299  1
  Tb  Tb15  1  0.645544  0.054299  0.650079  1
  Mg  Mg16  1  0.712961  0.429014  0.429014  1
  Ag  Ag17  1  0.417055  0.415325  0.752296  1
  Ag  Ag18  1  0.417055  0.752296  0.415325  1
  Ag  Ag19  1  0.417055  0.415325  0.415325  1
  Ir  Ir20  1  0.429474  0.856843  0.856843  1
  Pt  Pt21  1  0.859773  0.854963  0.430303  1
  Pt  Pt22  1  0.859773  0.430303  0.854963  1
  Pt  Pt23  1  0.859773  0.854963  0.854963  1
