# generated using pymatgen
data_MgI8
_symmetry_space_group_name_H-M   'P 1'
_cell_length_a   8.41818200
_cell_length_b   8.83629626
_cell_length_c   16.65407712
_cell_angle_alpha   80.21836694
_cell_angle_beta   90.00000000
_cell_angle_gamma   90.00000000
_symmetry_Int_Tables_number   1
_chemical_formula_structural   MgI8
_chemical_formula_sum   'Mg2 I16'
_cell_volume   1220.81319285
_cell_formula_units_Z   2
loop_
 _symmetry_equiv_pos_site_id
 _symmetry_equiv_pos_as_xyz
  1  'x, y, z'
loop_
 _atom_site_type_symbol
 _atom_site_label
 _atom_site_symmetry_multiplicity
 _atom_site_fract_x
 _atom_site_fract_y
 _atom_site_fract_z
 _atom_site_occupancy
  Mg  Mg0  1  0.052715  0.930133  0.717820  1
  Mg  Mg1  1  0.947285  0.930133  0.217820  1
  I  I2  1  0.630261  0.615382  0.831951  1
  I  I3  1  0.369739  0.615382  0.331951  1
  I  I4  1  0.794828  0.755295  0.682496  1
  I  I5  1  0.205172  0.755295  0.182496  1
  I  I6  1  0.460286  0.461059  0.977635  1
  I  I7  1  0.539714  0.461059  0.477635  1
  I  I8  1  0.302856  0.840849  0.627743  1
  I  I9  1  0.697144  0.840849  0.127743  1
  I  I10  1  0.184813  0.881578  0.872583  1
  I  I11  1  0.815187  0.881578  0.372583  1
  I  I12  1  0.269250  0.342360  0.577250  1
  I  I13  1  0.730750  0.342360  0.077250  1
  I  I14  1  0.980696  0.236985  0.673091  1
  I  I15  1  0.019304  0.236985  0.173091  1
  I  I16  1  0.069712  0.870056  0.495383  1
  I  I17  1  0.930288  0.870056  0.995383  1
