# generated using pymatgen
data_InCu4AgO8
_symmetry_space_group_name_H-M   'P 1'
_cell_length_a   6.20888496
_cell_length_b   6.20888533
_cell_length_c   6.20888489
_cell_angle_alpha   125.36983395
_cell_angle_beta   125.36984954
_cell_angle_gamma   80.92634260
_symmetry_Int_Tables_number   1
_chemical_formula_structural   InCu4AgO8
_chemical_formula_sum   'In1 Cu4 Ag1 O8'
_cell_volume   153.38727773
_cell_formula_units_Z   1
loop_
 _symmetry_equiv_pos_site_id
 _symmetry_equiv_pos_as_xyz
  1  'x, y, z'
loop_
 _atom_site_type_symbol
 _atom_site_label
 _atom_site_symmetry_multiplicity
 _atom_site_fract_x
 _atom_site_fract_y
 _atom_site_fract_z
 _atom_site_occupancy
  In  In0  1  0.750000  0.250000  0.500000  1
  Cu  Cu1  1  0.872383  0.613581  0.236381  1
  Cu  Cu2  1  0.377200  0.636002  0.763619  1
  Cu  Cu3  1  0.363998  0.127617  0.741197  1
  Cu  Cu4  1  0.386419  0.622800  0.258803  1
  Ag  Ag5  1  0.000000  0.000000  0.000000  1
  O  O6  1  0.423242  0.841176  0.158727  1
  O  O7  1  0.682451  0.264516  0.841273  1
  O  O8  1  0.359873  0.421329  0.380064  1
  O  O9  1  0.041265  0.979810  0.619936  1
  O  O10  1  0.020190  0.640127  0.061456  1
  O  O11  1  0.578671  0.958735  0.938544  1
  O  O12  1  0.158824  0.317549  0.582066  1
  O  O13  1  0.735484  0.576758  0.417934  1
