# generated using pymatgen
data_BiOs3Pb4O13
_symmetry_space_group_name_H-M   'P 1'
_cell_length_a   7.69132648
_cell_length_b   7.69132685
_cell_length_c   7.69132528
_cell_angle_alpha   58.12057303
_cell_angle_beta   58.12057108
_cell_angle_gamma   58.12056470
_symmetry_Int_Tables_number   1
_chemical_formula_structural   BiOs3Pb4O13
_chemical_formula_sum   'Bi1 Os3 Pb4 O13'
_cell_volume   307.86660442
_cell_formula_units_Z   1
loop_
 _symmetry_equiv_pos_site_id
 _symmetry_equiv_pos_as_xyz
  1  'x, y, z'
loop_
 _atom_site_type_symbol
 _atom_site_label
 _atom_site_symmetry_multiplicity
 _atom_site_fract_x
 _atom_site_fract_y
 _atom_site_fract_z
 _atom_site_occupancy
  Bi  Bi0  1  0.500305  0.500305  0.500305  1
  Os  Os1  1  0.000136  0.500691  0.500691  1
  Os  Os2  1  0.500691  0.500691  0.000136  1
  Os  Os3  1  0.500691  0.000136  0.500691  1
  Pb  Pb4  1  0.998944  0.998944  0.998944  1
  Pb  Pb5  1  0.502271  0.004210  0.004210  1
  Pb  Pb6  1  0.004210  0.004210  0.502271  1
  Pb  Pb7  1  0.004210  0.502271  0.004210  1
  O  O8  1  0.882628  0.401709  0.401709  1
  O  O9  1  0.421171  0.798192  0.798192  1
  O  O10  1  0.401709  0.401709  0.882628  1
  O  O11  1  0.798192  0.798192  0.421171  1
  O  O12  1  0.798192  0.421171  0.798192  1
  O  O13  1  0.401709  0.882628  0.401709  1
  O  O14  1  0.130288  0.590594  0.590594  1
  O  O15  1  0.584940  0.197712  0.197712  1
  O  O16  1  0.590594  0.590594  0.130288  1
  O  O17  1  0.197712  0.197712  0.584940  1
  O  O18  1  0.197712  0.584940  0.197712  1
  O  O19  1  0.590594  0.130288  0.590594  1
  O  O20  1  0.118102  0.118102  0.118102  1
