# generated using pymatgen
data_TbDy7Hf11Si16Ir
_symmetry_space_group_name_H-M   'P 1'
_cell_length_a   7.26503727
_cell_length_b   7.26502652
_cell_length_c   13.23044002
_cell_angle_alpha   89.73687429
_cell_angle_beta   90.25483459
_cell_angle_gamma   89.94755371
_symmetry_Int_Tables_number   1
_chemical_formula_structural   TbDy7Hf11Si16Ir
_chemical_formula_sum   'Tb1 Dy7 Hf11 Si16 Ir1'
_cell_volume   698.29715578
_cell_formula_units_Z   1
loop_
 _symmetry_equiv_pos_site_id
 _symmetry_equiv_pos_as_xyz
  1  'x, y, z'
loop_
 _atom_site_type_symbol
 _atom_site_label
 _atom_site_symmetry_multiplicity
 _atom_site_fract_x
 _atom_site_fract_y
 _atom_site_fract_z
 _atom_site_occupancy
  Tb  Tb0  1  0.652954  0.005916  0.282676  1
  Dy  Dy1  1  0.997869  0.345500  0.210980  1
  Dy  Dy2  1  0.005806  0.652883  0.717295  1
  Dy  Dy3  1  0.155285  0.493896  0.465002  1
  Dy  Dy4  1  0.502041  0.848593  0.032793  1
  Dy  Dy5  1  0.848643  0.502095  0.967196  1
  Dy  Dy6  1  0.493866  0.155291  0.534996  1
  Dy  Dy7  1  0.345432  0.997780  0.789026  1
  Hf  Hf8  1  0.824481  0.824418  0.500065  1
  Hf  Hf9  1  0.322416  0.676425  0.247847  1
  Hf  Hf10  1  0.676495  0.322489  0.752142  1
  Hf  Hf11  1  0.145989  0.997766  0.371619  1
  Hf  Hf12  1  0.854154  0.003141  0.878542  1
  Hf  Hf13  1  0.502311  0.646952  0.626067  1
  Hf  Hf14  1  0.354223  0.496637  0.877464  1
  Hf  Hf15  1  0.496559  0.354275  0.122458  1
  Hf  Hf16  1  0.646979  0.502378  0.374006  1
  Hf  Hf17  1  0.997805  0.145886  0.628450  1
  Hf  Hf18  1  0.003175  0.854096  0.121382  1
  Si  Si19  1  0.358492  0.296154  0.314784  1
  Si  Si20  1  0.640353  0.704857  0.818670  1
  Si  Si21  1  0.206072  0.860991  0.567260  1
  Si  Si22  1  0.136834  0.789674  0.930983  1
  Si  Si23  1  0.789745  0.136853  0.068936  1
  Si  Si24  1  0.861160  0.206223  0.432871  1
  Si  Si25  1  0.296020  0.358646  0.685202  1
  Si  Si26  1  0.704897  0.640125  0.181285  1
  Si  Si27  1  0.291254  0.057209  0.179828  1
  Si  Si28  1  0.704151  0.949779  0.685974  1
  Si  Si29  1  0.449179  0.795823  0.434736  1
  Si  Si30  1  0.208288  0.554251  0.063317  1
  Si  Si31  1  0.554245  0.208284  0.936671  1
  Si  Si32  1  0.795961  0.449341  0.565354  1
  Si  Si33  1  0.057159  0.291493  0.820113  1
  Si  Si34  1  0.949897  0.704071  0.314019  1
  Ir  Ir35  1  0.169808  0.169808  0.999988  1
