# generated using pymatgen
data_Hf9TaNiW3
_symmetry_space_group_name_H-M   'P 1'
_cell_length_a   8.73178100
_cell_length_b   8.73178111
_cell_length_c   8.53521200
_cell_angle_alpha   90.00000000
_cell_angle_beta   90.00000000
_cell_angle_gamma   120.00000339
_symmetry_Int_Tables_number   1
_chemical_formula_structural   Hf9TaNiW3
_chemical_formula_sum   'Hf18 Ta2 Ni2 W6'
_cell_volume   563.57355257
_cell_formula_units_Z   2
loop_
 _symmetry_equiv_pos_site_id
 _symmetry_equiv_pos_as_xyz
  1  'x, y, z'
loop_
 _atom_site_type_symbol
 _atom_site_label
 _atom_site_symmetry_multiplicity
 _atom_site_fract_x
 _atom_site_fract_y
 _atom_site_fract_z
 _atom_site_occupancy
  Hf  Hf0  1  0.200511  0.799489  0.441715  1
  Hf  Hf1  1  0.200511  0.401024  0.441715  1
  Hf  Hf2  1  0.598976  0.799489  0.441715  1
  Hf  Hf3  1  0.799489  0.200511  0.558285  1
  Hf  Hf4  1  0.799489  0.598976  0.558285  1
  Hf  Hf5  1  0.401024  0.200511  0.558285  1
  Hf  Hf6  1  0.799489  0.200511  0.941715  1
  Hf  Hf7  1  0.799489  0.598976  0.941715  1
  Hf  Hf8  1  0.401024  0.200511  0.941715  1
  Hf  Hf9  1  0.200511  0.799489  0.058285  1
  Hf  Hf10  1  0.200511  0.401024  0.058285  1
  Hf  Hf11  1  0.598976  0.799489  0.058285  1
  Hf  Hf12  1  0.542588  0.457412  0.250000  1
  Hf  Hf13  1  0.542588  0.085175  0.250000  1
  Hf  Hf14  1  0.914825  0.457412  0.250000  1
  Hf  Hf15  1  0.457412  0.542588  0.750000  1
  Hf  Hf16  1  0.457412  0.914825  0.750000  1
  Hf  Hf17  1  0.085175  0.542588  0.750000  1
  Ta  Ta18  1  0.000000  0.000000  0.500000  1
  Ta  Ta19  1  0.000000  0.000000  0.000000  1
  Ni  Ni20  1  0.333333  0.666667  0.250000  1
  Ni  Ni21  1  0.666667  0.333333  0.750000  1
  W  W22  1  0.885901  0.114099  0.250000  1
  W  W23  1  0.885901  0.771802  0.250000  1
  W  W24  1  0.228198  0.114099  0.250000  1
  W  W25  1  0.114099  0.885901  0.750000  1
  W  W26  1  0.114099  0.228198  0.750000  1
  W  W27  1  0.771802  0.885901  0.750000  1
