# generated using pymatgen
data_Lu7PSe7
_symmetry_space_group_name_H-M   'P 1'
_cell_length_a   7.87438700
_cell_length_b   7.87438719
_cell_length_c   7.87438700
_cell_angle_alpha   120.00000342
_cell_angle_beta   90.00000000
_cell_angle_gamma   120.00000342
_symmetry_Int_Tables_number   1
_chemical_formula_structural   Lu7PSe7
_chemical_formula_sum   'Lu7 P1 Se7'
_cell_volume   345.25122864
_cell_formula_units_Z   1
loop_
 _symmetry_equiv_pos_site_id
 _symmetry_equiv_pos_as_xyz
  1  'x, y, z'
loop_
 _atom_site_type_symbol
 _atom_site_label
 _atom_site_symmetry_multiplicity
 _atom_site_fract_x
 _atom_site_fract_y
 _atom_site_fract_z
 _atom_site_occupancy
  Lu  Lu0  1  0.240689  0.000000  0.240689  1
  Lu  Lu1  1  0.240689  0.481376  0.240689  1
  Lu  Lu2  1  0.759311  0.000000  0.240690  1
  Lu  Lu3  1  0.250001  0.500001  0.750002  1
  Lu  Lu4  1  0.240690  0.000000  0.759311  1
  Lu  Lu5  1  0.759311  0.000000  0.759311  1
  Lu  Lu6  1  0.759311  0.518623  0.759311  1
  P  P7  1  0.000000  0.000000  0.000000  1
  Se  Se8  1  0.500000  0.000000  0.500000  1
  Se  Se9  1  0.996177  0.992354  0.496179  1
  Se  Se10  1  0.996177  0.500001  0.496179  1
  Se  Se11  1  0.503824  0.500001  0.496179  1
  Se  Se12  1  0.996179  0.500001  0.003823  1
  Se  Se13  1  0.503822  0.500001  0.003823  1
  Se  Se14  1  0.503822  0.007645  0.003823  1
