# generated using pymatgen
data_Yb8Be(Si5W4)3
_symmetry_space_group_name_H-M   'P 1'
_cell_length_a   6.73316500
_cell_length_b   6.92089387
_cell_length_c   12.88765300
_cell_angle_alpha   90.00000000
_cell_angle_beta   90.00000000
_cell_angle_gamma   89.86620005
_symmetry_Int_Tables_number   1
_chemical_formula_structural   Yb8Be(Si5W4)3
_chemical_formula_sum   'Yb8 Be1 Si15 W12'
_cell_volume   600.55681111
_cell_formula_units_Z   1
loop_
 _symmetry_equiv_pos_site_id
 _symmetry_equiv_pos_as_xyz
  1  'x, y, z'
loop_
 _atom_site_type_symbol
 _atom_site_label
 _atom_site_symmetry_multiplicity
 _atom_site_fract_x
 _atom_site_fract_y
 _atom_site_fract_z
 _atom_site_occupancy
  Yb  Yb0  1  0.998469  0.166636  0.090011  1
  Yb  Yb1  1  0.000708  0.837021  0.907850  1
  Yb  Yb2  1  0.498582  0.667846  0.907392  1
  Yb  Yb3  1  0.000708  0.837021  0.592150  1
  Yb  Yb4  1  0.499347  0.332569  0.089539  1
  Yb  Yb5  1  0.998469  0.166636  0.409989  1
  Yb  Yb6  1  0.499347  0.332569  0.410461  1
  Yb  Yb7  1  0.498582  0.667846  0.592608  1
  Be  Be8  1  0.045450  0.126760  0.750000  1
  Si  Si9  1  0.964958  0.880885  0.250000  1
  Si  Si10  1  0.463738  0.619195  0.250000  1
  Si  Si11  1  0.534248  0.380794  0.750000  1
  Si  Si12  1  0.292884  0.876516  0.750000  1
  Si  Si13  1  0.699275  0.133579  0.250000  1
  Si  Si14  1  0.199408  0.365282  0.250000  1
  Si  Si15  1  0.800798  0.635380  0.750000  1
  Si  Si16  1  0.160244  0.457454  0.545503  1
  Si  Si17  1  0.840086  0.540745  0.457313  1
  Si  Si18  1  0.339764  0.957887  0.456360  1
  Si  Si19  1  0.840086  0.540745  0.042687  1
  Si  Si20  1  0.660508  0.040720  0.546170  1
  Si  Si21  1  0.160244  0.457454  0.954497  1
  Si  Si22  1  0.660508  0.040720  0.953830  1
  Si  Si23  1  0.339764  0.957887  0.043640  1
  W  W24  1  0.157685  0.485343  0.750000  1
  W  W25  1  0.839909  0.512377  0.250000  1
  W  W26  1  0.339721  0.987706  0.250000  1
  W  W27  1  0.662164  0.010098  0.750000  1
  W  W28  1  0.335619  0.169502  0.628827  1
  W  W29  1  0.662876  0.830058  0.372229  1
  W  W30  1  0.162432  0.668144  0.372557  1
  W  W31  1  0.662876  0.830058  0.127771  1
  W  W32  1  0.841244  0.324461  0.631798  1
  W  W33  1  0.335619  0.169502  0.871173  1
  W  W34  1  0.841244  0.324461  0.868202  1
  W  W35  1  0.162432  0.668144  0.127443  1
