# generated using pymatgen
data_Er6Si12Pt7Au
_symmetry_space_group_name_H-M   'P 1'
_cell_length_a   4.23382000
_cell_length_b   8.54178646
_cell_length_c   13.02130900
_cell_angle_alpha   80.45612685
_cell_angle_beta   90.00000000
_cell_angle_gamma   90.00000000
_symmetry_Int_Tables_number   1
_chemical_formula_structural   Er6Si12Pt7Au
_chemical_formula_sum   'Er6 Si12 Pt7 Au1'
_cell_volume   464.38978396
_cell_formula_units_Z   1
loop_
 _symmetry_equiv_pos_site_id
 _symmetry_equiv_pos_as_xyz
  1  'x, y, z'
loop_
 _atom_site_type_symbol
 _atom_site_label
 _atom_site_symmetry_multiplicity
 _atom_site_fract_x
 _atom_site_fract_y
 _atom_site_fract_z
 _atom_site_occupancy
  Er  Er0  1  0.250000  0.766684  0.439296  1
  Er  Er1  1  0.250000  0.587902  0.187579  1
  Er  Er2  1  0.750000  0.232758  0.561955  1
  Er  Er3  1  0.750000  0.417173  0.807618  1
  Er  Er4  1  0.750000  0.929167  0.812749  1
  Er  Er5  1  0.250000  0.066687  0.185346  1
  Si  Si6  1  0.750000  0.588500  0.569587  1
  Si  Si7  1  0.750000  0.119981  0.002120  1
  Si  Si8  1  0.750000  0.872039  0.574137  1
  Si  Si9  1  0.250000  0.696378  0.713195  1
  Si  Si10  1  0.750000  0.301597  0.295068  1
  Si  Si11  1  0.750000  0.804193  0.277654  1
  Si  Si12  1  0.250000  0.875537  0.994298  1
  Si  Si13  1  0.250000  0.195809  0.722479  1
  Si  Si14  1  0.250000  0.382020  0.995938  1
  Si  Si15  1  0.250000  0.125642  0.428403  1
  Si  Si16  1  0.750000  0.627221  0.994493  1
  Si  Si17  1  0.250000  0.412674  0.432092  1
  Pt  Pt18  1  0.250000  0.970987  0.623472  1
  Pt  Pt19  1  0.750000  0.847239  0.090112  1
  Pt  Pt20  1  0.750000  0.027566  0.376847  1
  Pt  Pt21  1  0.250000  0.650567  0.898769  1
  Pt  Pt22  1  0.250000  0.152251  0.909751  1
  Pt  Pt23  1  0.750000  0.533437  0.377286  1
  Pt  Pt24  1  0.250000  0.467584  0.623028  1
  Au  Au25  1  0.750000  0.348411  0.106727  1
