# generated using pymatgen
data_Ce3Lu(SnRu)4
_symmetry_space_group_name_H-M   'P 1'
_cell_length_a   6.29607009
_cell_length_b   6.29607036
_cell_length_c   10.04452115
_cell_angle_alpha   77.46349364
_cell_angle_beta   77.46349253
_cell_angle_gamma   44.71836824
_symmetry_Int_Tables_number   1
_chemical_formula_structural   Ce3Lu(SnRu)4
_chemical_formula_sum   'Ce3 Lu1 Sn4 Ru4'
_cell_volume   272.33525674
_cell_formula_units_Z   1
loop_
 _symmetry_equiv_pos_site_id
 _symmetry_equiv_pos_as_xyz
  1  'x, y, z'
loop_
 _atom_site_type_symbol
 _atom_site_label
 _atom_site_symmetry_multiplicity
 _atom_site_fract_x
 _atom_site_fract_y
 _atom_site_fract_z
 _atom_site_occupancy
  Ce  Ce0  1  0.861845  0.861845  0.417031  1
  Ce  Ce1  1  0.865759  0.865759  0.914563  1
  Ce  Ce2  1  0.140592  0.140592  0.088798  1
  Lu  Lu3  1  0.119894  0.119894  0.595138  1
  Sn  Sn4  1  0.426238  0.426238  0.158273  1
  Sn  Sn5  1  0.408800  0.408800  0.657098  1
  Sn  Sn6  1  0.582683  0.582683  0.838941  1
  Sn  Sn7  1  0.588327  0.588327  0.360332  1
  Ru  Ru8  1  0.816709  0.816709  0.154976  1
  Ru  Ru9  1  0.195080  0.195080  0.309300  1
  Ru  Ru10  1  0.187964  0.187964  0.844357  1
  Ru  Ru11  1  0.806109  0.806109  0.661192  1
