# generated using pymatgen
data_Ho3Er(Si2Pt3)2
_symmetry_space_group_name_H-M   'P 1'
_cell_length_a   4.17372000
_cell_length_b   6.65500866
_cell_length_c   8.92128489
_cell_angle_alpha   90.05103863
_cell_angle_beta   90.00000000
_cell_angle_gamma   90.00000000
_symmetry_Int_Tables_number   1
_chemical_formula_structural   Ho3Er(Si2Pt3)2
_chemical_formula_sum   'Ho3 Er1 Si4 Pt6'
_cell_volume   247.79878411
_cell_formula_units_Z   1
loop_
 _symmetry_equiv_pos_site_id
 _symmetry_equiv_pos_as_xyz
  1  'x, y, z'
loop_
 _atom_site_type_symbol
 _atom_site_label
 _atom_site_symmetry_multiplicity
 _atom_site_fract_x
 _atom_site_fract_y
 _atom_site_fract_z
 _atom_site_occupancy
  Ho  Ho0  1  0.000000  0.888180  0.329110  1
  Ho  Ho1  1  0.000000  0.111700  0.670861  1
  Ho  Ho2  1  0.000000  0.388280  0.170689  1
  Er  Er3  1  0.000000  0.611586  0.829309  1
  Si  Si4  1  0.500000  0.574035  0.355976  1
  Si  Si5  1  0.500000  0.426209  0.644345  1
  Si  Si6  1  0.500000  0.074014  0.143927  1
  Si  Si7  1  0.500000  0.925695  0.855898  1
  Pt  Pt8  1  0.500000  0.694621  0.089127  1
  Pt  Pt9  1  0.500000  0.305904  0.910394  1
  Pt  Pt10  1  0.500000  0.194638  0.410742  1
  Pt  Pt11  1  0.500000  0.805456  0.589501  1
  Pt  Pt12  1  0.000000  0.500075  0.500282  1
  Pt  Pt13  1  0.000000  0.999608  0.999840  1
