# generated using pymatgen
data_Tb3Dy2Ho3Au4
_symmetry_space_group_name_H-M   'P 1'
_cell_length_a   4.94902200
_cell_length_b   7.13326131
_cell_length_c   8.96834222
_cell_angle_alpha   90.06802756
_cell_angle_beta   90.00000000
_cell_angle_gamma   90.00000000
_symmetry_Int_Tables_number   1
_chemical_formula_structural   Tb3Dy2Ho3Au4
_chemical_formula_sum   'Tb3 Dy2 Ho3 Au4'
_cell_volume   316.60617751
_cell_formula_units_Z   1
loop_
 _symmetry_equiv_pos_site_id
 _symmetry_equiv_pos_as_xyz
  1  'x, y, z'
loop_
 _atom_site_type_symbol
 _atom_site_label
 _atom_site_symmetry_multiplicity
 _atom_site_fract_x
 _atom_site_fract_y
 _atom_site_fract_z
 _atom_site_occupancy
  Tb  Tb0  1  0.250000  0.486722  0.176812  1
  Tb  Tb1  1  0.750000  0.513184  0.823356  1
  Tb  Tb2  1  0.750000  0.013353  0.676828  1
  Dy  Dy3  1  0.250000  0.987133  0.323317  1
  Dy  Dy4  1  0.750000  0.648586  0.419314  1
  Ho  Ho5  1  0.250000  0.351525  0.580689  1
  Ho  Ho6  1  0.750000  0.148377  0.080528  1
  Ho  Ho7  1  0.250000  0.851709  0.919652  1
  Au  Au8  1  0.250000  0.256204  0.900695  1
  Au  Au9  1  0.750000  0.743925  0.098691  1
  Au  Au10  1  0.250000  0.756690  0.599520  1
  Au  Au11  1  0.750000  0.242590  0.400597  1
