# generated using pymatgen
data_HgPPd4Pt
_symmetry_space_group_name_H-M   'P 1'
_cell_length_a   4.04211700
_cell_length_b   3.92579500
_cell_length_c   7.15193200
_cell_angle_alpha   90.00000000
_cell_angle_beta   90.00000000
_cell_angle_gamma   90.00000000
_symmetry_Int_Tables_number   1
_chemical_formula_structural   HgPPd4Pt
_chemical_formula_sum   'Hg1 P1 Pd4 Pt1'
_cell_volume   113.49059535
_cell_formula_units_Z   1
loop_
 _symmetry_equiv_pos_site_id
 _symmetry_equiv_pos_as_xyz
  1  'x, y, z'
loop_
 _atom_site_type_symbol
 _atom_site_label
 _atom_site_symmetry_multiplicity
 _atom_site_fract_x
 _atom_site_fract_y
 _atom_site_fract_z
 _atom_site_occupancy
  Hg  Hg0  1  0.500000  0.500000  0.997505  1
  P  P1  1  0.000000  0.000000  0.498186  1
  Pd  Pd2  1  0.000000  0.500000  0.700088  1
  Pd  Pd3  1  0.500000  0.000000  0.302413  1
  Pd  Pd4  1  0.500000  0.000000  0.695236  1
  Pd  Pd5  1  0.000000  0.000000  0.001927  1
  Pt  Pt6  1  0.000000  0.500000  0.304644  1
