# generated using pymatgen
data_Ta24SiP11
_symmetry_space_group_name_H-M   'P 1'
_cell_length_a   14.50674088
_cell_length_b   11.66146389
_cell_length_c   3.42774400
_cell_angle_alpha   90.00000000
_cell_angle_beta   90.00000000
_cell_angle_gamma   90.09382558
_symmetry_Int_Tables_number   1
_chemical_formula_structural   Ta24SiP11
_chemical_formula_sum   'Ta24 Si1 P11'
_cell_volume   579.87010943
_cell_formula_units_Z   1
loop_
 _symmetry_equiv_pos_site_id
 _symmetry_equiv_pos_as_xyz
  1  'x, y, z'
loop_
 _atom_site_type_symbol
 _atom_site_label
 _atom_site_symmetry_multiplicity
 _atom_site_fract_x
 _atom_site_fract_y
 _atom_site_fract_z
 _atom_site_occupancy
  Ta  Ta0  1  0.757295  0.081230  0.000000  1
  Ta  Ta1  1  0.078211  0.120943  0.000000  1
  Ta  Ta2  1  0.522772  0.151867  0.000000  1
  Ta  Ta3  1  0.295175  0.195469  0.000000  1
  Ta  Ta4  1  0.420583  0.413310  0.000000  1
  Ta  Ta5  1  0.890421  0.470415  0.000000  1
  Ta  Ta6  1  0.110080  0.530783  0.000000  1
  Ta  Ta7  1  0.578891  0.586382  0.000000  1
  Ta  Ta8  1  0.704511  0.805151  0.000000  1
  Ta  Ta9  1  0.477655  0.846747  0.000000  1
  Ta  Ta10  1  0.922776  0.876335  0.000000  1
  Ta  Ta11  1  0.245317  0.919854  0.000000  1
  Ta  Ta12  1  0.390648  0.030327  0.500001  1
  Ta  Ta13  1  0.922033  0.082138  0.500001  1
  Ta  Ta14  1  0.793072  0.307506  0.500001  1
  Ta  Ta15  1  0.023264  0.350637  0.500001  1
  Ta  Ta16  1  0.576472  0.377876  0.500001  1
  Ta  Ta17  1  0.255518  0.419904  0.500001  1
  Ta  Ta18  1  0.743885  0.581142  0.500001  1
  Ta  Ta19  1  0.422351  0.622871  0.500001  1
  Ta  Ta20  1  0.977600  0.653634  0.500001  1
  Ta  Ta21  1  0.204725  0.695318  0.500001  1
  Ta  Ta22  1  0.080248  0.912392  0.500001  1
  Ta  Ta23  1  0.609179  0.969975  0.500001  1
  Si  Si24  1  0.915257  0.242595  0.000000  1
  P  P25  1  0.151621  0.315441  0.000000  1
  P  P26  1  0.704695  0.423751  0.000000  1
  P  P27  1  0.294991  0.577131  0.000000  1
  P  P28  1  0.847347  0.684129  0.000000  1
  P  P29  1  0.083558  0.755811  0.000000  1
  P  P30  1  0.205495  0.076985  0.500001  1
  P  P31  1  0.652196  0.184104  0.500001  1
  P  P32  1  0.416298  0.255935  0.500001  1
  P  P33  1  0.583725  0.743556  0.500001  1
  P  P34  1  0.347996  0.815678  0.500001  1
  P  P35  1  0.794140  0.922679  0.500001  1
