# generated using pymatgen
data_Pr8Tm11Si16Tc
_symmetry_space_group_name_H-M   'P 1'
_cell_length_a   7.38313960
_cell_length_b   7.72637841
_cell_length_c   14.58246800
_cell_angle_alpha   90.00000000
_cell_angle_beta   90.00000000
_cell_angle_gamma   90.06636951
_symmetry_Int_Tables_number   1
_chemical_formula_structural   Pr8Tm11Si16Tc
_chemical_formula_sum   'Pr8 Tm11 Si16 Tc1'
_cell_volume   831.85531346
_cell_formula_units_Z   1
loop_
 _symmetry_equiv_pos_site_id
 _symmetry_equiv_pos_as_xyz
  1  'x, y, z'
loop_
 _atom_site_type_symbol
 _atom_site_label
 _atom_site_symmetry_multiplicity
 _atom_site_fract_x
 _atom_site_fract_y
 _atom_site_fract_z
 _atom_site_occupancy
  Pr  Pr0  1  0.019875  0.178709  0.403110  1
  Pr  Pr1  1  0.518785  0.322248  0.406454  1
  Pr  Pr2  1  0.487992  0.683738  0.897260  1
  Pr  Pr3  1  0.487992  0.683738  0.602740  1
  Pr  Pr4  1  0.977504  0.827760  0.601372  1
  Pr  Pr5  1  0.977504  0.827760  0.898628  1
  Pr  Pr6  1  0.518785  0.322248  0.093546  1
  Pr  Pr7  1  0.019875  0.178709  0.096890  1
  Tm  Tm8  1  0.322831  0.169224  0.627417  1
  Tm  Tm9  1  0.677082  0.824241  0.379293  1
  Tm  Tm10  1  0.178248  0.677365  0.377182  1
  Tm  Tm11  1  0.820513  0.317811  0.873057  1
  Tm  Tm12  1  0.820513  0.317811  0.626943  1
  Tm  Tm13  1  0.844613  0.490455  0.250000  1
  Tm  Tm14  1  0.345306  0.009083  0.250000  1
  Tm  Tm15  1  0.322831  0.169224  0.872583  1
  Tm  Tm16  1  0.178248  0.677365  0.122818  1
  Tm  Tm17  1  0.677082  0.824241  0.120707  1
  Tm  Tm18  1  0.156597  0.509902  0.750000  1
  Si  Si19  1  0.290308  0.877591  0.750000  1
  Si  Si20  1  0.474032  0.616190  0.250000  1
  Si  Si21  1  0.013268  0.103071  0.750000  1
  Si  Si22  1  0.527105  0.375995  0.750000  1
  Si  Si23  1  0.149609  0.468346  0.541111  1
  Si  Si24  1  0.970104  0.881469  0.250000  1
  Si  Si25  1  0.722598  0.120701  0.250000  1
  Si  Si26  1  0.854568  0.532573  0.036514  1
  Si  Si27  1  0.350916  0.966649  0.036951  1
  Si  Si28  1  0.149609  0.468346  0.958889  1
  Si  Si29  1  0.646636  0.030843  0.548972  1
  Si  Si30  1  0.350916  0.966649  0.463049  1
  Si  Si31  1  0.854568  0.532573  0.463486  1
  Si  Si32  1  0.779255  0.626061  0.750000  1
  Si  Si33  1  0.226536  0.379125  0.250000  1
  Si  Si34  1  0.646636  0.030843  0.951028  1
  Tc  Tc35  1  0.641164  0.011342  0.750000  1
