# generated using pymatgen
data_Ho2LuNb3(B2Ru5)2
_symmetry_space_group_name_H-M   'P 1'
_cell_length_a   9.58731183
_cell_length_b   9.58731246
_cell_length_c   3.12064600
_cell_angle_alpha   90.00000000
_cell_angle_beta   90.00000000
_cell_angle_gamma   89.54277606
_symmetry_Int_Tables_number   1
_chemical_formula_structural   Ho2LuNb3(B2Ru5)2
_chemical_formula_sum   'Ho2 Lu1 Nb3 B4 Ru10'
_cell_volume   286.82989401
_cell_formula_units_Z   1
loop_
 _symmetry_equiv_pos_site_id
 _symmetry_equiv_pos_as_xyz
  1  'x, y, z'
loop_
 _atom_site_type_symbol
 _atom_site_label
 _atom_site_symmetry_multiplicity
 _atom_site_fract_x
 _atom_site_fract_y
 _atom_site_fract_z
 _atom_site_occupancy
  Ho  Ho0  1  0.324929  0.324145  0.000000  1
  Ho  Ho1  1  0.675855  0.675071  0.000000  1
  Lu  Lu2  1  0.174204  0.825796  0.000000  1
  Nb  Nb3  1  0.496216  0.997626  0.000000  1
  Nb  Nb4  1  0.002374  0.503784  0.000000  1
  Nb  Nb5  1  0.824767  0.175233  0.000000  1
  B  B6  1  0.624002  0.375998  0.000000  1
  B  B7  1  0.380185  0.619815  0.000000  1
  B  B8  1  0.118981  0.122754  0.000000  1
  B  B9  1  0.877246  0.881019  0.000000  1
  Ru  Ru10  1  0.503722  0.496278  0.500000  1
  Ru  Ru11  1  0.991745  0.008255  0.500000  1
  Ru  Ru12  1  0.583971  0.213360  0.500000  1
  Ru  Ru13  1  0.428812  0.780715  0.500000  1
  Ru  Ru14  1  0.059636  0.280113  0.500000  1
  Ru  Ru15  1  0.930164  0.722623  0.500000  1
  Ru  Ru16  1  0.277377  0.069836  0.500000  1
  Ru  Ru17  1  0.719887  0.940364  0.500000  1
  Ru  Ru18  1  0.219285  0.571188  0.500000  1
  Ru  Ru19  1  0.786640  0.416029  0.500000  1
