# generated using pymatgen
data_Er8Th4TcOs3
_symmetry_space_group_name_H-M   'P 1'
_cell_length_a   6.32972319
_cell_length_b   7.31264101
_cell_length_c   9.43171800
_cell_angle_alpha   90.00000000
_cell_angle_beta   90.00000000
_cell_angle_gamma   89.93017370
_symmetry_Int_Tables_number   1
_chemical_formula_structural   Er8Th4TcOs3
_chemical_formula_sum   'Er8 Th4 Tc1 Os3'
_cell_volume   436.56554480
_cell_formula_units_Z   1
loop_
 _symmetry_equiv_pos_site_id
 _symmetry_equiv_pos_as_xyz
  1  'x, y, z'
loop_
 _atom_site_type_symbol
 _atom_site_label
 _atom_site_symmetry_multiplicity
 _atom_site_fract_x
 _atom_site_fract_y
 _atom_site_fract_z
 _atom_site_occupancy
  Er  Er0  1  0.336614  0.672962  0.064666  1
  Er  Er1  1  0.167039  0.176022  0.434157  1
  Er  Er2  1  0.664966  0.325751  0.565114  1
  Er  Er3  1  0.836957  0.825338  0.932579  1
  Er  Er4  1  0.664966  0.325751  0.934886  1
  Er  Er5  1  0.836957  0.825338  0.567421  1
  Er  Er6  1  0.336614  0.672962  0.435334  1
  Er  Er7  1  0.167039  0.176022  0.065843  1
  Th  Th8  1  0.858511  0.548565  0.250000  1
  Th  Th9  1  0.644945  0.043007  0.250000  1
  Th  Th10  1  0.145556  0.456417  0.750000  1
  Th  Th11  1  0.355399  0.956975  0.750000  1
  Tc  Tc12  1  0.021117  0.867595  0.250000  1
  Os  Os13  1  0.463593  0.372979  0.250000  1
  Os  Os14  1  0.960789  0.127817  0.750000  1
  Os  Os15  1  0.538936  0.626497  0.750000  1
