# generated using pymatgen
data_Rb5(TlAu2)2
_symmetry_space_group_name_H-M   'P 1'
_cell_length_a   17.90263643
_cell_length_b   17.90263620
_cell_length_c   5.30726900
_cell_angle_alpha   90.00000000
_cell_angle_beta   90.00000000
_cell_angle_gamma   165.31158358
_symmetry_Int_Tables_number   1
_chemical_formula_structural   Rb5(TlAu2)2
_chemical_formula_sum   'Rb5 Tl2 Au4'
_cell_volume   431.31037739
_cell_formula_units_Z   1
loop_
 _symmetry_equiv_pos_site_id
 _symmetry_equiv_pos_as_xyz
  1  'x, y, z'
loop_
 _atom_site_type_symbol
 _atom_site_label
 _atom_site_symmetry_multiplicity
 _atom_site_fract_x
 _atom_site_fract_y
 _atom_site_fract_z
 _atom_site_occupancy
  Rb  Rb0  1  0.003072  0.996928  0.000000  1
  Rb  Rb1  1  0.624312  0.375686  0.000000  1
  Rb  Rb2  1  0.375134  0.624864  0.000000  1
  Rb  Rb3  1  0.801635  0.198363  0.500001  1
  Rb  Rb4  1  0.203089  0.796909  0.500001  1
  Tl  Tl5  1  0.456095  0.543903  0.500001  1
  Tl  Tl6  1  0.088608  0.911391  0.500001  1
  Au  Au7  1  0.729044  0.270954  0.000000  1
  Au  Au8  1  0.272895  0.727103  0.000000  1
  Au  Au9  1  0.907757  0.092242  0.500001  1
  Au  Au10  1  0.538351  0.461647  0.500001  1
