# generated using pymatgen
data_PrSmTh2(Fe2I)2
_symmetry_space_group_name_H-M   'P 1'
_cell_length_a   4.01742800
_cell_length_b   4.01742962
_cell_length_c   17.88210000
_cell_angle_alpha   90.00000000
_cell_angle_beta   90.00000000
_cell_angle_gamma   120.00000312
_symmetry_Int_Tables_number   1
_chemical_formula_structural   PrSmTh2(Fe2I)2
_chemical_formula_sum   'Pr1 Sm1 Th2 Fe4 I2'
_cell_volume   249.94561195
_cell_formula_units_Z   1
loop_
 _symmetry_equiv_pos_site_id
 _symmetry_equiv_pos_as_xyz
  1  'x, y, z'
loop_
 _atom_site_type_symbol
 _atom_site_label
 _atom_site_symmetry_multiplicity
 _atom_site_fract_x
 _atom_site_fract_y
 _atom_site_fract_z
 _atom_site_occupancy
  Pr  Pr0  1  0.000000  0.000000  0.390362  1
  Sm  Sm1  1  0.000000  0.000000  0.107235  1
  Th  Th2  1  0.000000  0.000000  0.600563  1
  Th  Th3  1  0.000000  0.000000  0.900852  1
  Fe  Fe4  1  0.666667  0.333333  0.000119  1
  Fe  Fe5  1  0.333333  0.666667  0.501770  1
  Fe  Fe6  1  0.666667  0.333333  0.501330  1
  Fe  Fe7  1  0.333333  0.666667  0.000824  1
  I  I8  1  0.666667  0.333333  0.246354  1
  I  I9  1  0.333333  0.666667  0.750590  1
