# generated using pymatgen
data_Th2FeSi5Rh2
_symmetry_space_group_name_H-M   'P 1'
_cell_length_a   8.20879913
_cell_length_b   8.20879892
_cell_length_c   8.20879910
_cell_angle_alpha   138.62789676
_cell_angle_beta   105.78826858
_cell_angle_gamma   88.70981367
_symmetry_Int_Tables_number   1
_chemical_formula_structural   Th2FeSi5Rh2
_chemical_formula_sum   'Th4 Fe2 Si10 Rh4'
_cell_volume   337.15019857
_cell_formula_units_Z   2
loop_
 _symmetry_equiv_pos_site_id
 _symmetry_equiv_pos_as_xyz
  1  'x, y, z'
loop_
 _atom_site_type_symbol
 _atom_site_label
 _atom_site_symmetry_multiplicity
 _atom_site_fract_x
 _atom_site_fract_y
 _atom_site_fract_z
 _atom_site_occupancy
  Th  Th0  1  0.864524  0.630369  0.234155  1
  Th  Th1  1  0.135476  0.369631  0.765845  1
  Th  Th2  1  0.396214  0.130369  0.265845  1
  Th  Th3  1  0.603786  0.869631  0.734155  1
  Fe  Fe4  1  0.000000  0.750000  0.750000  1
  Fe  Fe5  1  0.000000  0.250000  0.250000  1
  Si  Si6  1  0.500000  0.750000  0.250000  1
  Si  Si7  1  0.500000  0.250000  0.750000  1
  Si  Si8  1  0.219077  0.969077  0.750000  1
  Si  Si9  1  0.780923  0.530923  0.750000  1
  Si  Si10  1  0.780923  0.030923  0.250000  1
  Si  Si11  1  0.219077  0.469077  0.250000  1
  Si  Si12  1  0.045519  0.900332  0.145187  1
  Si  Si13  1  0.954481  0.099668  0.854813  1
  Si  Si14  1  0.755145  0.400332  0.354813  1
  Si  Si15  1  0.244855  0.599668  0.645187  1
  Rh  Rh16  1  0.246721  0.859167  0.387553  1
  Rh  Rh17  1  0.753279  0.140833  0.612447  1
  Rh  Rh18  1  0.471615  0.359167  0.112447  1
  Rh  Rh19  1  0.528385  0.640833  0.887553  1
