# generated using pymatgen
data_La10Pr6Cd4Pd3Ru
_symmetry_space_group_name_H-M   'P 1'
_cell_length_a   10.17574041
_cell_length_b   10.17574184
_cell_length_c   10.17574036
_cell_angle_alpha   59.57560882
_cell_angle_beta   59.57560458
_cell_angle_gamma   59.57560626
_symmetry_Int_Tables_number   1
_chemical_formula_structural   La10Pr6Cd4Pd3Ru
_chemical_formula_sum   'La10 Pr6 Cd4 Pd3 Ru1'
_cell_volume   737.85829212
_cell_formula_units_Z   1
loop_
 _symmetry_equiv_pos_site_id
 _symmetry_equiv_pos_as_xyz
  1  'x, y, z'
loop_
 _atom_site_type_symbol
 _atom_site_label
 _atom_site_symmetry_multiplicity
 _atom_site_fract_x
 _atom_site_fract_y
 _atom_site_fract_z
 _atom_site_occupancy
  La  La0  1  0.351949  0.351949  0.351949  1
  La  La1  1  0.347287  0.347287  0.950886  1
  La  La2  1  0.347287  0.950886  0.347287  1
  La  La3  1  0.950886  0.347287  0.347287  1
  La  La4  1  0.818387  0.189157  0.189157  1
  La  La5  1  0.190452  0.807014  0.807014  1
  La  La6  1  0.189157  0.818387  0.189157  1
  La  La7  1  0.807014  0.190452  0.807014  1
  La  La8  1  0.189157  0.189157  0.818387  1
  La  La9  1  0.807014  0.807014  0.190452  1
  Pr  Pr10  1  0.935698  0.565417  0.565417  1
  Pr  Pr11  1  0.559240  0.936453  0.936453  1
  Pr  Pr12  1  0.565417  0.935698  0.565417  1
  Pr  Pr13  1  0.936453  0.559240  0.936453  1
  Pr  Pr14  1  0.565417  0.565417  0.935698  1
  Pr  Pr15  1  0.936453  0.936453  0.559240  1
  Cd  Cd16  1  0.580113  0.580113  0.580113  1
  Cd  Cd17  1  0.580298  0.580298  0.257489  1
  Cd  Cd18  1  0.580298  0.257489  0.580298  1
  Cd  Cd19  1  0.257489  0.580298  0.580298  1
  Pd  Pd20  1  0.145203  0.145203  0.571498  1
  Pd  Pd21  1  0.145203  0.571498  0.145203  1
  Pd  Pd22  1  0.571498  0.145203  0.145203  1
  Ru  Ru23  1  0.142634  0.142634  0.142634  1
