# generated using pymatgen
data_Pr3Fe2P6Rh7
_symmetry_space_group_name_H-M   'P 1'
_cell_length_a   3.94141100
_cell_length_b   11.30655400
_cell_length_c   12.86308300
_cell_angle_alpha   90.00000000
_cell_angle_beta   90.00000000
_cell_angle_gamma   90.00000000
_symmetry_Int_Tables_number   1
_chemical_formula_structural   Pr3Fe2P6Rh7
_chemical_formula_sum   'Pr6 Fe4 P12 Rh14'
_cell_volume   573.22755344
_cell_formula_units_Z   2
loop_
 _symmetry_equiv_pos_site_id
 _symmetry_equiv_pos_as_xyz
  1  'x, y, z'
loop_
 _atom_site_type_symbol
 _atom_site_label
 _atom_site_symmetry_multiplicity
 _atom_site_fract_x
 _atom_site_fract_y
 _atom_site_fract_z
 _atom_site_occupancy
  Pr  Pr0  1  0.000000  0.500000  0.516268  1
  Pr  Pr1  1  0.500000  0.000000  0.483732  1
  Pr  Pr2  1  0.500000  0.819551  0.200885  1
  Pr  Pr3  1  0.500000  0.180449  0.200885  1
  Pr  Pr4  1  0.000000  0.680449  0.799115  1
  Pr  Pr5  1  0.000000  0.319551  0.799115  1
  Fe  Fe6  1  0.500000  0.500000  0.157739  1
  Fe  Fe7  1  0.000000  0.000000  0.842261  1
  Fe  Fe8  1  0.000000  0.500000  0.990286  1
  Fe  Fe9  1  0.500000  0.000000  0.009714  1
  P  P10  1  0.500000  0.500000  0.889454  1
  P  P11  1  0.000000  0.000000  0.110546  1
  P  P12  1  0.500000  0.500000  0.334701  1
  P  P13  1  0.000000  0.000000  0.665299  1
  P  P14  1  0.500000  0.310147  0.618032  1
  P  P15  1  0.500000  0.689853  0.618032  1
  P  P16  1  0.000000  0.189853  0.381968  1
  P  P17  1  0.000000  0.810147  0.381968  1
  P  P18  1  0.500000  0.853320  0.897154  1
  P  P19  1  0.500000  0.146680  0.897154  1
  P  P20  1  0.000000  0.646680  0.102846  1
  P  P21  1  0.000000  0.353320  0.102846  1
  Rh  Rh22  1  0.500000  0.500000  0.702194  1
  Rh  Rh23  1  0.000000  0.000000  0.297806  1
  Rh  Rh24  1  0.500000  0.335194  0.997481  1
  Rh  Rh25  1  0.500000  0.664806  0.997481  1
  Rh  Rh26  1  0.000000  0.164806  0.002519  1
  Rh  Rh27  1  0.000000  0.835194  0.002519  1
  Rh  Rh28  1  0.500000  0.292630  0.429682  1
  Rh  Rh29  1  0.500000  0.707370  0.429682  1
  Rh  Rh30  1  0.000000  0.207370  0.570318  1
  Rh  Rh31  1  0.000000  0.792630  0.570318  1
  Rh  Rh32  1  0.500000  0.876963  0.713693  1
  Rh  Rh33  1  0.500000  0.123037  0.713693  1
  Rh  Rh34  1  0.000000  0.623037  0.286307  1
  Rh  Rh35  1  0.000000  0.376963  0.286307  1
