# generated using pymatgen
data_Nd5Er12(TmBi4)3
_symmetry_space_group_name_H-M   'P 1'
_cell_length_a   8.32143424
_cell_length_b   9.50600900
_cell_length_c   12.19515200
_cell_angle_alpha   90.00000000
_cell_angle_beta   89.96872685
_cell_angle_gamma   90.00000000
_symmetry_Int_Tables_number   1
_chemical_formula_structural   Nd5Er12(TmBi4)3
_chemical_formula_sum   'Nd5 Er12 Tm3 Bi12'
_cell_volume   964.68063295
_cell_formula_units_Z   1
loop_
 _symmetry_equiv_pos_site_id
 _symmetry_equiv_pos_as_xyz
  1  'x, y, z'
loop_
 _atom_site_type_symbol
 _atom_site_label
 _atom_site_symmetry_multiplicity
 _atom_site_fract_x
 _atom_site_fract_y
 _atom_site_fract_z
 _atom_site_occupancy
  Nd  Nd0  1  0.184287  0.750000  0.719295  1
  Nd  Nd1  1  0.685496  0.750000  0.779259  1
  Nd  Nd2  1  0.816331  0.250000  0.280311  1
  Nd  Nd3  1  0.315587  0.250000  0.219968  1
  Nd  Nd4  1  0.353412  0.750000  0.216265  1
  Er  Er5  1  0.024599  0.750000  0.988459  1
  Er  Er6  1  0.525070  0.750000  0.512751  1
  Er  Er7  1  0.975002  0.250000  0.010739  1
  Er  Er8  1  0.475742  0.250000  0.489554  1
  Er  Er9  1  0.307357  0.434891  0.939076  1
  Er  Er10  1  0.807608  0.065349  0.561167  1
  Er  Er11  1  0.692386  0.934662  0.060115  1
  Er  Er12  1  0.192230  0.564808  0.440386  1
  Er  Er13  1  0.692386  0.565338  0.060115  1
  Er  Er14  1  0.192230  0.935192  0.440386  1
  Er  Er15  1  0.307357  0.065109  0.939076  1
  Er  Er16  1  0.807608  0.434651  0.561167  1
  Tm  Tm17  1  0.852123  0.750000  0.282364  1
  Tm  Tm18  1  0.647055  0.250000  0.782611  1
  Tm  Tm19  1  0.146496  0.250000  0.717864  1
  Bi  Bi20  1  0.434327  0.008980  0.671531  1
  Bi  Bi21  1  0.934218  0.491244  0.828413  1
  Bi  Bi22  1  0.568577  0.505867  0.331433  1
  Bi  Bi23  1  0.062652  0.993054  0.170995  1
  Bi  Bi24  1  0.568577  0.994133  0.331433  1
  Bi  Bi25  1  0.062652  0.506946  0.170995  1
  Bi  Bi26  1  0.434327  0.491020  0.671531  1
  Bi  Bi27  1  0.934218  0.008756  0.828413  1
  Bi  Bi28  1  0.406131  0.750000  0.957308  1
  Bi  Bi29  1  0.905534  0.750000  0.536626  1
  Bi  Bi30  1  0.594035  0.250000  0.037132  1
  Bi  Bi31  1  0.094392  0.250000  0.463266  1
