# generated using pymatgen
data_Sc8Si11Ge5Ru12
_symmetry_space_group_name_H-M   'P 1'
_cell_length_a   10.05003464
_cell_length_b   10.02958468
_cell_length_c   13.51844264
_cell_angle_alpha   53.73778765
_cell_angle_beta   53.62621707
_cell_angle_gamma   30.99433748
_symmetry_Int_Tables_number   1
_chemical_formula_structural   Sc8Si11Ge5Ru12
_chemical_formula_sum   'Sc8 Si11 Ge5 Ru12'
_cell_volume   553.51023224
_cell_formula_units_Z   1
loop_
 _symmetry_equiv_pos_site_id
 _symmetry_equiv_pos_as_xyz
  1  'x, y, z'
loop_
 _atom_site_type_symbol
 _atom_site_label
 _atom_site_symmetry_multiplicity
 _atom_site_fract_x
 _atom_site_fract_y
 _atom_site_fract_z
 _atom_site_occupancy
  Sc  Sc0  1  0.294651  0.560948  0.644774  1
  Sc  Sc1  1  0.709416  0.962294  0.861019  1
  Sc  Sc2  1  0.290452  0.039403  0.138356  1
  Sc  Sc3  1  0.435215  0.708104  0.856386  1
  Sc  Sc4  1  0.039008  0.289164  0.638506  1
  Sc  Sc5  1  0.564827  0.291057  0.142394  1
  Sc  Sc6  1  0.959135  0.711001  0.362158  1
  Sc  Sc7  1  0.706195  0.438745  0.356494  1
  Si  Si8  1  0.570519  0.082139  0.066877  1
  Si  Si9  1  0.144169  0.386372  0.898017  1
  Si  Si10  1  0.250760  0.975022  0.393041  1
  Si  Si11  1  0.088194  0.570634  0.567086  1
  Si  Si12  1  0.429991  0.916866  0.933091  1
  Si  Si13  1  0.127788  0.870473  0.749951  1
  Si  Si14  1  0.748703  0.025008  0.608371  1
  Si  Si15  1  0.873565  0.127980  0.250208  1
  Si  Si16  1  0.614720  0.383708  0.749562  1
  Si  Si17  1  0.912849  0.428913  0.432958  1
  Si  Si18  1  0.856885  0.613967  0.101329  1
  Ge  Ge19  1  0.031584  0.741686  0.106596  1
  Ge  Ge20  1  0.617438  0.849982  0.604274  1
  Ge  Ge21  1  0.968235  0.259095  0.891774  1
  Ge  Ge22  1  0.385635  0.615641  0.250415  1
  Ge  Ge23  1  0.382353  0.149168  0.396259  1
  Ru  Ru24  1  0.141828  0.901135  0.085295  1
  Ru  Ru25  1  0.166775  0.346376  0.218357  1
  Ru  Ru26  1  0.353571  0.173219  0.718535  1
  Ru  Ru27  1  0.833424  0.653830  0.781205  1
  Ru  Ru28  1  0.516022  0.244092  0.435113  1
  Ru  Ru29  1  0.849550  0.107982  0.911821  1
  Ru  Ru30  1  0.646339  0.826479  0.281975  1
  Ru  Ru31  1  0.249177  0.506044  0.930384  1
  Ru  Ru32  1  0.760414  0.489961  0.065780  1
  Ru  Ru33  1  0.095145  0.865971  0.416043  1
  Ru  Ru34  1  0.897020  0.141600  0.586612  1
  Ru  Ru35  1  0.488445  0.745940  0.568986  1
