# generated using pymatgen
data_Tb7UTa11Si16W
_symmetry_space_group_name_H-M   'P 1'
_cell_length_a   7.05337679
_cell_length_b   7.05267829
_cell_length_c   13.05822600
_cell_angle_alpha   89.66163449
_cell_angle_beta   90.02705016
_cell_angle_gamma   89.98335124
_symmetry_Int_Tables_number   1
_chemical_formula_structural   Tb7UTa11Si16W
_chemical_formula_sum   'Tb7 U1 Ta11 Si16 W1'
_cell_volume   649.57260119
_cell_formula_units_Z   1
loop_
 _symmetry_equiv_pos_site_id
 _symmetry_equiv_pos_as_xyz
  1  'x, y, z'
loop_
 _atom_site_type_symbol
 _atom_site_label
 _atom_site_symmetry_multiplicity
 _atom_site_fract_x
 _atom_site_fract_y
 _atom_site_fract_z
 _atom_site_occupancy
  Tb  Tb0  1  0.998284  0.338267  0.219951  1
  Tb  Tb1  1  0.001581  0.661273  0.716646  1
  Tb  Tb2  1  0.160444  0.499489  0.467494  1
  Tb  Tb3  1  0.500623  0.839642  0.032786  1
  Tb  Tb4  1  0.839809  0.502025  0.967715  1
  Tb  Tb5  1  0.497559  0.159793  0.531051  1
  Tb  Tb6  1  0.339887  0.997635  0.782280  1
  U  U7  1  0.660727  0.998749  0.282398  1
  Ta  Ta8  1  0.170158  0.170344  0.000081  1
  Ta  Ta9  1  0.828820  0.833423  0.497085  1
  Ta  Ta10  1  0.332602  0.673320  0.251238  1
  Ta  Ta11  1  0.670826  0.330617  0.749658  1
  Ta  Ta12  1  0.844724  0.007778  0.876022  1
  Ta  Ta13  1  0.506472  0.655366  0.624467  1
  Ta  Ta14  1  0.344547  0.492776  0.874708  1
  Ta  Ta15  1  0.494132  0.340333  0.128266  1
  Ta  Ta16  1  0.655069  0.505245  0.374237  1
  Ta  Ta17  1  0.991939  0.155480  0.624954  1
  Ta  Ta18  1  0.003576  0.848248  0.125596  1
  Si  Si19  1  0.293533  0.041500  0.187027  1
  Si  Si20  1  0.706087  0.956521  0.686230  1
  Si  Si21  1  0.455904  0.795838  0.435573  1
  Si  Si22  1  0.206203  0.542868  0.064280  1
  Si  Si23  1  0.543007  0.206201  0.936398  1
  Si  Si24  1  0.793695  0.457228  0.562634  1
  Si  Si25  1  0.043402  0.295494  0.813364  1
  Si  Si26  1  0.958913  0.710117  0.313521  1
  Si  Si27  1  0.370334  0.289941  0.318894  1
  Si  Si28  1  0.632465  0.702872  0.816290  1
  Si  Si29  1  0.202900  0.870058  0.565326  1
  Si  Si30  1  0.130725  0.796259  0.933160  1
  Si  Si31  1  0.794480  0.132190  0.068752  1
  Si  Si32  1  0.870633  0.201535  0.431082  1
  Si  Si33  1  0.296504  0.367839  0.682200  1
  Si  Si34  1  0.702881  0.631909  0.182996  1
  W  W35  1  0.156559  0.991830  0.375641  1
