# generated using pymatgen
data_Hf5PaPCl15
_symmetry_space_group_name_H-M   'P 1'
_cell_length_a   9.01934770
_cell_length_b   9.01934639
_cell_length_c   9.01934700
_cell_angle_alpha   110.44019630
_cell_angle_beta   110.44018641
_cell_angle_gamma   107.55019166
_symmetry_Int_Tables_number   1
_chemical_formula_structural   Hf5PaPCl15
_chemical_formula_sum   'Hf5 Pa1 P1 Cl15'
_cell_volume   564.33709855
_cell_formula_units_Z   1
loop_
 _symmetry_equiv_pos_site_id
 _symmetry_equiv_pos_as_xyz
  1  'x, y, z'
loop_
 _atom_site_type_symbol
 _atom_site_label
 _atom_site_symmetry_multiplicity
 _atom_site_fract_x
 _atom_site_fract_y
 _atom_site_fract_z
 _atom_site_occupancy
  Hf  Hf0  1  0.781451  0.781451  0.000000  1
  Hf  Hf1  1  0.759811  0.995417  0.764392  1
  Hf  Hf2  1  0.995417  0.759811  0.764392  1
  Hf  Hf3  1  0.995417  0.231026  0.235608  1
  Hf  Hf4  1  0.231026  0.995417  0.235608  1
  Pa  Pa5  1  0.260711  0.260711  0.000000  1
  P  P6  1  0.011039  0.011039  0.000000  1
  Cl  Cl7  1  0.760405  0.515964  0.755559  1
  Cl  Cl8  1  0.517694  0.517694  0.000000  1
  Cl  Cl9  1  0.993578  0.493578  0.500000  1
  Cl  Cl10  1  0.493578  0.993578  0.500000  1
  Cl  Cl11  1  0.233133  0.970634  0.737500  1
  Cl  Cl12  1  0.970634  0.233133  0.737500  1
  Cl  Cl13  1  0.760405  0.004846  0.244441  1
  Cl  Cl14  1  0.515964  0.760405  0.755559  1
  Cl  Cl15  1  0.004846  0.760405  0.244441  1
  Cl  Cl16  1  0.243280  0.243280  0.493497  1
  Cl  Cl17  1  0.749783  0.243280  0.000000  1
  Cl  Cl18  1  0.495633  0.233133  0.262500  1
  Cl  Cl19  1  0.233133  0.495633  0.262500  1
  Cl  Cl20  1  0.749783  0.749783  0.506503  1
  Cl  Cl21  1  0.243280  0.749783  0.000000  1
