# generated using pymatgen
data_Nd2Lu(TaSn)18
_symmetry_space_group_name_H-M   'P 1'
_cell_length_a   5.80488191
_cell_length_b   9.64481305
_cell_length_c   16.03209100
_cell_angle_alpha   107.50240300
_cell_angle_beta   100.32142149
_cell_angle_gamma   90.05196037
_symmetry_Int_Tables_number   1
_chemical_formula_structural   Nd2Lu(TaSn)18
_chemical_formula_sum   'Nd2 Lu1 Ta18 Sn18'
_cell_volume   840.74478775
_cell_formula_units_Z   1
loop_
 _symmetry_equiv_pos_site_id
 _symmetry_equiv_pos_as_xyz
  1  'x, y, z'
loop_
 _atom_site_type_symbol
 _atom_site_label
 _atom_site_symmetry_multiplicity
 _atom_site_fract_x
 _atom_site_fract_y
 _atom_site_fract_z
 _atom_site_occupancy
  Nd  Nd0  1  0.331732  0.831002  0.665148  1
  Nd  Nd1  1  0.667410  0.167211  0.335417  1
  Lu  Lu2  1  0.999511  0.999067  0.000269  1
  Ta  Ta3  1  0.165730  0.415428  0.333354  1
  Ta  Ta4  1  0.332312  0.832817  0.166594  1
  Ta  Ta5  1  0.667097  0.667429  0.834855  1
  Ta  Ta6  1  0.500070  0.750301  0.000295  1
  Ta  Ta7  1  0.166423  0.165914  0.834393  1
  Ta  Ta8  1  0.833738  0.331304  0.166337  1
  Ta  Ta9  1  0.832998  0.083126  0.667354  1
  Ta  Ta10  1  0.165563  0.667035  0.834326  1
  Ta  Ta11  1  0.499605  0.999066  0.500287  1
  Ta  Ta12  1  0.499197  0.248094  0.000441  1
  Ta  Ta13  1  0.999652  0.999077  0.500280  1
  Ta  Ta14  1  0.999679  0.499059  0.500272  1
  Ta  Ta15  1  0.832780  0.832427  0.166272  1
  Ta  Ta16  1  0.833646  0.582742  0.667230  1
  Ta  Ta17  1  0.332171  0.330921  0.165824  1
  Ta  Ta18  1  0.166244  0.915152  0.333242  1
  Ta  Ta19  1  0.666930  0.165536  0.834079  1
  Ta  Ta20  1  0.499715  0.499091  0.500276  1
  Sn  Sn21  1  0.998883  0.325162  0.999981  1
  Sn  Sn22  1  0.888797  0.888522  0.778831  1
  Sn  Sn23  1  0.110402  0.109798  0.221757  1
  Sn  Sn24  1  0.222527  0.221700  0.445450  1
  Sn  Sn25  1  0.443566  0.443822  0.889468  1
  Sn  Sn26  1  0.109407  0.608910  0.220430  1
  Sn  Sn27  1  0.778677  0.278439  0.558486  1
  Sn  Sn28  1  0.889873  0.389520  0.780283  1
  Sn  Sn29  1  0.220653  0.719685  0.442032  1
  Sn  Sn30  1  0.334411  0.495417  0.667694  1
  Sn  Sn31  1  0.555782  0.054411  0.111050  1
  Sn  Sn32  1  0.664956  0.502549  0.332864  1
  Sn  Sn33  1  0.443203  0.944022  0.889693  1
  Sn  Sn34  1  0.332328  0.170045  0.667564  1
  Sn  Sn35  1  0.776913  0.776599  0.555182  1
  Sn  Sn36  1  0.667039  0.828106  0.333062  1
  Sn  Sn37  1  0.555380  0.554571  0.111286  1
  Sn  Sn38  1  0.000253  0.672972  0.000707  1
