# generated using pymatgen
data_CsTcN2
_symmetry_space_group_name_H-M   'P 1'
_cell_length_a   6.13352571
_cell_length_b   6.13352587
_cell_length_c   6.13352600
_cell_angle_alpha   59.99999927
_cell_angle_beta   59.99999846
_cell_angle_gamma   60.00000290
_symmetry_Int_Tables_number   1
_chemical_formula_structural   CsTcN2
_chemical_formula_sum   'Cs2 Tc2 N4'
_cell_volume   163.16071740
_cell_formula_units_Z   2
loop_
 _symmetry_equiv_pos_site_id
 _symmetry_equiv_pos_as_xyz
  1  'x, y, z'
loop_
 _atom_site_type_symbol
 _atom_site_label
 _atom_site_symmetry_multiplicity
 _atom_site_fract_x
 _atom_site_fract_y
 _atom_site_fract_z
 _atom_site_occupancy
  Cs  Cs0  1  0.250000  0.250000  0.250000  1
  Cs  Cs1  1  0.000000  0.000000  0.000000  1
  Tc  Tc2  1  0.750000  0.750000  0.750000  1
  Tc  Tc3  1  0.500000  0.500000  0.500000  1
  N  N4  1  0.625000  0.625000  0.625000  1
  N  N5  1  0.125000  0.625000  0.625000  1
  N  N6  1  0.625000  0.125000  0.625000  1
  N  N7  1  0.625000  0.625000  0.125000  1
