# generated using pymatgen
data_TbHo2In3SnPt2
_symmetry_space_group_name_H-M   'P 1'
_cell_length_a   7.60734855
_cell_length_b   7.62234689
_cell_length_c   4.16366400
_cell_angle_alpha   90.00000000
_cell_angle_beta   90.00000000
_cell_angle_gamma   120.00798303
_symmetry_Int_Tables_number   1
_chemical_formula_structural   TbHo2In3SnPt2
_chemical_formula_sum   'Tb1 Ho2 In3 Sn1 Pt2'
_cell_volume   209.07080459
_cell_formula_units_Z   1
loop_
 _symmetry_equiv_pos_site_id
 _symmetry_equiv_pos_as_xyz
  1  'x, y, z'
loop_
 _atom_site_type_symbol
 _atom_site_label
 _atom_site_symmetry_multiplicity
 _atom_site_fract_x
 _atom_site_fract_y
 _atom_site_fract_z
 _atom_site_occupancy
  Tb  Tb0  1  0.606202  0.020158  0.500000  1
  Ho  Ho1  1  0.413888  0.392669  0.500000  1
  Ho  Ho2  1  0.978681  0.586232  0.500000  1
  In  In3  1  0.755630  0.744539  0.000000  1
  In  In4  1  0.989517  0.244781  0.000000  1
  In  In5  1  0.255255  0.010924  0.000000  1
  Sn  Sn6  1  0.332852  0.665915  0.000000  1
  Pt  Pt7  1  0.667007  0.334736  0.000000  1
  Pt  Pt8  1  0.000969  0.000045  0.500000  1
