# generated using pymatgen
data_SmDyLu8(In2Pt)4
_symmetry_space_group_name_H-M   'P 1'
_cell_length_a   3.58198400
_cell_length_b   8.07292839
_cell_length_c   18.09082213
_cell_angle_alpha   89.93260312
_cell_angle_beta   90.00000000
_cell_angle_gamma   90.00000000
_symmetry_Int_Tables_number   1
_chemical_formula_structural   SmDyLu8(In2Pt)4
_chemical_formula_sum   'Sm1 Dy1 Lu8 In8 Pt4'
_cell_volume   523.13375697
_cell_formula_units_Z   1
loop_
 _symmetry_equiv_pos_site_id
 _symmetry_equiv_pos_as_xyz
  1  'x, y, z'
loop_
 _atom_site_type_symbol
 _atom_site_label
 _atom_site_symmetry_multiplicity
 _atom_site_fract_x
 _atom_site_fract_y
 _atom_site_fract_z
 _atom_site_occupancy
  Sm  Sm0  1  0.000000  0.000000  0.000000  1
  Dy  Dy1  1  0.000000  0.500000  0.500000  1
  Lu  Lu2  1  0.000000  0.117154  0.413819  1
  Lu  Lu3  1  0.000000  0.882846  0.586181  1
  Lu  Lu4  1  0.000000  0.382440  0.913776  1
  Lu  Lu5  1  0.000000  0.617560  0.086224  1
  Lu  Lu6  1  0.000000  0.244357  0.221219  1
  Lu  Lu7  1  0.000000  0.755643  0.778781  1
  Lu  Lu8  1  0.000000  0.255704  0.721122  1
  Lu  Lu9  1  0.000000  0.744296  0.278878  1
  In  In10  1  0.500000  0.423992  0.350871  1
  In  In11  1  0.500000  0.576008  0.649129  1
  In  In12  1  0.500000  0.076621  0.849737  1
  In  In13  1  0.500000  0.923379  0.150263  1
  In  In14  1  0.500000  0.297276  0.067237  1
  In  In15  1  0.500000  0.702724  0.932763  1
  In  In16  1  0.500000  0.205470  0.566768  1
  In  In17  1  0.500000  0.794530  0.433232  1
  Pt  Pt18  1  0.500000  0.025954  0.304102  1
  Pt  Pt19  1  0.500000  0.974046  0.695898  1
  Pt  Pt20  1  0.500000  0.474155  0.803715  1
  Pt  Pt21  1  0.500000  0.525845  0.196285  1
