# generated using pymatgen
data_Ba5PN5
_symmetry_space_group_name_H-M   'P 1'
_cell_length_a   7.88389204
_cell_length_b   7.88389233
_cell_length_c   9.43521882
_cell_angle_alpha   76.03444646
_cell_angle_beta   76.03443995
_cell_angle_gamma   95.40343268
_symmetry_Int_Tables_number   1
_chemical_formula_structural   Ba5PN5
_chemical_formula_sum   'Ba10 P2 N10'
_cell_volume   545.01484014
_cell_formula_units_Z   2
loop_
 _symmetry_equiv_pos_site_id
 _symmetry_equiv_pos_as_xyz
  1  'x, y, z'
loop_
 _atom_site_type_symbol
 _atom_site_label
 _atom_site_symmetry_multiplicity
 _atom_site_fract_x
 _atom_site_fract_y
 _atom_site_fract_z
 _atom_site_occupancy
  Ba  Ba0  1  0.397118  0.397118  0.367157  1
  Ba  Ba1  1  0.602882  0.602882  0.632843  1
  Ba  Ba2  1  0.671948  0.671948  0.002438  1
  Ba  Ba3  1  0.328052  0.328052  0.997562  1
  Ba  Ba4  1  0.923935  0.923935  0.202106  1
  Ba  Ba5  1  0.076065  0.076065  0.797894  1
  Ba  Ba6  1  0.561974  0.089958  0.760127  1
  Ba  Ba7  1  0.910042  0.438026  0.239873  1
  Ba  Ba8  1  0.438026  0.910042  0.239873  1
  Ba  Ba9  1  0.089958  0.561974  0.760127  1
  P  P10  1  0.757869  0.242131  0.000000  1
  P  P11  1  0.242131  0.757869  0.000000  1
  N  N12  1  0.649976  0.649976  0.317661  1
  N  N13  1  0.350024  0.350024  0.682339  1
  N  N14  1  0.723377  0.029704  0.993943  1
  N  N15  1  0.970296  0.276623  0.006057  1
  N  N16  1  0.276623  0.970296  0.006057  1
  N  N17  1  0.029704  0.723377  0.993943  1
  N  N18  1  0.381800  0.730020  0.844459  1
  N  N19  1  0.269980  0.618200  0.155540  1
  N  N20  1  0.618200  0.269980  0.155540  1
  N  N21  1  0.730020  0.381800  0.844459  1
