# generated using pymatgen
data_Tb2Y8Hg3Ru
_symmetry_space_group_name_H-M   'P 1'
_cell_length_a   9.66526827
_cell_length_b   9.66527385
_cell_length_c   9.72199559
_cell_angle_alpha   90.05669233
_cell_angle_beta   89.94292810
_cell_angle_gamma   119.98682552
_symmetry_Int_Tables_number   1
_chemical_formula_structural   Tb2Y8Hg3Ru
_chemical_formula_sum   'Tb4 Y16 Hg6 Ru2'
_cell_volume   786.63176855
_cell_formula_units_Z   2
loop_
 _symmetry_equiv_pos_site_id
 _symmetry_equiv_pos_as_xyz
  1  'x, y, z'
loop_
 _atom_site_type_symbol
 _atom_site_label
 _atom_site_symmetry_multiplicity
 _atom_site_fract_x
 _atom_site_fract_y
 _atom_site_fract_z
 _atom_site_occupancy
  Tb  Tb0  1  0.209398  0.790600  0.439366  1
  Tb  Tb1  1  0.209406  0.418958  0.439314  1
  Tb  Tb2  1  0.581040  0.790593  0.439313  1
  Tb  Tb3  1  0.790178  0.209824  0.560939  1
  Y  Y4  1  0.999954  0.000043  0.499816  1
  Y  Y5  1  0.000002  0.999995  0.000060  1
  Y  Y6  1  0.790557  0.581293  0.560149  1
  Y  Y7  1  0.418707  0.209446  0.560151  1
  Y  Y8  1  0.790567  0.209433  0.939779  1
  Y  Y9  1  0.790358  0.580894  0.939731  1
  Y  Y10  1  0.419110  0.209646  0.939733  1
  Y  Y11  1  0.209427  0.790575  0.060167  1
  Y  Y12  1  0.209408  0.418870  0.060122  1
  Y  Y13  1  0.581127  0.790590  0.060121  1
  Y  Y14  1  0.541176  0.458821  0.249973  1
  Y  Y15  1  0.541126  0.082366  0.249968  1
  Y  Y16  1  0.917633  0.458876  0.249966  1
  Y  Y17  1  0.458851  0.541148  0.750008  1
  Y  Y18  1  0.458746  0.917627  0.750012  1
  Y  Y19  1  0.082375  0.541254  0.750013  1
  Hg  Hg20  1  0.881318  0.118685  0.249692  1
  Hg  Hg21  1  0.881255  0.762429  0.249854  1
  Hg  Hg22  1  0.237571  0.118744  0.249854  1
  Hg  Hg23  1  0.118752  0.881246  0.750170  1
  Hg  Hg24  1  0.118780  0.237456  0.750308  1
  Hg  Hg25  1  0.762543  0.881221  0.750310  1
  Ru  Ru26  1  0.333360  0.666640  0.251994  1
  Ru  Ru27  1  0.667274  0.332728  0.749113  1
