# generated using pymatgen
data_Pa3Zn22
_symmetry_space_group_name_H-M   'P 1'
_cell_length_a   12.21491538
_cell_length_b   8.79416455
_cell_length_c   8.79416500
_cell_angle_alpha   90.00000000
_cell_angle_beta   111.09875540
_cell_angle_gamma   111.09875402
_symmetry_Int_Tables_number   1
_chemical_formula_structural   Pa3Zn22
_chemical_formula_sum   'Pa6 Zn44'
_cell_volume   813.09268262
_cell_formula_units_Z   2
loop_
 _symmetry_equiv_pos_site_id
 _symmetry_equiv_pos_as_xyz
  1  'x, y, z'
loop_
 _atom_site_type_symbol
 _atom_site_label
 _atom_site_symmetry_multiplicity
 _atom_site_fract_x
 _atom_site_fract_y
 _atom_site_fract_z
 _atom_site_occupancy
  Pa  Pa0  1  0.505782  0.252891  0.002891  1
  Pa  Pa1  1  0.994219  0.497109  0.247109  1
  Pa  Pa2  1  0.250000  0.125000  0.375000  1
  Pa  Pa3  1  0.750000  0.875000  0.625000  1
  Pa  Pa4  1  0.005782  0.502891  0.752891  1
  Pa  Pa5  1  0.494218  0.747108  0.997108  1
  Zn  Zn6  1  0.000000  0.000000  0.000000  1
  Zn  Zn7  1  0.235829  0.117915  0.015960  1
  Zn  Zn8  1  0.121068  0.320748  0.080365  1
  Zn  Zn9  1  0.121068  0.800321  0.080365  1
  Zn  Zn10  1  0.247699  0.623849  0.092964  1
  Zn  Zn11  1  0.747699  0.154735  0.123849  1
  Zn  Zn12  1  0.747699  0.592964  0.123849  1
  Zn  Zn13  1  0.378932  0.419634  0.179252  1
  Zn  Zn14  1  0.378932  0.959298  0.179252  1
  Zn  Zn15  1  0.976814  0.142135  0.238407  1
  Zn  Zn16  1  0.976814  0.834679  0.238407  1
  Zn  Zn17  1  0.764171  0.882085  0.280130  1
  Zn  Zn18  1  0.621067  0.040701  0.300320  1
  Zn  Zn19  1  0.621067  0.580366  0.300320  1
  Zn  Zn20  1  0.476813  0.738406  0.334678  1
  Zn  Zn21  1  0.752301  0.376151  0.345265  1
  Zn  Zn22  1  0.523186  0.261594  0.357865  1
  Zn  Zn23  1  0.264171  0.484039  0.382085  1
  Zn  Zn24  1  0.264171  0.780130  0.382085  1
  Zn  Zn25  1  0.878933  0.199680  0.459298  1
  Zn  Zn26  1  0.878933  0.679252  0.459298  1
  Zn  Zn27  1  0.500000  0.000000  0.500000  1
  Zn  Zn28  1  0.500000  0.500000  0.500000  1
  Zn  Zn29  1  0.000000  0.000000  0.500000  1
  Zn  Zn30  1  0.121068  0.320748  0.540702  1
  Zn  Zn31  1  0.121068  0.800321  0.540702  1
  Zn  Zn32  1  0.735829  0.219870  0.617914  1
  Zn  Zn33  1  0.735829  0.515960  0.617914  1
  Zn  Zn34  1  0.476813  0.738406  0.642134  1
  Zn  Zn35  1  0.247699  0.623849  0.654736  1
  Zn  Zn36  1  0.523186  0.261594  0.665322  1
  Zn  Zn37  1  0.378932  0.419634  0.699679  1
  Zn  Zn38  1  0.378932  0.959298  0.699679  1
  Zn  Zn39  1  0.235829  0.117915  0.719871  1
  Zn  Zn40  1  0.023187  0.165322  0.761593  1
  Zn  Zn41  1  0.023187  0.857866  0.761593  1
  Zn  Zn42  1  0.621067  0.040701  0.820748  1
  Zn  Zn43  1  0.621067  0.580366  0.820748  1
  Zn  Zn44  1  0.252301  0.407036  0.876150  1
  Zn  Zn45  1  0.252301  0.845265  0.876150  1
  Zn  Zn46  1  0.752301  0.376151  0.907037  1
  Zn  Zn47  1  0.878933  0.199680  0.919635  1
  Zn  Zn48  1  0.878933  0.679252  0.919635  1
  Zn  Zn49  1  0.764171  0.882085  0.984041  1
