# generated using pymatgen
data_Dy7Ag(Sn11Rh3)2
_symmetry_space_group_name_H-M   'P 1'
_cell_length_a   9.81991700
_cell_length_b   9.81991661
_cell_length_c   10.13225900
_cell_angle_alpha   90.00000000
_cell_angle_beta   90.00000000
_cell_angle_gamma   119.99999121
_symmetry_Int_Tables_number   1
_chemical_formula_structural   Dy7Ag(Sn11Rh3)2
_chemical_formula_sum   'Dy7 Ag1 Sn22 Rh6'
_cell_volume   846.16015258
_cell_formula_units_Z   1
loop_
 _symmetry_equiv_pos_site_id
 _symmetry_equiv_pos_as_xyz
  1  'x, y, z'
loop_
 _atom_site_type_symbol
 _atom_site_label
 _atom_site_symmetry_multiplicity
 _atom_site_fract_x
 _atom_site_fract_y
 _atom_site_fract_z
 _atom_site_occupancy
  Dy  Dy0  1  0.000000  0.000000  0.000000  1
  Dy  Dy1  1  0.480167  0.519833  0.308284  1
  Dy  Dy2  1  0.519833  0.480167  0.691716  1
  Dy  Dy3  1  0.480167  0.960334  0.308284  1
  Dy  Dy4  1  0.519833  0.039666  0.691716  1
  Dy  Dy5  1  0.039666  0.519833  0.308284  1
  Dy  Dy6  1  0.960334  0.480167  0.691716  1
  Ag  Ag7  1  0.000000  0.000000  0.500000  1
  Sn  Sn8  1  0.351132  0.000000  0.000000  1
  Sn  Sn9  1  0.648868  0.000000  0.000000  1
  Sn  Sn10  1  0.000000  0.351132  0.000000  1
  Sn  Sn11  1  0.000000  0.648868  0.000000  1
  Sn  Sn12  1  0.648868  0.648868  0.000000  1
  Sn  Sn13  1  0.351132  0.351132  0.000000  1
  Sn  Sn14  1  0.333333  0.666667  0.817339  1
  Sn  Sn15  1  0.666667  0.333333  0.182661  1
  Sn  Sn16  1  0.781120  0.218880  0.458414  1
  Sn  Sn17  1  0.218880  0.781120  0.541586  1
  Sn  Sn18  1  0.781120  0.562242  0.458414  1
  Sn  Sn19  1  0.218880  0.437758  0.541586  1
  Sn  Sn20  1  0.437758  0.218880  0.458414  1
  Sn  Sn21  1  0.562242  0.781120  0.541586  1
  Sn  Sn22  1  0.333333  0.666667  0.124044  1
  Sn  Sn23  1  0.666667  0.333333  0.875956  1
  Sn  Sn24  1  0.115022  0.884978  0.281213  1
  Sn  Sn25  1  0.884978  0.115022  0.718787  1
  Sn  Sn26  1  0.115022  0.230044  0.281213  1
  Sn  Sn27  1  0.884978  0.769956  0.718787  1
  Sn  Sn28  1  0.769956  0.884978  0.281213  1
  Sn  Sn29  1  0.230044  0.115022  0.718787  1
  Rh  Rh30  1  0.830068  0.169932  0.198225  1
  Rh  Rh31  1  0.169932  0.830068  0.801775  1
  Rh  Rh32  1  0.830068  0.660134  0.198225  1
  Rh  Rh33  1  0.169932  0.339866  0.801775  1
  Rh  Rh34  1  0.339866  0.169932  0.198225  1
  Rh  Rh35  1  0.660134  0.830068  0.801775  1
