# generated using pymatgen
data_Nd3Hg3Rh2
_symmetry_space_group_name_H-M   'P 1'
_cell_length_a   7.64170800
_cell_length_b   7.64170828
_cell_length_c   3.87052200
_cell_angle_alpha   90.00000000
_cell_angle_beta   90.00000000
_cell_angle_gamma   120.00000745
_symmetry_Int_Tables_number   1
_chemical_formula_structural   Nd3Hg3Rh2
_chemical_formula_sum   'Nd3 Hg3 Rh2'
_cell_volume   195.74065290
_cell_formula_units_Z   1
loop_
 _symmetry_equiv_pos_site_id
 _symmetry_equiv_pos_as_xyz
  1  'x, y, z'
loop_
 _atom_site_type_symbol
 _atom_site_label
 _atom_site_symmetry_multiplicity
 _atom_site_fract_x
 _atom_site_fract_y
 _atom_site_fract_z
 _atom_site_occupancy
  Nd  Nd0  1  0.582513  0.000000  0.499999  1
  Nd  Nd1  1  0.417486  0.417486  0.499999  1
  Nd  Nd2  1  0.000000  0.582513  0.499999  1
  Hg  Hg3  1  0.233438  0.000000  0.000000  1
  Hg  Hg4  1  0.000000  0.233437  0.000000  1
  Hg  Hg5  1  0.766562  0.766562  0.000000  1
  Rh  Rh6  1  0.666666  0.333334  0.000000  1
  Rh  Rh7  1  0.333334  0.666667  0.000000  1
