# generated using pymatgen
data_Dy16In5Pt2Au
_symmetry_space_group_name_H-M   'P 1'
_cell_length_a   10.37776900
_cell_length_b   10.41913652
_cell_length_c   7.03901234
_cell_angle_alpha   90.06244858
_cell_angle_beta   90.00000000
_cell_angle_gamma   119.86870766
_symmetry_Int_Tables_number   1
_chemical_formula_structural   Dy16In5Pt2Au
_chemical_formula_sum   'Dy16 In5 Pt2 Au1'
_cell_volume   660.01041813
_cell_formula_units_Z   1
loop_
 _symmetry_equiv_pos_site_id
 _symmetry_equiv_pos_as_xyz
  1  'x, y, z'
loop_
 _atom_site_type_symbol
 _atom_site_label
 _atom_site_symmetry_multiplicity
 _atom_site_fract_x
 _atom_site_fract_y
 _atom_site_fract_z
 _atom_site_occupancy
  Dy  Dy0  1  0.529901  0.059803  0.515628  1
  Dy  Dy1  1  0.932567  0.475971  0.518475  1
  Dy  Dy2  1  0.543406  0.475972  0.518475  1
  Dy  Dy3  1  0.469131  0.938261  0.010201  1
  Dy  Dy4  1  0.064204  0.530689  0.016397  1
  Dy  Dy5  1  0.466484  0.530688  0.016397  1
  Dy  Dy6  1  0.173848  0.347696  0.721029  1
  Dy  Dy7  1  0.659341  0.820504  0.728226  1
  Dy  Dy8  1  0.161164  0.820504  0.728226  1
  Dy  Dy9  1  0.825861  0.651721  0.197747  1
  Dy  Dy10  1  0.350325  0.175103  0.224972  1
  Dy  Dy11  1  0.824777  0.175103  0.224972  1
  Dy  Dy12  1  0.671589  0.343178  0.887181  1
  Dy  Dy13  1  0.333377  0.666755  0.390340  1
  Dy  Dy14  1  0.997424  0.994849  0.497563  1
  Dy  Dy15  1  0.000116  0.000231  0.000830  1
  In  In16  1  0.328567  0.162614  0.760326  1
  In  In17  1  0.834046  0.162614  0.760326  1
  In  In18  1  0.163408  0.326815  0.260417  1
  In  In19  1  0.672811  0.836867  0.260866  1
  In  In20  1  0.164057  0.836867  0.260866  1
  Pt  Pt21  1  0.667133  0.334265  0.286144  1
  Pt  Pt22  1  0.333587  0.667176  0.785882  1
  Au  Au23  1  0.832876  0.665754  0.772715  1
