# generated using pymatgen
data_Ho8Ti2VSi16Mo9
_symmetry_space_group_name_H-M   'P 1'
_cell_length_a   6.88751952
_cell_length_b   6.88751971
_cell_length_c   12.75760124
_cell_angle_alpha   89.96537740
_cell_angle_beta   90.03462220
_cell_angle_gamma   89.68986244
_symmetry_Int_Tables_number   1
_chemical_formula_structural   Ho8Ti2VSi16Mo9
_chemical_formula_sum   'Ho8 Ti2 V1 Si16 Mo9'
_cell_volume   605.18506174
_cell_formula_units_Z   1
loop_
 _symmetry_equiv_pos_site_id
 _symmetry_equiv_pos_as_xyz
  1  'x, y, z'
loop_
 _atom_site_type_symbol
 _atom_site_label
 _atom_site_symmetry_multiplicity
 _atom_site_fract_x
 _atom_site_fract_y
 _atom_site_fract_z
 _atom_site_occupancy
  Ho  Ho0  1  0.340782  0.000979  0.468732  1
  Ho  Ho1  1  0.498002  0.838476  0.718413  1
  Ho  Ho2  1  0.500089  0.161567  0.218502  1
  Ho  Ho3  1  0.838476  0.498002  0.281587  1
  Ho  Ho4  1  0.161567  0.500089  0.781498  1
  Ho  Ho5  1  0.659069  0.999778  0.968533  1
  Ho  Ho6  1  0.000979  0.340782  0.531268  1
  Ho  Ho7  1  0.999778  0.659069  0.031467  1
  Ti  Ti8  1  0.170161  0.830980  0.249679  1
  Ti  Ti9  1  0.830980  0.170161  0.750321  1
  V  V10  1  0.668170  0.668170  0.500000  1
  Si  Si11  1  0.201551  0.129035  0.683394  1
  Si  Si12  1  0.373481  0.696985  0.934421  1
  Si  Si13  1  0.628252  0.301866  0.434393  1
  Si  Si14  1  0.696985  0.373481  0.065579  1
  Si  Si15  1  0.301866  0.628252  0.565607  1
  Si  Si16  1  0.796542  0.871436  0.184406  1
  Si  Si17  1  0.129035  0.201551  0.316606  1
  Si  Si18  1  0.871436  0.796542  0.815594  1
  Si  Si19  1  0.288003  0.963498  0.061764  1
  Si  Si20  1  0.542074  0.789043  0.316011  1
  Si  Si21  1  0.458216  0.211033  0.814839  1
  Si  Si22  1  0.789043  0.542074  0.683989  1
  Si  Si23  1  0.211033  0.458216  0.185161  1
  Si  Si24  1  0.710325  0.038126  0.562734  1
  Si  Si25  1  0.963498  0.288003  0.938236  1
  Si  Si26  1  0.038126  0.710325  0.437266  1
  Mo  Mo27  1  0.331755  0.331755  0.000000  1
  Mo  Mo28  1  0.155634  0.001575  0.872646  1
  Mo  Mo29  1  0.496999  0.666396  0.125500  1
  Mo  Mo30  1  0.504332  0.339201  0.624018  1
  Mo  Mo31  1  0.666396  0.496999  0.874500  1
  Mo  Mo32  1  0.339201  0.504332  0.375982  1
  Mo  Mo33  1  0.841873  0.994716  0.374641  1
  Mo  Mo34  1  0.001575  0.155634  0.127354  1
  Mo  Mo35  1  0.994716  0.841873  0.625359  1
