# generated using pymatgen
data_KCaLa(H6Ir)2
_symmetry_space_group_name_H-M   'P 1'
_cell_length_a   5.17002000
_cell_length_b   5.17001980
_cell_length_c   8.56992300
_cell_angle_alpha   90.00000000
_cell_angle_beta   90.00000000
_cell_angle_gamma   119.99998851
_symmetry_Int_Tables_number   1
_chemical_formula_structural   KCaLa(H6Ir)2
_chemical_formula_sum   'K1 Ca1 La1 H12 Ir2'
_cell_volume   198.37732556
_cell_formula_units_Z   1
loop_
 _symmetry_equiv_pos_site_id
 _symmetry_equiv_pos_as_xyz
  1  'x, y, z'
loop_
 _atom_site_type_symbol
 _atom_site_label
 _atom_site_symmetry_multiplicity
 _atom_site_fract_x
 _atom_site_fract_y
 _atom_site_fract_z
 _atom_site_occupancy
  K  K0  1  0.000000  0.000000  0.014387  1
  Ca  Ca1  1  0.666667  0.333333  0.346381  1
  La  La2  1  0.333333  0.666667  0.632163  1
  H  H3  1  0.173594  0.826406  0.380282  1
  H  H4  1  0.652813  0.826406  0.380282  1
  H  H5  1  0.173594  0.347187  0.380282  1
  H  H6  1  0.825138  0.174862  0.619020  1
  H  H7  1  0.349723  0.174862  0.619020  1
  H  H8  1  0.825138  0.650277  0.619020  1
  H  H9  1  0.522990  0.045979  0.851237  1
  H  H10  1  0.522990  0.477010  0.851237  1
  H  H11  1  0.954021  0.477010  0.851237  1
  H  H12  1  0.477510  0.955019  0.151092  1
  H  H13  1  0.477510  0.522490  0.151092  1
  H  H14  1  0.044981  0.522490  0.151092  1
  Ir  Ir15  1  0.666667  0.333333  0.728109  1
  Ir  Ir16  1  0.333333  0.666667  0.274069  1
