# generated using pymatgen
data_CeVP3Rh4
_symmetry_space_group_name_H-M   'P 1'
_cell_length_a   3.93086000
_cell_length_b   7.27511043
_cell_length_c   9.58191419
_cell_angle_alpha   79.23510383
_cell_angle_beta   90.00000000
_cell_angle_gamma   90.00000000
_symmetry_Int_Tables_number   1
_chemical_formula_structural   CeVP3Rh4
_chemical_formula_sum   'Ce2 V2 P6 Rh8'
_cell_volume   269.19601352
_cell_formula_units_Z   2
loop_
 _symmetry_equiv_pos_site_id
 _symmetry_equiv_pos_as_xyz
  1  'x, y, z'
loop_
 _atom_site_type_symbol
 _atom_site_label
 _atom_site_symmetry_multiplicity
 _atom_site_fract_x
 _atom_site_fract_y
 _atom_site_fract_z
 _atom_site_occupancy
  Ce  Ce0  1  0.250000  0.807047  0.786593  1
  Ce  Ce1  1  0.750000  0.192957  0.213413  1
  V  V2  1  0.250000  0.311078  0.722002  1
  V  V3  1  0.750000  0.688920  0.277991  1
  P  P4  1  0.250000  0.257981  0.968778  1
  P  P5  1  0.750000  0.742043  0.031139  1
  P  P6  1  0.250000  0.432638  0.337029  1
  P  P7  1  0.750000  0.567299  0.662992  1
  P  P8  1  0.250000  0.897866  0.342881  1
  P  P9  1  0.750000  0.102141  0.657209  1
  Rh  Rh10  1  0.250000  0.533602  0.097809  1
  Rh  Rh11  1  0.750000  0.466347  0.902169  1
  Rh  Rh12  1  0.250000  0.924269  0.099372  1
  Rh  Rh13  1  0.750000  0.075829  0.900655  1
  Rh  Rh14  1  0.250000  0.622433  0.504721  1
  Rh  Rh15  1  0.750000  0.377527  0.495277  1
  Rh  Rh16  1  0.250000  0.131093  0.477814  1
  Rh  Rh17  1  0.750000  0.868931  0.522158  1
