# generated using pymatgen
data_TaNb(B3Ru)2
_symmetry_space_group_name_H-M   'P 1'
_cell_length_a   9.41365902
_cell_length_b   9.41365931
_cell_length_c   3.06712600
_cell_angle_alpha   90.00000000
_cell_angle_beta   90.00000000
_cell_angle_gamma   159.37550739
_symmetry_Int_Tables_number   1
_chemical_formula_structural   TaNb(B3Ru)2
_chemical_formula_sum   'Ta1 Nb1 B6 Ru2'
_cell_volume   95.73911305
_cell_formula_units_Z   1
loop_
 _symmetry_equiv_pos_site_id
 _symmetry_equiv_pos_as_xyz
  1  'x, y, z'
loop_
 _atom_site_type_symbol
 _atom_site_label
 _atom_site_symmetry_multiplicity
 _atom_site_fract_x
 _atom_site_fract_y
 _atom_site_fract_z
 _atom_site_occupancy
  Ta  Ta0  1  0.073570  0.926427  0.749999  1
  Nb  Nb1  1  0.926797  0.073200  0.250001  1
  B  B2  1  0.624078  0.375919  0.250001  1
  B  B3  1  0.524811  0.475186  0.250001  1
  B  B4  1  0.322099  0.677898  0.250001  1
  B  B5  1  0.677601  0.322396  0.749999  1
  B  B6  1  0.475694  0.524303  0.749999  1
  B  B7  1  0.375428  0.624569  0.749999  1
  Ru  Ru8  1  0.200930  0.799067  0.250001  1
  Ru  Ru9  1  0.798977  0.201020  0.749999  1
