# generated using pymatgen
data_Nd8CoAg2Ir
_symmetry_space_group_name_H-M   'P 1'
_cell_length_a   9.80185811
_cell_length_b   9.80185891
_cell_length_c   9.73807100
_cell_angle_alpha   60.21503831
_cell_angle_beta   60.21503563
_cell_angle_gamma   60.59822012
_symmetry_Int_Tables_number   1
_chemical_formula_structural   Nd8CoAg2Ir
_chemical_formula_sum   'Nd16 Co2 Ag4 Ir2'
_cell_volume   666.67878074
_cell_formula_units_Z   2
loop_
 _symmetry_equiv_pos_site_id
 _symmetry_equiv_pos_as_xyz
  1  'x, y, z'
loop_
 _atom_site_type_symbol
 _atom_site_label
 _atom_site_symmetry_multiplicity
 _atom_site_fract_x
 _atom_site_fract_y
 _atom_site_fract_z
 _atom_site_occupancy
  Nd  Nd0  1  0.347055  0.347055  0.356061  1
  Nd  Nd1  1  0.347055  0.347055  0.949829  1
  Nd  Nd2  1  0.343836  0.953388  0.351387  1
  Nd  Nd3  1  0.953388  0.343836  0.351387  1
  Nd  Nd4  1  0.815044  0.190182  0.188998  1
  Nd  Nd5  1  0.190182  0.815044  0.805776  1
  Nd  Nd6  1  0.190182  0.815044  0.188998  1
  Nd  Nd7  1  0.815044  0.190182  0.805776  1
  Nd  Nd8  1  0.188660  0.188660  0.811340  1
  Nd  Nd9  1  0.809069  0.809069  0.190931  1
  Nd  Nd10  1  0.938424  0.563208  0.560176  1
  Nd  Nd11  1  0.563208  0.938424  0.938193  1
  Nd  Nd12  1  0.563208  0.938424  0.560176  1
  Nd  Nd13  1  0.938424  0.563208  0.938193  1
  Nd  Nd14  1  0.559984  0.559984  0.940016  1
  Nd  Nd15  1  0.936551  0.936551  0.563449  1
  Co  Co16  1  0.141290  0.141290  0.140760  1
  Co  Co17  1  0.141290  0.141290  0.576658  1
  Ag  Ag18  1  0.580717  0.580717  0.579923  1
  Ag  Ag19  1  0.580717  0.580717  0.258643  1
  Ag  Ag20  1  0.581291  0.258018  0.580345  1
  Ag  Ag21  1  0.258018  0.581291  0.580345  1
  Ir  Ir22  1  0.143838  0.573522  0.141319  1
  Ir  Ir23  1  0.573522  0.143838  0.141319  1
