# generated using pymatgen
data_DyEr5Zn23Se
_symmetry_space_group_name_H-M   'P 1'
_cell_length_a   9.02265075
_cell_length_b   9.02059197
_cell_length_c   9.02060900
_cell_angle_alpha   60.01490936
_cell_angle_beta   59.99219322
_cell_angle_gamma   59.99226421
_symmetry_Int_Tables_number   1
_chemical_formula_structural   DyEr5Zn23Se
_chemical_formula_sum   'Dy1 Er5 Zn23 Se1'
_cell_volume   519.14410045
_cell_formula_units_Z   1
loop_
 _symmetry_equiv_pos_site_id
 _symmetry_equiv_pos_as_xyz
  1  'x, y, z'
loop_
 _atom_site_type_symbol
 _atom_site_label
 _atom_site_symmetry_multiplicity
 _atom_site_fract_x
 _atom_site_fract_y
 _atom_site_fract_z
 _atom_site_occupancy
  Dy  Dy0  1  0.717580  0.282418  0.282424  1
  Er  Er1  1  0.716707  0.283293  0.716800  1
  Er  Er2  1  0.716713  0.716810  0.283285  1
  Er  Er3  1  0.282325  0.717679  0.717671  1
  Er  Er4  1  0.283201  0.716802  0.283292  1
  Er  Er5  1  0.283191  0.283285  0.716809  1
  Zn  Zn6  1  0.625545  0.124146  0.124167  1
  Zn  Zn7  1  0.124479  0.626438  0.124620  1
  Zn  Zn8  1  0.124468  0.124591  0.626474  1
  Zn  Zn9  1  0.126143  0.124142  0.124177  1
  Zn  Zn10  1  0.373514  0.875563  0.875542  1
  Zn  Zn11  1  0.875809  0.374503  0.873860  1
  Zn  Zn12  1  0.875823  0.873892  0.374462  1
  Zn  Zn13  1  0.875376  0.875569  0.875529  1
  Zn  Zn14  1  0.499893  0.000111  0.000107  1
  Zn  Zn15  1  0.499683  0.999699  0.500317  1
  Zn  Zn16  1  0.499688  0.500312  0.999696  1
  Zn  Zn17  1  0.999891  0.500108  0.500113  1
  Zn  Zn18  1  0.000303  0.500316  0.999697  1
  Zn  Zn19  1  0.000306  0.999695  0.500315  1
  Zn  Zn20  1  0.999772  0.000223  0.000231  1
  Zn  Zn21  1  0.013317  0.328897  0.328880  1
  Zn  Zn22  1  0.328964  0.012444  0.329634  1
  Zn  Zn23  1  0.328952  0.329643  0.012446  1
  Zn  Zn24  1  0.328907  0.328892  0.328886  1
  Zn  Zn25  1  0.987561  0.671025  0.671042  1
  Zn  Zn26  1  0.671118  0.986670  0.671089  1
  Zn  Zn27  1  0.671127  0.671079  0.986676  1
  Zn  Zn28  1  0.670372  0.671030  0.671034  1
  Se  Se29  1  0.499275  0.500725  0.500724  1
