# generated using pymatgen
data_Y16CdIn3Rh4
_symmetry_space_group_name_H-M   'P 1'
_cell_length_a   9.68410257
_cell_length_b   9.68412378
_cell_length_c   9.68410300
_cell_angle_alpha   60.00007438
_cell_angle_beta   60.00000194
_cell_angle_gamma   60.00007768
_symmetry_Int_Tables_number   1
_chemical_formula_structural   Y16CdIn3Rh4
_chemical_formula_sum   'Y16 Cd1 In3 Rh4'
_cell_volume   642.19159873
_cell_formula_units_Z   1
loop_
 _symmetry_equiv_pos_site_id
 _symmetry_equiv_pos_as_xyz
  1  'x, y, z'
loop_
 _atom_site_type_symbol
 _atom_site_label
 _atom_site_symmetry_multiplicity
 _atom_site_fract_x
 _atom_site_fract_y
 _atom_site_fract_z
 _atom_site_occupancy
  Y  Y0  1  0.564424  0.560853  0.937361  1
  Y  Y1  1  0.149079  0.552764  0.149079  1
  Y  Y2  1  0.687697  0.311855  0.312752  1
  Y  Y3  1  0.937361  0.560853  0.564424  1
  Y  Y4  1  0.937361  0.560853  0.937361  1
  Y  Y5  1  0.688929  0.689870  0.310601  1
  Y  Y6  1  0.562556  0.936476  0.938413  1
  Y  Y7  1  0.148731  0.149066  0.148731  1
  Y  Y8  1  0.310601  0.689870  0.310601  1
  Y  Y9  1  0.553472  0.149066  0.148731  1
  Y  Y10  1  0.312752  0.311855  0.687697  1
  Y  Y11  1  0.310601  0.689870  0.688929  1
  Y  Y12  1  0.148731  0.149066  0.553472  1
  Y  Y13  1  0.687697  0.311855  0.687697  1
  Y  Y14  1  0.938413  0.936476  0.562556  1
  Y  Y15  1  0.562556  0.936476  0.562556  1
  Cd  Cd16  1  0.917794  0.246617  0.917794  1
  In  In17  1  0.916646  0.917361  0.916646  1
  In  In18  1  0.249345  0.917361  0.916646  1
  In  In19  1  0.916646  0.917361  0.249345  1
  Rh  Rh20  1  0.356655  0.357431  0.929259  1
  Rh  Rh21  1  0.356655  0.357431  0.356655  1
  Rh  Rh22  1  0.929259  0.357431  0.356655  1
  Rh  Rh23  1  0.356039  0.931883  0.356039  1
