# generated using pymatgen
data_TbYb3Y4(ReC2)4
_symmetry_space_group_name_H-M   'P 1'
_cell_length_a   5.13618400
_cell_length_b   6.55652593
_cell_length_c   10.07228301
_cell_angle_alpha   89.36599109
_cell_angle_beta   90.00000000
_cell_angle_gamma   90.00000000
_symmetry_Int_Tables_number   1
_chemical_formula_structural   TbYb3Y4(ReC2)4
_chemical_formula_sum   'Tb1 Yb3 Y4 Re4 C8'
_cell_volume   339.16863792
_cell_formula_units_Z   1
loop_
 _symmetry_equiv_pos_site_id
 _symmetry_equiv_pos_as_xyz
  1  'x, y, z'
loop_
 _atom_site_type_symbol
 _atom_site_label
 _atom_site_symmetry_multiplicity
 _atom_site_fract_x
 _atom_site_fract_y
 _atom_site_fract_z
 _atom_site_occupancy
  Tb  Tb0  1  0.750000  0.310749  0.447137  1
  Yb  Yb1  1  0.750000  0.465334  0.775915  1
  Yb  Yb2  1  0.750000  0.965230  0.724543  1
  Yb  Yb3  1  0.250000  0.034011  0.276752  1
  Y  Y4  1  0.250000  0.691065  0.554236  1
  Y  Y5  1  0.750000  0.815122  0.053255  1
  Y  Y6  1  0.250000  0.185836  0.945544  1
  Y  Y7  1  0.250000  0.533527  0.223129  1
  Re  Re8  1  0.250000  0.724488  0.860346  1
  Re  Re9  1  0.750000  0.273901  0.139909  1
  Re  Re10  1  0.750000  0.772823  0.359500  1
  Re  Re11  1  0.250000  0.228864  0.638682  1
  C  C12  1  0.250000  0.459861  0.758963  1
  C  C13  1  0.750000  0.540002  0.239532  1
  C  C14  1  0.750000  0.040236  0.260432  1
  C  C15  1  0.250000  0.960726  0.740497  1
  C  C16  1  0.250000  0.806778  0.041932  1
  C  C17  1  0.750000  0.180614  0.961529  1
  C  C18  1  0.750000  0.688264  0.540025  1
  C  C19  1  0.250000  0.322571  0.458140  1
