# generated using pymatgen
data_LaNdEu2Er2Ta2O14
_symmetry_space_group_name_H-M   'P 1'
_cell_length_a   6.59510900
_cell_length_b   6.54686935
_cell_length_c   7.67602148
_cell_angle_alpha   89.90544880
_cell_angle_beta   90.09153459
_cell_angle_gamma   109.36915710
_symmetry_Int_Tables_number   1
_chemical_formula_structural   LaNdEu2Er2Ta2O14
_chemical_formula_sum   'La1 Nd1 Eu2 Er2 Ta2 O14'
_cell_volume   312.67089434
_cell_formula_units_Z   1
loop_
 _symmetry_equiv_pos_site_id
 _symmetry_equiv_pos_as_xyz
  1  'x, y, z'
loop_
 _atom_site_type_symbol
 _atom_site_label
 _atom_site_symmetry_multiplicity
 _atom_site_fract_x
 _atom_site_fract_y
 _atom_site_fract_z
 _atom_site_occupancy
  La  La0  1  0.502152  0.502491  0.498905  1
  Nd  Nd1  1  0.466183  0.002729  0.247912  1
  Eu  Eu2  1  0.502493  0.502224  0.000222  1
  Eu  Eu3  1  0.524803  0.997863  0.752935  1
  Er  Er4  1  0.001969  0.532562  0.247247  1
  Er  Er5  1  0.999512  0.463300  0.752438  1
  Ta  Ta6  1  0.998888  0.999541  0.500944  1
  Ta  Ta7  1  0.998616  0.999403  0.999291  1
  O  O8  1  0.949234  0.070387  0.749835  1
  O  O9  1  0.054681  0.928709  0.250200  1
  O  O10  1  0.353536  0.629752  0.244431  1
  O  O11  1  0.646472  0.361573  0.755701  1
  O  O12  1  0.358533  0.625352  0.755099  1
  O  O13  1  0.646172  0.382451  0.245061  1
  O  O14  1  0.319821  0.086790  0.973631  1
  O  O15  1  0.680698  0.919510  0.473312  1
  O  O16  1  0.320054  0.082021  0.527150  1
  O  O17  1  0.680096  0.914806  0.025725  1
  O  O18  1  0.052030  0.314850  0.463183  1
  O  O19  1  0.951804  0.686766  0.961221  1
  O  O20  1  0.946361  0.684590  0.539189  1
  O  O21  1  0.045892  0.312329  0.036370  1
