# generated using pymatgen
data_Hf12Ga3Cu9N4
_symmetry_space_group_name_H-M   'P 1'
_cell_length_a   8.37004079
_cell_length_b   8.37004070
_cell_length_c   8.40476714
_cell_angle_alpha   60.13658485
_cell_angle_beta   60.13659060
_cell_angle_gamma   59.99999932
_symmetry_Int_Tables_number   1
_chemical_formula_structural   Hf12Ga3Cu9N4
_chemical_formula_sum   'Hf12 Ga3 Cu9 N4'
_cell_volume   417.21446922
_cell_formula_units_Z   1
loop_
 _symmetry_equiv_pos_site_id
 _symmetry_equiv_pos_as_xyz
  1  'x, y, z'
loop_
 _atom_site_type_symbol
 _atom_site_label
 _atom_site_symmetry_multiplicity
 _atom_site_fract_x
 _atom_site_fract_y
 _atom_site_fract_z
 _atom_site_occupancy
  Hf  Hf0  1  0.809387  0.193084  0.188142  1
  Hf  Hf1  1  0.193084  0.809387  0.188142  1
  Hf  Hf2  1  0.809387  0.809387  0.188142  1
  Hf  Hf3  1  0.189835  0.809545  0.810784  1
  Hf  Hf4  1  0.809545  0.189835  0.810784  1
  Hf  Hf5  1  0.189835  0.189835  0.810784  1
  Hf  Hf6  1  0.440613  0.056916  0.061858  1
  Hf  Hf7  1  0.056916  0.440613  0.061858  1
  Hf  Hf8  1  0.440613  0.440613  0.061858  1
  Hf  Hf9  1  0.060165  0.440455  0.439216  1
  Hf  Hf10  1  0.440455  0.060165  0.439216  1
  Hf  Hf11  1  0.060165  0.060165  0.439216  1
  Ga  Ga12  1  0.625000  0.625000  0.625000  1
  Ga  Ga13  1  0.125000  0.625000  0.625000  1
  Ga  Ga14  1  0.625000  0.125000  0.625000  1
  Cu  Cu15  1  0.416941  0.416941  0.749174  1
  Cu  Cu16  1  0.418892  0.418892  0.414847  1
  Cu  Cu17  1  0.747367  0.418892  0.414847  1
  Cu  Cu18  1  0.418892  0.747367  0.414847  1
  Cu  Cu19  1  0.833059  0.833059  0.500826  1
  Cu  Cu20  1  0.831108  0.831108  0.835153  1
  Cu  Cu21  1  0.502633  0.831108  0.835153  1
  Cu  Cu22  1  0.831108  0.502633  0.835153  1
  Cu  Cu23  1  0.625000  0.625000  0.125000  1
  N  N24  1  0.125000  0.125000  0.625000  1
  N  N25  1  0.125000  0.125000  0.125000  1
  N  N26  1  0.625000  0.125000  0.125000  1
  N  N27  1  0.125000  0.625000  0.125000  1
