# generated using pymatgen
data_KTb4Sm6(C2I9)2
_symmetry_space_group_name_H-M   'P 1'
_cell_length_a   11.49967111
_cell_length_b   11.53089623
_cell_length_c   11.63035428
_cell_angle_alpha   113.34160974
_cell_angle_beta   87.10583006
_cell_angle_gamma   119.62219126
_symmetry_Int_Tables_number   1
_chemical_formula_structural   KTb4Sm6(C2I9)2
_chemical_formula_sum   'K1 Tb4 Sm6 C4 I18'
_cell_volume   1210.34059917
_cell_formula_units_Z   1
loop_
 _symmetry_equiv_pos_site_id
 _symmetry_equiv_pos_as_xyz
  1  'x, y, z'
loop_
 _atom_site_type_symbol
 _atom_site_label
 _atom_site_symmetry_multiplicity
 _atom_site_fract_x
 _atom_site_fract_y
 _atom_site_fract_z
 _atom_site_occupancy
  K  K0  1  0.500167  0.999509  0.499896  1
  Tb  Tb1  1  0.673922  0.722102  0.708785  1
  Tb  Tb2  1  0.275992  0.353407  0.018233  1
  Tb  Tb3  1  0.094687  0.394608  0.294611  1
  Tb  Tb4  1  0.966529  0.039459  0.322947  1
  Sm  Sm5  1  0.906774  0.601888  0.703107  1
  Sm  Sm6  1  0.107224  0.944498  0.000639  1
  Sm  Sm7  1  0.034508  0.961829  0.673868  1
  Sm  Sm8  1  0.329098  0.279026  0.293381  1
  Sm  Sm9  1  0.720807  0.643492  0.983055  1
  Sm  Sm10  1  0.892591  0.056686  0.999929  1
  C  C11  1  0.152667  0.223575  0.124867  1
  C  C12  1  0.845831  0.776929  0.874712  1
  C  C13  1  0.920107  0.852103  0.800551  1
  C  C14  1  0.078052  0.148043  0.199183  1
  I  I15  1  0.446055  0.529475  0.829327  1
  I  I16  1  0.387911  0.037047  0.158575  1
  I  I17  1  0.771803  0.856015  0.500469  1
  I  I18  1  0.838320  0.315603  0.156989  1
  I  I19  1  0.550674  0.470253  0.167732  1
  I  I20  1  0.222972  0.142547  0.498129  1
  I  I21  1  0.319490  0.099471  0.832888  1
  I  I22  1  0.683694  0.906643  0.172910  1
  I  I23  1  0.977968  0.758695  0.171607  1
  I  I24  1  0.933651  0.297613  0.499544  1
  I  I25  1  0.025936  0.247983  0.833866  1
  I  I26  1  0.069948  0.700062  0.495610  1
  I  I27  1  0.264957  0.625005  0.188175  1
  I  I28  1  0.733107  0.367386  0.810027  1
  I  I29  1  0.637553  0.432122  0.497215  1
  I  I30  1  0.165845  0.686831  0.846121  1
  I  I31  1  0.613176  0.958879  0.839568  1
  I  I32  1  0.357985  0.571217  0.503485  1
