# generated using pymatgen
data_NaPr5YCoBr12
_symmetry_space_group_name_H-M   'P 1'
_cell_length_a   9.47495076
_cell_length_b   9.56642128
_cell_length_c   9.45219295
_cell_angle_alpha   107.39753106
_cell_angle_beta   107.20142858
_cell_angle_gamma   106.71762514
_symmetry_Int_Tables_number   1
_chemical_formula_structural   NaPr5YCoBr12
_chemical_formula_sum   'Na1 Pr5 Y1 Co1 Br12'
_cell_volume   711.43322248
_cell_formula_units_Z   1
loop_
 _symmetry_equiv_pos_site_id
 _symmetry_equiv_pos_as_xyz
  1  'x, y, z'
loop_
 _atom_site_type_symbol
 _atom_site_label
 _atom_site_symmetry_multiplicity
 _atom_site_fract_x
 _atom_site_fract_y
 _atom_site_fract_z
 _atom_site_occupancy
  Na  Na0  1  0.499901  0.500384  0.499717  1
  Pr  Pr1  1  0.311320  0.029765  0.107293  1
  Pr  Pr2  1  0.031350  0.109903  0.313836  1
  Pr  Pr3  1  0.970041  0.894576  0.687632  1
  Pr  Pr4  1  0.689087  0.970827  0.892724  1
  Pr  Pr5  1  0.887465  0.673514  0.968330  1
  Y  Y6  1  0.110659  0.319033  0.031924  1
  Co  Co7  1  0.000729  0.000765  0.001169  1
  Br  Br8  1  0.220080  0.677012  0.072912  1
  Br  Br9  1  0.443402  0.373308  0.148540  1
  Br  Br10  1  0.683879  0.074435  0.223008  1
  Br  Br11  1  0.927374  0.781390  0.317374  1
  Br  Br12  1  0.152570  0.453493  0.363977  1
  Br  Br13  1  0.375989  0.155454  0.457463  1
  Br  Br14  1  0.624059  0.844950  0.542745  1
  Br  Br15  1  0.846428  0.546185  0.624197  1
  Br  Br16  1  0.075423  0.225983  0.694451  1
  Br  Br17  1  0.316191  0.925857  0.777249  1
  Br  Br18  1  0.544177  0.627325  0.845800  1
  Br  Br19  1  0.789882  0.315841  0.929663  1
