# generated using pymatgen
data_Sm4YP12Pd3Ru16
_symmetry_space_group_name_H-M   'P 1'
_cell_length_a   12.66593200
_cell_length_b   12.66593384
_cell_length_c   4.00187700
_cell_angle_alpha   90.00000000
_cell_angle_beta   90.00000000
_cell_angle_gamma   119.99999519
_symmetry_Int_Tables_number   1
_chemical_formula_structural   Sm4YP12Pd3Ru16
_chemical_formula_sum   'Sm4 Y1 P12 Pd3 Ru16'
_cell_volume   555.99227337
_cell_formula_units_Z   1
loop_
 _symmetry_equiv_pos_site_id
 _symmetry_equiv_pos_as_xyz
  1  'x, y, z'
loop_
 _atom_site_type_symbol
 _atom_site_label
 _atom_site_symmetry_multiplicity
 _atom_site_fract_x
 _atom_site_fract_y
 _atom_site_fract_z
 _atom_site_occupancy
  Sm  Sm0  1  0.000065  0.181715  0.500000  1
  Sm  Sm1  1  0.818285  0.818350  0.500000  1
  Sm  Sm2  1  0.181650  0.999935  0.500000  1
  Sm  Sm3  1  0.666667  0.333333  0.000000  1
  Y  Y4  1  0.333333  0.666667  0.000000  1
  P  P5  1  0.000287  0.812876  0.000000  1
  P  P6  1  0.187124  0.187411  0.000000  1
  P  P7  1  0.812589  0.999713  0.000000  1
  P  P8  1  0.699787  0.178622  0.500000  1
  P  P9  1  0.821378  0.521165  0.500000  1
  P  P10  1  0.478835  0.300213  0.500000  1
  P  P11  1  0.179721  0.699437  0.500000  1
  P  P12  1  0.519717  0.820279  0.500000  1
  P  P13  1  0.300563  0.480283  0.500000  1
  P  P14  1  0.999927  0.367698  0.000000  1
  P  P15  1  0.632302  0.632230  0.000000  1
  P  P16  1  0.367770  0.000073  0.000000  1
  Pd  Pd17  1  0.999909  0.553465  0.000000  1
  Pd  Pd18  1  0.446535  0.446444  0.000000  1
  Pd  Pd19  1  0.553556  0.000091  0.000000  1
  Ru  Ru20  1  0.000378  0.711602  0.500000  1
  Ru  Ru21  1  0.288398  0.288776  0.500000  1
  Ru  Ru22  1  0.711224  0.999622  0.500000  1
  Ru  Ru23  1  0.806305  0.185452  0.000000  1
  Ru  Ru24  1  0.814548  0.620853  0.000000  1
  Ru  Ru25  1  0.379147  0.193695  0.000000  1
  Ru  Ru26  1  0.186163  0.805875  0.000000  1
  Ru  Ru27  1  0.619713  0.813837  0.000000  1
  Ru  Ru28  1  0.194125  0.380287  0.000000  1
  Ru  Ru29  1  0.877143  0.369018  0.500000  1
  Ru  Ru30  1  0.630982  0.508125  0.500000  1
  Ru  Ru31  1  0.491875  0.122857  0.500000  1
  Ru  Ru32  1  0.369322  0.875691  0.500000  1
  Ru  Ru33  1  0.506370  0.630678  0.500000  1
  Ru  Ru34  1  0.124309  0.493630  0.500000  1
  Ru  Ru35  1  0.000000  0.000000  0.000000  1
