# generated using pymatgen
data_TmLu2(BO3)3
_symmetry_space_group_name_H-M   'P 1'
_cell_length_a   6.47470398
_cell_length_b   6.47470498
_cell_length_c   9.49579600
_cell_angle_alpha   70.40430122
_cell_angle_beta   70.40429906
_cell_angle_gamma   59.93073317
_symmetry_Int_Tables_number   1
_chemical_formula_structural   TmLu2(BO3)3
_chemical_formula_sum   'Tm2 Lu4 B6 O18'
_cell_volume   317.64442292
_cell_formula_units_Z   2
loop_
 _symmetry_equiv_pos_site_id
 _symmetry_equiv_pos_as_xyz
  1  'x, y, z'
loop_
 _atom_site_type_symbol
 _atom_site_label
 _atom_site_symmetry_multiplicity
 _atom_site_fract_x
 _atom_site_fract_y
 _atom_site_fract_z
 _atom_site_occupancy
  Tm  Tm0  1  0.000000  0.500000  0.500000  1
  Tm  Tm1  1  0.500000  0.000000  0.000000  1
  Lu  Lu2  1  0.170380  0.657582  0.999557  1
  Lu  Lu3  1  0.342418  0.829620  0.500443  1
  Lu  Lu4  1  0.829620  0.342418  0.000443  1
  Lu  Lu5  1  0.657582  0.170380  0.499557  1
  B  B6  1  0.918778  0.840063  0.746082  1
  B  B7  1  0.159937  0.081222  0.753918  1
  B  B8  1  0.081222  0.159937  0.253918  1
  B  B9  1  0.840063  0.918778  0.246082  1
  B  B10  1  0.672351  0.327649  0.750000  1
  B  B11  1  0.327649  0.672351  0.250000  1
  O  O12  1  0.967694  0.783035  0.599151  1
  O  O13  1  0.216965  0.032306  0.900849  1
  O  O14  1  0.032306  0.216965  0.400849  1
  O  O15  1  0.783035  0.967694  0.099151  1
  O  O16  1  0.871289  0.680331  0.889665  1
  O  O17  1  0.319669  0.128711  0.610335  1
  O  O18  1  0.128711  0.319669  0.110335  1
  O  O19  1  0.680331  0.871289  0.389665  1
  O  O20  1  0.513621  0.388560  0.894011  1
  O  O21  1  0.611440  0.486379  0.605989  1
  O  O22  1  0.486379  0.611440  0.105989  1
  O  O23  1  0.388560  0.513621  0.394011  1
  O  O24  1  0.916057  0.303593  0.752573  1
  O  O25  1  0.696407  0.083943  0.747427  1
  O  O26  1  0.083943  0.696407  0.247427  1
  O  O27  1  0.303593  0.916057  0.252573  1
  O  O28  1  0.139199  0.860801  0.750000  1
  O  O29  1  0.860801  0.139199  0.250000  1
