# generated using pymatgen
data_Hf2AsRh5
_symmetry_space_group_name_H-M   'P 1'
_cell_length_a   4.05248600
_cell_length_b   5.61949400
_cell_length_c   10.91207800
_cell_angle_alpha   90.00000000
_cell_angle_beta   90.00000000
_cell_angle_gamma   90.00000000
_symmetry_Int_Tables_number   1
_chemical_formula_structural   Hf2AsRh5
_chemical_formula_sum   'Hf4 As2 Rh10'
_cell_volume   248.49988764
_cell_formula_units_Z   2
loop_
 _symmetry_equiv_pos_site_id
 _symmetry_equiv_pos_as_xyz
  1  'x, y, z'
loop_
 _atom_site_type_symbol
 _atom_site_label
 _atom_site_symmetry_multiplicity
 _atom_site_fract_x
 _atom_site_fract_y
 _atom_site_fract_z
 _atom_site_occupancy
  Hf  Hf0  1  0.500000  0.328656  0.357249  1
  Hf  Hf1  1  0.500000  0.671344  0.642751  1
  Hf  Hf2  1  0.500000  0.171344  0.857249  1
  Hf  Hf3  1  0.500000  0.828656  0.142751  1
  As  As4  1  0.000000  0.000000  0.500000  1
  As  As5  1  0.000000  0.500000  0.000000  1
  Rh  Rh6  1  0.500000  0.315041  0.105325  1
  Rh  Rh7  1  0.500000  0.684959  0.894675  1
  Rh  Rh8  1  0.500000  0.815041  0.394675  1
  Rh  Rh9  1  0.500000  0.184959  0.605325  1
  Rh  Rh10  1  0.000000  0.928061  0.743367  1
  Rh  Rh11  1  0.000000  0.071939  0.256633  1
  Rh  Rh12  1  0.000000  0.428061  0.756633  1
  Rh  Rh13  1  0.000000  0.571939  0.243367  1
  Rh  Rh14  1  0.000000  0.500000  0.500000  1
  Rh  Rh15  1  0.000000  0.000000  0.000000  1
