# generated using pymatgen
data_ZrPa2FeO8
_symmetry_space_group_name_H-M   'P 1'
_cell_length_a   5.24864003
_cell_length_b   5.36132837
_cell_length_c   5.36359300
_cell_angle_alpha   90.00000000
_cell_angle_beta   90.00000000
_cell_angle_gamma   87.09118358
_symmetry_Int_Tables_number   1
_chemical_formula_structural   ZrPa2FeO8
_chemical_formula_sum   'Zr1 Pa2 Fe1 O8'
_cell_volume   150.73534125
_cell_formula_units_Z   1
loop_
 _symmetry_equiv_pos_site_id
 _symmetry_equiv_pos_as_xyz
  1  'x, y, z'
loop_
 _atom_site_type_symbol
 _atom_site_label
 _atom_site_symmetry_multiplicity
 _atom_site_fract_x
 _atom_site_fract_y
 _atom_site_fract_z
 _atom_site_occupancy
  Zr  Zr0  1  0.500000  0.750000  0.282573  1
  Pa  Pa1  1  0.000000  0.250000  0.241640  1
  Pa  Pa2  1  0.000000  0.750000  0.755835  1
  Fe  Fe3  1  0.500000  0.250000  0.732128  1
  O  O4  1  0.756607  0.559827  0.044239  1
  O  O5  1  0.243393  0.940173  0.044239  1
  O  O6  1  0.232384  0.445443  0.960062  1
  O  O7  1  0.767616  0.054557  0.960062  1
  O  O8  1  0.763627  0.971049  0.457450  1
  O  O9  1  0.236373  0.528951  0.457450  1
  O  O10  1  0.254903  0.016118  0.532161  1
  O  O11  1  0.745097  0.483882  0.532161  1
