# generated using pymatgen
data_CaEu5(Ni7B2)2
_symmetry_space_group_name_H-M   'P 1'
_cell_length_a   5.14541900
_cell_length_b   5.14541962
_cell_length_c   14.42733000
_cell_angle_alpha   90.00000000
_cell_angle_beta   90.00000000
_cell_angle_gamma   120.00000241
_symmetry_Int_Tables_number   1
_chemical_formula_structural   CaEu5(Ni7B2)2
_chemical_formula_sum   'Ca1 Eu5 Ni14 B4'
_cell_volume   330.79438663
_cell_formula_units_Z   1
loop_
 _symmetry_equiv_pos_site_id
 _symmetry_equiv_pos_as_xyz
  1  'x, y, z'
loop_
 _atom_site_type_symbol
 _atom_site_label
 _atom_site_symmetry_multiplicity
 _atom_site_fract_x
 _atom_site_fract_y
 _atom_site_fract_z
 _atom_site_occupancy
  Ca  Ca0  1  0.666667  0.333333  0.250000  1
  Eu  Eu1  1  0.333333  0.666667  0.967361  1
  Eu  Eu2  1  0.666667  0.333333  0.034373  1
  Eu  Eu3  1  0.666667  0.333333  0.465627  1
  Eu  Eu4  1  0.333333  0.666667  0.532639  1
  Eu  Eu5  1  0.333333  0.666667  0.750000  1
  Ni  Ni6  1  0.164960  0.835040  0.345932  1
  Ni  Ni7  1  0.164960  0.329919  0.345932  1
  Ni  Ni8  1  0.670081  0.835040  0.345932  1
  Ni  Ni9  1  0.834868  0.165132  0.652777  1
  Ni  Ni10  1  0.834868  0.669736  0.652777  1
  Ni  Ni11  1  0.330264  0.165132  0.652777  1
  Ni  Ni12  1  0.834868  0.165132  0.847223  1
  Ni  Ni13  1  0.834868  0.669736  0.847223  1
  Ni  Ni14  1  0.330264  0.165132  0.847223  1
  Ni  Ni15  1  0.164960  0.835040  0.154068  1
  Ni  Ni16  1  0.164960  0.329919  0.154068  1
  Ni  Ni17  1  0.670081  0.835040  0.154068  1
  Ni  Ni18  1  0.000000  0.000000  0.499693  1
  Ni  Ni19  1  0.000000  0.000000  0.000307  1
  B  B20  1  0.333333  0.666667  0.250000  1
  B  B21  1  0.666667  0.333333  0.750000  1
  B  B22  1  0.000000  0.000000  0.250000  1
  B  B23  1  0.000000  0.000000  0.750000  1
