# generated using pymatgen
data_Tb4Hf3MgPt4
_symmetry_space_group_name_H-M   'P 1'
_cell_length_a   4.63184900
_cell_length_b   7.08708942
_cell_length_c   8.25537613
_cell_angle_alpha   92.93561604
_cell_angle_beta   90.00000000
_cell_angle_gamma   90.00000000
_symmetry_Int_Tables_number   1
_chemical_formula_structural   Tb4Hf3MgPt4
_chemical_formula_sum   'Tb4 Hf3 Mg1 Pt4'
_cell_volume   270.63806395
_cell_formula_units_Z   1
loop_
 _symmetry_equiv_pos_site_id
 _symmetry_equiv_pos_as_xyz
  1  'x, y, z'
loop_
 _atom_site_type_symbol
 _atom_site_label
 _atom_site_symmetry_multiplicity
 _atom_site_fract_x
 _atom_site_fract_y
 _atom_site_fract_z
 _atom_site_occupancy
  Tb  Tb0  1  0.250000  0.982532  0.319403  1
  Tb  Tb1  1  0.250000  0.467724  0.169751  1
  Tb  Tb2  1  0.750000  0.028771  0.688358  1
  Tb  Tb3  1  0.750000  0.514729  0.829097  1
  Hf  Hf4  1  0.250000  0.365418  0.571319  1
  Hf  Hf5  1  0.250000  0.853766  0.932752  1
  Hf  Hf6  1  0.750000  0.645737  0.424127  1
  Mg  Mg7  1  0.750000  0.145435  0.074005  1
  Pt  Pt8  1  0.250000  0.227976  0.877243  1
  Pt  Pt9  1  0.250000  0.735686  0.599543  1
  Pt  Pt10  1  0.750000  0.759296  0.106046  1
  Pt  Pt11  1  0.750000  0.272931  0.408356  1
