# generated using pymatgen
data_Cs2Yb(BrCl)2
_symmetry_space_group_name_H-M   'P 1'
_cell_length_a   9.91148894
_cell_length_b   9.91148904
_cell_length_c   7.65895900
_cell_angle_alpha   90.00000000
_cell_angle_beta   90.00000000
_cell_angle_gamma   134.40965644
_symmetry_Int_Tables_number   1
_chemical_formula_structural   Cs2Yb(BrCl)2
_chemical_formula_sum   'Cs4 Yb2 Br4 Cl4'
_cell_volume   537.47898416
_cell_formula_units_Z   2
loop_
 _symmetry_equiv_pos_site_id
 _symmetry_equiv_pos_as_xyz
  1  'x, y, z'
loop_
 _atom_site_type_symbol
 _atom_site_label
 _atom_site_symmetry_multiplicity
 _atom_site_fract_x
 _atom_site_fract_y
 _atom_site_fract_z
 _atom_site_occupancy
  Cs  Cs0  1  0.140429  0.859571  0.500000  1
  Cs  Cs1  1  0.640429  0.359571  0.000000  1
  Cs  Cs2  1  0.859571  0.140429  0.500000  1
  Cs  Cs3  1  0.359571  0.640429  0.000000  1
  Yb  Yb4  1  0.500000  0.500000  0.500000  1
  Yb  Yb5  1  0.000000  0.000000  0.000000  1
  Br  Br6  1  0.341705  0.658295  0.500000  1
  Br  Br7  1  0.841705  0.158295  0.000000  1
  Br  Br8  1  0.658295  0.341705  0.500000  1
  Br  Br9  1  0.158295  0.841705  0.000000  1
  Cl  Cl10  1  0.249795  0.249795  0.249180  1
  Cl  Cl11  1  0.750205  0.750205  0.750820  1
  Cl  Cl12  1  0.250205  0.250205  0.749180  1
  Cl  Cl13  1  0.749795  0.749795  0.250820  1
