# generated using pymatgen
data_La2As7Rh12
_symmetry_space_group_name_H-M   'P 1'
_cell_length_a   10.04709500
_cell_length_b   10.04709481
_cell_length_c   3.99821900
_cell_angle_alpha   90.00000000
_cell_angle_beta   90.00000000
_cell_angle_gamma   120.00000391
_symmetry_Int_Tables_number   1
_chemical_formula_structural   La2As7Rh12
_chemical_formula_sum   'La2 As7 Rh12'
_cell_volume   349.52496641
_cell_formula_units_Z   1
loop_
 _symmetry_equiv_pos_site_id
 _symmetry_equiv_pos_as_xyz
  1  'x, y, z'
loop_
 _atom_site_type_symbol
 _atom_site_label
 _atom_site_symmetry_multiplicity
 _atom_site_fract_x
 _atom_site_fract_y
 _atom_site_fract_z
 _atom_site_occupancy
  La  La0  1  0.000000  0.000000  0.748075  1
  La  La1  1  0.333333  0.666667  0.253425  1
  As  As2  1  0.666667  0.333333  0.520612  1
  As  As3  1  0.068275  0.621197  0.752143  1
  As  As4  1  0.378803  0.447078  0.752143  1
  As  As5  1  0.552922  0.931725  0.752143  1
  As  As6  1  0.265567  0.045082  0.249657  1
  As  As7  1  0.954918  0.220485  0.249657  1
  As  As8  1  0.779515  0.734433  0.249657  1
  Rh  Rh9  1  0.814603  0.597197  0.753467  1
  Rh  Rh10  1  0.402803  0.217406  0.753467  1
  Rh  Rh11  1  0.782594  0.185397  0.753467  1
  Rh  Rh12  1  0.520958  0.072359  0.248890  1
  Rh  Rh13  1  0.927641  0.448599  0.248890  1
  Rh  Rh14  1  0.551401  0.479042  0.248890  1
  Rh  Rh15  1  0.110591  0.396368  0.751473  1
  Rh  Rh16  1  0.603632  0.714223  0.751473  1
  Rh  Rh17  1  0.285777  0.889409  0.751473  1
  Rh  Rh18  1  0.222794  0.270458  0.250312  1
  Rh  Rh19  1  0.729542  0.952336  0.250312  1
  Rh  Rh20  1  0.047664  0.777206  0.250312  1
