# generated using pymatgen
data_Hf4TlBi3F28
_symmetry_space_group_name_H-M   'P 1'
_cell_length_a   5.83128128
_cell_length_b   9.30579747
_cell_length_c   12.42010400
_cell_angle_alpha   61.89909385
_cell_angle_beta   89.96205357
_cell_angle_gamma   90.01406875
_symmetry_Int_Tables_number   1
_chemical_formula_structural   Hf4TlBi3F28
_chemical_formula_sum   'Hf4 Tl1 Bi3 F28'
_cell_volume   594.52485993
_cell_formula_units_Z   1
loop_
 _symmetry_equiv_pos_site_id
 _symmetry_equiv_pos_as_xyz
  1  'x, y, z'
loop_
 _atom_site_type_symbol
 _atom_site_label
 _atom_site_symmetry_multiplicity
 _atom_site_fract_x
 _atom_site_fract_y
 _atom_site_fract_z
 _atom_site_occupancy
  Hf  Hf0  1  0.744101  0.271498  0.457274  1
  Hf  Hf1  1  0.243464  0.724893  0.040546  1
  Hf  Hf2  1  0.257637  0.725770  0.549145  1
  Hf  Hf3  1  0.756086  0.279769  0.953296  1
  Tl  Tl4  1  0.757287  0.812331  0.764955  1
  Bi  Bi5  1  0.741049  0.815709  0.263198  1
  Bi  Bi6  1  0.241733  0.182711  0.237249  1
  Bi  Bi7  1  0.255198  0.179257  0.736299  1
  F  F8  1  0.461433  0.710904  0.921254  1
  F  F9  1  0.957943  0.286692  0.578083  1
  F  F10  1  0.543816  0.290760  0.075246  1
  F  F11  1  0.044324  0.713405  0.428200  1
  F  F12  1  0.460139  0.279258  0.547944  1
  F  F13  1  0.960332  0.718216  0.948116  1
  F  F14  1  0.537194  0.721095  0.454746  1
  F  F15  1  0.038867  0.284065  0.045045  1
  F  F16  1  0.764662  0.524851  0.857076  1
  F  F17  1  0.267480  0.483716  0.642695  1
  F  F18  1  0.231031  0.483701  0.138396  1
  F  F19  1  0.732119  0.515017  0.361495  1
  F  F20  1  0.759862  0.034801  0.055949  1
  F  F21  1  0.260281  0.970999  0.444887  1
  F  F22  1  0.238791  0.971139  0.941322  1
  F  F23  1  0.740433  0.028192  0.555722  1
  F  F24  1  0.992349  0.735483  0.650534  1
  F  F25  1  0.491700  0.265003  0.855183  1
  F  F26  1  0.011476  0.264799  0.357154  1
  F  F27  1  0.508149  0.737083  0.139993  1
  F  F28  1  0.038619  0.748493  0.163444  1
  F  F29  1  0.541048  0.252222  0.332295  1
  F  F30  1  0.961006  0.255562  0.830620  1
  F  F31  1  0.469551  0.747769  0.671771  1
  F  F32  1  0.417884  0.969749  0.231388  1
  F  F33  1  0.916942  0.028440  0.268496  1
  F  F34  1  0.582670  0.019743  0.768044  1
  F  F35  1  0.073339  0.966905  0.732941  1
