# generated using pymatgen
data_Y20IrPt3Rh8
_symmetry_space_group_name_H-M   'P 1'
_cell_length_a   11.01373775
_cell_length_b   11.01373775
_cell_length_c   6.35948917
_cell_angle_alpha   89.98120431
_cell_angle_beta   89.98120431
_cell_angle_gamma   90.21063609
_symmetry_Int_Tables_number   1
_chemical_formula_structural   Y20IrPt3Rh8
_chemical_formula_sum   'Y20 Ir1 Pt3 Rh8'
_cell_volume   771.41612602
_cell_formula_units_Z   1
loop_
 _symmetry_equiv_pos_site_id
 _symmetry_equiv_pos_as_xyz
  1  'x, y, z'
loop_
 _atom_site_type_symbol
 _atom_site_label
 _atom_site_symmetry_multiplicity
 _atom_site_fract_x
 _atom_site_fract_y
 _atom_site_fract_z
 _atom_site_occupancy
  Y  Y0  1  0.291464  0.087328  0.380417  1
  Y  Y1  1  0.291635  0.908481  0.880261  1
  Y  Y2  1  0.708576  0.087707  0.880326  1
  Y  Y3  1  0.708623  0.912085  0.380223  1
  Y  Y4  1  0.586463  0.792420  0.874291  1
  Y  Y5  1  0.589707  0.206669  0.375973  1
  Y  Y6  1  0.408768  0.791363  0.379548  1
  Y  Y7  1  0.410311  0.205849  0.875482  1
  Y  Y8  1  0.207580  0.413537  0.625709  1
  Y  Y9  1  0.208637  0.591232  0.120452  1
  Y  Y10  1  0.793331  0.410293  0.124027  1
  Y  Y11  1  0.794151  0.589689  0.624518  1
  Y  Y12  1  0.912672  0.708536  0.119583  1
  Y  Y13  1  0.912293  0.291424  0.619674  1
  Y  Y14  1  0.091519  0.708365  0.619739  1
  Y  Y15  1  0.087915  0.291377  0.119777  1
  Y  Y16  1  0.999935  0.999685  0.500467  1
  Y  Y17  1  0.000315  0.000065  0.999533  1
  Y  Y18  1  0.498170  0.501309  0.999595  1
  Y  Y19  1  0.498691  0.501830  0.500405  1
  Ir  Ir20  1  0.346499  0.653501  0.750000  1
  Pt  Pt21  1  0.654061  0.345939  0.750000  1
  Pt  Pt22  1  0.655251  0.654616  0.250079  1
  Pt  Pt23  1  0.345384  0.344749  0.249921  1
  Rh  Rh24  1  0.845288  0.154712  0.250000  1
  Rh  Rh25  1  0.844971  0.845297  0.750364  1
  Rh  Rh26  1  0.154703  0.155029  0.749636  1
  Rh  Rh27  1  0.153724  0.846276  0.250000  1
  Rh  Rh28  1  0.500385  0.000556  0.126860  1
  Rh  Rh29  1  0.500084  0.000550  0.625824  1
  Rh  Rh30  1  0.999450  0.499916  0.874176  1
  Rh  Rh31  1  0.999444  0.499615  0.373140  1
