# generated using pymatgen
data_Rb4HfZr5CBr18
_symmetry_space_group_name_H-M   'P 1'
_cell_length_a   10.64942918
_cell_length_b   10.85952208
_cell_length_c   10.96729052
_cell_angle_alpha   118.38704023
_cell_angle_beta   100.29567766
_cell_angle_gamma   103.99594771
_symmetry_Int_Tables_number   1
_chemical_formula_structural   Rb4HfZr5CBr18
_chemical_formula_sum   'Rb4 Hf1 Zr5 C1 Br18'
_cell_volume   1016.60027498
_cell_formula_units_Z   1
loop_
 _symmetry_equiv_pos_site_id
 _symmetry_equiv_pos_as_xyz
  1  'x, y, z'
loop_
 _atom_site_type_symbol
 _atom_site_label
 _atom_site_symmetry_multiplicity
 _atom_site_fract_x
 _atom_site_fract_y
 _atom_site_fract_z
 _atom_site_occupancy
  Rb  Rb0  1  0.188460  0.725379  0.562904  1
  Rb  Rb1  1  0.844990  0.963180  0.771910  1
  Rb  Rb2  1  0.155249  0.036424  0.227893  1
  Rb  Rb3  1  0.811616  0.274285  0.436477  1
  Hf  Hf4  1  0.632358  0.380193  0.874144  1
  Zr  Zr5  1  0.355101  0.447067  0.781077  1
  Zr  Zr6  1  0.368545  0.619157  0.125225  1
  Zr  Zr7  1  0.638812  0.728523  0.043892  1
  Zr  Zr8  1  0.643382  0.554257  0.220208  1
  Zr  Zr9  1  0.359647  0.272721  0.957515  1
  C  C10  1  0.502538  0.497604  0.997482  1
  Br  Br11  1  0.814065  0.424563  0.104884  1
  Br  Br12  1  0.514867  0.700184  0.399458  1
  Br  Br13  1  0.185358  0.990226  0.901434  1
  Br  Br14  1  0.183401  0.574749  0.891492  1
  Br  Br15  1  0.824888  0.826222  0.304589  1
  Br  Br16  1  0.504174  0.299689  0.204400  1
  Br  Br17  1  0.789257  0.236195  0.723189  1
  Br  Br18  1  0.175308  0.173590  0.695190  1
  Br  Br19  1  0.507835  0.900793  0.192597  1
  Br  Br20  1  0.809684  0.621480  0.905060  1
  Br  Br21  1  0.208551  0.765711  0.278842  1
  Br  Br22  1  0.174182  0.380253  0.509638  1
  Br  Br23  1  0.496036  0.700203  0.795483  1
  Br  Br24  1  0.815375  0.009056  0.097734  1
  Br  Br25  1  0.487780  0.301193  0.604901  1
  Br  Br26  1  0.187619  0.374632  0.094282  1
  Br  Br27  1  0.826522  0.618943  0.489571  1
  Br  Br28  1  0.494401  0.103528  0.808528  1
