# generated using pymatgen
data_La3(TcC3)2
_symmetry_space_group_name_H-M   'P 1'
_cell_length_a   8.53283600
_cell_length_b   8.53283609
_cell_length_c   5.43013400
_cell_angle_alpha   90.00000000
_cell_angle_beta   90.00000000
_cell_angle_gamma   119.99999086
_symmetry_Int_Tables_number   1
_chemical_formula_structural   La3(TcC3)2
_chemical_formula_sum   'La6 Tc4 C12'
_cell_volume   342.39547800
_cell_formula_units_Z   2
loop_
 _symmetry_equiv_pos_site_id
 _symmetry_equiv_pos_as_xyz
  1  'x, y, z'
loop_
 _atom_site_type_symbol
 _atom_site_label
 _atom_site_symmetry_multiplicity
 _atom_site_fract_x
 _atom_site_fract_y
 _atom_site_fract_z
 _atom_site_occupancy
  La  La0  1  0.618569  0.694993  0.750000  1
  La  La1  1  0.923576  0.618569  0.250000  1
  La  La2  1  0.694993  0.076424  0.250000  1
  La  La3  1  0.305007  0.923576  0.750000  1
  La  La4  1  0.076424  0.381431  0.750000  1
  La  La5  1  0.381431  0.305007  0.250000  1
  Tc  Tc6  1  0.000000  0.000000  0.500000  1
  Tc  Tc7  1  0.000000  0.000000  0.000000  1
  Tc  Tc8  1  0.666667  0.333333  0.750000  1
  Tc  Tc9  1  0.333333  0.666667  0.250000  1
  C  C10  1  0.952381  0.772393  0.750000  1
  C  C11  1  0.179987  0.952381  0.250000  1
  C  C12  1  0.772393  0.820013  0.250000  1
  C  C13  1  0.227607  0.179987  0.750000  1
  C  C14  1  0.820013  0.047619  0.750000  1
  C  C15  1  0.047619  0.227607  0.250000  1
  C  C16  1  0.860251  0.587357  0.750000  1
  C  C17  1  0.272893  0.860251  0.250000  1
  C  C18  1  0.587357  0.727107  0.250000  1
  C  C19  1  0.412643  0.272893  0.750000  1
  C  C20  1  0.139749  0.412643  0.250000  1
  C  C21  1  0.727107  0.139749  0.750000  1
