# generated using pymatgen
data_Sm4TiV3(WO6)4
_symmetry_space_group_name_H-M   'P 1'
_cell_length_a   5.33995537
_cell_length_b   7.50729006
_cell_length_c   11.18897757
_cell_angle_alpha   90.08121798
_cell_angle_beta   90.36562749
_cell_angle_gamma   89.97630179
_symmetry_Int_Tables_number   1
_chemical_formula_structural   Sm4TiV3(WO6)4
_chemical_formula_sum   'Sm4 Ti1 V3 W4 O24'
_cell_volume   448.54075749
_cell_formula_units_Z   1
loop_
 _symmetry_equiv_pos_site_id
 _symmetry_equiv_pos_as_xyz
  1  'x, y, z'
loop_
 _atom_site_type_symbol
 _atom_site_label
 _atom_site_symmetry_multiplicity
 _atom_site_fract_x
 _atom_site_fract_y
 _atom_site_fract_z
 _atom_site_occupancy
  Sm  Sm0  1  0.543493  0.255241  0.045524  1
  Sm  Sm1  1  0.044388  0.751976  0.454128  1
  Sm  Sm2  1  0.954679  0.254061  0.546338  1
  Sm  Sm3  1  0.456862  0.752096  0.954754  1
  Ti  Ti4  1  0.052376  0.509286  0.144954  1
  V  V5  1  0.551116  0.005774  0.365636  1
  V  V6  1  0.447415  0.505751  0.635620  1
  V  V7  1  0.949572  0.005554  0.865398  1
  W  W8  1  0.055057  0.000160  0.143264  1
  W  W9  1  0.548961  0.497939  0.361509  1
  W  W10  1  0.444173  0.999026  0.643462  1
  W  W11  1  0.947143  0.498182  0.857795  1
  O  O12  1  0.771458  0.541436  0.021818  1
  O  O13  1  0.767921  0.961256  0.029386  1
  O  O14  1  0.164830  0.753844  0.118292  1
  O  O15  1  0.944838  0.248202  0.142733  1
  O  O16  1  0.369512  0.065328  0.207883  1
  O  O17  1  0.373316  0.439916  0.203742  1
  O  O18  1  0.888245  0.940819  0.284307  1
  O  O19  1  0.881132  0.566660  0.280532  1
  O  O20  1  0.447488  0.746052  0.355174  1
  O  O21  1  0.669447  0.256130  0.378740  1
  O  O22  1  0.254718  0.460329  0.473197  1
  O  O23  1  0.261880  0.041014  0.479894  1
  O  O24  1  0.738660  0.542599  0.521220  1
  O  O25  1  0.732175  0.960843  0.529585  1
  O  O26  1  0.330702  0.755709  0.618146  1
  O  O27  1  0.556333  0.246214  0.642918  1
  O  O28  1  0.131928  0.066738  0.708275  1
  O  O29  1  0.112212  0.440495  0.715933  1
  O  O30  1  0.612607  0.939991  0.785632  1
  O  O31  1  0.631059  0.566879  0.793932  1
  O  O32  1  0.058178  0.746597  0.857477  1
  O  O33  1  0.832437  0.255468  0.881720  1
  O  O34  1  0.235271  0.461624  0.969854  1
  O  O35  1  0.238408  0.041204  0.981231  1
