# generated using pymatgen
data_Tb5ErAl18(Si3Ru4)2
_symmetry_space_group_name_H-M   'P 1'
_cell_length_a   8.69173105
_cell_length_b   8.66898919
_cell_length_c   9.55507800
_cell_angle_alpha   90.00000000
_cell_angle_beta   90.00000000
_cell_angle_gamma   120.07480504
_symmetry_Int_Tables_number   1
_chemical_formula_structural   Tb5ErAl18(Si3Ru4)2
_chemical_formula_sum   'Tb5 Er1 Al18 Si6 Ru8'
_cell_volume   623.03400440
_cell_formula_units_Z   1
loop_
 _symmetry_equiv_pos_site_id
 _symmetry_equiv_pos_as_xyz
  1  'x, y, z'
loop_
 _atom_site_type_symbol
 _atom_site_label
 _atom_site_symmetry_multiplicity
 _atom_site_fract_x
 _atom_site_fract_y
 _atom_site_fract_z
 _atom_site_occupancy
  Tb  Tb0  1  0.192284  0.384428  0.250000  1
  Tb  Tb1  1  0.807780  0.615175  0.750000  1
  Tb  Tb2  1  0.612534  0.809258  0.250000  1
  Tb  Tb3  1  0.387951  0.190756  0.750000  1
  Tb  Tb4  1  0.196991  0.809123  0.250000  1
  Er  Er5  1  0.801793  0.192227  0.750000  1
  Al  Al6  1  0.164602  0.329684  0.580220  1
  Al  Al7  1  0.834923  0.670113  0.420055  1
  Al  Al8  1  0.670183  0.834825  0.578538  1
  Al  Al9  1  0.834923  0.670113  0.079945  1
  Al  Al10  1  0.329982  0.165650  0.421738  1
  Al  Al11  1  0.164602  0.329684  0.919780  1
  Al  Al12  1  0.164491  0.834375  0.578337  1
  Al  Al13  1  0.329982  0.165650  0.078262  1
  Al  Al14  1  0.835476  0.165537  0.422127  1
  Al  Al15  1  0.670183  0.834825  0.921462  1
  Al  Al16  1  0.835476  0.165537  0.077873  1
  Al  Al17  1  0.164491  0.834375  0.921663  1
  Al  Al18  1  0.872914  0.433338  0.250000  1
  Al  Al19  1  0.126374  0.565756  0.750000  1
  Al  Al20  1  0.560420  0.433336  0.250000  1
  Al  Al21  1  0.439468  0.566751  0.750000  1
  Al  Al22  1  0.999392  0.998832  0.250000  1
  Al  Al23  1  0.999914  0.001738  0.750000  1
  Si  Si24  1  0.331935  0.663576  0.038203  1
  Si  Si25  1  0.668557  0.335808  0.960990  1
  Si  Si26  1  0.668557  0.335808  0.539010  1
  Si  Si27  1  0.331935  0.663576  0.461797  1
  Si  Si28  1  0.563382  0.126818  0.250000  1
  Si  Si29  1  0.437723  0.873951  0.750000  1
  Ru  Ru30  1  0.500670  0.000434  0.999288  1
  Ru  Ru31  1  0.999550  0.499312  0.999398  1
  Ru  Ru32  1  0.500670  0.000434  0.500712  1
  Ru  Ru33  1  0.500190  0.499800  0.999786  1
  Ru  Ru34  1  0.999550  0.499312  0.500602  1
  Ru  Ru35  1  0.500190  0.499800  0.500214  1
  Ru  Ru36  1  0.999980  0.000143  0.999769  1
  Ru  Ru37  1  0.999980  0.000143  0.500231  1
