# generated using pymatgen
data_Y13Tm3(InRh)4
_symmetry_space_group_name_H-M   'P 1'
_cell_length_a   9.66849935
_cell_length_b   9.66849956
_cell_length_c   9.66849961
_cell_angle_alpha   60.16263776
_cell_angle_beta   60.16263728
_cell_angle_gamma   60.16263539
_symmetry_Int_Tables_number   1
_chemical_formula_structural   Y13Tm3(InRh)4
_chemical_formula_sum   'Y13 Tm3 In4 Rh4'
_cell_volume   641.44446444
_cell_formula_units_Z   1
loop_
 _symmetry_equiv_pos_site_id
 _symmetry_equiv_pos_as_xyz
  1  'x, y, z'
loop_
 _atom_site_type_symbol
 _atom_site_label
 _atom_site_symmetry_multiplicity
 _atom_site_fract_x
 _atom_site_fract_y
 _atom_site_fract_z
 _atom_site_occupancy
  Y  Y0  1  0.062245  0.437430  0.437430  1
  Y  Y1  1  0.439450  0.059025  0.059025  1
  Y  Y2  1  0.437430  0.062245  0.437430  1
  Y  Y3  1  0.437430  0.437430  0.062245  1
  Y  Y4  1  0.059025  0.439450  0.059025  1
  Y  Y5  1  0.059025  0.059025  0.439450  1
  Y  Y6  1  0.190753  0.809776  0.809776  1
  Y  Y7  1  0.809556  0.190822  0.190822  1
  Y  Y8  1  0.809776  0.190753  0.809776  1
  Y  Y9  1  0.809776  0.809776  0.190753  1
  Y  Y10  1  0.190822  0.809556  0.190822  1
  Y  Y11  1  0.190822  0.190822  0.809556  1
  Y  Y12  1  0.652338  0.652338  0.652338  1
  Tm  Tm13  1  0.649141  0.649141  0.047806  1
  Tm  Tm14  1  0.047806  0.649141  0.649141  1
  Tm  Tm15  1  0.649141  0.047806  0.649141  1
  In  In16  1  0.416868  0.416868  0.416868  1
  In  In17  1  0.417388  0.417388  0.748920  1
  In  In18  1  0.748920  0.417388  0.417388  1
  In  In19  1  0.417388  0.748920  0.417388  1
  Rh  Rh20  1  0.855514  0.855514  0.855514  1
  Rh  Rh21  1  0.859863  0.859863  0.429658  1
  Rh  Rh22  1  0.429658  0.859863  0.859863  1
  Rh  Rh23  1  0.859863  0.429658  0.859863  1
