# generated using pymatgen
data_TbHo4(SiHg)2
_symmetry_space_group_name_H-M   'P 1'
_cell_length_a   8.75159109
_cell_length_b   8.74912085
_cell_length_c   7.54141600
_cell_angle_alpha   89.97404077
_cell_angle_beta   90.00824255
_cell_angle_gamma   129.14152727
_symmetry_Int_Tables_number   1
_chemical_formula_structural   TbHo4(SiHg)2
_chemical_formula_sum   'Tb2 Ho8 Si4 Hg4'
_cell_volume   447.85350180
_cell_formula_units_Z   2
loop_
 _symmetry_equiv_pos_site_id
 _symmetry_equiv_pos_as_xyz
  1  'x, y, z'
loop_
 _atom_site_type_symbol
 _atom_site_label
 _atom_site_symmetry_multiplicity
 _atom_site_fract_x
 _atom_site_fract_y
 _atom_site_fract_z
 _atom_site_occupancy
  Tb  Tb0  1  0.054209  0.309779  0.323812  1
  Tb  Tb1  1  0.945791  0.690221  0.676188  1
  Ho  Ho2  1  0.445678  0.191198  0.824018  1
  Ho  Ho3  1  0.808839  0.554190  0.175976  1
  Ho  Ho4  1  0.554322  0.808802  0.175982  1
  Ho  Ho5  1  0.191161  0.445810  0.824024  1
  Ho  Ho6  1  0.691110  0.945522  0.676500  1
  Ho  Ho7  1  0.308890  0.054478  0.323500  1
  Ho  Ho8  1  0.000000  0.000000  0.000000  1
  Ho  Ho9  1  0.500000  0.500000  0.500000  1
  Si  Si10  1  0.381117  0.380678  0.121779  1
  Si  Si11  1  0.618883  0.619322  0.878221  1
  Si  Si12  1  0.119672  0.119699  0.622471  1
  Si  Si13  1  0.880328  0.880301  0.377529  1
  Hg  Hg14  1  0.781887  0.217350  0.999138  1
  Hg  Hg15  1  0.218113  0.782650  0.000862  1
  Hg  Hg16  1  0.715678  0.281034  0.499936  1
  Hg  Hg17  1  0.284322  0.718966  0.500064  1
