# generated using pymatgen
data_YHo4ThFe18
_symmetry_space_group_name_H-M   'P 1'
_cell_length_a   5.10353300
_cell_length_b   5.10353342
_cell_length_c   16.27787300
_cell_angle_alpha   90.00000000
_cell_angle_beta   90.00000000
_cell_angle_gamma   119.99999080
_symmetry_Int_Tables_number   1
_chemical_formula_structural   YHo4ThFe18
_chemical_formula_sum   'Y1 Ho4 Th1 Fe18'
_cell_volume   367.17256047
_cell_formula_units_Z   1
loop_
 _symmetry_equiv_pos_site_id
 _symmetry_equiv_pos_as_xyz
  1  'x, y, z'
loop_
 _atom_site_type_symbol
 _atom_site_label
 _atom_site_symmetry_multiplicity
 _atom_site_fract_x
 _atom_site_fract_y
 _atom_site_fract_z
 _atom_site_occupancy
  Y  Y0  1  0.666667  0.333333  0.250000  1
  Ho  Ho1  1  0.333333  0.666667  0.965405  1
  Ho  Ho2  1  0.666667  0.333333  0.038920  1
  Ho  Ho3  1  0.666667  0.333333  0.461080  1
  Ho  Ho4  1  0.333333  0.666667  0.534595  1
  Th  Th5  1  0.333333  0.666667  0.750000  1
  Fe  Fe6  1  0.166774  0.833226  0.371453  1
  Fe  Fe7  1  0.166774  0.333548  0.371453  1
  Fe  Fe8  1  0.666452  0.833226  0.371453  1
  Fe  Fe9  1  0.833530  0.166470  0.624938  1
  Fe  Fe10  1  0.833530  0.667059  0.624938  1
  Fe  Fe11  1  0.332941  0.166470  0.624938  1
  Fe  Fe12  1  0.833530  0.166470  0.875062  1
  Fe  Fe13  1  0.833530  0.667059  0.875062  1
  Fe  Fe14  1  0.332941  0.166470  0.875062  1
  Fe  Fe15  1  0.166774  0.833226  0.128547  1
  Fe  Fe16  1  0.166774  0.333548  0.128547  1
  Fe  Fe17  1  0.666452  0.833226  0.128547  1
  Fe  Fe18  1  0.333333  0.666667  0.250000  1
  Fe  Fe19  1  0.666667  0.333333  0.750000  1
  Fe  Fe20  1  0.000000  0.000000  0.250000  1
  Fe  Fe21  1  0.000000  0.000000  0.750000  1
  Fe  Fe22  1  0.000000  0.000000  0.498056  1
  Fe  Fe23  1  0.000000  0.000000  0.001944  1
