# generated using pymatgen
data_Tb8Tm12(Bi3Sb)3
_symmetry_space_group_name_H-M   'P 1'
_cell_length_a   8.16629059
_cell_length_b   9.40415600
_cell_length_c   11.98668900
_cell_angle_alpha   90.00000000
_cell_angle_beta   90.03577526
_cell_angle_gamma   90.00000000
_symmetry_Int_Tables_number   1
_chemical_formula_structural   Tb8Tm12(Bi3Sb)3
_chemical_formula_sum   'Tb8 Tm12 Bi9 Sb3'
_cell_volume   920.54242276
_cell_formula_units_Z   1
loop_
 _symmetry_equiv_pos_site_id
 _symmetry_equiv_pos_as_xyz
  1  'x, y, z'
loop_
 _atom_site_type_symbol
 _atom_site_label
 _atom_site_symmetry_multiplicity
 _atom_site_fract_x
 _atom_site_fract_y
 _atom_site_fract_z
 _atom_site_occupancy
  Tb  Tb0  1  0.182976  0.750000  0.717896  1
  Tb  Tb1  1  0.682473  0.750000  0.782114  1
  Tb  Tb2  1  0.812640  0.250000  0.279015  1
  Tb  Tb3  1  0.318754  0.250000  0.216246  1
  Tb  Tb4  1  0.353036  0.750000  0.213597  1
  Tb  Tb5  1  0.853291  0.750000  0.285864  1
  Tb  Tb6  1  0.646864  0.250000  0.786211  1
  Tb  Tb7  1  0.147882  0.250000  0.716815  1
  Tm  Tm8  1  0.026711  0.750000  0.988868  1
  Tm  Tm9  1  0.527577  0.750000  0.511660  1
  Tm  Tm10  1  0.973677  0.250000  0.010937  1
  Tm  Tm11  1  0.476658  0.250000  0.488919  1
  Tm  Tm12  1  0.311863  0.435931  0.942409  1
  Tm  Tm13  1  0.809101  0.061770  0.559502  1
  Tm  Tm14  1  0.688385  0.935581  0.057824  1
  Tm  Tm15  1  0.189637  0.567823  0.442035  1
  Tm  Tm16  1  0.688385  0.564419  0.057824  1
  Tm  Tm17  1  0.189637  0.932177  0.442035  1
  Tm  Tm18  1  0.311863  0.064069  0.942409  1
  Tm  Tm19  1  0.809101  0.438230  0.559502  1
  Bi  Bi20  1  0.433661  0.004012  0.672508  1
  Bi  Bi21  1  0.933809  0.496428  0.827852  1
  Bi  Bi22  1  0.565705  0.504376  0.327718  1
  Bi  Bi23  1  0.066070  0.996350  0.172274  1
  Bi  Bi24  1  0.565705  0.995624  0.327718  1
  Bi  Bi25  1  0.066070  0.503650  0.172274  1
  Bi  Bi26  1  0.433661  0.495988  0.672508  1
  Bi  Bi27  1  0.933809  0.003572  0.827852  1
  Bi  Bi28  1  0.094006  0.250000  0.456854  1
  Sb  Sb29  1  0.405621  0.750000  0.958108  1
  Sb  Sb30  1  0.906329  0.750000  0.541518  1
  Sb  Sb31  1  0.595043  0.250000  0.041135  1
