# generated using pymatgen
data_Nb15Re(Ni2N)4
_symmetry_space_group_name_H-M   'P 1'
_cell_length_a   8.23767557
_cell_length_b   8.23767472
_cell_length_c   8.23767500
_cell_angle_alpha   59.54772743
_cell_angle_beta   59.54773092
_cell_angle_gamma   59.54772965
_symmetry_Int_Tables_number   1
_chemical_formula_structural   Nb15Re(Ni2N)4
_chemical_formula_sum   'Nb15 Re1 Ni8 N4'
_cell_volume   391.21010846
_cell_formula_units_Z   1
loop_
 _symmetry_equiv_pos_site_id
 _symmetry_equiv_pos_as_xyz
  1  'x, y, z'
loop_
 _atom_site_type_symbol
 _atom_site_label
 _atom_site_symmetry_multiplicity
 _atom_site_fract_x
 _atom_site_fract_y
 _atom_site_fract_z
 _atom_site_occupancy
  Nb  Nb0  1  0.125000  0.625000  0.625000  1
  Nb  Nb1  1  0.625000  0.125000  0.625000  1
  Nb  Nb2  1  0.625000  0.625000  0.125000  1
  Nb  Nb3  1  0.814183  0.814183  0.188802  1
  Nb  Nb4  1  0.182950  0.182950  0.817101  1
  Nb  Nb5  1  0.814183  0.188802  0.814183  1
  Nb  Nb6  1  0.182950  0.817101  0.182950  1
  Nb  Nb7  1  0.188802  0.814183  0.814183  1
  Nb  Nb8  1  0.817101  0.182950  0.182950  1
  Nb  Nb9  1  0.435817  0.435817  0.061198  1
  Nb  Nb10  1  0.067050  0.067050  0.432899  1
  Nb  Nb11  1  0.435817  0.061198  0.435817  1
  Nb  Nb12  1  0.067050  0.432899  0.067050  1
  Nb  Nb13  1  0.061198  0.435817  0.435817  1
  Nb  Nb14  1  0.432899  0.067050  0.067050  1
  Re  Re15  1  0.625000  0.625000  0.625000  1
  Ni  Ni16  1  0.737279  0.423216  0.423216  1
  Ni  Ni17  1  0.423216  0.737279  0.423216  1
  Ni  Ni18  1  0.423216  0.423216  0.737279  1
  Ni  Ni19  1  0.418809  0.418809  0.418809  1
  Ni  Ni20  1  0.512721  0.826784  0.826784  1
  Ni  Ni21  1  0.826784  0.512721  0.826784  1
  Ni  Ni22  1  0.826784  0.826784  0.512721  1
  Ni  Ni23  1  0.831191  0.831191  0.831191  1
  N  N24  1  0.625000  0.125000  0.125000  1
  N  N25  1  0.125000  0.625000  0.125000  1
  N  N26  1  0.125000  0.125000  0.625000  1
  N  N27  1  0.125000  0.125000  0.125000  1
