# generated using pymatgen
data_Pr4Ga8Ge2(IrRh)3
_symmetry_space_group_name_H-M   'P 1'
_cell_length_a   8.63352336
_cell_length_b   8.72543038
_cell_length_c   8.72542952
_cell_angle_alpha   140.91899573
_cell_angle_beta   108.13623985
_cell_angle_gamma   85.11528416
_symmetry_Int_Tables_number   1
_chemical_formula_structural   Pr4Ga8Ge2(IrRh)3
_chemical_formula_sum   'Pr4 Ga8 Ge2 Ir3 Rh3'
_cell_volume   380.11631269
_cell_formula_units_Z   1
loop_
 _symmetry_equiv_pos_site_id
 _symmetry_equiv_pos_as_xyz
  1  'x, y, z'
loop_
 _atom_site_type_symbol
 _atom_site_label
 _atom_site_symmetry_multiplicity
 _atom_site_fract_x
 _atom_site_fract_y
 _atom_site_fract_z
 _atom_site_occupancy
  Pr  Pr0  1  0.863283  0.634247  0.229034  1
  Pr  Pr1  1  0.135432  0.365289  0.770144  1
  Pr  Pr2  1  0.592372  0.863018  0.729355  1
  Pr  Pr3  1  0.408617  0.137009  0.271607  1
  Ga  Ga4  1  0.499898  0.752755  0.252420  1
  Ga  Ga5  1  0.499898  0.247478  0.747143  1
  Ga  Ga6  1  0.210826  0.961580  0.749642  1
  Ga  Ga7  1  0.789106  0.537594  0.748919  1
  Ga  Ga8  1  0.789106  0.040187  0.251512  1
  Ga  Ga9  1  0.210826  0.461184  0.249245  1
  Ga  Ga10  1  0.075474  0.908203  0.167272  1
  Ga  Ga11  1  0.924917  0.091363  0.833554  1
  Ge  Ge12  1  0.259858  0.593493  0.666364  1
  Ge  Ge13  1  0.739452  0.406517  0.332936  1
  Ir  Ir14  1  0.254902  0.853496  0.401406  1
  Ir  Ir15  1  0.747048  0.146615  0.600434  1
  Ir  Ir16  1  0.545589  0.645074  0.900514  1
  Rh  Rh17  1  0.453515  0.355458  0.098059  1
  Rh  Rh18  1  0.999940  0.748033  0.748533  1
  Rh  Rh19  1  0.999940  0.251407  0.251907  1
