# generated using pymatgen
data_Ti4NbSiSn2
_symmetry_space_group_name_H-M   'P 1'
_cell_length_a   7.90540506
_cell_length_b   7.90540466
_cell_length_c   7.90062967
_cell_angle_alpha   95.95430198
_cell_angle_beta   95.91219522
_cell_angle_gamma   142.50302188
_symmetry_Int_Tables_number   1
_chemical_formula_structural   Ti4NbSiSn2
_chemical_formula_sum   'Ti8 Nb2 Si2 Sn4'
_cell_volume   284.58941170
_cell_formula_units_Z   2
loop_
 _symmetry_equiv_pos_site_id
 _symmetry_equiv_pos_as_xyz
  1  'x, y, z'
loop_
 _atom_site_type_symbol
 _atom_site_label
 _atom_site_symmetry_multiplicity
 _atom_site_fract_x
 _atom_site_fract_y
 _atom_site_fract_z
 _atom_site_occupancy
  Ti  Ti0  1  0.427265  0.291438  0.718702  1
  Ti  Ti1  1  0.205559  0.069648  0.275208  1
  Ti  Ti2  1  0.572495  0.708672  0.281167  1
  Ti  Ti3  1  0.251670  0.750926  0.502557  1
  Ti  Ti4  1  0.290133  0.571498  0.861631  1
  Ti  Ti5  1  0.706552  0.427347  0.133900  1
  Ti  Ti6  1  0.751631  0.250888  0.502557  1
  Ti  Ti7  1  0.929407  0.206508  0.135915  1
  Nb  Nb8  1  0.793588  0.927847  0.721434  1
  Nb  Nb9  1  0.071839  0.794721  0.866560  1
  Si  Si10  1  0.253352  0.255521  0.001818  1
  Si  Si11  1  0.746297  0.748466  0.001818  1
  Sn  Sn12  1  0.164329  0.333382  0.497711  1
  Sn  Sn13  1  0.665473  0.166938  0.832411  1
  Sn  Sn14  1  0.832712  0.661672  0.494384  1
  Sn  Sn15  1  0.337699  0.834528  0.172227  1
