# generated using pymatgen
data_Dy3Tm7Cd3Ru
_symmetry_space_group_name_H-M   'P 1'
_cell_length_a   9.48910500
_cell_length_b   9.48910476
_cell_length_c   9.76047700
_cell_angle_alpha   90.00000000
_cell_angle_beta   90.00000000
_cell_angle_gamma   119.99999735
_symmetry_Int_Tables_number   1
_chemical_formula_structural   Dy3Tm7Cd3Ru
_chemical_formula_sum   'Dy6 Tm14 Cd6 Ru2'
_cell_volume   761.11832656
_cell_formula_units_Z   2
loop_
 _symmetry_equiv_pos_site_id
 _symmetry_equiv_pos_as_xyz
  1  'x, y, z'
loop_
 _atom_site_type_symbol
 _atom_site_label
 _atom_site_symmetry_multiplicity
 _atom_site_fract_x
 _atom_site_fract_y
 _atom_site_fract_z
 _atom_site_occupancy
  Dy  Dy0  1  0.540044  0.459956  0.250000  1
  Dy  Dy1  1  0.540044  0.080089  0.250000  1
  Dy  Dy2  1  0.919911  0.459956  0.250000  1
  Dy  Dy3  1  0.459956  0.540044  0.750000  1
  Dy  Dy4  1  0.459956  0.919911  0.750000  1
  Dy  Dy5  1  0.080089  0.540044  0.750000  1
  Tm  Tm6  1  0.000000  0.000000  0.500000  1
  Tm  Tm7  1  0.000000  0.000000  0.000000  1
  Tm  Tm8  1  0.210247  0.789753  0.440108  1
  Tm  Tm9  1  0.210247  0.420495  0.440108  1
  Tm  Tm10  1  0.579505  0.789753  0.440108  1
  Tm  Tm11  1  0.789753  0.210247  0.559892  1
  Tm  Tm12  1  0.789753  0.579505  0.559892  1
  Tm  Tm13  1  0.420495  0.210247  0.559892  1
  Tm  Tm14  1  0.789753  0.210247  0.940108  1
  Tm  Tm15  1  0.789753  0.579505  0.940108  1
  Tm  Tm16  1  0.420495  0.210247  0.940108  1
  Tm  Tm17  1  0.210247  0.789753  0.059892  1
  Tm  Tm18  1  0.210247  0.420495  0.059892  1
  Tm  Tm19  1  0.579505  0.789753  0.059892  1
  Cd  Cd20  1  0.886337  0.113663  0.250000  1
  Cd  Cd21  1  0.886337  0.772675  0.250000  1
  Cd  Cd22  1  0.227325  0.113663  0.250000  1
  Cd  Cd23  1  0.113663  0.886337  0.750000  1
  Cd  Cd24  1  0.113663  0.227325  0.750000  1
  Cd  Cd25  1  0.772675  0.886337  0.750000  1
  Ru  Ru26  1  0.333333  0.666667  0.250000  1
  Ru  Ru27  1  0.666667  0.333333  0.750000  1
