# generated using pymatgen
data_Rb3(CuTe)4
_symmetry_space_group_name_H-M   'P 1'
_cell_length_a   4.24275400
_cell_length_b   8.96327000
_cell_length_c   17.90449600
_cell_angle_alpha   90.00000000
_cell_angle_beta   90.00000000
_cell_angle_gamma   90.00000000
_symmetry_Int_Tables_number   1
_chemical_formula_structural   Rb3(CuTe)4
_chemical_formula_sum   'Rb6 Cu8 Te8'
_cell_volume   680.88917681
_cell_formula_units_Z   2
loop_
 _symmetry_equiv_pos_site_id
 _symmetry_equiv_pos_as_xyz
  1  'x, y, z'
loop_
 _atom_site_type_symbol
 _atom_site_label
 _atom_site_symmetry_multiplicity
 _atom_site_fract_x
 _atom_site_fract_y
 _atom_site_fract_z
 _atom_site_occupancy
  Rb  Rb0  1  0.500000  0.015431  0.236304  1
  Rb  Rb1  1  0.500000  0.984569  0.763696  1
  Rb  Rb2  1  0.500000  0.484569  0.736304  1
  Rb  Rb3  1  0.500000  0.515431  0.263696  1
  Rb  Rb4  1  0.000000  0.000000  0.000000  1
  Rb  Rb5  1  0.000000  0.500000  0.500000  1
  Cu  Cu6  1  0.000000  0.050763  0.425345  1
  Cu  Cu7  1  0.000000  0.949237  0.574655  1
  Cu  Cu8  1  0.000000  0.449237  0.925345  1
  Cu  Cu9  1  0.000000  0.550763  0.074655  1
  Cu  Cu10  1  0.500000  0.385882  0.059988  1
  Cu  Cu11  1  0.500000  0.614118  0.940012  1
  Cu  Cu12  1  0.500000  0.114118  0.559988  1
  Cu  Cu13  1  0.500000  0.885882  0.440012  1
  Te  Te14  1  0.000000  0.290124  0.137274  1
  Te  Te15  1  0.000000  0.709876  0.862726  1
  Te  Te16  1  0.000000  0.209876  0.637274  1
  Te  Te17  1  0.000000  0.790124  0.362726  1
  Te  Te18  1  0.500000  0.210822  0.417409  1
  Te  Te19  1  0.500000  0.789178  0.582591  1
  Te  Te20  1  0.500000  0.289178  0.917409  1
  Te  Te21  1  0.500000  0.710822  0.082591  1
