# generated using pymatgen
data_Ho15Th5Si15Pt
_symmetry_space_group_name_H-M   'P 1'
_cell_length_a   7.37320337
_cell_length_b   7.70861028
_cell_length_c   14.56959800
_cell_angle_alpha   89.97185237
_cell_angle_beta   90.01807491
_cell_angle_gamma   90.01738653
_symmetry_Int_Tables_number   1
_chemical_formula_structural   Ho15Th5Si15Pt
_chemical_formula_sum   'Ho15 Th5 Si15 Pt1'
_cell_volume   828.09426677
_cell_formula_units_Z   1
loop_
 _symmetry_equiv_pos_site_id
 _symmetry_equiv_pos_as_xyz
  1  'x, y, z'
loop_
 _atom_site_type_symbol
 _atom_site_label
 _atom_site_symmetry_multiplicity
 _atom_site_fract_x
 _atom_site_fract_y
 _atom_site_fract_z
 _atom_site_occupancy
  Ho  Ho0  1  0.678100  0.178432  0.624423  1
  Ho  Ho1  1  0.186080  0.323382  0.875546  1
  Ho  Ho2  1  0.321060  0.817983  0.122647  1
  Ho  Ho3  1  0.819208  0.673192  0.374461  1
  Ho  Ho4  1  0.323626  0.819918  0.376713  1
  Ho  Ho5  1  0.821332  0.677468  0.123037  1
  Ho  Ho6  1  0.676329  0.180891  0.877444  1
  Ho  Ho7  1  0.183931  0.327400  0.624201  1
  Ho  Ho8  1  0.517617  0.682921  0.596040  1
  Ho  Ho9  1  0.019787  0.821318  0.903302  1
  Ho  Ho10  1  0.478911  0.317062  0.097233  1
  Ho  Ho11  1  0.842930  0.509315  0.749584  1
  Ho  Ho12  1  0.353370  0.987120  0.750001  1
  Ho  Ho13  1  0.151016  0.487314  0.249309  1
  Ho  Ho14  1  0.651537  0.007322  0.250248  1
  Th  Th15  1  0.984418  0.176675  0.404063  1
  Th  Th16  1  0.480599  0.317726  0.405661  1
  Th  Th17  1  0.979615  0.179399  0.096472  1
  Th  Th18  1  0.517013  0.680470  0.905016  1
  Th  Th19  1  0.015349  0.824330  0.594590  1
  Si  Si20  1  0.655832  0.965797  0.461608  1
  Si  Si21  1  0.151758  0.530467  0.037844  1
  Si  Si22  1  0.343756  0.028241  0.961353  1
  Si  Si23  1  0.843359  0.472181  0.539674  1
  Si  Si24  1  0.345964  0.027475  0.539770  1
  Si  Si25  1  0.854133  0.472525  0.959973  1
  Si  Si26  1  0.648603  0.971735  0.040314  1
  Si  Si27  1  0.145943  0.531424  0.460143  1
  Si  Si28  1  0.977018  0.103077  0.751739  1
  Si  Si29  1  0.523163  0.602302  0.248985  1
  Si  Si30  1  0.027541  0.891816  0.249187  1
  Si  Si31  1  0.735139  0.875409  0.753239  1
  Si  Si32  1  0.221850  0.636116  0.748897  1
  Si  Si33  1  0.275580  0.127444  0.249620  1
  Si  Si34  1  0.770453  0.368878  0.248060  1
  Pt  Pt35  1  0.478075  0.405474  0.749603  1
