# generated using pymatgen
data_Dy8HoLu3Ga20
_symmetry_space_group_name_H-M   'P 1'
_cell_length_a   6.05881305
_cell_length_b   9.57574100
_cell_length_c   11.56439110
_cell_angle_alpha   90.00000000
_cell_angle_beta   90.01512990
_cell_angle_gamma   90.00000000
_symmetry_Int_Tables_number   1
_chemical_formula_structural   Dy8HoLu3Ga20
_chemical_formula_sum   'Dy8 Ho1 Lu3 Ga20'
_cell_volume   670.93847777
_cell_formula_units_Z   1
loop_
 _symmetry_equiv_pos_site_id
 _symmetry_equiv_pos_as_xyz
  1  'x, y, z'
loop_
 _atom_site_type_symbol
 _atom_site_label
 _atom_site_symmetry_multiplicity
 _atom_site_fract_x
 _atom_site_fract_y
 _atom_site_fract_z
 _atom_site_occupancy
  Dy  Dy0  1  0.890718  0.506368  0.351216  1
  Dy  Dy1  1  0.609132  0.993869  0.850772  1
  Dy  Dy2  1  0.109422  0.006677  0.648863  1
  Dy  Dy3  1  0.390258  0.493271  0.148896  1
  Dy  Dy4  1  0.109422  0.493323  0.648863  1
  Dy  Dy5  1  0.390258  0.006729  0.148896  1
  Dy  Dy6  1  0.890718  0.993632  0.351216  1
  Dy  Dy7  1  0.609132  0.506131  0.850772  1
  Ho  Ho8  1  0.850103  0.750000  0.074301  1
  Lu  Lu9  1  0.650419  0.750000  0.574349  1
  Lu  Lu10  1  0.150534  0.250000  0.925489  1
  Lu  Lu11  1  0.349648  0.250000  0.425441  1
  Ga  Ga12  1  0.876229  0.054100  0.089750  1
  Ga  Ga13  1  0.623632  0.446832  0.589563  1
  Ga  Ga14  1  0.123924  0.552828  0.910116  1
  Ga  Ga15  1  0.376475  0.946905  0.410589  1
  Ga  Ga16  1  0.123924  0.947172  0.910116  1
  Ga  Ga17  1  0.376475  0.553095  0.410589  1
  Ga  Ga18  1  0.876229  0.445900  0.089750  1
  Ga  Ga19  1  0.623632  0.053168  0.589563  1
  Ga  Ga20  1  0.168264  0.750000  0.254778  1
  Ga  Ga21  1  0.333337  0.750000  0.753792  1
  Ga  Ga22  1  0.833370  0.250000  0.745882  1
  Ga  Ga23  1  0.666696  0.250000  0.246013  1
  Ga  Ga24  1  0.377382  0.750000  0.001066  1
  Ga  Ga25  1  0.120914  0.750000  0.501617  1
  Ga  Ga26  1  0.620535  0.250000  0.998621  1
  Ga  Ga27  1  0.879022  0.250000  0.498632  1
  Ga  Ga28  1  0.603896  0.750000  0.299672  1
  Ga  Ga29  1  0.895977  0.750000  0.798221  1
  Ga  Ga30  1  0.395986  0.250000  0.701294  1
  Ga  Ga31  1  0.104336  0.250000  0.201300  1
