# generated using pymatgen
data_Ce3Pr3Y2(Si3Rh)4
_symmetry_space_group_name_H-M   'P 1'
_cell_length_a   8.23082817
_cell_length_b   8.23082823
_cell_length_c   8.27154900
_cell_angle_alpha   90.00000000
_cell_angle_beta   90.00000000
_cell_angle_gamma   119.91675841
_symmetry_Int_Tables_number   1
_chemical_formula_structural   Ce3Pr3Y2(Si3Rh)4
_chemical_formula_sum   'Ce3 Pr3 Y2 Si12 Rh4'
_cell_volume   485.70013792
_cell_formula_units_Z   1
loop_
 _symmetry_equiv_pos_site_id
 _symmetry_equiv_pos_as_xyz
  1  'x, y, z'
loop_
 _atom_site_type_symbol
 _atom_site_label
 _atom_site_symmetry_multiplicity
 _atom_site_fract_x
 _atom_site_fract_y
 _atom_site_fract_z
 _atom_site_occupancy
  Ce  Ce0  1  0.499620  0.500380  0.750000  1
  Ce  Ce1  1  0.499649  0.999341  0.750000  1
  Ce  Ce2  1  0.000659  0.500351  0.750000  1
  Pr  Pr3  1  0.000020  0.999980  0.250000  1
  Pr  Pr4  1  0.999991  0.000009  0.750000  1
  Pr  Pr5  1  0.500397  0.499603  0.250000  1
  Y  Y6  1  0.500417  0.000696  0.250000  1
  Y  Y7  1  0.999304  0.499583  0.250000  1
  Si  Si8  1  0.167233  0.832767  0.496673  1
  Si  Si9  1  0.165743  0.333811  0.499728  1
  Si  Si10  1  0.666189  0.834257  0.499728  1
  Si  Si11  1  0.832756  0.167244  0.496350  1
  Si  Si12  1  0.834298  0.666219  0.499753  1
  Si  Si13  1  0.333781  0.165702  0.499753  1
  Si  Si14  1  0.832756  0.167244  0.003650  1
  Si  Si15  1  0.834298  0.666219  0.000247  1
  Si  Si16  1  0.333781  0.165702  0.000247  1
  Si  Si17  1  0.167233  0.832767  0.003327  1
  Si  Si18  1  0.165743  0.333811  0.000272  1
  Si  Si19  1  0.666189  0.834257  0.000272  1
  Rh  Rh20  1  0.332731  0.667269  0.503596  1
  Rh  Rh21  1  0.667243  0.332757  0.507609  1
  Rh  Rh22  1  0.667243  0.332757  0.992391  1
  Rh  Rh23  1  0.332731  0.667269  0.996404  1
