# generated using pymatgen
data_KPPtS4
_symmetry_space_group_name_H-M   'P 1'
_cell_length_a   8.79055500
_cell_length_b   8.79055500
_cell_length_c   10.79465000
_cell_angle_alpha   90.00000000
_cell_angle_beta   90.00000000
_cell_angle_gamma   90.00000000
_symmetry_Int_Tables_number   1
_chemical_formula_structural   KPPtS4
_chemical_formula_sum   'K4 P4 Pt4 S16'
_cell_volume   834.14424271
_cell_formula_units_Z   4
loop_
 _symmetry_equiv_pos_site_id
 _symmetry_equiv_pos_as_xyz
  1  'x, y, z'
loop_
 _atom_site_type_symbol
 _atom_site_label
 _atom_site_symmetry_multiplicity
 _atom_site_fract_x
 _atom_site_fract_y
 _atom_site_fract_z
 _atom_site_occupancy
  K  K0  1  0.000000  0.500000  0.750000  1
  K  K1  1  0.500000  0.000000  0.750000  1
  K  K2  1  0.500000  0.000000  0.250000  1
  K  K3  1  0.000000  0.500000  0.250000  1
  P  P4  1  0.748941  0.748941  0.000000  1
  P  P5  1  0.251059  0.251059  0.000000  1
  P  P6  1  0.248941  0.751059  0.500000  1
  P  P7  1  0.751059  0.248941  0.500000  1
  Pt  Pt8  1  0.500000  0.500000  0.500000  1
  Pt  Pt9  1  0.000000  0.000000  0.000000  1
  Pt  Pt10  1  0.500000  0.500000  0.000000  1
  Pt  Pt11  1  0.000000  0.000000  0.500000  1
  S  S12  1  0.358830  0.358830  0.144751  1
  S  S13  1  0.641170  0.641170  0.144751  1
  S  S14  1  0.141170  0.858830  0.355249  1
  S  S15  1  0.858830  0.141170  0.355249  1
  S  S16  1  0.641170  0.641170  0.855249  1
  S  S17  1  0.358830  0.358830  0.855249  1
  S  S18  1  0.141170  0.858830  0.644751  1
  S  S19  1  0.858830  0.141170  0.644751  1
  S  S20  1  0.516382  0.234167  0.500000  1
  S  S21  1  0.483618  0.765833  0.500000  1
  S  S22  1  0.983618  0.734167  0.000000  1
  S  S23  1  0.016382  0.265833  0.000000  1
  S  S24  1  0.765833  0.483618  0.500000  1
  S  S25  1  0.234167  0.516382  0.500000  1
  S  S26  1  0.265833  0.016382  0.000000  1
  S  S27  1  0.734167  0.983618  0.000000  1
