# generated using pymatgen
data_Tb5Sn3N
_symmetry_space_group_name_H-M   'P 1'
_cell_length_a   8.95102900
_cell_length_b   8.95102918
_cell_length_c   6.50774200
_cell_angle_alpha   90.00000000
_cell_angle_beta   90.00000000
_cell_angle_gamma   119.99999564
_symmetry_Int_Tables_number   1
_chemical_formula_structural   Tb5Sn3N
_chemical_formula_sum   'Tb10 Sn6 N2'
_cell_volume   451.55111064
_cell_formula_units_Z   2
loop_
 _symmetry_equiv_pos_site_id
 _symmetry_equiv_pos_as_xyz
  1  'x, y, z'
loop_
 _atom_site_type_symbol
 _atom_site_label
 _atom_site_symmetry_multiplicity
 _atom_site_fract_x
 _atom_site_fract_y
 _atom_site_fract_z
 _atom_site_occupancy
  Tb  Tb0  1  0.666667  0.333333  0.000000  1
  Tb  Tb1  1  0.333333  0.666667  0.000000  1
  Tb  Tb2  1  0.333333  0.666667  0.500000  1
  Tb  Tb3  1  0.666667  0.333333  0.500000  1
  Tb  Tb4  1  0.785679  0.785679  0.750000  1
  Tb  Tb5  1  0.214321  0.000000  0.750000  1
  Tb  Tb6  1  0.000000  0.214321  0.750000  1
  Tb  Tb7  1  0.214321  0.214321  0.250000  1
  Tb  Tb8  1  0.785679  0.000000  0.250000  1
  Tb  Tb9  1  0.000000  0.785679  0.250000  1
  Sn  Sn10  1  0.403079  0.403079  0.750000  1
  Sn  Sn11  1  0.596921  0.000000  0.750000  1
  Sn  Sn12  1  0.000000  0.596921  0.750000  1
  Sn  Sn13  1  0.596921  0.596921  0.250000  1
  Sn  Sn14  1  0.403079  0.000000  0.250000  1
  Sn  Sn15  1  0.000000  0.403079  0.250000  1
  N  N16  1  0.000000  0.000000  0.000000  1
  N  N17  1  0.000000  0.000000  0.500000  1
