# generated using pymatgen
data_TbDy7(ZnRh)2
_symmetry_space_group_name_H-M   'P 1'
_cell_length_a   9.48277724
_cell_length_b   9.48277696
_cell_length_c   9.47688300
_cell_angle_alpha   60.02056187
_cell_angle_beta   60.02056283
_cell_angle_gamma   59.95888557
_symmetry_Int_Tables_number   1
_chemical_formula_structural   TbDy7(ZnRh)2
_chemical_formula_sum   'Tb2 Dy14 Zn4 Rh4'
_cell_volume   602.58914494
_cell_formula_units_Z   2
loop_
 _symmetry_equiv_pos_site_id
 _symmetry_equiv_pos_as_xyz
  1  'x, y, z'
loop_
 _atom_site_type_symbol
 _atom_site_label
 _atom_site_symmetry_multiplicity
 _atom_site_fract_x
 _atom_site_fract_y
 _atom_site_fract_z
 _atom_site_occupancy
  Tb  Tb0  1  0.935294  0.935294  0.564706  1
  Tb  Tb1  1  0.564706  0.564706  0.935294  1
  Dy  Dy2  1  0.690709  0.690709  0.309291  1
  Dy  Dy3  1  0.146477  0.561022  0.146251  1
  Dy  Dy4  1  0.690597  0.309403  0.690597  1
  Dy  Dy5  1  0.146251  0.146251  0.146477  1
  Dy  Dy6  1  0.561022  0.146477  0.146251  1
  Dy  Dy7  1  0.690597  0.309403  0.309403  1
  Dy  Dy8  1  0.146251  0.146251  0.561022  1
  Dy  Dy9  1  0.309403  0.690597  0.309403  1
  Dy  Dy10  1  0.309403  0.690597  0.690597  1
  Dy  Dy11  1  0.935993  0.564007  0.564007  1
  Dy  Dy12  1  0.935993  0.564007  0.935993  1
  Dy  Dy13  1  0.564007  0.935993  0.564007  1
  Dy  Dy14  1  0.564007  0.935993  0.935993  1
  Dy  Dy15  1  0.309291  0.309291  0.690709  1
  Zn  Zn16  1  0.920865  0.920865  0.237217  1
  Zn  Zn17  1  0.237217  0.921053  0.920865  1
  Zn  Zn18  1  0.920865  0.920865  0.921053  1
  Zn  Zn19  1  0.921053  0.237217  0.920865  1
  Rh  Rh20  1  0.356354  0.356354  0.930339  1
  Rh  Rh21  1  0.356951  0.930339  0.356354  1
  Rh  Rh22  1  0.930339  0.356951  0.356354  1
  Rh  Rh23  1  0.356354  0.356354  0.356951  1
