# generated using pymatgen
data_TmMg3(AlPt)4
_symmetry_space_group_name_H-M   'P 1'
_cell_length_a   4.17099700
_cell_length_b   6.65295496
_cell_length_c   7.71471983
_cell_angle_alpha   91.86298472
_cell_angle_beta   90.00000000
_cell_angle_gamma   90.00000000
_symmetry_Int_Tables_number   1
_chemical_formula_structural   TmMg3(AlPt)4
_chemical_formula_sum   'Tm1 Mg3 Al4 Pt4'
_cell_volume   213.96611553
_cell_formula_units_Z   1
loop_
 _symmetry_equiv_pos_site_id
 _symmetry_equiv_pos_as_xyz
  1  'x, y, z'
loop_
 _atom_site_type_symbol
 _atom_site_label
 _atom_site_symmetry_multiplicity
 _atom_site_fract_x
 _atom_site_fract_y
 _atom_site_fract_z
 _atom_site_occupancy
  Tm  Tm0  1  0.750000  0.475973  0.175349  1
  Mg  Mg1  1  0.250000  0.023223  0.672684  1
  Mg  Mg2  1  0.250000  0.529272  0.821367  1
  Mg  Mg3  1  0.750000  0.971224  0.330118  1
  Al  Al4  1  0.250000  0.143889  0.055328  1
  Al  Al5  1  0.250000  0.650215  0.444342  1
  Al  Al6  1  0.750000  0.857214  0.939193  1
  Al  Al7  1  0.750000  0.351652  0.562141  1
  Pt  Pt8  1  0.250000  0.265007  0.376993  1
  Pt  Pt9  1  0.250000  0.778533  0.129062  1
  Pt  Pt10  1  0.750000  0.728401  0.623450  1
  Pt  Pt11  1  0.750000  0.225398  0.869973  1
