# generated using pymatgen
data_NdBPdPt2Rh
_symmetry_space_group_name_H-M   'P 1'
_cell_length_a   5.48146493
_cell_length_b   5.45015005
_cell_length_c   7.66440800
_cell_angle_alpha   90.00000000
_cell_angle_beta   90.00000000
_cell_angle_gamma   119.81119488
_symmetry_Int_Tables_number   1
_chemical_formula_structural   NdBPdPt2Rh
_chemical_formula_sum   'Nd2 B2 Pd2 Pt4 Rh2'
_cell_volume   198.67236553
_cell_formula_units_Z   2
loop_
 _symmetry_equiv_pos_site_id
 _symmetry_equiv_pos_as_xyz
  1  'x, y, z'
loop_
 _atom_site_type_symbol
 _atom_site_label
 _atom_site_symmetry_multiplicity
 _atom_site_fract_x
 _atom_site_fract_y
 _atom_site_fract_z
 _atom_site_occupancy
  Nd  Nd0  1  0.000000  0.000000  0.500000  1
  Nd  Nd1  1  0.000000  0.000000  0.000000  1
  B  B2  1  0.328463  0.664232  0.000000  1
  B  B3  1  0.671537  0.335768  0.000000  1
  Pd  Pd4  1  0.316296  0.658148  0.500000  1
  Pd  Pd5  1  0.683704  0.341852  0.500000  1
  Pt  Pt6  1  0.500000  0.000000  0.201326  1
  Pt  Pt7  1  0.500000  0.000000  0.798674  1
  Pt  Pt8  1  0.500000  0.500000  0.201326  1
  Pt  Pt9  1  0.500000  0.500000  0.798674  1
  Rh  Rh10  1  0.000000  0.500000  0.191606  1
  Rh  Rh11  1  0.000000  0.500000  0.808394  1
