# generated using pymatgen
data_LiYTh7(Si4Rh)3
_symmetry_space_group_name_H-M   'P 1'
_cell_length_a   8.24480348
_cell_length_b   8.22090247
_cell_length_c   8.36355223
_cell_angle_alpha   90.00000081
_cell_angle_beta   90.08686906
_cell_angle_gamma   119.90415147
_symmetry_Int_Tables_number   1
_chemical_formula_structural   LiYTh7(Si4Rh)3
_chemical_formula_sum   'Li1 Y1 Th7 Si12 Rh3'
_cell_volume   491.40457070
_cell_formula_units_Z   1
loop_
 _symmetry_equiv_pos_site_id
 _symmetry_equiv_pos_as_xyz
  1  'x, y, z'
loop_
 _atom_site_type_symbol
 _atom_site_label
 _atom_site_symmetry_multiplicity
 _atom_site_fract_x
 _atom_site_fract_y
 _atom_site_fract_z
 _atom_site_occupancy
  Li  Li0  1  0.334524  0.667263  0.994736  1
  Y  Y1  1  0.996005  0.498003  0.749737  1
  Th  Th2  1  0.999706  0.999852  0.248634  1
  Th  Th3  1  0.000336  0.000168  0.751507  1
  Th  Th4  1  0.995291  0.497646  0.250547  1
  Th  Th5  1  0.502124  0.497746  0.250406  1
  Th  Th6  1  0.503367  0.006574  0.749392  1
  Th  Th7  1  0.502124  0.004377  0.250406  1
  Th  Th8  1  0.503367  0.496794  0.749392  1
  Si  Si9  1  0.167241  0.336011  0.998953  1
  Si  Si10  1  0.666302  0.833152  0.000942  1
  Si  Si11  1  0.166107  0.334694  0.501736  1
  Si  Si12  1  0.330794  0.165397  0.000859  1
  Si  Si13  1  0.167241  0.831230  0.998953  1
  Si  Si14  1  0.669108  0.834555  0.499146  1
  Si  Si15  1  0.834137  0.665819  0.998533  1
  Si  Si16  1  0.329361  0.164681  0.498930  1
  Si  Si17  1  0.166107  0.831413  0.501736  1
  Si  Si18  1  0.834599  0.666073  0.501882  1
  Si  Si19  1  0.834137  0.168320  0.998533  1
  Si  Si20  1  0.834599  0.168527  0.501882  1
  Rh  Rh21  1  0.336004  0.668003  0.504250  1
  Rh  Rh22  1  0.664317  0.332158  0.998406  1
  Rh  Rh23  1  0.663097  0.331548  0.500501  1
