# generated using pymatgen
data_La5Nd9(Y3Pb8)2
_symmetry_space_group_name_H-M   'P 1'
_cell_length_a   8.35099227
_cell_length_b   8.45757448
_cell_length_c   16.05045300
_cell_angle_alpha   90.03234821
_cell_angle_beta   89.98539989
_cell_angle_gamma   89.98996167
_symmetry_Int_Tables_number   1
_chemical_formula_structural   La5Nd9(Y3Pb8)2
_chemical_formula_sum   'La5 Nd9 Y6 Pb16'
_cell_volume   1133.62944262
_cell_formula_units_Z   1
loop_
 _symmetry_equiv_pos_site_id
 _symmetry_equiv_pos_as_xyz
  1  'x, y, z'
loop_
 _atom_site_type_symbol
 _atom_site_label
 _atom_site_symmetry_multiplicity
 _atom_site_fract_x
 _atom_site_fract_y
 _atom_site_fract_z
 _atom_site_occupancy
  La  La0  1  0.027486  0.178569  0.402058  1
  La  La1  1  0.524578  0.319357  0.403619  1
  La  La2  1  0.024469  0.180907  0.096419  1
  La  La3  1  0.475426  0.676537  0.900053  1
  La  La4  1  0.975406  0.823332  0.600115  1
  Nd  Nd5  1  0.367242  0.842254  0.117542  1
  Nd  Nd6  1  0.867101  0.657764  0.382481  1
  Nd  Nd7  1  0.371370  0.839635  0.379488  1
  Nd  Nd8  1  0.871101  0.660196  0.120366  1
  Nd  Nd9  1  0.627885  0.158153  0.879977  1
  Nd  Nd10  1  0.128005  0.341946  0.620085  1
  Nd  Nd11  1  0.471829  0.678141  0.599599  1
  Nd  Nd12  1  0.971842  0.821862  0.900387  1
  Nd  Nd13  1  0.527568  0.321449  0.098266  1
  Y  Y14  1  0.633790  0.156141  0.625271  1
  Y  Y15  1  0.133735  0.343826  0.874752  1
  Y  Y16  1  0.798451  0.495076  0.750290  1
  Y  Y17  1  0.298467  0.004940  0.749640  1
  Y  Y18  1  0.201166  0.504205  0.248755  1
  Y  Y19  1  0.700826  0.995857  0.250964  1
  Pb  Pb20  1  0.710658  0.967636  0.459429  1
  Pb  Pb21  1  0.211824  0.531381  0.040849  1
  Pb  Pb22  1  0.281688  0.040044  0.952708  1
  Pb  Pb23  1  0.781338  0.460159  0.547426  1
  Pb  Pb24  1  0.298650  0.037082  0.546396  1
  Pb  Pb25  1  0.797658  0.462337  0.954117  1
  Pb  Pb26  1  0.711265  0.965645  0.045353  1
  Pb  Pb27  1  0.211714  0.535296  0.454757  1
  Pb  Pb28  1  0.436383  0.373723  0.748962  1
  Pb  Pb29  1  0.936306  0.126316  0.751078  1
  Pb  Pb30  1  0.563998  0.623725  0.248437  1
  Pb  Pb31  1  0.064111  0.875708  0.251333  1
  Pb  Pb32  1  0.663796  0.848491  0.748662  1
  Pb  Pb33  1  0.163858  0.651465  0.751368  1
  Pb  Pb34  1  0.335366  0.152279  0.248839  1
  Pb  Pb35  1  0.833642  0.348563  0.250161  1
