# generated using pymatgen
data_CaHf(ReO4)6
_symmetry_space_group_name_H-M   'P 1'
_cell_length_a   10.30405000
_cell_length_b   10.30404848
_cell_length_c   6.07818400
_cell_angle_alpha   90.00000000
_cell_angle_beta   90.00000000
_cell_angle_gamma   119.99999719
_symmetry_Int_Tables_number   1
_chemical_formula_structural   CaHf(ReO4)6
_chemical_formula_sum   'Ca1 Hf1 Re6 O24'
_cell_volume   558.88227718
_cell_formula_units_Z   1
loop_
 _symmetry_equiv_pos_site_id
 _symmetry_equiv_pos_as_xyz
  1  'x, y, z'
loop_
 _atom_site_type_symbol
 _atom_site_label
 _atom_site_symmetry_multiplicity
 _atom_site_fract_x
 _atom_site_fract_y
 _atom_site_fract_z
 _atom_site_occupancy
  Ca  Ca0  1  0.333333  0.666667  0.250000  1
  Hf  Hf1  1  0.666667  0.333333  0.750000  1
  Re  Re2  1  0.072505  0.390933  0.750000  1
  Re  Re3  1  0.406895  0.294158  0.250000  1
  Re  Re4  1  0.609067  0.681570  0.750000  1
  Re  Re5  1  0.887262  0.593105  0.250000  1
  Re  Re6  1  0.318430  0.927495  0.750000  1
  Re  Re7  1  0.705842  0.112738  0.250000  1
  O  O8  1  0.495510  0.644931  0.517235  1
  O  O9  1  0.355069  0.850579  0.517235  1
  O  O10  1  0.810955  0.708732  0.250000  1
  O  O11  1  0.131857  0.878702  0.750000  1
  O  O12  1  0.291268  0.102223  0.250000  1
  O  O13  1  0.121298  0.253155  0.750000  1
  O  O14  1  0.522426  0.348480  0.011312  1
  O  O15  1  0.897777  0.189045  0.250000  1
  O  O16  1  0.080971  0.702385  0.250000  1
  O  O17  1  0.149421  0.504490  0.982765  1
  O  O18  1  0.149421  0.504490  0.517235  1
  O  O19  1  0.873842  0.310074  0.750000  1
  O  O20  1  0.297615  0.378586  0.250000  1
  O  O21  1  0.689926  0.563768  0.750000  1
  O  O22  1  0.826054  0.477574  0.488688  1
  O  O23  1  0.436232  0.126158  0.750000  1
  O  O24  1  0.651520  0.173946  0.011312  1
  O  O25  1  0.495510  0.644931  0.982765  1
  O  O26  1  0.355069  0.850579  0.982765  1
  O  O27  1  0.651520  0.173946  0.488688  1
  O  O28  1  0.522426  0.348480  0.488688  1
  O  O29  1  0.826054  0.477574  0.011312  1
  O  O30  1  0.746845  0.868143  0.750000  1
  O  O31  1  0.621414  0.919029  0.250000  1
