# generated using pymatgen
data_CaNb6CrSe12
_symmetry_space_group_name_H-M   'P 1'
_cell_length_a   6.07562600
_cell_length_b   6.07562610
_cell_length_c   13.87572400
_cell_angle_alpha   90.00000000
_cell_angle_beta   90.00000000
_cell_angle_gamma   120.00001034
_symmetry_Int_Tables_number   1
_chemical_formula_structural   CaNb6CrSe12
_chemical_formula_sum   'Ca1 Nb6 Cr1 Se12'
_cell_volume   443.57627589
_cell_formula_units_Z   1
loop_
 _symmetry_equiv_pos_site_id
 _symmetry_equiv_pos_as_xyz
  1  'x, y, z'
loop_
 _atom_site_type_symbol
 _atom_site_label
 _atom_site_symmetry_multiplicity
 _atom_site_fract_x
 _atom_site_fract_y
 _atom_site_fract_z
 _atom_site_occupancy
  Ca  Ca0  1  0.333333  0.666667  0.250000  1
  Nb  Nb1  1  0.333333  0.666667  0.977346  1
  Nb  Nb2  1  0.000000  0.000000  0.977177  1
  Nb  Nb3  1  0.000000  0.000000  0.522823  1
  Nb  Nb4  1  0.333333  0.666667  0.522654  1
  Nb  Nb5  1  0.666667  0.333333  0.977098  1
  Nb  Nb6  1  0.666667  0.333333  0.522902  1
  Cr  Cr7  1  0.666667  0.333333  0.750000  1
  Se  Se8  1  0.333036  0.003303  0.098571  1
  Se  Se9  1  0.666790  0.996688  0.642314  1
  Se  Se10  1  0.996697  0.329732  0.098571  1
  Se  Se11  1  0.670268  0.003303  0.401429  1
  Se  Se12  1  0.333036  0.329732  0.401429  1
  Se  Se13  1  0.996697  0.666964  0.401429  1
  Se  Se14  1  0.670268  0.666964  0.098571  1
  Se  Se15  1  0.329898  0.333210  0.642314  1
  Se  Se16  1  0.003312  0.670102  0.642314  1
  Se  Se17  1  0.329898  0.996688  0.857686  1
  Se  Se18  1  0.666790  0.670102  0.857686  1
  Se  Se19  1  0.003312  0.333210  0.857686  1
