# generated using pymatgen
data_TiBe8Os3
_symmetry_space_group_name_H-M   'P 1'
_cell_length_a   4.35961000
_cell_length_b   4.35961049
_cell_length_c   7.16625300
_cell_angle_alpha   90.00000000
_cell_angle_beta   90.00000000
_cell_angle_gamma   120.00001145
_symmetry_Int_Tables_number   1
_chemical_formula_structural   TiBe8Os3
_chemical_formula_sum   'Ti1 Be8 Os3'
_cell_volume   117.95545963
_cell_formula_units_Z   1
loop_
 _symmetry_equiv_pos_site_id
 _symmetry_equiv_pos_as_xyz
  1  'x, y, z'
loop_
 _atom_site_type_symbol
 _atom_site_label
 _atom_site_symmetry_multiplicity
 _atom_site_fract_x
 _atom_site_fract_y
 _atom_site_fract_z
 _atom_site_occupancy
  Ti  Ti0  1  0.666667  0.333333  0.565379  1
  Be  Be1  1  0.170195  0.340389  0.755810  1
  Be  Be2  1  0.170195  0.829805  0.755810  1
  Be  Be3  1  0.335328  0.167664  0.245312  1
  Be  Be4  1  0.832336  0.664672  0.245312  1
  Be  Be5  1  0.000000  0.000000  0.000391  1
  Be  Be6  1  0.659611  0.829805  0.755810  1
  Be  Be7  1  0.832336  0.167664  0.245312  1
  Be  Be8  1  0.000000  0.000000  0.495913  1
  Os  Os9  1  0.333333  0.666667  0.442444  1
  Os  Os10  1  0.666667  0.333333  0.929756  1
  Os  Os11  1  0.333333  0.666667  0.062750  1
