# generated using pymatgen
data_Sr4Mo(N2Cl)2
_symmetry_space_group_name_H-M   'P 1'
_cell_length_a   5.98070400
_cell_length_b   8.03601917
_cell_length_c   10.36053016
_cell_angle_alpha   81.59834832
_cell_angle_beta   90.00000000
_cell_angle_gamma   90.00000000
_symmetry_Int_Tables_number   1
_chemical_formula_structural   Sr4Mo(N2Cl)2
_chemical_formula_sum   'Sr8 Mo2 N8 Cl4'
_cell_volume   492.59416896
_cell_formula_units_Z   2
loop_
 _symmetry_equiv_pos_site_id
 _symmetry_equiv_pos_as_xyz
  1  'x, y, z'
loop_
 _atom_site_type_symbol
 _atom_site_label
 _atom_site_symmetry_multiplicity
 _atom_site_fract_x
 _atom_site_fract_y
 _atom_site_fract_z
 _atom_site_occupancy
  Sr  Sr0  1  0.750000  0.285730  0.297393  1
  Sr  Sr1  1  0.750000  0.001798  0.623750  1
  Sr  Sr2  1  0.750000  0.449396  0.619603  1
  Sr  Sr3  1  0.750000  0.818181  0.085234  1
  Sr  Sr4  1  0.250000  0.998202  0.376250  1
  Sr  Sr5  1  0.250000  0.550604  0.380397  1
  Sr  Sr6  1  0.250000  0.181819  0.914766  1
  Sr  Sr7  1  0.250000  0.714270  0.702607  1
  Mo  Mo8  1  0.750000  0.771643  0.391853  1
  Mo  Mo9  1  0.250000  0.228357  0.608147  1
  N  N10  1  0.250000  0.024863  0.720853  1
  N  N11  1  0.997639  0.246886  0.498322  1
  N  N12  1  0.497639  0.753114  0.501678  1
  N  N13  1  0.002361  0.753114  0.501678  1
  N  N14  1  0.750000  0.602902  0.284708  1
  N  N15  1  0.750000  0.975137  0.279147  1
  N  N16  1  0.502361  0.246886  0.498322  1
  N  N17  1  0.250000  0.397098  0.715292  1
  Cl  Cl18  1  0.250000  0.320086  0.168650  1
  Cl  Cl19  1  0.750000  0.679914  0.831350  1
  Cl  Cl20  1  0.250000  0.844013  0.098936  1
  Cl  Cl21  1  0.750000  0.155987  0.901064  1
