# generated using pymatgen
data_Y2TmTh(Al3Ir)6
_symmetry_space_group_name_H-M   'P 1'
_cell_length_a   7.57519982
_cell_length_b   7.58804787
_cell_length_c   9.47785700
_cell_angle_alpha   90.00000000
_cell_angle_beta   90.00000000
_cell_angle_gamma   119.49548435
_symmetry_Int_Tables_number   1
_chemical_formula_structural   Y2TmTh(Al3Ir)6
_chemical_formula_sum   'Y2 Tm1 Th1 Al18 Ir6'
_cell_volume   474.18787623
_cell_formula_units_Z   1
loop_
 _symmetry_equiv_pos_site_id
 _symmetry_equiv_pos_as_xyz
  1  'x, y, z'
loop_
 _atom_site_type_symbol
 _atom_site_label
 _atom_site_symmetry_multiplicity
 _atom_site_fract_x
 _atom_site_fract_y
 _atom_site_fract_z
 _atom_site_occupancy
  Y  Y0  1  0.004105  0.328418  0.750000  1
  Y  Y1  1  0.672575  0.994706  0.250000  1
  Tm  Tm2  1  0.327212  0.004541  0.750000  1
  Th  Th3  1  0.995003  0.671358  0.250000  1
  Al  Al4  1  0.132205  0.133322  0.250000  1
  Al  Al5  1  0.871598  0.873345  0.750000  1
  Al  Al6  1  0.001873  0.331364  0.072451  1
  Al  Al7  1  0.999462  0.664915  0.918349  1
  Al  Al8  1  0.999462  0.664915  0.581651  1
  Al  Al9  1  0.339945  0.005244  0.428287  1
  Al  Al10  1  0.001873  0.331364  0.427549  1
  Al  Al11  1  0.663659  0.999930  0.576355  1
  Al  Al12  1  0.663659  0.999930  0.923645  1
  Al  Al13  1  0.339945  0.005244  0.071713  1
  Al  Al14  1  0.332631  0.332048  0.555488  1
  Al  Al15  1  0.662952  0.666224  0.454506  1
  Al  Al16  1  0.662952  0.666224  0.045494  1
  Al  Al17  1  0.332631  0.332048  0.944512  1
  Al  Al18  1  0.344331  0.548582  0.250000  1
  Al  Al19  1  0.657216  0.448370  0.750000  1
  Al  Al20  1  0.544415  0.337323  0.250000  1
  Al  Al21  1  0.449887  0.661244  0.750000  1
  Ir  Ir22  1  0.672987  0.329605  0.000179  1
  Ir  Ir23  1  0.326484  0.671589  0.000244  1
  Ir  Ir24  1  0.326484  0.671589  0.499756  1
  Ir  Ir25  1  0.672987  0.329605  0.499821  1
  Ir  Ir26  1  0.000734  0.998476  0.000345  1
  Ir  Ir27  1  0.000734  0.998476  0.499655  1
