# generated using pymatgen
data_K12Li8Ti3NbAs12
_symmetry_space_group_name_H-M   'P 1'
_cell_length_a   10.20284781
_cell_length_b   10.20284912
_cell_length_c   15.09224116
_cell_angle_alpha   89.97284030
_cell_angle_beta   89.97284330
_cell_angle_gamma   143.09381311
_symmetry_Int_Tables_number   1
_chemical_formula_structural   K12Li8Ti3NbAs12
_chemical_formula_sum   'K12 Li8 Ti3 Nb1 As12'
_cell_volume   943.43913544
_cell_formula_units_Z   1
loop_
 _symmetry_equiv_pos_site_id
 _symmetry_equiv_pos_as_xyz
  1  'x, y, z'
loop_
 _atom_site_type_symbol
 _atom_site_label
 _atom_site_symmetry_multiplicity
 _atom_site_fract_x
 _atom_site_fract_y
 _atom_site_fract_z
 _atom_site_occupancy
  K  K0  1  0.603876  0.945375  0.827998  1
  K  K1  1  0.280800  0.283046  0.320211  1
  K  K2  1  0.219245  0.219307  0.821720  1
  K  K3  1  0.716954  0.719200  0.679789  1
  K  K4  1  0.446044  0.104240  0.672925  1
  K  K5  1  0.895760  0.553956  0.327075  1
  K  K6  1  0.054625  0.396124  0.172002  1
  K  K7  1  0.396188  0.054430  0.171205  1
  K  K8  1  0.556125  0.895582  0.328248  1
  K  K9  1  0.104418  0.443875  0.671752  1
  K  K10  1  0.945570  0.603812  0.828795  1
  K  K11  1  0.780693  0.780755  0.178280  1
  Li  Li12  1  0.081981  0.918019  0.000000  1
  Li  Li13  1  0.581779  0.418221  0.500000  1
  Li  Li14  1  0.917976  0.082024  0.000000  1
  Li  Li15  1  0.750323  0.249677  0.000000  1
  Li  Li16  1  0.750977  0.249023  0.500000  1
  Li  Li17  1  0.249810  0.750190  0.000000  1
  Li  Li18  1  0.251511  0.748489  0.500000  1
  Li  Li19  1  0.416814  0.583186  0.500000  1
  Ti  Ti20  1  0.413332  0.586668  0.000000  1
  Ti  Ti21  1  0.913641  0.086359  0.500000  1
  Ti  Ti22  1  0.586596  0.413404  0.000000  1
  Nb  Nb23  1  0.084744  0.915256  0.500000  1
  As  As24  1  0.067777  0.389704  0.407850  1
  As  As25  1  0.887920  0.567309  0.091348  1
  As  As26  1  0.432691  0.112080  0.908652  1
  As  As27  1  0.610296  0.932223  0.592150  1
  As  As28  1  0.932087  0.611410  0.592586  1
  As  As29  1  0.112045  0.432715  0.908752  1
  As  As30  1  0.567285  0.887955  0.091248  1
  As  As31  1  0.388590  0.067913  0.407414  1
  As  As32  1  0.224190  0.222778  0.589595  1
  As  As33  1  0.719127  0.719011  0.913642  1
  As  As34  1  0.280989  0.280873  0.086358  1
  As  As35  1  0.777222  0.775810  0.410405  1
