# generated using pymatgen
data_Nd5Th3(PbAu2)4
_symmetry_space_group_name_H-M   'P 1'
_cell_length_a   8.15174220
_cell_length_b   8.15174166
_cell_length_c   7.98463200
_cell_angle_alpha   90.00000000
_cell_angle_beta   90.00000000
_cell_angle_gamma   90.17623663
_symmetry_Int_Tables_number   1
_chemical_formula_structural   Nd5Th3(PbAu2)4
_chemical_formula_sum   'Nd5 Th3 Pb4 Au8'
_cell_volume   530.58344515
_cell_formula_units_Z   1
loop_
 _symmetry_equiv_pos_site_id
 _symmetry_equiv_pos_as_xyz
  1  'x, y, z'
loop_
 _atom_site_type_symbol
 _atom_site_label
 _atom_site_symmetry_multiplicity
 _atom_site_fract_x
 _atom_site_fract_y
 _atom_site_fract_z
 _atom_site_occupancy
  Nd  Nd0  1  0.319801  0.680199  0.000000  1
  Nd  Nd1  1  0.163905  0.164064  0.000000  1
  Nd  Nd2  1  0.662858  0.337142  0.500000  1
  Nd  Nd3  1  0.334988  0.665012  0.500000  1
  Nd  Nd4  1  0.835936  0.836095  0.000000  1
  Th  Th5  1  0.679674  0.320326  0.000000  1
  Th  Th6  1  0.819940  0.819207  0.500000  1
  Th  Th7  1  0.180793  0.180060  0.500000  1
  Pb  Pb8  1  0.500119  0.998597  0.248551  1
  Pb  Pb9  1  0.500119  0.998597  0.751449  1
  Pb  Pb10  1  0.001403  0.499881  0.248551  1
  Pb  Pb11  1  0.001403  0.499881  0.751449  1
  Au  Au12  1  0.375910  0.373998  0.233621  1
  Au  Au13  1  0.874248  0.125752  0.730000  1
  Au  Au14  1  0.123368  0.876632  0.730153  1
  Au  Au15  1  0.626002  0.624090  0.233621  1
  Au  Au16  1  0.123368  0.876632  0.269847  1
  Au  Au17  1  0.874248  0.125752  0.270000  1
  Au  Au18  1  0.375910  0.373998  0.766379  1
  Au  Au19  1  0.626002  0.624090  0.766379  1
