# generated using pymatgen
data_CaNdTm2(B6Os)2
_symmetry_space_group_name_H-M   'P 1'
_cell_length_a   3.65420000
_cell_length_b   9.17219549
_cell_length_c   11.60498903
_cell_angle_alpha   89.84280180
_cell_angle_beta   90.00000000
_cell_angle_gamma   90.00000000
_symmetry_Int_Tables_number   1
_chemical_formula_structural   CaNdTm2(B6Os)2
_chemical_formula_sum   'Ca2 Nd2 Tm4 B24 Os4'
_cell_volume   388.96338029
_cell_formula_units_Z   2
loop_
 _symmetry_equiv_pos_site_id
 _symmetry_equiv_pos_as_xyz
  1  'x, y, z'
loop_
 _atom_site_type_symbol
 _atom_site_label
 _atom_site_symmetry_multiplicity
 _atom_site_fract_x
 _atom_site_fract_y
 _atom_site_fract_z
 _atom_site_occupancy
  Ca  Ca0  1  0.000000  0.323529  0.415557  1
  Ca  Ca1  1  0.000000  0.676471  0.584443  1
  Nd  Nd2  1  0.000000  0.821769  0.086472  1
  Nd  Nd3  1  0.000000  0.178231  0.913528  1
  Tm  Tm4  1  0.000000  0.942187  0.371471  1
  Tm  Tm5  1  0.000000  0.057813  0.628530  1
  Tm  Tm6  1  0.000000  0.443161  0.131523  1
  Tm  Tm7  1  0.000000  0.556839  0.868476  1
  B  B8  1  0.500000  0.554182  0.432482  1
  B  B9  1  0.500000  0.445818  0.567518  1
  B  B10  1  0.500000  0.056000  0.070149  1
  B  B11  1  0.500000  0.944000  0.929851  1
  B  B12  1  0.500000  0.748474  0.417915  1
  B  B13  1  0.500000  0.251526  0.582085  1
  B  B14  1  0.500000  0.250258  0.084772  1
  B  B15  1  0.500000  0.749742  0.915228  1
  B  B16  1  0.500000  0.790311  0.267191  1
  B  B17  1  0.500000  0.209689  0.732809  1
  B  B18  1  0.500000  0.291219  0.236038  1
  B  B19  1  0.500000  0.708780  0.763962  1
  B  B20  1  0.500000  0.629333  0.187036  1
  B  B21  1  0.500000  0.370667  0.812964  1
  B  B22  1  0.500000  0.130740  0.315711  1
  B  B23  1  0.500000  0.869260  0.684289  1
  B  B24  1  0.500000  0.985082  0.214574  1
  B  B25  1  0.500000  0.014918  0.785426  1
  B  B26  1  0.500000  0.483363  0.288735  1
  B  B27  1  0.500000  0.516637  0.711265  1
  B  B28  1  0.500000  0.597955  0.026773  1
  B  B29  1  0.500000  0.402045  0.973227  1
  B  B30  1  0.500000  0.098781  0.473002  1
  B  B31  1  0.500000  0.901219  0.526998  1
  Os  Os32  1  0.000000  0.639623  0.319272  1
  Os  Os33  1  0.000000  0.360377  0.680728  1
  Os  Os34  1  0.000000  0.139111  0.181172  1
  Os  Os35  1  0.000000  0.860889  0.818828  1
