# generated using pymatgen
data_Zr6IrPt
_symmetry_space_group_name_H-M   'P 1'
_cell_length_a   8.21216133
_cell_length_b   8.21216211
_cell_length_c   8.22248700
_cell_angle_alpha   97.05974235
_cell_angle_beta   97.05974641
_cell_angle_gamma   139.21301384
_symmetry_Int_Tables_number   1
_chemical_formula_structural   Zr6IrPt
_chemical_formula_sum   'Zr12 Ir2 Pt2'
_cell_volume   338.96123818
_cell_formula_units_Z   2
loop_
 _symmetry_equiv_pos_site_id
 _symmetry_equiv_pos_as_xyz
  1  'x, y, z'
loop_
 _atom_site_type_symbol
 _atom_site_label
 _atom_site_symmetry_multiplicity
 _atom_site_fract_x
 _atom_site_fract_y
 _atom_site_fract_z
 _atom_site_occupancy
  Zr  Zr0  1  0.542817  0.955808  0.003472  1
  Zr  Zr1  1  0.455816  0.455816  0.412354  1
  Zr  Zr2  1  0.048832  0.048832  0.585907  1
  Zr  Zr3  1  0.955808  0.542817  0.003472  1
  Zr  Zr4  1  0.495559  0.852674  0.350307  1
  Zr  Zr5  1  0.852674  0.495559  0.350307  1
  Zr  Zr6  1  0.146270  0.497407  0.641793  1
  Zr  Zr7  1  0.497407  0.146270  0.641793  1
  Zr  Zr8  1  0.175724  0.366587  0.003874  1
  Zr  Zr9  1  0.828088  0.828088  0.191417  1
  Zr  Zr10  1  0.632967  0.632967  0.810116  1
  Zr  Zr11  1  0.366587  0.175724  0.003874  1
  Ir  Ir12  1  0.294126  0.002213  0.292505  1
  Ir  Ir13  1  0.002213  0.294126  0.292505  1
  Pt  Pt14  1  0.998762  0.706349  0.708152  1
  Pt  Pt15  1  0.706349  0.998762  0.708152  1
