# generated using pymatgen
data_Y5MoRuO12
_symmetry_space_group_name_H-M   'P 1'
_cell_length_a   6.84741532
_cell_length_b   6.84741619
_cell_length_c   7.53839180
_cell_angle_alpha   73.79241384
_cell_angle_beta   73.79240781
_cell_angle_gamma   49.62985315
_symmetry_Int_Tables_number   1
_chemical_formula_structural   Y5MoRuO12
_chemical_formula_sum   'Y5 Mo1 Ru1 O12'
_cell_volume   256.23909622
_cell_formula_units_Z   1
loop_
 _symmetry_equiv_pos_site_id
 _symmetry_equiv_pos_as_xyz
  1  'x, y, z'
loop_
 _atom_site_type_symbol
 _atom_site_label
 _atom_site_symmetry_multiplicity
 _atom_site_fract_x
 _atom_site_fract_y
 _atom_site_fract_z
 _atom_site_occupancy
  Y  Y0  1  0.493235  0.506765  0.500000  1
  Y  Y1  1  0.180963  0.191464  0.174793  1
  Y  Y2  1  0.808536  0.819037  0.825207  1
  Y  Y3  1  0.793008  0.815498  0.358915  1
  Y  Y4  1  0.184502  0.206992  0.641085  1
  Mo  Mo5  1  0.297971  0.702029  0.000000  1
  Ru  Ru6  1  0.736091  0.263909  0.000000  1
  O  O7  1  0.006825  0.991583  0.179171  1
  O  O8  1  0.008417  0.993175  0.820829  1
  O  O9  1  0.503278  0.494832  0.797167  1
  O  O10  1  0.505168  0.496722  0.202833  1
  O  O11  1  0.589128  0.099240  0.576567  1
  O  O12  1  0.900760  0.410872  0.423433  1
  O  O13  1  0.393432  0.910228  0.428509  1
  O  O14  1  0.406949  0.912155  0.917457  1
  O  O15  1  0.087845  0.593051  0.082543  1
  O  O16  1  0.586927  0.072806  0.084884  1
  O  O17  1  0.927194  0.413073  0.915116  1
  O  O18  1  0.089772  0.606568  0.571491  1
