# generated using pymatgen
data_Ho19Er(IrPt5)2
_symmetry_space_group_name_H-M   'P 1'
_cell_length_a   10.99661200
_cell_length_b   10.99562500
_cell_length_c   6.38707400
_cell_angle_alpha   90.00000000
_cell_angle_beta   90.00000000
_cell_angle_gamma   90.00160485
_symmetry_Int_Tables_number   1
_chemical_formula_structural   Ho19Er(IrPt5)2
_chemical_formula_sum   'Ho19 Er1 Ir2 Pt10'
_cell_volume   772.29063711
_cell_formula_units_Z   1
loop_
 _symmetry_equiv_pos_site_id
 _symmetry_equiv_pos_as_xyz
  1  'x, y, z'
loop_
 _atom_site_type_symbol
 _atom_site_label
 _atom_site_symmetry_multiplicity
 _atom_site_fract_x
 _atom_site_fract_y
 _atom_site_fract_z
 _atom_site_occupancy
  Ho  Ho0  1  0.292114  0.087981  0.376727  1
  Ho  Ho1  1  0.292110  0.912020  0.876749  1
  Ho  Ho2  1  0.707890  0.087980  0.876749  1
  Ho  Ho3  1  0.707886  0.912019  0.376727  1
  Ho  Ho4  1  0.587979  0.792080  0.876729  1
  Ho  Ho5  1  0.587954  0.207975  0.376796  1
  Ho  Ho6  1  0.412046  0.792025  0.376796  1
  Ho  Ho7  1  0.412021  0.207920  0.876729  1
  Ho  Ho8  1  0.205667  0.412737  0.623799  1
  Ho  Ho9  1  0.205620  0.587287  0.123857  1
  Ho  Ho10  1  0.794380  0.412713  0.123857  1
  Ho  Ho11  1  0.794333  0.587263  0.623799  1
  Ho  Ho12  1  0.912708  0.705566  0.123838  1
  Ho  Ho13  1  0.912715  0.294431  0.623864  1
  Ho  Ho14  1  0.087285  0.705569  0.623864  1
  Ho  Ho15  1  0.087292  0.294434  0.123838  1
  Ho  Ho16  1  0.000000  0.000000  0.500562  1
  Ho  Ho17  1  0.000000  0.000000  0.000563  1
  Ho  Ho18  1  0.500000  0.500000  0.000573  1
  Er  Er19  1  0.500000  0.500000  0.500542  1
  Ir  Ir20  1  0.000000  0.500000  0.880025  1
  Ir  Ir21  1  0.000000  0.500000  0.380064  1
  Pt  Pt22  1  0.845748  0.153105  0.249811  1
  Pt  Pt23  1  0.845749  0.846889  0.749797  1
  Pt  Pt24  1  0.154251  0.153111  0.749797  1
  Pt  Pt25  1  0.154252  0.846895  0.249811  1
  Pt  Pt26  1  0.652974  0.345867  0.749580  1
  Pt  Pt27  1  0.652999  0.654115  0.250030  1
  Pt  Pt28  1  0.347001  0.345885  0.250030  1
  Pt  Pt29  1  0.347026  0.654133  0.749580  1
  Pt  Pt30  1  0.500000  0.000000  0.117261  1
  Pt  Pt31  1  0.500000  0.000000  0.617248  1
