# generated using pymatgen
data_Th2Co(RuC)5
_symmetry_space_group_name_H-M   'P 1'
_cell_length_a   9.00965100
_cell_length_b   9.00965100
_cell_length_c   4.18070400
_cell_angle_alpha   90.00000000
_cell_angle_beta   90.00000000
_cell_angle_gamma   90.00000000
_symmetry_Int_Tables_number   1
_chemical_formula_structural   Th2Co(RuC)5
_chemical_formula_sum   'Th4 Co2 Ru10 C10'
_cell_volume   339.36367694
_cell_formula_units_Z   2
loop_
 _symmetry_equiv_pos_site_id
 _symmetry_equiv_pos_as_xyz
  1  'x, y, z'
loop_
 _atom_site_type_symbol
 _atom_site_label
 _atom_site_symmetry_multiplicity
 _atom_site_fract_x
 _atom_site_fract_y
 _atom_site_fract_z
 _atom_site_occupancy
  Th  Th0  1  0.320979  0.820979  0.500000  1
  Th  Th1  1  0.820979  0.679021  0.500000  1
  Th  Th2  1  0.179021  0.320979  0.500000  1
  Th  Th3  1  0.679021  0.179021  0.500000  1
  Co  Co4  1  0.500000  0.000000  0.000000  1
  Co  Co5  1  0.000000  0.500000  0.000000  1
  Ru  Ru6  1  0.718342  0.437235  0.000000  1
  Ru  Ru7  1  0.437235  0.281658  0.000000  1
  Ru  Ru8  1  0.000000  0.000000  0.500000  1
  Ru  Ru9  1  0.500000  0.500000  0.500000  1
  Ru  Ru10  1  0.781658  0.937235  0.000000  1
  Ru  Ru11  1  0.937235  0.218342  0.000000  1
  Ru  Ru12  1  0.062765  0.781658  0.000000  1
  Ru  Ru13  1  0.218342  0.062765  0.000000  1
  Ru  Ru14  1  0.562765  0.718342  0.000000  1
  Ru  Ru15  1  0.281658  0.562765  0.000000  1
  C  C16  1  0.500000  0.500000  0.000000  1
  C  C17  1  0.000000  0.000000  0.000000  1
  C  C18  1  0.884879  0.384879  0.671634  1
  C  C19  1  0.115121  0.615121  0.671634  1
  C  C20  1  0.884879  0.384879  0.328366  1
  C  C21  1  0.384879  0.115121  0.328366  1
  C  C22  1  0.615121  0.884879  0.328366  1
  C  C23  1  0.115121  0.615121  0.328366  1
  C  C24  1  0.615121  0.884879  0.671634  1
  C  C25  1  0.384879  0.115121  0.671634  1
