# generated using pymatgen
data_La5Pr3(SiBr6)2
_symmetry_space_group_name_H-M   'P 1'
_cell_length_a   4.29535600
_cell_length_b   13.90974281
_cell_length_c   14.76120697
_cell_angle_alpha   89.92725294
_cell_angle_beta   90.00000000
_cell_angle_gamma   90.00000000
_symmetry_Int_Tables_number   1
_chemical_formula_structural   La5Pr3(SiBr6)2
_chemical_formula_sum   'La5 Pr3 Si2 Br12'
_cell_volume   881.94150936
_cell_formula_units_Z   1
loop_
 _symmetry_equiv_pos_site_id
 _symmetry_equiv_pos_as_xyz
  1  'x, y, z'
loop_
 _atom_site_type_symbol
 _atom_site_label
 _atom_site_symmetry_multiplicity
 _atom_site_fract_x
 _atom_site_fract_y
 _atom_site_fract_z
 _atom_site_occupancy
  La  La0  1  0.500000  0.119524  0.337631  1
  La  La1  1  0.500000  0.878382  0.660969  1
  La  La2  1  0.500000  0.620623  0.161687  1
  La  La3  1  0.500000  0.380388  0.839415  1
  La  La4  1  0.000000  0.120623  0.579829  1
  Pr  Pr5  1  0.000000  0.881021  0.421292  1
  Pr  Pr6  1  0.000000  0.618705  0.921568  1
  Pr  Pr7  1  0.000000  0.381421  0.078588  1
  Si  Si8  1  0.500000  0.999998  0.499998  1
  Si  Si9  1  0.500000  0.500355  0.000461  1
  Br  Br10  1  0.500000  0.245022  0.161372  1
  Br  Br11  1  0.500000  0.754954  0.838601  1
  Br  Br12  1  0.500000  0.744374  0.337957  1
  Br  Br13  1  0.500000  0.257234  0.662357  1
  Br  Br14  1  0.000000  0.253781  0.410803  1
  Br  Br15  1  0.000000  0.745737  0.587184  1
  Br  Br16  1  0.000000  0.753469  0.087348  1
  Br  Br17  1  0.000000  0.246614  0.912589  1
  Br  Br18  1  0.000000  0.000321  0.245135  1
  Br  Br19  1  0.000000  0.997466  0.755142  1
  Br  Br20  1  0.000000  0.500661  0.254250  1
  Br  Br21  1  0.000000  0.499327  0.745824  1
