# generated using pymatgen
data_Ac6Nd14Si15Ge
_symmetry_space_group_name_H-M   'P 1'
_cell_length_a   7.92670617
_cell_length_b   7.92488308
_cell_length_c   15.33139400
_cell_angle_alpha   90.03386466
_cell_angle_beta   89.96888985
_cell_angle_gamma   90.17198079
_symmetry_Int_Tables_number   1
_chemical_formula_structural   Ac6Nd14Si15Ge
_chemical_formula_sum   'Ac6 Nd14 Si15 Ge1'
_cell_volume   963.08622678
_cell_formula_units_Z   1
loop_
 _symmetry_equiv_pos_site_id
 _symmetry_equiv_pos_as_xyz
  1  'x, y, z'
loop_
 _atom_site_type_symbol
 _atom_site_label
 _atom_site_symmetry_multiplicity
 _atom_site_fract_x
 _atom_site_fract_y
 _atom_site_fract_z
 _atom_site_occupancy
  Ac  Ac0  1  0.631403  0.982287  0.951990  1
  Ac  Ac1  1  0.129443  0.519502  0.799023  1
  Ac  Ac2  1  0.868425  0.478945  0.297316  1
  Ac  Ac3  1  0.517703  0.128192  0.199848  1
  Ac  Ac4  1  0.482493  0.871692  0.700693  1
  Ac  Ac5  1  0.369905  0.018181  0.451845  1
  Nd  Nd6  1  0.371885  0.479766  0.373202  1
  Nd  Nd7  1  0.871940  0.017877  0.376648  1
  Nd  Nd8  1  0.982725  0.126635  0.121515  1
  Nd  Nd9  1  0.017137  0.873514  0.621978  1
  Nd  Nd10  1  0.629282  0.519808  0.873224  1
  Nd  Nd11  1  0.482751  0.369192  0.627322  1
  Nd  Nd12  1  0.517914  0.629585  0.126624  1
  Nd  Nd13  1  0.126570  0.984194  0.877595  1
  Nd  Nd14  1  0.990264  0.620679  0.053038  1
  Nd  Nd15  1  0.009853  0.378604  0.554110  1
  Nd  Nd16  1  0.685525  0.691284  0.500846  1
  Nd  Nd17  1  0.810853  0.192982  0.750136  1
  Nd  Nd18  1  0.190383  0.807550  0.248442  1
  Nd  Nd19  1  0.311334  0.308922  0.000410  1
  Si  Si20  1  0.924484  0.291332  0.939353  1
  Si  Si21  1  0.722986  0.082537  0.561096  1
  Si  Si22  1  0.215676  0.423824  0.187628  1
  Si  Si23  1  0.785011  0.576570  0.687418  1
  Si  Si24  1  0.419964  0.217288  0.811133  1
  Si  Si25  1  0.580061  0.782908  0.310790  1
  Si  Si26  1  0.277504  0.917413  0.060786  1
  Si  Si27  1  0.834620  0.805922  0.793843  1
  Si  Si28  1  0.165653  0.194352  0.293791  1
  Si  Si29  1  0.807223  0.831646  0.200696  1
  Si  Si30  1  0.299953  0.656152  0.548909  1
  Si  Si31  1  0.702970  0.343283  0.047252  1
  Si  Si32  1  0.672283  0.307638  0.456567  1
  Si  Si33  1  0.328341  0.692709  0.956200  1
  Si  Si34  1  0.193101  0.167979  0.701152  1
  Ge  Ge35  1  0.072383  0.709057  0.437583  1
