# generated using pymatgen
data_Tm3GaCoSn3Ir
_symmetry_space_group_name_H-M   'P 1'
_cell_length_a   7.37880100
_cell_length_b   7.37880015
_cell_length_c   3.96424100
_cell_angle_alpha   90.00000000
_cell_angle_beta   90.00000000
_cell_angle_gamma   119.99999813
_symmetry_Int_Tables_number   1
_chemical_formula_structural   Tm3GaCoSn3Ir
_chemical_formula_sum   'Tm3 Ga1 Co1 Sn3 Ir1'
_cell_volume   186.92278139
_cell_formula_units_Z   1
loop_
 _symmetry_equiv_pos_site_id
 _symmetry_equiv_pos_as_xyz
  1  'x, y, z'
loop_
 _atom_site_type_symbol
 _atom_site_label
 _atom_site_symmetry_multiplicity
 _atom_site_fract_x
 _atom_site_fract_y
 _atom_site_fract_z
 _atom_site_occupancy
  Tm  Tm0  1  0.984368  0.393165  0.500000  1
  Tm  Tm1  1  0.606835  0.591203  0.500000  1
  Tm  Tm2  1  0.408797  0.015632  0.500000  1
  Ga  Ga3  1  0.333333  0.666667  0.000000  1
  Co  Co4  1  0.000000  0.000000  0.500000  1
  Sn  Sn5  1  0.998057  0.750742  0.000000  1
  Sn  Sn6  1  0.249258  0.247315  0.000000  1
  Sn  Sn7  1  0.752685  0.001943  0.000000  1
  Ir  Ir8  1  0.666667  0.333333  0.000000  1
