# generated using pymatgen
data_Th6Al24Os3Ru5
_symmetry_space_group_name_H-M   'P 1'
_cell_length_a   8.97827600
_cell_length_b   8.97829157
_cell_length_c   9.56463700
_cell_angle_alpha   89.89730101
_cell_angle_beta   90.00000000
_cell_angle_gamma   119.99993527
_symmetry_Int_Tables_number   1
_chemical_formula_structural   Th6Al24Os3Ru5
_chemical_formula_sum   'Th6 Al24 Os3 Ru5'
_cell_volume   667.70577711
_cell_formula_units_Z   1
loop_
 _symmetry_equiv_pos_site_id
 _symmetry_equiv_pos_as_xyz
  1  'x, y, z'
loop_
 _atom_site_type_symbol
 _atom_site_label
 _atom_site_symmetry_multiplicity
 _atom_site_fract_x
 _atom_site_fract_y
 _atom_site_fract_z
 _atom_site_occupancy
  Th  Th0  1  0.805228  0.610457  0.751248  1
  Th  Th1  1  0.195007  0.805229  0.250048  1
  Th  Th2  1  0.610222  0.805229  0.250048  1
  Th  Th3  1  0.389778  0.194771  0.749952  1
  Th  Th4  1  0.804993  0.194771  0.749952  1
  Th  Th5  1  0.194772  0.389543  0.248752  1
  Al  Al6  1  0.332928  0.665856  0.490069  1
  Al  Al7  1  0.666176  0.332351  0.989646  1
  Al  Al8  1  0.667072  0.334144  0.509931  1
  Al  Al9  1  0.333824  0.667649  0.010354  1
  Al  Al10  1  0.162385  0.324769  0.578403  1
  Al  Al11  1  0.674402  0.837074  0.578477  1
  Al  Al12  1  0.162672  0.837074  0.578477  1
  Al  Al13  1  0.837230  0.162541  0.078081  1
  Al  Al14  1  0.837328  0.162926  0.421523  1
  Al  Al15  1  0.837024  0.674047  0.078183  1
  Al  Al16  1  0.325314  0.162541  0.078081  1
  Al  Al17  1  0.674686  0.837459  0.921919  1
  Al  Al18  1  0.162976  0.325953  0.921817  1
  Al  Al19  1  0.837615  0.675231  0.421597  1
  Al  Al20  1  0.999945  0.999889  0.249989  1
  Al  Al21  1  0.000055  0.000111  0.750011  1
  Al  Al22  1  0.563517  0.127034  0.249250  1
  Al  Al23  1  0.436416  0.563528  0.749377  1
  Al  Al24  1  0.127113  0.563528  0.749377  1
  Al  Al25  1  0.872887  0.436472  0.250623  1
  Al  Al26  1  0.563584  0.436472  0.250623  1
  Al  Al27  1  0.436483  0.872966  0.750750  1
  Al  Al28  1  0.162770  0.837459  0.921919  1
  Al  Al29  1  0.325598  0.162926  0.421523  1
  Os  Os30  1  0.500000  0.000000  0.500000  1
  Os  Os31  1  0.500000  0.500000  0.000000  1
  Os  Os32  1  0.000000  0.500000  0.000000  1
  Ru  Ru33  1  0.000000  0.000000  0.500000  1
  Ru  Ru34  1  0.000000  0.000000  0.000000  1
  Ru  Ru35  1  0.000000  0.500000  0.500000  1
  Ru  Ru36  1  0.500000  0.500000  0.500000  1
  Ru  Ru37  1  0.500000  0.000000  0.000000  1
