# generated using pymatgen
data_Li2Mn3AlPd10
_symmetry_space_group_name_H-M   'P 1'
_cell_length_a   4.10209600
_cell_length_b   5.41572955
_cell_length_c   10.57720282
_cell_angle_alpha   89.55981980
_cell_angle_beta   90.00000000
_cell_angle_gamma   90.00000000
_symmetry_Int_Tables_number   1
_chemical_formula_structural   Li2Mn3AlPd10
_chemical_formula_sum   'Li2 Mn3 Al1 Pd10'
_cell_volume   234.97453783
_cell_formula_units_Z   1
loop_
 _symmetry_equiv_pos_site_id
 _symmetry_equiv_pos_as_xyz
  1  'x, y, z'
loop_
 _atom_site_type_symbol
 _atom_site_label
 _atom_site_symmetry_multiplicity
 _atom_site_fract_x
 _atom_site_fract_y
 _atom_site_fract_z
 _atom_site_occupancy
  Li  Li0  1  0.000000  0.000124  0.000217  1
  Li  Li1  1  0.500000  0.176629  0.360759  1
  Mn  Mn2  1  0.500000  0.826235  0.637043  1
  Mn  Mn3  1  0.500000  0.676825  0.137845  1
  Mn  Mn4  1  0.500000  0.316740  0.865697  1
  Al  Al5  1  0.000000  0.504600  0.498891  1
  Pd  Pd6  1  0.500000  0.184336  0.111219  1
  Pd  Pd7  1  0.500000  0.811883  0.890134  1
  Pd  Pd8  1  0.500000  0.686454  0.392048  1
  Pd  Pd9  1  0.500000  0.319455  0.607541  1
  Pd  Pd10  1  0.000000  0.007570  0.497106  1
  Pd  Pd11  1  0.000000  0.499934  0.001745  1
  Pd  Pd12  1  0.000000  0.914750  0.239576  1
  Pd  Pd13  1  0.000000  0.079938  0.757496  1
  Pd  Pd14  1  0.000000  0.414059  0.261934  1
  Pd  Pd15  1  0.000000  0.580468  0.740748  1
