# generated using pymatgen
data_Li9Al3Ga4
_symmetry_space_group_name_H-M   'P 1'
_cell_length_a   6.25600500
_cell_length_b   6.25600500
_cell_length_c   6.25600500
_cell_angle_alpha   90.00000000
_cell_angle_beta   90.00000000
_cell_angle_gamma   90.00000000
_symmetry_Int_Tables_number   1
_chemical_formula_structural   Li9Al3Ga4
_chemical_formula_sum   'Li9 Al3 Ga4'
_cell_volume   244.84501228
_cell_formula_units_Z   1
loop_
 _symmetry_equiv_pos_site_id
 _symmetry_equiv_pos_as_xyz
  1  'x, y, z'
loop_
 _atom_site_type_symbol
 _atom_site_label
 _atom_site_symmetry_multiplicity
 _atom_site_fract_x
 _atom_site_fract_y
 _atom_site_fract_z
 _atom_site_occupancy
  Li  Li0  1  0.255045  0.744955  0.255045  1
  Li  Li1  1  0.744955  0.255045  0.255045  1
  Li  Li2  1  0.255045  0.255045  0.744955  1
  Li  Li3  1  0.000000  0.000000  0.000000  1
  Li  Li4  1  0.000000  0.500000  0.500000  1
  Li  Li5  1  0.744955  0.744955  0.744955  1
  Li  Li6  1  0.500000  0.000000  0.500000  1
  Li  Li7  1  0.500000  0.500000  0.000000  1
  Li  Li8  1  0.500000  0.500000  0.500000  1
  Al  Al9  1  0.000000  0.000000  0.500000  1
  Al  Al10  1  0.000000  0.500000  0.000000  1
  Al  Al11  1  0.500000  0.000000  0.000000  1
  Ga  Ga12  1  0.252039  0.252039  0.252039  1
  Ga  Ga13  1  0.747961  0.252039  0.747961  1
  Ga  Ga14  1  0.747961  0.747961  0.252039  1
  Ga  Ga15  1  0.252039  0.747961  0.747961  1
