# generated using pymatgen
data_Y6Sc4(SnBi)3
_symmetry_space_group_name_H-M   'P 1'
_cell_length_a   8.90320587
_cell_length_b   8.91173770
_cell_length_c   6.25061900
_cell_angle_alpha   90.00000000
_cell_angle_beta   90.00000000
_cell_angle_gamma   120.01878722
_symmetry_Int_Tables_number   1
_chemical_formula_structural   Y6Sc4(SnBi)3
_chemical_formula_sum   'Y6 Sc4 Sn3 Bi3'
_cell_volume   429.41797735
_cell_formula_units_Z   1
loop_
 _symmetry_equiv_pos_site_id
 _symmetry_equiv_pos_as_xyz
  1  'x, y, z'
loop_
 _atom_site_type_symbol
 _atom_site_label
 _atom_site_symmetry_multiplicity
 _atom_site_fract_x
 _atom_site_fract_y
 _atom_site_fract_z
 _atom_site_occupancy
  Y  Y0  1  0.759696  0.753765  0.250000  1
  Y  Y1  1  0.005566  0.246970  0.250000  1
  Y  Y2  1  0.763381  0.005336  0.750000  1
  Y  Y3  1  0.237978  0.999711  0.250000  1
  Y  Y4  1  0.999283  0.754990  0.750000  1
  Y  Y5  1  0.237466  0.243508  0.750000  1
  Sc  Sc6  1  0.325807  0.658841  0.497794  1
  Sc  Sc7  1  0.672156  0.338690  0.497756  1
  Sc  Sc8  1  0.325807  0.658841  0.002206  1
  Sc  Sc9  1  0.672156  0.338690  0.002244  1
  Sn  Sn10  1  0.997785  0.399141  0.750000  1
  Sn  Sn11  1  0.399471  0.396146  0.250000  1
  Sn  Sn12  1  0.001431  0.602278  0.250000  1
  Bi  Bi13  1  0.601092  0.603643  0.750000  1
  Bi  Bi14  1  0.397245  0.000970  0.750000  1
  Bi  Bi15  1  0.603681  0.998482  0.250000  1
