# generated using pymatgen
data_Sc6Al6IrRh2Au3
_symmetry_space_group_name_H-M   'P 1'
_cell_length_a   7.24498500
_cell_length_b   7.24498470
_cell_length_c   7.14036500
_cell_angle_alpha   90.00000000
_cell_angle_beta   90.00000000
_cell_angle_gamma   119.99999681
_symmetry_Int_Tables_number   1
_chemical_formula_structural   Sc6Al6IrRh2Au3
_chemical_formula_sum   'Sc6 Al6 Ir1 Rh2 Au3'
_cell_volume   324.58318790
_cell_formula_units_Z   1
loop_
 _symmetry_equiv_pos_site_id
 _symmetry_equiv_pos_as_xyz
  1  'x, y, z'
loop_
 _atom_site_type_symbol
 _atom_site_label
 _atom_site_symmetry_multiplicity
 _atom_site_fract_x
 _atom_site_fract_y
 _atom_site_fract_z
 _atom_site_occupancy
  Sc  Sc0  1  0.605606  0.008920  0.757726  1
  Sc  Sc1  1  0.991080  0.596686  0.757726  1
  Sc  Sc2  1  0.403314  0.394394  0.757726  1
  Sc  Sc3  1  0.986709  0.594454  0.242249  1
  Sc  Sc4  1  0.607746  0.013291  0.242249  1
  Sc  Sc5  1  0.405546  0.392254  0.242249  1
  Al  Al6  1  0.735381  0.729531  0.999837  1
  Al  Al7  1  0.270469  0.005849  0.999837  1
  Al  Al8  1  0.994151  0.264619  0.999837  1
  Al  Al9  1  0.757495  0.763089  0.499866  1
  Al  Al10  1  0.236911  0.994407  0.499866  1
  Al  Al11  1  0.005593  0.242505  0.499866  1
  Ir  Ir12  1  0.666667  0.333333  0.998219  1
  Rh  Rh13  1  0.000000  0.000000  0.772680  1
  Rh  Rh14  1  0.000000  0.000000  0.227091  1
  Au  Au15  1  0.666667  0.333333  0.502881  1
  Au  Au16  1  0.333333  0.666667  0.497151  1
  Au  Au17  1  0.333333  0.666667  0.002942  1
