# generated using pymatgen
data_DyHo3Tm4(OsC2)4
_symmetry_space_group_name_H-M   'P 1'
_cell_length_a   5.07589700
_cell_length_b   6.42685476
_cell_length_c   9.69119400
_cell_angle_alpha   89.95599188
_cell_angle_beta   90.00000000
_cell_angle_gamma   90.00000000
_symmetry_Int_Tables_number   1
_chemical_formula_structural   DyHo3Tm4(OsC2)4
_chemical_formula_sum   'Dy1 Ho3 Tm4 Os4 C8'
_cell_volume   316.14654918
_cell_formula_units_Z   1
loop_
 _symmetry_equiv_pos_site_id
 _symmetry_equiv_pos_as_xyz
  1  'x, y, z'
loop_
 _atom_site_type_symbol
 _atom_site_label
 _atom_site_symmetry_multiplicity
 _atom_site_fract_x
 _atom_site_fract_y
 _atom_site_fract_z
 _atom_site_occupancy
  Dy  Dy0  1  0.250000  0.027690  0.283168  1
  Ho  Ho1  1  0.250000  0.527430  0.217453  1
  Ho  Ho2  1  0.750000  0.472284  0.782654  1
  Ho  Ho3  1  0.750000  0.972377  0.717139  1
  Tm  Tm4  1  0.250000  0.679445  0.553780  1
  Tm  Tm5  1  0.750000  0.320835  0.446454  1
  Tm  Tm6  1  0.750000  0.820454  0.053617  1
  Tm  Tm7  1  0.250000  0.179211  0.946233  1
  Os  Os8  1  0.250000  0.723743  0.866523  1
  Os  Os9  1  0.750000  0.276188  0.133170  1
  Os  Os10  1  0.750000  0.775911  0.366744  1
  Os  Os11  1  0.250000  0.224004  0.633338  1
  C  C12  1  0.250000  0.458657  0.758745  1
  C  C13  1  0.750000  0.541206  0.241284  1
  C  C14  1  0.750000  0.041180  0.258586  1
  C  C15  1  0.250000  0.958694  0.741239  1
  C  C16  1  0.250000  0.829000  0.054896  1
  C  C17  1  0.750000  0.170461  0.944676  1
  C  C18  1  0.750000  0.670402  0.555344  1
  C  C19  1  0.250000  0.330826  0.444957  1
