# generated using pymatgen
data_Zr4CrTcOs6
_symmetry_space_group_name_H-M   'P 1'
_cell_length_a   5.13325982
_cell_length_b   5.13326084
_cell_length_c   8.64080300
_cell_angle_alpha   90.00000000
_cell_angle_beta   90.00000000
_cell_angle_gamma   117.70231086
_symmetry_Int_Tables_number   1
_chemical_formula_structural   Zr4CrTcOs6
_chemical_formula_sum   'Zr4 Cr1 Tc1 Os6'
_cell_volume   201.58948618
_cell_formula_units_Z   1
loop_
 _symmetry_equiv_pos_site_id
 _symmetry_equiv_pos_as_xyz
  1  'x, y, z'
loop_
 _atom_site_type_symbol
 _atom_site_label
 _atom_site_symmetry_multiplicity
 _atom_site_fract_x
 _atom_site_fract_y
 _atom_site_fract_z
 _atom_site_occupancy
  Zr  Zr0  1  0.332913  0.667087  0.436761  1
  Zr  Zr1  1  0.667116  0.332884  0.567140  1
  Zr  Zr2  1  0.667116  0.332884  0.932860  1
  Zr  Zr3  1  0.332913  0.667087  0.063239  1
  Cr  Cr4  1  0.167179  0.832821  0.750000  1
  Tc  Tc5  1  0.827652  0.172348  0.250000  1
  Os  Os6  1  0.008980  0.991020  0.503860  1
  Os  Os7  1  0.008980  0.991020  0.996140  1
  Os  Os8  1  0.828645  0.658708  0.250000  1
  Os  Os9  1  0.341292  0.171355  0.250000  1
  Os  Os10  1  0.169043  0.351830  0.750000  1
  Os  Os11  1  0.648170  0.830957  0.750000  1
