# generated using pymatgen
data_Nd2B6Ir2Rh7
_symmetry_space_group_name_H-M   'P 1'
_cell_length_a   5.66137659
_cell_length_b   5.67206531
_cell_length_c   8.59938100
_cell_angle_alpha   90.00000000
_cell_angle_beta   90.00000000
_cell_angle_gamma   120.06247331
_symmetry_Int_Tables_number   1
_chemical_formula_structural   Nd2B6Ir2Rh7
_chemical_formula_sum   'Nd2 B6 Ir2 Rh7'
_cell_volume   238.99419250
_cell_formula_units_Z   1
loop_
 _symmetry_equiv_pos_site_id
 _symmetry_equiv_pos_as_xyz
  1  'x, y, z'
loop_
 _atom_site_type_symbol
 _atom_site_label
 _atom_site_symmetry_multiplicity
 _atom_site_fract_x
 _atom_site_fract_y
 _atom_site_fract_z
 _atom_site_occupancy
  Nd  Nd0  1  0.000000  0.000000  0.706111  1
  Nd  Nd1  1  0.000000  0.000000  0.293889  1
  B  B2  1  0.666500  0.333250  0.000000  1
  B  B3  1  0.333500  0.666750  0.000000  1
  B  B4  1  0.664618  0.332308  0.667589  1
  B  B5  1  0.335382  0.667692  0.667589  1
  B  B6  1  0.335382  0.667692  0.332411  1
  B  B7  1  0.664618  0.332308  0.332411  1
  Ir  Ir8  1  0.500000  0.500000  0.500000  1
  Ir  Ir9  1  0.500000  0.000000  0.500000  1
  Rh  Rh10  1  0.500000  0.500000  0.837362  1
  Rh  Rh11  1  0.500000  0.000000  0.837362  1
  Rh  Rh12  1  0.000000  0.500000  0.837034  1
  Rh  Rh13  1  0.500000  0.500000  0.162638  1
  Rh  Rh14  1  0.500000  0.000000  0.162638  1
  Rh  Rh15  1  0.000000  0.500000  0.162966  1
  Rh  Rh16  1  0.000000  0.500000  0.500000  1
