# generated using pymatgen
data_NpU3(WC2)4
_symmetry_space_group_name_H-M   'P 1'
_cell_length_a   3.23126000
_cell_length_b   5.64674163
_cell_length_c   11.03456046
_cell_angle_alpha   89.94342567
_cell_angle_beta   90.00000000
_cell_angle_gamma   90.00000000
_symmetry_Int_Tables_number   1
_chemical_formula_structural   NpU3(WC2)4
_chemical_formula_sum   'Np1 U3 W4 C8'
_cell_volume   201.33748914
_cell_formula_units_Z   1
loop_
 _symmetry_equiv_pos_site_id
 _symmetry_equiv_pos_as_xyz
  1  'x, y, z'
loop_
 _atom_site_type_symbol
 _atom_site_label
 _atom_site_symmetry_multiplicity
 _atom_site_fract_x
 _atom_site_fract_y
 _atom_site_fract_z
 _atom_site_occupancy
  Np  Np0  1  0.250000  0.079802  0.858612  1
  U  U1  1  0.250000  0.580214  0.642012  1
  U  U2  1  0.750000  0.920171  0.140424  1
  U  U3  1  0.750000  0.419861  0.358760  1
  W  W4  1  0.250000  0.419542  0.102715  1
  W  W5  1  0.250000  0.920358  0.397438  1
  W  W6  1  0.750000  0.580235  0.897405  1
  W  W7  1  0.750000  0.079794  0.603182  1
  C  C8  1  0.250000  0.162294  0.244629  1
  C  C9  1  0.250000  0.662875  0.255193  1
  C  C10  1  0.750000  0.836191  0.754494  1
  C  C11  1  0.750000  0.338583  0.744145  1
  C  C12  1  0.250000  0.747468  0.992865  1
  C  C13  1  0.250000  0.249329  0.507989  1
  C  C14  1  0.750000  0.252644  0.007553  1
  C  C15  1  0.750000  0.750640  0.492585  1
