# generated using pymatgen
data_CsBr19
_symmetry_space_group_name_H-M   'P 1'
_cell_length_a   9.37340370
_cell_length_b   11.11988081
_cell_length_c   9.86834334
_cell_angle_alpha   67.85870708
_cell_angle_beta   82.48214972
_cell_angle_gamma   90.88012363
_symmetry_Int_Tables_number   1
_chemical_formula_structural   CsBr19
_chemical_formula_sum   'Cs1 Br19'
_cell_volume   942.20279669
_cell_formula_units_Z   1
loop_
 _symmetry_equiv_pos_site_id
 _symmetry_equiv_pos_as_xyz
  1  'x, y, z'
loop_
 _atom_site_type_symbol
 _atom_site_label
 _atom_site_symmetry_multiplicity
 _atom_site_fract_x
 _atom_site_fract_y
 _atom_site_fract_z
 _atom_site_occupancy
  Cs  Cs0  1  0.861189  0.666994  0.250211  1
  Br  Br1  1  0.356513  0.501120  0.564915  1
  Br  Br2  1  0.895240  0.466709  0.025142  1
  Br  Br3  1  0.590962  0.409911  0.547110  1
  Br  Br4  1  0.129061  0.566066  0.018870  1
  Br  Br5  1  0.090706  0.634294  0.558124  1
  Br  Br6  1  0.577604  0.327111  0.053619  1
  Br  Br7  1  0.889633  0.295195  0.511895  1
  Br  Br8  1  0.393891  0.694928  0.032315  1
  Br  Br9  1  0.175174  0.857451  0.545004  1
  Br  Br10  1  0.705700  0.129375  0.989089  1
  Br  Br11  1  0.815051  0.150570  0.405554  1
  Br  Br12  1  0.287592  0.895084  0.033328  1
  Br  Br13  1  0.251559  0.081521  0.546952  1
  Br  Br14  1  0.813848  0.963438  0.908917  1
  Br  Br15  1  0.691779  0.961335  0.300535  1
  Br  Br16  1  0.160758  0.108641  0.047480  1
  Br  Br17  1  0.659954  0.792991  0.541765  1
  Br  Br18  1  0.243596  0.292076  0.818562  1
  Br  Br19  1  0.410191  0.205193  0.300615  1
