# generated using pymatgen
data_CaEr(Si2Rh3)2
_symmetry_space_group_name_H-M   'P 1'
_cell_length_a   6.64348680
_cell_length_b   6.64348662
_cell_length_c   6.64348630
_cell_angle_alpha   130.15768223
_cell_angle_beta   114.98468726
_cell_angle_gamma   86.14282857
_symmetry_Int_Tables_number   1
_chemical_formula_structural   CaEr(Si2Rh3)2
_chemical_formula_sum   'Ca1 Er1 Si4 Rh6'
_cell_volume   194.01808706
_cell_formula_units_Z   1
loop_
 _symmetry_equiv_pos_site_id
 _symmetry_equiv_pos_as_xyz
  1  'x, y, z'
loop_
 _atom_site_type_symbol
 _atom_site_label
 _atom_site_symmetry_multiplicity
 _atom_site_fract_x
 _atom_site_fract_y
 _atom_site_fract_z
 _atom_site_occupancy
  Ca  Ca0  1  0.750000  0.034566  0.284566  1
  Er  Er1  1  0.250000  0.948593  0.698593  1
  Si  Si2  1  0.579883  0.383333  0.803450  1
  Si  Si3  1  0.920117  0.723567  0.803450  1
  Si  Si4  1  0.423919  0.617904  0.193985  1
  Si  Si5  1  0.076081  0.270066  0.193985  1
  Rh  Rh6  1  0.217453  0.506423  0.719045  1
  Rh  Rh7  1  0.787379  0.506423  0.288971  1
  Rh  Rh8  1  0.495009  0.502969  0.497978  1
  Rh  Rh9  1  0.004991  0.502969  0.007961  1
  Rh  Rh10  1  0.712621  0.001592  0.719045  1
  Rh  Rh11  1  0.282547  0.001592  0.288971  1
