# generated using pymatgen
data_Nd6Dy10Cd4Os3Pt
_symmetry_space_group_name_H-M   'P 1'
_cell_length_a   9.77546755
_cell_length_b   9.83072310
_cell_length_c   9.83125962
_cell_angle_alpha   59.46304399
_cell_angle_beta   59.32729146
_cell_angle_gamma   59.32715509
_symmetry_Int_Tables_number   1
_chemical_formula_structural   Nd6Dy10Cd4Os3Pt
_chemical_formula_sum   'Nd6 Dy10 Cd4 Os3 Pt1'
_cell_volume   658.51876411
_cell_formula_units_Z   1
loop_
 _symmetry_equiv_pos_site_id
 _symmetry_equiv_pos_as_xyz
  1  'x, y, z'
loop_
 _atom_site_type_symbol
 _atom_site_label
 _atom_site_symmetry_multiplicity
 _atom_site_fract_x
 _atom_site_fract_y
 _atom_site_fract_z
 _atom_site_occupancy
  Nd  Nd0  1  0.937867  0.558978  0.559037  1
  Nd  Nd1  1  0.552466  0.942627  0.942601  1
  Nd  Nd2  1  0.554012  0.938736  0.565106  1
  Nd  Nd3  1  0.942453  0.555540  0.944145  1
  Nd  Nd4  1  0.554055  0.565107  0.938706  1
  Nd  Nd5  1  0.942485  0.944178  0.555530  1
  Dy  Dy6  1  0.344100  0.348919  0.348989  1
  Dy  Dy7  1  0.345783  0.349676  0.958805  1
  Dy  Dy8  1  0.345763  0.958813  0.349713  1
  Dy  Dy9  1  0.967088  0.345214  0.345252  1
  Dy  Dy10  1  0.815779  0.188026  0.188048  1
  Dy  Dy11  1  0.184753  0.812340  0.812241  1
  Dy  Dy12  1  0.186467  0.812091  0.187948  1
  Dy  Dy13  1  0.816322  0.188237  0.806251  1
  Dy  Dy14  1  0.186458  0.187946  0.812047  1
  Dy  Dy15  1  0.816267  0.806282  0.188267  1
  Cd  Cd16  1  0.578516  0.578366  0.578383  1
  Cd  Cd17  1  0.578659  0.578986  0.261679  1
  Cd  Cd18  1  0.578652  0.261675  0.578998  1
  Cd  Cd19  1  0.259985  0.579368  0.579383  1
  Os  Os20  1  0.143575  0.139049  0.139051  1
  Os  Os21  1  0.144655  0.139418  0.579064  1
  Os  Os22  1  0.144678  0.579078  0.139394  1
  Pt  Pt23  1  0.579167  0.141351  0.141364  1
