# generated using pymatgen
data_MnP2PbO8
_symmetry_space_group_name_H-M   'P 1'
_cell_length_a   8.79262829
_cell_length_b   8.79262776
_cell_length_c   8.15007292
_cell_angle_alpha   65.04568955
_cell_angle_beta   65.04569100
_cell_angle_gamma   34.05773166
_symmetry_Int_Tables_number   1
_chemical_formula_structural   MnP2PbO8
_chemical_formula_sum   'Mn2 P4 Pb2 O16'
_cell_volume   316.65713929
_cell_formula_units_Z   2
loop_
 _symmetry_equiv_pos_site_id
 _symmetry_equiv_pos_as_xyz
  1  'x, y, z'
loop_
 _atom_site_type_symbol
 _atom_site_label
 _atom_site_symmetry_multiplicity
 _atom_site_fract_x
 _atom_site_fract_y
 _atom_site_fract_z
 _atom_site_occupancy
  Mn  Mn0  1  0.000000  0.500000  0.500000  1
  Mn  Mn1  1  0.500000  0.000000  0.000000  1
  P  P2  1  0.612990  0.089305  0.260748  1
  P  P3  1  0.910695  0.387010  0.239252  1
  P  P4  1  0.387010  0.910695  0.739252  1
  P  P5  1  0.089305  0.612990  0.760748  1
  Pb  Pb6  1  0.667404  0.332596  0.750000  1
  Pb  Pb7  1  0.332596  0.667404  0.250000  1
  O  O8  1  0.373046  0.288701  0.408499  1
  O  O9  1  0.711299  0.626954  0.091501  1
  O  O10  1  0.626954  0.711299  0.591501  1
  O  O11  1  0.288701  0.373046  0.908499  1
  O  O12  1  0.659039  0.231864  0.112023  1
  O  O13  1  0.768136  0.340961  0.387977  1
  O  O14  1  0.340961  0.768136  0.887977  1
  O  O15  1  0.231864  0.659039  0.612023  1
  O  O16  1  0.879808  0.823518  0.355255  1
  O  O17  1  0.176482  0.120192  0.144745  1
  O  O18  1  0.120192  0.176482  0.644745  1
  O  O19  1  0.823518  0.879808  0.855255  1
  O  O20  1  0.548220  0.006761  0.198892  1
  O  O21  1  0.993239  0.451780  0.301108  1
  O  O22  1  0.451780  0.993239  0.801108  1
  O  O23  1  0.006761  0.548220  0.698892  1
