# generated using pymatgen
data_Ca3C3F2
_symmetry_space_group_name_H-M   'P 1'
_cell_length_a   6.24429022
_cell_length_b   6.24429133
_cell_length_c   11.13069700
_cell_angle_alpha   90.00000000
_cell_angle_beta   90.00000000
_cell_angle_gamma   146.01587564
_symmetry_Int_Tables_number   1
_chemical_formula_structural   Ca3C3F2
_chemical_formula_sum   'Ca6 C6 F4'
_cell_volume   242.58938355
_cell_formula_units_Z   2
loop_
 _symmetry_equiv_pos_site_id
 _symmetry_equiv_pos_as_xyz
  1  'x, y, z'
loop_
 _atom_site_type_symbol
 _atom_site_label
 _atom_site_symmetry_multiplicity
 _atom_site_fract_x
 _atom_site_fract_y
 _atom_site_fract_z
 _atom_site_occupancy
  Ca  Ca0  1  0.640962  0.359038  0.566654  1
  Ca  Ca1  1  0.359038  0.640962  0.433346  1
  Ca  Ca2  1  0.359038  0.640962  0.066654  1
  Ca  Ca3  1  0.640962  0.359038  0.933346  1
  Ca  Ca4  1  0.100056  0.899944  0.250000  1
  Ca  Ca5  1  0.899944  0.100056  0.750000  1
  C  C6  1  0.271660  0.728340  0.631571  1
  C  C7  1  0.728340  0.271660  0.368429  1
  C  C8  1  0.728340  0.271660  0.131571  1
  C  C9  1  0.271660  0.728340  0.868429  1
  C  C10  1  0.741073  0.258927  0.250000  1
  C  C11  1  0.258927  0.741073  0.750000  1
  F  F12  1  0.000000  0.000000  0.000000  1
  F  F13  1  0.000000  0.000000  0.500000  1
  F  F14  1  0.531631  0.468369  0.750000  1
  F  F15  1  0.468369  0.531631  0.250000  1
