# generated using pymatgen
data_PaCl3O
_symmetry_space_group_name_H-M   'P 1'
_cell_length_a   13.41022200
_cell_length_b   13.41022200
_cell_length_c   4.16601300
_cell_angle_alpha   90.00000000
_cell_angle_beta   90.00000000
_cell_angle_gamma   90.00000000
_symmetry_Int_Tables_number   1
_chemical_formula_structural   PaCl3O
_chemical_formula_sum   'Pa4 Cl12 O4'
_cell_volume   749.19100718
_cell_formula_units_Z   4
loop_
 _symmetry_equiv_pos_site_id
 _symmetry_equiv_pos_as_xyz
  1  'x, y, z'
loop_
 _atom_site_type_symbol
 _atom_site_label
 _atom_site_symmetry_multiplicity
 _atom_site_fract_x
 _atom_site_fract_y
 _atom_site_fract_z
 _atom_site_occupancy
  Pa  Pa0  1  0.113417  0.113417  0.000000  1
  Pa  Pa1  1  0.613417  0.386583  0.500000  1
  Pa  Pa2  1  0.886583  0.886583  0.000000  1
  Pa  Pa3  1  0.386583  0.613417  0.500000  1
  Cl  Cl4  1  0.900404  0.699734  0.000000  1
  Cl  Cl5  1  0.592203  0.592203  0.500000  1
  Cl  Cl6  1  0.800266  0.400404  0.500000  1
  Cl  Cl7  1  0.092203  0.907797  0.000000  1
  Cl  Cl8  1  0.407797  0.407797  0.500000  1
  Cl  Cl9  1  0.300266  0.099596  0.000000  1
  Cl  Cl10  1  0.099596  0.300266  0.000000  1
  Cl  Cl11  1  0.400404  0.800266  0.500000  1
  Cl  Cl12  1  0.199734  0.599596  0.500000  1
  Cl  Cl13  1  0.599596  0.199734  0.500000  1
  Cl  Cl14  1  0.699734  0.900404  0.000000  1
  Cl  Cl15  1  0.907797  0.092203  0.000000  1
  O  O16  1  0.605694  0.394306  0.000000  1
  O  O17  1  0.105694  0.105694  0.500000  1
  O  O18  1  0.894306  0.894306  0.500000  1
  O  O19  1  0.394306  0.605694  0.000000  1
