# generated using pymatgen
data_La4(ThIr)3
_symmetry_space_group_name_H-M   'P 1'
_cell_length_a   6.48383763
_cell_length_b   10.15547763
_cell_length_c   10.15547675
_cell_angle_alpha   120.50333415
_cell_angle_beta   90.32383303
_cell_angle_gamma   89.67616507
_symmetry_Int_Tables_number   1
_chemical_formula_structural   La4(ThIr)3
_chemical_formula_sum   'La8 Th6 Ir6'
_cell_volume   576.14142068
_cell_formula_units_Z   2
loop_
 _symmetry_equiv_pos_site_id
 _symmetry_equiv_pos_as_xyz
  1  'x, y, z'
loop_
 _atom_site_type_symbol
 _atom_site_label
 _atom_site_symmetry_multiplicity
 _atom_site_fract_x
 _atom_site_fract_y
 _atom_site_fract_z
 _atom_site_occupancy
  La  La0  1  0.742613  0.252100  0.125540  1
  La  La1  1  0.742613  0.874460  0.747900  1
  La  La2  1  0.442692  0.536892  0.463108  1
  La  La3  1  0.444927  0.925418  0.461930  1
  La  La4  1  0.444927  0.538070  0.074582  1
  La  La5  1  0.941532  0.462357  0.537643  1
  La  La6  1  0.942800  0.075573  0.537709  1
  La  La7  1  0.942800  0.462291  0.924427  1
  Th  Th8  1  0.472499  0.333624  0.666376  1
  Th  Th9  1  0.978836  0.667128  0.332872  1
  Th  Th10  1  0.248483  0.126423  0.873577  1
  Th  Th11  1  0.249551  0.747829  0.873647  1
  Th  Th12  1  0.249551  0.126353  0.252171  1
  Th  Th13  1  0.746931  0.871659  0.128341  1
  Ir  Ir14  1  0.183764  0.815196  0.184804  1
  Ir  Ir15  1  0.194309  0.370926  0.184554  1
  Ir  Ir16  1  0.194309  0.815446  0.629074  1
  Ir  Ir17  1  0.675394  0.190416  0.809584  1
  Ir  Ir18  1  0.681734  0.626477  0.818639  1
  Ir  Ir19  1  0.681734  0.181361  0.373523  1
