# generated using pymatgen
data_La2PrTh(CoB10)2
_symmetry_space_group_name_H-M   'P 1'
_cell_length_a   4.21005800
_cell_length_b   5.65644891
_cell_length_c   11.27724080
_cell_angle_alpha   90.03499595
_cell_angle_beta   90.00000000
_cell_angle_gamma   90.00000000
_symmetry_Int_Tables_number   1
_chemical_formula_structural   La2PrTh(CoB10)2
_chemical_formula_sum   'La2 Pr1 Th1 Co2 B20'
_cell_volume   268.55591406
_cell_formula_units_Z   1
loop_
 _symmetry_equiv_pos_site_id
 _symmetry_equiv_pos_as_xyz
  1  'x, y, z'
loop_
 _atom_site_type_symbol
 _atom_site_label
 _atom_site_symmetry_multiplicity
 _atom_site_fract_x
 _atom_site_fract_y
 _atom_site_fract_z
 _atom_site_occupancy
  La  La0  1  0.500000  0.300260  0.865517  1
  La  La1  1  0.500000  0.699676  0.134109  1
  Pr  Pr2  1  0.500000  0.801794  0.634567  1
  Th  Th3  1  0.500000  0.200919  0.366847  1
  Co  Co4  1  0.000000  0.497667  0.499149  1
  Co  Co5  1  0.000000  0.000096  0.000166  1
  B  B6  1  0.000000  0.127413  0.539677  1
  B  B7  1  0.000000  0.872952  0.459364  1
  B  B8  1  0.000000  0.627584  0.958970  1
  B  B9  1  0.000000  0.372199  0.041378  1
  B  B10  1  0.000000  0.155181  0.696955  1
  B  B11  1  0.000000  0.847105  0.303334  1
  B  B12  1  0.298457  0.200939  0.113430  1
  B  B13  1  0.297855  0.798918  0.887216  1
  B  B14  1  0.701109  0.700568  0.386573  1
  B  B15  1  0.701287  0.297721  0.612448  1
  B  B16  1  0.702145  0.798918  0.887216  1
  B  B17  1  0.701543  0.200939  0.113430  1
  B  B18  1  0.298713  0.297721  0.612448  1
  B  B19  1  0.298891  0.700568  0.386573  1
  B  B20  1  0.000000  0.036258  0.187867  1
  B  B21  1  0.000000  0.964610  0.813002  1
  B  B22  1  0.000000  0.535444  0.312846  1
  B  B23  1  0.000000  0.464672  0.686554  1
  B  B24  1  0.000000  0.344904  0.197666  1
  B  B25  1  0.000000  0.654974  0.802695  1
