# generated using pymatgen
data_Lu4ZnMo2Os5
_symmetry_space_group_name_H-M   'P 1'
_cell_length_a   5.19758503
_cell_length_b   5.39981849
_cell_length_c   8.86210800
_cell_angle_alpha   90.00000000
_cell_angle_beta   90.00000000
_cell_angle_gamma   119.58750924
_symmetry_Int_Tables_number   1
_chemical_formula_structural   Lu4ZnMo2Os5
_chemical_formula_sum   'Lu4 Zn1 Mo2 Os5'
_cell_volume   216.29108903
_cell_formula_units_Z   1
loop_
 _symmetry_equiv_pos_site_id
 _symmetry_equiv_pos_as_xyz
  1  'x, y, z'
loop_
 _atom_site_type_symbol
 _atom_site_label
 _atom_site_symmetry_multiplicity
 _atom_site_fract_x
 _atom_site_fract_y
 _atom_site_fract_z
 _atom_site_occupancy
  Lu  Lu0  1  0.341354  0.672465  0.435408  1
  Lu  Lu1  1  0.663284  0.327630  0.558879  1
  Lu  Lu2  1  0.663284  0.327630  0.941121  1
  Lu  Lu3  1  0.341354  0.672465  0.064592  1
  Zn  Zn4  1  0.167675  0.343516  0.750000  1
  Mo  Mo5  1  0.173115  0.842318  0.750000  1
  Mo  Mo6  1  0.333159  0.167851  0.250000  1
  Os  Os7  1  0.830656  0.657055  0.250000  1
  Os  Os8  1  0.650239  0.838372  0.750000  1
  Os  Os9  1  0.003386  0.988262  0.997231  1
  Os  Os10  1  0.829108  0.174173  0.250000  1
  Os  Os11  1  0.003386  0.988262  0.502769  1
