# generated using pymatgen
data_SrIr4Pb3O14
_symmetry_space_group_name_H-M   'P 1'
_cell_length_a   7.37882507
_cell_length_b   7.37948963
_cell_length_c   7.37948900
_cell_angle_alpha   59.99999836
_cell_angle_beta   59.99701905
_cell_angle_gamma   59.99702287
_symmetry_Int_Tables_number   1
_chemical_formula_structural   SrIr4Pb3O14
_chemical_formula_sum   'Sr1 Ir4 Pb3 O14'
_cell_volume   284.12226714
_cell_formula_units_Z   1
loop_
 _symmetry_equiv_pos_site_id
 _symmetry_equiv_pos_as_xyz
  1  'x, y, z'
loop_
 _atom_site_type_symbol
 _atom_site_label
 _atom_site_symmetry_multiplicity
 _atom_site_fract_x
 _atom_site_fract_y
 _atom_site_fract_z
 _atom_site_occupancy
  Sr  Sr0  1  0.625000  0.125000  0.125000  1
  Ir  Ir1  1  0.125000  0.625000  0.625000  1
  Ir  Ir2  1  0.625000  0.125000  0.625000  1
  Ir  Ir3  1  0.625000  0.625000  0.125000  1
  Ir  Ir4  1  0.625000  0.625000  0.625000  1
  Pb  Pb5  1  0.125000  0.625000  0.125000  1
  Pb  Pb6  1  0.125000  0.125000  0.625000  1
  Pb  Pb7  1  0.125000  0.125000  0.125000  1
  O  O8  1  0.708865  0.690070  0.300532  1
  O  O9  1  0.295293  0.297995  0.703356  1
  O  O10  1  0.708865  0.300532  0.690070  1
  O  O11  1  0.295293  0.703356  0.297995  1
  O  O12  1  0.295293  0.703356  0.703356  1
  O  O13  1  0.708865  0.300532  0.300532  1
  O  O14  1  0.541135  0.559930  0.949468  1
  O  O15  1  0.954707  0.952005  0.546644  1
  O  O16  1  0.541135  0.949468  0.559930  1
  O  O17  1  0.954707  0.546644  0.952005  1
  O  O18  1  0.954707  0.546644  0.546644  1
  O  O19  1  0.541135  0.949468  0.949468  1
  O  O20  1  0.233305  0.255565  0.255565  1
  O  O21  1  0.016695  0.994435  0.994435  1
