# generated using pymatgen
data_K2In(TeO4)3
_symmetry_space_group_name_H-M   'P 1'
_cell_length_a   7.33564007
_cell_length_b   7.33999341
_cell_length_c   7.33301815
_cell_angle_alpha   60.58510274
_cell_angle_beta   60.57167922
_cell_angle_gamma   60.49920793
_symmetry_Int_Tables_number   1
_chemical_formula_structural   K2In(TeO4)3
_chemical_formula_sum   'K2 In1 Te3 O12'
_cell_volume   282.67240014
_cell_formula_units_Z   1
loop_
 _symmetry_equiv_pos_site_id
 _symmetry_equiv_pos_as_xyz
  1  'x, y, z'
loop_
 _atom_site_type_symbol
 _atom_site_label
 _atom_site_symmetry_multiplicity
 _atom_site_fract_x
 _atom_site_fract_y
 _atom_site_fract_z
 _atom_site_occupancy
  K  K0  1  0.117449  0.152029  0.623440  1
  K  K1  1  0.847977  0.882538  0.376559  1
  In  In2  1  0.497868  0.502138  0.000035  1
  Te  Te3  1  0.498902  0.001127  0.000083  1
  Te  Te4  1  0.998897  0.501111  0.999877  1
  Te  Te5  1  0.498741  0.501251  0.499993  1
  O  O6  1  0.815637  0.817561  0.918850  1
  O  O7  1  0.417195  0.415968  0.352918  1
  O  O8  1  0.416951  0.855110  0.914038  1
  O  O9  1  0.815385  0.419405  0.316472  1
  O  O10  1  0.851680  0.417979  0.916315  1
  O  O11  1  0.418822  0.817463  0.316552  1
  O  O12  1  0.182424  0.184391  0.081137  1
  O  O13  1  0.584038  0.582784  0.647082  1
  O  O14  1  0.582046  0.148291  0.083717  1
  O  O15  1  0.182513  0.581192  0.683448  1
  O  O16  1  0.144911  0.583021  0.085956  1
  O  O17  1  0.580566  0.184639  0.683528  1
