# generated using pymatgen
data_Dy6Er2Tm8CdIn3Pt4
_symmetry_space_group_name_H-M   'P 1'
_cell_length_a   9.61278325
_cell_length_b   9.61278313
_cell_length_c   9.61244000
_cell_angle_alpha   60.00117391
_cell_angle_beta   60.00117430
_cell_angle_gamma   60.01320514
_symmetry_Int_Tables_number   1
_chemical_formula_structural   Dy6Er2Tm8CdIn3Pt4
_chemical_formula_sum   'Dy6 Er2 Tm8 Cd1 In3 Pt4'
_cell_volume   628.15666183
_cell_formula_units_Z   1
loop_
 _symmetry_equiv_pos_site_id
 _symmetry_equiv_pos_as_xyz
  1  'x, y, z'
loop_
 _atom_site_type_symbol
 _atom_site_label
 _atom_site_symmetry_multiplicity
 _atom_site_fract_x
 _atom_site_fract_y
 _atom_site_fract_z
 _atom_site_occupancy
  Dy  Dy0  1  0.937959  0.562906  0.563337  1
  Dy  Dy1  1  0.563222  0.936828  0.937080  1
  Dy  Dy2  1  0.563222  0.936828  0.562870  1
  Dy  Dy3  1  0.937959  0.562905  0.935798  1
  Dy  Dy4  1  0.564346  0.563362  0.936146  1
  Dy  Dy5  1  0.938848  0.937129  0.562011  1
  Er  Er6  1  0.350898  0.351635  0.350998  1
  Er  Er7  1  0.350898  0.351635  0.946471  1
  Tm  Tm8  1  0.352228  0.944442  0.351666  1
  Tm  Tm9  1  0.944735  0.352034  0.351617  1
  Tm  Tm10  1  0.810852  0.189873  0.189177  1
  Tm  Tm11  1  0.189190  0.811267  0.810688  1
  Tm  Tm12  1  0.189190  0.811267  0.188854  1
  Tm  Tm13  1  0.810852  0.189873  0.810097  1
  Tm  Tm14  1  0.188626  0.188753  0.811310  1
  Tm  Tm15  1  0.810275  0.810150  0.189787  1
  Cd  Cd16  1  0.252937  0.582081  0.582491  1
  In  In17  1  0.581823  0.582762  0.582893  1
  In  In18  1  0.581823  0.582762  0.252522  1
  In  In19  1  0.581487  0.252942  0.582786  1
  Pt  Pt20  1  0.142413  0.142342  0.144103  1
  Pt  Pt21  1  0.142413  0.142342  0.571144  1
  Pt  Pt22  1  0.141383  0.572581  0.143019  1
  Pt  Pt23  1  0.572426  0.141303  0.143136  1
