# generated using pymatgen
data_Er11TmCo4SnRu
_symmetry_space_group_name_H-M   'P 1'
_cell_length_a   8.20823441
_cell_length_b   8.21062564
_cell_length_c   8.20823467
_cell_angle_alpha   111.29290190
_cell_angle_beta   110.78506689
_cell_angle_gamma   106.36844297
_symmetry_Int_Tables_number   1
_chemical_formula_structural   Er11TmCo4SnRu
_chemical_formula_sum   'Er11 Tm1 Co4 Sn1 Ru1'
_cell_volume   424.97051059
_cell_formula_units_Z   1
loop_
 _symmetry_equiv_pos_site_id
 _symmetry_equiv_pos_as_xyz
  1  'x, y, z'
loop_
 _atom_site_type_symbol
 _atom_site_label
 _atom_site_symmetry_multiplicity
 _atom_site_fract_x
 _atom_site_fract_y
 _atom_site_fract_z
 _atom_site_occupancy
  Er  Er0  1  0.411829  0.217160  0.194193  1
  Er  Er1  1  0.588510  0.782691  0.806304  1
  Er  Er2  1  0.022967  0.217160  0.805332  1
  Er  Er3  1  0.976387  0.782691  0.194182  1
  Er  Er4  1  0.183401  0.283861  0.467872  1
  Er  Er5  1  0.816059  0.716157  0.531830  1
  Er  Er6  1  0.184327  0.716157  0.900098  1
  Er  Er7  1  0.815989  0.283861  0.100460  1
  Er  Er8  1  0.313385  0.620325  0.306939  1
  Er  Er9  1  0.686964  0.379670  0.692707  1
  Er  Er10  1  0.313038  0.005892  0.692853  1
  Tm  Tm11  1  0.686614  0.994103  0.307490  1
  Co  Co12  1  0.377044  0.000030  0.376344  1
  Co  Co13  1  0.623686  0.000030  0.622986  1
  Co  Co14  1  0.111404  0.611531  0.500127  1
  Co  Co15  1  0.888218  0.388021  0.499803  1
  Sn  Sn16  1  0.500135  0.500654  0.000519  1
  Ru  Ru17  1  0.000042  0.000004  0.999962  1
