# generated using pymatgen
data_Y2Lu3P7Rh9
_symmetry_space_group_name_H-M   'P 1'
_cell_length_a   3.83478100
_cell_length_b   9.92946581
_cell_length_c   9.92946700
_cell_angle_alpha   120.00000731
_cell_angle_beta   90.00000000
_cell_angle_gamma   90.00000000
_symmetry_Int_Tables_number   1
_chemical_formula_structural   Y2Lu3P7Rh9
_chemical_formula_sum   'Y2 Lu3 P7 Rh9'
_cell_volume   327.43340771
_cell_formula_units_Z   1
loop_
 _symmetry_equiv_pos_site_id
 _symmetry_equiv_pos_as_xyz
  1  'x, y, z'
loop_
 _atom_site_type_symbol
 _atom_site_label
 _atom_site_symmetry_multiplicity
 _atom_site_fract_x
 _atom_site_fract_y
 _atom_site_fract_z
 _atom_site_occupancy
  Y  Y0  1  0.000000  0.666667  0.333333  1
  Y  Y1  1  0.500000  0.333333  0.666667  1
  Lu  Lu2  1  0.500000  0.767255  0.892259  1
  Lu  Lu3  1  0.500000  0.125004  0.232745  1
  Lu  Lu4  1  0.500000  0.107741  0.874996  1
  P  P5  1  0.000000  0.000000  0.000000  1
  P  P6  1  0.500000  0.717341  0.139388  1
  P  P7  1  0.500000  0.422047  0.282659  1
  P  P8  1  0.500000  0.860612  0.577953  1
  P  P9  1  0.000000  0.571605  0.685255  1
  P  P10  1  0.000000  0.113649  0.428395  1
  P  P11  1  0.000000  0.314745  0.886351  1
  Rh  Rh12  1  0.000000  0.564013  0.923177  1
  Rh  Rh13  1  0.000000  0.359164  0.435987  1
  Rh  Rh14  1  0.000000  0.076823  0.640836  1
  Rh  Rh15  1  0.000000  0.873366  0.165496  1
  Rh  Rh16  1  0.000000  0.292131  0.126634  1
  Rh  Rh17  1  0.000000  0.834504  0.707869  1
  Rh  Rh18  1  0.500000  0.945081  0.397905  1
  Rh  Rh19  1  0.500000  0.452823  0.054919  1
  Rh  Rh20  1  0.500000  0.602095  0.547177  1
