# generated using pymatgen
data_Zn22Co3Rh
_symmetry_space_group_name_H-M   'P 1'
_cell_length_a   7.78776359
_cell_length_b   7.80376760
_cell_length_c   7.80376805
_cell_angle_alpha   109.51272339
_cell_angle_beta   109.42968502
_cell_angle_gamma   109.42968571
_symmetry_Int_Tables_number   1
_chemical_formula_structural   Zn22Co3Rh
_chemical_formula_sum   'Zn22 Co3 Rh1'
_cell_volume   365.27665286
_cell_formula_units_Z   1
loop_
 _symmetry_equiv_pos_site_id
 _symmetry_equiv_pos_as_xyz
  1  'x, y, z'
loop_
 _atom_site_type_symbol
 _atom_site_label
 _atom_site_symmetry_multiplicity
 _atom_site_fract_x
 _atom_site_fract_y
 _atom_site_fract_z
 _atom_site_occupancy
  Zn  Zn0  1  0.354289  0.356347  0.000000  1
  Zn  Zn1  1  0.997942  0.643653  0.643653  1
  Zn  Zn2  1  0.354289  0.000000  0.356347  1
  Zn  Zn3  1  0.000542  0.355496  0.355496  1
  Zn  Zn4  1  0.645047  0.000000  0.644504  1
  Zn  Zn5  1  0.645047  0.644504  0.000000  1
  Zn  Zn6  1  0.204594  0.208694  0.208694  1
  Zn  Zn7  1  0.995900  0.000000  0.791306  1
  Zn  Zn8  1  0.995900  0.791306  0.000000  1
  Zn  Zn9  1  0.790584  0.000000  0.000000  1
  Zn  Zn10  1  0.388763  0.734324  0.734324  1
  Zn  Zn11  1  0.654440  0.000000  0.265676  1
  Zn  Zn12  1  0.654440  0.265676  0.000000  1
  Zn  Zn13  1  0.000842  0.647911  0.257879  1
  Zn  Zn14  1  0.742963  0.390032  0.742121  1
  Zn  Zn15  1  0.254507  0.642720  0.000000  1
  Zn  Zn16  1  0.000842  0.257879  0.647911  1
  Zn  Zn17  1  0.254507  0.000000  0.642720  1
  Zn  Zn18  1  0.742963  0.742121  0.390032  1
  Zn  Zn19  1  0.611787  0.357280  0.357280  1
  Zn  Zn20  1  0.352932  0.609968  0.352089  1
  Zn  Zn21  1  0.352932  0.352089  0.609968  1
  Co  Co22  1  0.000069  0.344143  0.000000  1
  Co  Co23  1  0.000069  0.000000  0.344143  1
  Co  Co24  1  0.655926  0.655857  0.655857  1
  Rh  Rh25  1  0.347884  0.000000  0.000000  1
