# generated using pymatgen
data_Zr6Al16Cu2Ni4Os
_symmetry_space_group_name_H-M   'P 1'
_cell_length_a   8.61541867
_cell_length_b   8.60194520
_cell_length_c   8.61541931
_cell_angle_alpha   60.05172497
_cell_angle_beta   59.89655232
_cell_angle_gamma   60.05172762
_symmetry_Int_Tables_number   1
_chemical_formula_structural   Zr6Al16Cu2Ni4Os
_chemical_formula_sum   'Zr6 Al16 Cu2 Ni4 Os1'
_cell_volume   451.47361526
_cell_formula_units_Z   1
loop_
 _symmetry_equiv_pos_site_id
 _symmetry_equiv_pos_as_xyz
  1  'x, y, z'
loop_
 _atom_site_type_symbol
 _atom_site_label
 _atom_site_symmetry_multiplicity
 _atom_site_fract_x
 _atom_site_fract_y
 _atom_site_fract_z
 _atom_site_occupancy
  Zr  Zr0  1  0.693221  0.693221  0.306779  1
  Zr  Zr1  1  0.308373  0.691627  0.308373  1
  Zr  Zr2  1  0.693221  0.306779  0.306779  1
  Zr  Zr3  1  0.306779  0.306779  0.693221  1
  Zr  Zr4  1  0.691627  0.308373  0.691627  1
  Zr  Zr5  1  0.306779  0.693221  0.693221  1
  Al  Al6  1  0.885171  0.878004  0.358822  1
  Al  Al7  1  0.878004  0.358822  0.878004  1
  Al  Al8  1  0.358822  0.878004  0.885171  1
  Al  Al9  1  0.878004  0.885171  0.878004  1
  Al  Al10  1  0.114829  0.121996  0.641178  1
  Al  Al11  1  0.121996  0.641178  0.121996  1
  Al  Al12  1  0.641178  0.121996  0.114829  1
  Al  Al13  1  0.121996  0.114829  0.121996  1
  Al  Al14  1  0.662952  0.668060  0.000930  1
  Al  Al15  1  0.668060  0.000930  0.668060  1
  Al  Al16  1  0.000930  0.668060  0.662952  1
  Al  Al17  1  0.668060  0.662952  0.668060  1
  Al  Al18  1  0.337048  0.331940  0.999070  1
  Al  Al19  1  0.331940  0.999070  0.331940  1
  Al  Al20  1  0.999070  0.331940  0.337048  1
  Al  Al21  1  0.331940  0.337048  0.331940  1
  Cu  Cu22  1  0.500000  0.000000  0.500000  1
  Cu  Cu23  1  0.000000  0.500000  0.000000  1
  Ni  Ni24  1  0.000000  0.000000  0.500000  1
  Ni  Ni25  1  0.000000  0.500000  0.500000  1
  Ni  Ni26  1  0.500000  0.500000  0.000000  1
  Ni  Ni27  1  0.500000  0.000000  0.000000  1
  Os  Os28  1  0.000000  0.000000  0.000000  1
