# generated using pymatgen
data_Sm4Ni11(As4Ru3)3
_symmetry_space_group_name_H-M   'P 1'
_cell_length_a   3.92540500
_cell_length_b   11.09813156
_cell_length_c   12.40606208
_cell_angle_alpha   89.94782169
_cell_angle_beta   90.00000000
_cell_angle_gamma   90.00000000
_symmetry_Int_Tables_number   1
_chemical_formula_structural   Sm4Ni11(As4Ru3)3
_chemical_formula_sum   'Sm4 Ni11 As12 Ru9'
_cell_volume   540.46566578
_cell_formula_units_Z   1
loop_
 _symmetry_equiv_pos_site_id
 _symmetry_equiv_pos_as_xyz
  1  'x, y, z'
loop_
 _atom_site_type_symbol
 _atom_site_label
 _atom_site_symmetry_multiplicity
 _atom_site_fract_x
 _atom_site_fract_y
 _atom_site_fract_z
 _atom_site_occupancy
  Sm  Sm0  1  0.250000  0.591273  0.705735  1
  Sm  Sm1  1  0.250000  0.910148  0.205228  1
  Sm  Sm2  1  0.750000  0.411177  0.294877  1
  Sm  Sm3  1  0.750000  0.089653  0.795343  1
  Ni  Ni4  1  0.250000  0.280383  0.681840  1
  Ni  Ni5  1  0.750000  0.781249  0.819068  1
  Ni  Ni6  1  0.750000  0.718154  0.318258  1
  Ni  Ni7  1  0.250000  0.886306  0.697355  1
  Ni  Ni8  1  0.250000  0.612886  0.198191  1
  Ni  Ni9  1  0.750000  0.108687  0.304046  1
  Ni  Ni10  1  0.750000  0.387331  0.801075  1
  Ni  Ni11  1  0.250000  0.469087  0.929981  1
  Ni  Ni12  1  0.250000  0.032696  0.430471  1
  Ni  Ni13  1  0.750000  0.531100  0.068527  1
  Ni  Ni14  1  0.750000  0.969864  0.568162  1
  As  As15  1  0.250000  0.417318  0.111074  1
  As  As16  1  0.250000  0.083994  0.612876  1
  As  As17  1  0.750000  0.585035  0.887598  1
  As  As18  1  0.750000  0.912600  0.388454  1
  As  As19  1  0.250000  0.274046  0.872663  1
  As  As20  1  0.250000  0.228903  0.377885  1
  As  As21  1  0.750000  0.726051  0.126344  1
  As  As22  1  0.750000  0.774215  0.626712  1
  As  As23  1  0.250000  0.598610  0.387818  1
  As  As24  1  0.250000  0.900044  0.886211  1
  As  As25  1  0.750000  0.402621  0.613123  1
  As  As26  1  0.750000  0.097918  0.111026  1
  Ru  Ru27  1  0.250000  0.708834  0.986727  1
  Ru  Ru28  1  0.250000  0.792002  0.487543  1
  Ru  Ru29  1  0.750000  0.290097  0.010248  1
  Ru  Ru30  1  0.750000  0.209972  0.513441  1
  Ru  Ru31  1  0.250000  0.406872  0.492687  1
  Ru  Ru32  1  0.250000  0.093888  0.985714  1
  Ru  Ru33  1  0.750000  0.596087  0.511164  1
  Ru  Ru34  1  0.750000  0.904150  0.010651  1
  Ru  Ru35  1  0.250000  0.216747  0.181882  1
