# generated using pymatgen
data_LiEu5(P2Ir3)6
_symmetry_space_group_name_H-M   'P 1'
_cell_length_a   12.76227269
_cell_length_b   12.82921358
_cell_length_c   4.01664100
_cell_angle_alpha   90.00000000
_cell_angle_beta   90.00000000
_cell_angle_gamma   120.17366380
_symmetry_Int_Tables_number   1
_chemical_formula_structural   LiEu5(P2Ir3)6
_chemical_formula_sum   'Li1 Eu5 P12 Ir18'
_cell_volume   568.53740975
_cell_formula_units_Z   1
loop_
 _symmetry_equiv_pos_site_id
 _symmetry_equiv_pos_as_xyz
  1  'x, y, z'
loop_
 _atom_site_type_symbol
 _atom_site_label
 _atom_site_symmetry_multiplicity
 _atom_site_fract_x
 _atom_site_fract_y
 _atom_site_fract_z
 _atom_site_occupancy
  Li  Li0  1  0.000000  0.442522  0.500000  1
  Eu  Eu1  1  0.329936  0.664899  0.500000  1
  Eu  Eu2  1  0.670064  0.334962  0.500000  1
  Eu  Eu3  1  0.000000  0.814061  0.000000  1
  Eu  Eu4  1  0.185872  0.183077  0.000000  1
  Eu  Eu5  1  0.814128  0.997205  0.000000  1
  P  P6  1  0.000000  0.630870  0.500000  1
  P  P7  1  0.360325  0.360273  0.500000  1
  P  P8  1  0.639675  0.999948  0.500000  1
  P  P9  1  0.512322  0.690054  0.000000  1
  P  P10  1  0.307949  0.826447  0.000000  1
  P  P11  1  0.167772  0.482835  0.000000  1
  P  P12  1  0.487678  0.177733  0.000000  1
  P  P13  1  0.692051  0.518497  0.000000  1
  P  P14  1  0.832228  0.315065  0.000000  1
  P  P15  1  0.000000  0.181360  0.500000  1
  P  P16  1  0.816930  0.818715  0.500000  1
  P  P17  1  0.183070  0.001785  0.500000  1
  Ir  Ir18  1  0.508252  0.872597  0.000000  1
  Ir  Ir19  1  0.128052  0.641974  0.000000  1
  Ir  Ir20  1  0.360398  0.491218  0.000000  1
  Ir  Ir21  1  0.491748  0.364345  0.000000  1
  Ir  Ir22  1  0.871948  0.513921  0.000000  1
  Ir  Ir23  1  0.639602  0.130819  0.000000  1
  Ir  Ir24  1  0.539038  0.541117  0.500000  1
  Ir  Ir25  1  0.460962  0.002079  0.500000  1
  Ir  Ir26  1  0.000000  0.282195  0.000000  1
  Ir  Ir27  1  0.705662  0.709903  0.000000  1
  Ir  Ir28  1  0.294338  0.004242  0.000000  1
  Ir  Ir29  1  0.617851  0.800202  0.500000  1
  Ir  Ir30  1  0.201676  0.825828  0.500000  1
  Ir  Ir31  1  0.182087  0.377506  0.500000  1
  Ir  Ir32  1  0.382149  0.182353  0.500000  1
  Ir  Ir33  1  0.798324  0.624151  0.500000  1
  Ir  Ir34  1  0.817913  0.195420  0.500000  1
  Ir  Ir35  1  0.000000  0.999822  0.500000  1
