# generated using pymatgen
data_HfNb2(GaRu2)3
_symmetry_space_group_name_H-M   'P 1'
_cell_length_a   4.40320400
_cell_length_b   6.26258500
_cell_length_c   13.18843200
_cell_angle_alpha   90.00000000
_cell_angle_beta   90.00069888
_cell_angle_gamma   90.00000000
_symmetry_Int_Tables_number   1
_chemical_formula_structural   HfNb2(GaRu2)3
_chemical_formula_sum   'Hf2 Nb4 Ga6 Ru12'
_cell_volume   363.67680636
_cell_formula_units_Z   2
loop_
 _symmetry_equiv_pos_site_id
 _symmetry_equiv_pos_as_xyz
  1  'x, y, z'
loop_
 _atom_site_type_symbol
 _atom_site_label
 _atom_site_symmetry_multiplicity
 _atom_site_fract_x
 _atom_site_fract_y
 _atom_site_fract_z
 _atom_site_occupancy
  Hf  Hf0  1  0.000006  0.499999  0.000065  1
  Hf  Hf1  1  0.499879  0.000000  0.166599  1
  Nb  Nb2  1  0.999868  0.499999  0.332303  1
  Nb  Nb3  1  0.500000  0.000000  0.499636  1
  Nb  Nb4  1  0.000126  0.499999  0.667021  1
  Nb  Nb5  1  0.500134  0.000000  0.834357  1
  Ga  Ga6  1  0.999998  0.000000  0.000336  1
  Ga  Ga7  1  0.499871  0.499999  0.166332  1
  Ga  Ga8  1  0.999867  0.000000  0.333340  1
  Ga  Ga9  1  0.500002  0.499999  0.500389  1
  Ga  Ga10  1  0.000134  0.000000  0.666279  1
  Ga  Ga11  1  0.500140  0.499999  0.833321  1
  Ru  Ru12  1  0.500006  0.247896  0.997536  1
  Ru  Ru13  1  0.500006  0.752104  0.997536  1
  Ru  Ru14  1  0.999851  0.252238  0.169123  1
  Ru  Ru15  1  0.999851  0.747762  0.169123  1
  Ru  Ru16  1  0.499868  0.252745  0.336236  1
  Ru  Ru17  1  0.499868  0.747255  0.336236  1
  Ru  Ru18  1  0.000001  0.249147  0.500662  1
  Ru  Ru19  1  0.000001  0.750853  0.500662  1
  Ru  Ru20  1  0.500125  0.250800  0.666006  1
  Ru  Ru21  1  0.500125  0.749200  0.666006  1
  Ru  Ru22  1  0.000138  0.247106  0.830449  1
  Ru  Ru23  1  0.000138  0.752894  0.830449  1
