# generated using pymatgen
data_Zr6Si4GePRu6
_symmetry_space_group_name_H-M   'P 1'
_cell_length_a   7.65884323
_cell_length_b   7.65639749
_cell_length_c   7.65221275
_cell_angle_alpha   128.06644943
_cell_angle_beta   121.46284348
_cell_angle_gamma   82.04095316
_symmetry_Int_Tables_number   1
_chemical_formula_structural   Zr6Si4GePRu6
_chemical_formula_sum   'Zr6 Si4 Ge1 P1 Ru6'
_cell_volume   289.88684380
_cell_formula_units_Z   1
loop_
 _symmetry_equiv_pos_site_id
 _symmetry_equiv_pos_as_xyz
  1  'x, y, z'
loop_
 _atom_site_type_symbol
 _atom_site_label
 _atom_site_symmetry_multiplicity
 _atom_site_fract_x
 _atom_site_fract_y
 _atom_site_fract_z
 _atom_site_occupancy
  Zr  Zr0  1  0.525820  0.511475  0.474336  1
  Zr  Zr1  1  0.054432  0.510289  0.960934  1
  Zr  Zr2  1  0.249220  0.082820  0.332400  1
  Zr  Zr3  1  0.746074  0.080779  0.833959  1
  Zr  Zr4  1  0.953005  0.903989  0.455304  1
  Zr  Zr5  1  0.465101  0.944174  0.968722  1
  Si  Si6  1  0.728793  0.470800  0.246188  1
  Si  Si7  1  0.834736  0.835874  0.007244  1
  Si  Si8  1  0.273840  0.518717  0.747404  1
  Si  Si9  1  0.159928  0.170923  0.998709  1
  Ge  Ge10  1  0.672311  0.173415  0.508640  1
  P  P11  1  0.327114  0.838873  0.498563  1
  Ru  Ru12  1  0.647426  0.509476  0.913347  1
  Ru  Ru13  1  0.000124  0.746823  0.746579  1
  Ru  Ru14  1  0.907775  0.258400  0.403821  1
  Ru  Ru15  1  0.101817  0.506546  0.358937  1
  Ru  Ru16  1  0.499389  0.741379  0.249542  1
  Ru  Ru17  1  0.353093  0.255246  0.855370  1
