# generated using pymatgen
data_Yb4CuH12Pt
_symmetry_space_group_name_H-M   'P 1'
_cell_length_a   6.90622645
_cell_length_b   6.90622779
_cell_length_c   5.15822352
_cell_angle_alpha   89.98988768
_cell_angle_beta   89.98989925
_cell_angle_gamma   136.03018224
_symmetry_Int_Tables_number   1
_chemical_formula_structural   Yb4CuH12Pt
_chemical_formula_sum   'Yb4 Cu1 H12 Pt1'
_cell_volume   170.81109005
_cell_formula_units_Z   1
loop_
 _symmetry_equiv_pos_site_id
 _symmetry_equiv_pos_as_xyz
  1  'x, y, z'
loop_
 _atom_site_type_symbol
 _atom_site_label
 _atom_site_symmetry_multiplicity
 _atom_site_fract_x
 _atom_site_fract_y
 _atom_site_fract_z
 _atom_site_occupancy
  Yb  Yb0  1  0.649732  0.350268  0.000000  1
  Yb  Yb1  1  0.350268  0.649732  0.000000  1
  Yb  Yb2  1  0.850906  0.149094  0.500000  1
  Yb  Yb3  1  0.149094  0.850906  0.500000  1
  Cu  Cu4  1  0.000000  0.000000  0.000000  1
  H  H5  1  0.875613  0.124387  0.000000  1
  H  H6  1  0.124387  0.875613  0.000000  1
  H  H7  1  0.631254  0.368746  0.500000  1
  H  H8  1  0.368746  0.631254  0.500000  1
  H  H9  1  0.999926  0.500066  0.251054  1
  H  H10  1  0.000074  0.499934  0.748946  1
  H  H11  1  0.499934  0.000074  0.748946  1
  H  H12  1  0.500066  0.999926  0.251054  1
  H  H13  1  0.255957  0.255957  0.254781  1
  H  H14  1  0.744043  0.744043  0.745219  1
  H  H15  1  0.257225  0.257225  0.747262  1
  H  H16  1  0.742775  0.742775  0.252738  1
  Pt  Pt17  1  0.500000  0.500000  0.500000  1
