# generated using pymatgen
data_YbB2IrRh2
_symmetry_space_group_name_H-M   'P 1'
_cell_length_a   5.58793015
_cell_length_b   5.58566134
_cell_length_c   2.92360300
_cell_angle_alpha   90.00000000
_cell_angle_beta   90.00000000
_cell_angle_gamma   119.98656002
_symmetry_Int_Tables_number   1
_chemical_formula_structural   YbB2IrRh2
_chemical_formula_sum   'Yb1 B2 Ir1 Rh2'
_cell_volume   79.03753747
_cell_formula_units_Z   1
loop_
 _symmetry_equiv_pos_site_id
 _symmetry_equiv_pos_as_xyz
  1  'x, y, z'
loop_
 _atom_site_type_symbol
 _atom_site_label
 _atom_site_symmetry_multiplicity
 _atom_site_fract_x
 _atom_site_fract_y
 _atom_site_fract_z
 _atom_site_occupancy
  Yb  Yb0  1  0.000000  0.000000  0.500000  1
  B  B1  1  0.667351  0.333675  0.500000  1
  B  B2  1  0.332649  0.666325  0.500000  1
  Ir  Ir3  1  0.000000  0.500000  0.000000  1
  Rh  Rh4  1  0.500000  0.500000  0.000000  1
  Rh  Rh5  1  0.500000  0.000000  0.000000  1
