# generated using pymatgen
data_YbCe(Al5Os)4
_symmetry_space_group_name_H-M   'P 1'
_cell_length_a   6.87538930
_cell_length_b   6.87538879
_cell_length_c   9.15859000
_cell_angle_alpha   90.00000000
_cell_angle_beta   90.00000000
_cell_angle_gamma   96.75618898
_symmetry_Int_Tables_number   1
_chemical_formula_structural   YbCe(Al5Os)4
_chemical_formula_sum   'Yb1 Ce1 Al20 Os4'
_cell_volume   429.92906440
_cell_formula_units_Z   1
loop_
 _symmetry_equiv_pos_site_id
 _symmetry_equiv_pos_as_xyz
  1  'x, y, z'
loop_
 _atom_site_type_symbol
 _atom_site_label
 _atom_site_symmetry_multiplicity
 _atom_site_fract_x
 _atom_site_fract_y
 _atom_site_fract_z
 _atom_site_occupancy
  Yb  Yb0  1  0.372568  0.627432  0.250000  1
  Ce  Ce1  1  0.626199  0.373801  0.750000  1
  Al  Al2  1  0.281064  0.018626  0.750000  1
  Al  Al3  1  0.022629  0.283349  0.250000  1
  Al  Al4  1  0.716651  0.977371  0.250000  1
  Al  Al5  1  0.981374  0.718936  0.750000  1
  Al  Al6  1  0.877393  0.122607  0.950155  1
  Al  Al7  1  0.123424  0.876576  0.042707  1
  Al  Al8  1  0.877393  0.122607  0.549845  1
  Al  Al9  1  0.123424  0.876576  0.457293  1
  Al  Al10  1  0.643152  0.912033  0.750000  1
  Al  Al11  1  0.914063  0.644258  0.250000  1
  Al  Al12  1  0.355742  0.085937  0.250000  1
  Al  Al13  1  0.087967  0.356848  0.750000  1
  Al  Al14  1  0.343946  0.656054  0.899761  1
  Al  Al15  1  0.659352  0.340648  0.102316  1
  Al  Al16  1  0.343946  0.656054  0.600239  1
  Al  Al17  1  0.659352  0.340648  0.397684  1
  Al  Al18  1  0.722410  0.724925  0.001389  1
  Al  Al19  1  0.722410  0.724925  0.498611  1
  Al  Al20  1  0.275075  0.277590  0.001389  1
  Al  Al21  1  0.275075  0.277590  0.498611  1
  Os  Os22  1  0.499790  0.002095  0.999970  1
  Os  Os23  1  0.997905  0.500210  0.999970  1
  Os  Os24  1  0.499790  0.002095  0.500030  1
  Os  Os25  1  0.997905  0.500210  0.500030  1
