# generated using pymatgen
data_Tb2HoMg3AgSn2
_symmetry_space_group_name_H-M   'P 1'
_cell_length_a   7.49169199
_cell_length_b   7.49169180
_cell_length_c   4.55077500
_cell_angle_alpha   90.00000000
_cell_angle_beta   90.00000000
_cell_angle_gamma   119.68675153
_symmetry_Int_Tables_number   1
_chemical_formula_structural   Tb2HoMg3AgSn2
_chemical_formula_sum   'Tb2 Ho1 Mg3 Ag1 Sn2'
_cell_volume   221.89015100
_cell_formula_units_Z   1
loop_
 _symmetry_equiv_pos_site_id
 _symmetry_equiv_pos_as_xyz
  1  'x, y, z'
loop_
 _atom_site_type_symbol
 _atom_site_label
 _atom_site_symmetry_multiplicity
 _atom_site_fract_x
 _atom_site_fract_y
 _atom_site_fract_z
 _atom_site_occupancy
  Tb  Tb0  1  0.582127  0.999023  0.000000  1
  Tb  Tb1  1  0.999023  0.582127  0.000000  1
  Ho  Ho2  1  0.416408  0.416408  0.000000  1
  Mg  Mg3  1  0.236808  0.000370  0.500000  1
  Mg  Mg4  1  0.000370  0.236808  0.500000  1
  Mg  Mg5  1  0.762850  0.762850  0.500000  1
  Ag  Ag6  1  0.002702  0.002702  0.000000  1
  Sn  Sn7  1  0.333933  0.665779  0.500000  1
  Sn  Sn8  1  0.665779  0.333933  0.500000  1
