# generated using pymatgen
data_Sr2In4IrPt
_symmetry_space_group_name_H-M   'P 1'
_cell_length_a   5.96773258
_cell_length_b   5.96773225
_cell_length_c   8.18664700
_cell_angle_alpha   90.00000000
_cell_angle_beta   90.00000000
_cell_angle_gamma   136.64079105
_symmetry_Int_Tables_number   1
_chemical_formula_structural   Sr2In4IrPt
_chemical_formula_sum   'Sr2 In4 Ir1 Pt1'
_cell_volume   200.17489501
_cell_formula_units_Z   1
loop_
 _symmetry_equiv_pos_site_id
 _symmetry_equiv_pos_as_xyz
  1  'x, y, z'
loop_
 _atom_site_type_symbol
 _atom_site_label
 _atom_site_symmetry_multiplicity
 _atom_site_fract_x
 _atom_site_fract_y
 _atom_site_fract_z
 _atom_site_occupancy
  Sr  Sr0  1  0.939482  0.060518  0.750000  1
  Sr  Sr1  1  0.060352  0.939648  0.250000  1
  In  In2  1  0.653328  0.346672  0.949971  1
  In  In3  1  0.653328  0.346672  0.550029  1
  In  In4  1  0.346488  0.653512  0.055578  1
  In  In5  1  0.346488  0.653512  0.444422  1
  Ir  Ir6  1  0.778997  0.221003  0.250000  1
  Pt  Pt7  1  0.221539  0.778461  0.750000  1
