# generated using pymatgen
data_SbP2NCl12
_symmetry_space_group_name_H-M   'P 1'
_cell_length_a   8.35656996
_cell_length_b   8.35657004
_cell_length_c   16.00930803
_cell_angle_alpha   78.47415135
_cell_angle_beta   78.47415331
_cell_angle_gamma   65.85685955
_symmetry_Int_Tables_number   1
_chemical_formula_structural   SbP2NCl12
_chemical_formula_sum   'Sb2 P4 N2 Cl24'
_cell_volume   990.84591597
_cell_formula_units_Z   2
loop_
 _symmetry_equiv_pos_site_id
 _symmetry_equiv_pos_as_xyz
  1  'x, y, z'
loop_
 _atom_site_type_symbol
 _atom_site_label
 _atom_site_symmetry_multiplicity
 _atom_site_fract_x
 _atom_site_fract_y
 _atom_site_fract_z
 _atom_site_occupancy
  Sb  Sb0  1  0.000000  0.000000  0.500000  1
  Sb  Sb1  1  0.000000  0.000000  0.000000  1
  P  P2  1  0.460347  0.320514  0.770723  1
  P  P3  1  0.679486  0.539653  0.729277  1
  P  P4  1  0.320514  0.460347  0.270723  1
  P  P5  1  0.539653  0.679486  0.229277  1
  N  N6  1  0.620233  0.379767  0.750000  1
  N  N7  1  0.379767  0.620233  0.250000  1
  Cl  Cl8  1  0.701266  0.220316  0.008695  1
  Cl  Cl9  1  0.785581  0.896692  0.472441  1
  Cl  Cl10  1  0.298734  0.779684  0.991305  1
  Cl  Cl11  1  0.901264  0.483516  0.649374  1
  Cl  Cl12  1  0.239908  0.496808  0.824046  1
  Cl  Cl13  1  0.516484  0.098736  0.850626  1
  Cl  Cl14  1  0.103308  0.214419  0.027559  1
  Cl  Cl15  1  0.483516  0.901264  0.149374  1
  Cl  Cl16  1  0.953331  0.909349  0.152522  1
  Cl  Cl17  1  0.779684  0.298734  0.491305  1
  Cl  Cl18  1  0.909349  0.953331  0.652522  1
  Cl  Cl19  1  0.214419  0.103308  0.527559  1
  Cl  Cl20  1  0.896692  0.785581  0.972441  1
  Cl  Cl21  1  0.272973  0.401384  0.166527  1
  Cl  Cl22  1  0.598616  0.727027  0.333473  1
  Cl  Cl23  1  0.090651  0.046669  0.347478  1
  Cl  Cl24  1  0.727027  0.598616  0.833473  1
  Cl  Cl25  1  0.220316  0.701266  0.508695  1
  Cl  Cl26  1  0.046669  0.090651  0.847478  1
  Cl  Cl27  1  0.098736  0.516484  0.350626  1
  Cl  Cl28  1  0.760092  0.503192  0.175954  1
  Cl  Cl29  1  0.503192  0.760092  0.675954  1
  Cl  Cl30  1  0.401384  0.272973  0.666527  1
  Cl  Cl31  1  0.496808  0.239908  0.324046  1
