# generated using pymatgen
data_PrNd7GaPd24
_symmetry_space_group_name_H-M   'P 1'
_cell_length_a   8.50025900
_cell_length_b   8.50025900
_cell_length_c   8.50025900
_cell_angle_alpha   90.00124025
_cell_angle_beta   90.00124025
_cell_angle_gamma   89.99875975
_symmetry_Int_Tables_number   1
_chemical_formula_structural   PrNd7GaPd24
_chemical_formula_sum   'Pr1 Nd7 Ga1 Pd24'
_cell_volume   614.18113974
_cell_formula_units_Z   1
loop_
 _symmetry_equiv_pos_site_id
 _symmetry_equiv_pos_as_xyz
  1  'x, y, z'
loop_
 _atom_site_type_symbol
 _atom_site_label
 _atom_site_symmetry_multiplicity
 _atom_site_fract_x
 _atom_site_fract_y
 _atom_site_fract_z
 _atom_site_occupancy
  Pr  Pr0  1  0.251687  0.251687  0.748313  1
  Nd  Nd1  1  0.251743  0.748283  0.251717  1
  Nd  Nd2  1  0.748283  0.251743  0.251717  1
  Nd  Nd3  1  0.748283  0.748283  0.748257  1
  Nd  Nd4  1  0.748244  0.748244  0.251756  1
  Nd  Nd5  1  0.748262  0.251724  0.748276  1
  Nd  Nd6  1  0.251724  0.748262  0.748276  1
  Nd  Nd7  1  0.251724  0.251724  0.251738  1
  Ga  Ga8  1  0.999966  0.999966  0.000034  1
  Pd  Pd9  1  0.500330  0.500330  0.746537  1
  Pd  Pd10  1  0.500330  0.253463  0.499670  1
  Pd  Pd11  1  0.253463  0.500330  0.499670  1
  Pd  Pd12  1  0.499953  0.499953  0.253458  1
  Pd  Pd13  1  0.499953  0.746542  0.500047  1
  Pd  Pd14  1  0.746542  0.499953  0.500047  1
  Pd  Pd15  1  0.999729  0.999729  0.706481  1
  Pd  Pd16  1  0.999729  0.293519  0.000271  1
  Pd  Pd17  1  0.293519  0.999729  0.000271  1
  Pd  Pd18  1  0.000029  0.000029  0.293473  1
  Pd  Pd19  1  0.000029  0.706527  0.999971  1
  Pd  Pd20  1  0.706527  0.000029  0.999971  1
  Pd  Pd21  1  0.999680  0.500296  0.739260  1
  Pd  Pd22  1  0.500296  0.260740  0.000320  1
  Pd  Pd23  1  0.260740  0.999680  0.499704  1
  Pd  Pd24  1  0.999680  0.260740  0.499704  1
  Pd  Pd25  1  0.500296  0.999680  0.739260  1
  Pd  Pd26  1  0.260740  0.500296  0.000320  1
  Pd  Pd27  1  0.000041  0.499959  0.260740  1
  Pd  Pd28  1  0.499959  0.739260  0.999959  1
  Pd  Pd29  1  0.000041  0.739260  0.500041  1
  Pd  Pd30  1  0.499959  0.000041  0.260740  1
  Pd  Pd31  1  0.739260  0.000041  0.500041  1
  Pd  Pd32  1  0.739260  0.499959  0.999959  1
