# generated using pymatgen
data_Rb7TaGa3As5
_symmetry_space_group_name_H-M   'P 1'
_cell_length_a   8.60337041
_cell_length_b   9.39827238
_cell_length_c   14.42428388
_cell_angle_alpha   85.23714813
_cell_angle_beta   81.92467121
_cell_angle_gamma   86.28024119
_symmetry_Int_Tables_number   1
_chemical_formula_structural   Rb7TaGa3As5
_chemical_formula_sum   'Rb14 Ta2 Ga6 As10'
_cell_volume   1149.07474191
_cell_formula_units_Z   2
loop_
 _symmetry_equiv_pos_site_id
 _symmetry_equiv_pos_as_xyz
  1  'x, y, z'
loop_
 _atom_site_type_symbol
 _atom_site_label
 _atom_site_symmetry_multiplicity
 _atom_site_fract_x
 _atom_site_fract_y
 _atom_site_fract_z
 _atom_site_occupancy
  Rb  Rb0  1  0.843823  0.365501  0.638975  1
  Rb  Rb1  1  0.820398  0.820168  0.129359  1
  Rb  Rb2  1  0.245236  0.006064  0.469068  1
  Rb  Rb3  1  0.272744  0.251366  0.256271  1
  Rb  Rb4  1  0.744548  0.497699  0.973241  1
  Rb  Rb5  1  0.255452  0.502301  0.026759  1
  Rb  Rb6  1  0.690244  0.075610  0.883895  1
  Rb  Rb7  1  0.754764  0.993936  0.530932  1
  Rb  Rb8  1  0.727256  0.748634  0.743729  1
  Rb  Rb9  1  0.333378  0.327714  0.610057  1
  Rb  Rb10  1  0.156177  0.634499  0.361025  1
  Rb  Rb11  1  0.179602  0.179832  0.870641  1
  Rb  Rb12  1  0.309756  0.924390  0.116105  1
  Rb  Rb13  1  0.666622  0.672286  0.389943  1
  Ta  Ta14  1  0.351533  0.604796  0.772549  1
  Ta  Ta15  1  0.648467  0.395204  0.227451  1
  Ga  Ga16  1  0.049254  0.815941  0.859321  1
  Ga  Ga17  1  0.950746  0.184059  0.140679  1
  Ga  Ga18  1  0.353583  0.947928  0.699569  1
  Ga  Ga19  1  0.098745  0.727157  0.628031  1
  Ga  Ga20  1  0.901255  0.272843  0.371969  1
  Ga  Ga21  1  0.646417  0.052072  0.300431  1
  As  As22  1  0.931479  0.447439  0.211909  1
  As  As23  1  0.642542  0.185807  0.128695  1
  As  As24  1  0.068521  0.552561  0.788091  1
  As  As25  1  0.587179  0.290445  0.394137  1
  As  As26  1  0.412821  0.709555  0.605863  1
  As  As27  1  0.030648  0.997038  0.698424  1
  As  As28  1  0.518609  0.395396  0.811255  1
  As  As29  1  0.481391  0.604604  0.188745  1
  As  As30  1  0.357458  0.814193  0.871305  1
  As  As31  1  0.969352  0.002962  0.301576  1
