# generated using pymatgen
data_Yb4Ag2SnBi
_symmetry_space_group_name_H-M   'P 1'
_cell_length_a   5.33474700
_cell_length_b   5.35157000
_cell_length_c   7.43632100
_cell_angle_alpha   90.00000000
_cell_angle_beta   90.00000000
_cell_angle_gamma   90.00000000
_symmetry_Int_Tables_number   1
_chemical_formula_structural   Yb4Ag2SnBi
_chemical_formula_sum   'Yb4 Ag2 Sn1 Bi1'
_cell_volume   212.30155093
_cell_formula_units_Z   1
loop_
 _symmetry_equiv_pos_site_id
 _symmetry_equiv_pos_as_xyz
  1  'x, y, z'
loop_
 _atom_site_type_symbol
 _atom_site_label
 _atom_site_symmetry_multiplicity
 _atom_site_fract_x
 _atom_site_fract_y
 _atom_site_fract_z
 _atom_site_occupancy
  Yb  Yb0  1  0.500000  0.248948  0.755533  1
  Yb  Yb1  1  0.500000  0.248948  0.244467  1
  Yb  Yb2  1  0.000000  0.751315  0.755648  1
  Yb  Yb3  1  0.000000  0.751315  0.244352  1
  Ag  Ag4  1  0.000000  0.253010  0.500000  1
  Ag  Ag5  1  0.500000  0.745956  0.000000  1
  Sn  Sn6  1  0.000000  0.251569  0.000000  1
  Bi  Bi7  1  0.500000  0.748940  0.500000  1
