# generated using pymatgen
data_Er5Al2HgC4
_symmetry_space_group_name_H-M   'P 1'
_cell_length_a   10.88113500
_cell_length_b   10.88113500
_cell_length_c   3.47809400
_cell_angle_alpha   90.00000000
_cell_angle_beta   90.00000000
_cell_angle_gamma   90.00000000
_symmetry_Int_Tables_number   1
_chemical_formula_structural   Er5Al2HgC4
_chemical_formula_sum   'Er10 Al4 Hg2 C8'
_cell_volume   411.80319545
_cell_formula_units_Z   2
loop_
 _symmetry_equiv_pos_site_id
 _symmetry_equiv_pos_as_xyz
  1  'x, y, z'
loop_
 _atom_site_type_symbol
 _atom_site_label
 _atom_site_symmetry_multiplicity
 _atom_site_fract_x
 _atom_site_fract_y
 _atom_site_fract_z
 _atom_site_occupancy
  Er  Er0  1  0.549182  0.732955  0.500000  1
  Er  Er1  1  0.450818  0.267045  0.500000  1
  Er  Er2  1  0.049182  0.767045  0.500000  1
  Er  Er3  1  0.950818  0.232955  0.500000  1
  Er  Er4  1  0.267045  0.549182  0.500000  1
  Er  Er5  1  0.732955  0.450818  0.500000  1
  Er  Er6  1  0.232955  0.049182  0.500000  1
  Er  Er7  1  0.767045  0.950818  0.500000  1
  Er  Er8  1  0.500000  0.000000  0.000000  1
  Er  Er9  1  0.000000  0.500000  0.000000  1
  Al  Al10  1  0.703602  0.203602  0.000000  1
  Al  Al11  1  0.296398  0.796398  0.000000  1
  Al  Al12  1  0.203602  0.296398  0.000000  1
  Al  Al13  1  0.796398  0.703602  0.000000  1
  Hg  Hg14  1  0.500000  0.500000  0.000000  1
  Hg  Hg15  1  0.000000  0.000000  0.000000  1
  C  C16  1  0.631052  0.131052  0.500000  1
  C  C17  1  0.368948  0.868948  0.500000  1
  C  C18  1  0.131052  0.368948  0.500000  1
  C  C19  1  0.868948  0.631052  0.500000  1
  C  C20  1  0.160984  0.660984  0.000000  1
  C  C21  1  0.839016  0.339016  0.000000  1
  C  C22  1  0.660984  0.839016  0.000000  1
  C  C23  1  0.339016  0.160984  0.000000  1
