# generated using pymatgen
data_NdHo2Sc(Co4P3)2
_symmetry_space_group_name_H-M   'P 1'
_cell_length_a   3.72899500
_cell_length_b   10.67683500
_cell_length_c   12.37508600
_cell_angle_alpha   90.00000000
_cell_angle_beta   90.00000000
_cell_angle_gamma   90.00000000
_symmetry_Int_Tables_number   1
_chemical_formula_structural   NdHo2Sc(Co4P3)2
_chemical_formula_sum   'Nd2 Ho4 Sc2 Co16 P12'
_cell_volume   492.69999509
_cell_formula_units_Z   2
loop_
 _symmetry_equiv_pos_site_id
 _symmetry_equiv_pos_as_xyz
  1  'x, y, z'
loop_
 _atom_site_type_symbol
 _atom_site_label
 _atom_site_symmetry_multiplicity
 _atom_site_fract_x
 _atom_site_fract_y
 _atom_site_fract_z
 _atom_site_occupancy
  Nd  Nd0  1  0.000000  0.500000  0.528892  1
  Nd  Nd1  1  0.500000  0.000000  0.471108  1
  Ho  Ho2  1  0.500000  0.822408  0.204699  1
  Ho  Ho3  1  0.500000  0.177592  0.204699  1
  Ho  Ho4  1  0.000000  0.677592  0.795301  1
  Ho  Ho5  1  0.000000  0.322408  0.795301  1
  Sc  Sc6  1  0.500000  0.500000  0.154786  1
  Sc  Sc7  1  0.000000  0.000000  0.845214  1
  Co  Co8  1  0.000000  0.500000  0.987882  1
  Co  Co9  1  0.500000  0.000000  0.012118  1
  Co  Co10  1  0.500000  0.295322  0.431777  1
  Co  Co11  1  0.500000  0.704678  0.431777  1
  Co  Co12  1  0.000000  0.204678  0.568223  1
  Co  Co13  1  0.000000  0.795322  0.568223  1
  Co  Co14  1  0.500000  0.878194  0.705353  1
  Co  Co15  1  0.500000  0.121806  0.705353  1
  Co  Co16  1  0.000000  0.621806  0.294647  1
  Co  Co17  1  0.000000  0.378194  0.294647  1
  Co  Co18  1  0.500000  0.330924  0.994860  1
  Co  Co19  1  0.500000  0.669076  0.994860  1
  Co  Co20  1  0.000000  0.169076  0.005140  1
  Co  Co21  1  0.000000  0.830924  0.005140  1
  Co  Co22  1  0.500000  0.500000  0.709534  1
  Co  Co23  1  0.000000  0.000000  0.290466  1
  P  P24  1  0.500000  0.306241  0.617065  1
  P  P25  1  0.500000  0.693759  0.617065  1
  P  P26  1  0.000000  0.193759  0.382935  1
  P  P27  1  0.000000  0.806241  0.382935  1
  P  P28  1  0.500000  0.500000  0.887126  1
  P  P29  1  0.000000  0.000000  0.112874  1
  P  P30  1  0.500000  0.839158  0.893020  1
  P  P31  1  0.500000  0.160842  0.893020  1
  P  P32  1  0.000000  0.660842  0.106980  1
  P  P33  1  0.000000  0.339158  0.106980  1
  P  P34  1  0.500000  0.500000  0.356380  1
  P  P35  1  0.000000  0.000000  0.643620  1
