# generated using pymatgen
data_Nd5ErGa2(SiRh3)4
_symmetry_space_group_name_H-M   'P 1'
_cell_length_a   5.66943200
_cell_length_b   5.66943002
_cell_length_c   15.29583000
_cell_angle_alpha   90.00000000
_cell_angle_beta   90.00000000
_cell_angle_gamma   119.99998824
_symmetry_Int_Tables_number   1
_chemical_formula_structural   Nd5ErGa2(SiRh3)4
_chemical_formula_sum   'Nd5 Er1 Ga2 Si4 Rh12'
_cell_volume   425.77747351
_cell_formula_units_Z   1
loop_
 _symmetry_equiv_pos_site_id
 _symmetry_equiv_pos_as_xyz
  1  'x, y, z'
loop_
 _atom_site_type_symbol
 _atom_site_label
 _atom_site_symmetry_multiplicity
 _atom_site_fract_x
 _atom_site_fract_y
 _atom_site_fract_z
 _atom_site_occupancy
  Nd  Nd0  1  0.333333  0.666667  0.539059  1
  Nd  Nd1  1  0.666667  0.333333  0.460968  1
  Nd  Nd2  1  0.666667  0.333333  0.037152  1
  Nd  Nd3  1  0.333333  0.666667  0.750920  1
  Nd  Nd4  1  0.666667  0.333333  0.249413  1
  Er  Er5  1  0.333333  0.666667  0.963563  1
  Ga  Ga6  1  0.000000  0.000000  0.999794  1
  Ga  Ga7  1  0.000000  0.000000  0.499932  1
  Si  Si8  1  0.000000  0.000000  0.248369  1
  Si  Si9  1  0.000000  0.000000  0.751473  1
  Si  Si10  1  0.333333  0.666667  0.249036  1
  Si  Si11  1  0.666667  0.333333  0.751154  1
  Rh  Rh12  1  0.168028  0.336055  0.133378  1
  Rh  Rh13  1  0.832897  0.665795  0.866387  1
  Rh  Rh14  1  0.663945  0.831972  0.133378  1
  Rh  Rh15  1  0.833084  0.666168  0.635957  1
  Rh  Rh16  1  0.334205  0.167103  0.866387  1
  Rh  Rh17  1  0.166974  0.333947  0.364000  1
  Rh  Rh18  1  0.168028  0.831972  0.133378  1
  Rh  Rh19  1  0.333832  0.166916  0.635957  1
  Rh  Rh20  1  0.832897  0.167103  0.866387  1
  Rh  Rh21  1  0.666053  0.833026  0.364000  1
  Rh  Rh22  1  0.833084  0.166916  0.635957  1
  Rh  Rh23  1  0.166974  0.833026  0.364000  1
