# generated using pymatgen
data_Pu2Al16Pt9
_symmetry_space_group_name_H-M   'P 1'
_cell_length_a   11.16564521
_cell_length_b   11.16564406
_cell_length_c   11.16564482
_cell_angle_alpha   158.51402662
_cell_angle_beta   115.48038244
_cell_angle_gamma   68.85623674
_symmetry_Int_Tables_number   1
_chemical_formula_structural   Pu2Al16Pt9
_chemical_formula_sum   'Pu2 Al16 Pt9'
_cell_volume   456.96111022
_cell_formula_units_Z   1
loop_
 _symmetry_equiv_pos_site_id
 _symmetry_equiv_pos_as_xyz
  1  'x, y, z'
loop_
 _atom_site_type_symbol
 _atom_site_label
 _atom_site_symmetry_multiplicity
 _atom_site_fract_x
 _atom_site_fract_y
 _atom_site_fract_z
 _atom_site_occupancy
  Pu  Pu0  1  0.771264  0.771264  0.000000  1
  Pu  Pu1  1  0.228736  0.228736  0.000000  1
  Al  Al2  1  0.726792  0.607911  0.118882  1
  Al  Al3  1  0.489029  0.607912  0.881120  1
  Al  Al4  1  0.273208  0.392090  0.881120  1
  Al  Al5  1  0.510971  0.392089  0.118882  1
  Al  Al6  1  0.913323  0.413323  0.500000  1
  Al  Al7  1  0.086677  0.586678  0.500001  1
  Al  Al8  1  0.104949  0.796147  0.308805  1
  Al  Al9  1  0.487342  0.796147  0.691198  1
  Al  Al10  1  0.895051  0.203855  0.691196  1
  Al  Al11  1  0.512659  0.203855  0.308804  1
  Al  Al12  1  0.091474  0.919897  0.171580  1
  Al  Al13  1  0.748317  0.919897  0.828422  1
  Al  Al14  1  0.908525  0.080104  0.828420  1
  Al  Al15  1  0.251683  0.080104  0.171579  1
  Al  Al16  1  0.615156  0.000000  0.615156  1
  Al  Al17  1  0.384844  0.000000  0.384844  1
  Pt  Pt18  1  0.975386  0.660866  0.314520  1
  Pt  Pt19  1  0.346346  0.660868  0.685481  1
  Pt  Pt20  1  0.024614  0.339135  0.685481  1
  Pt  Pt21  1  0.653654  0.339133  0.314520  1
  Pt  Pt22  1  0.623957  0.123957  0.500000  1
  Pt  Pt23  1  0.376042  0.876044  0.500001  1
  Pt  Pt24  1  0.250153  0.500001  0.750154  1
  Pt  Pt25  1  0.749848  0.500000  0.249847  1
  Pt  Pt26  1  0.000000  0.000000  0.000000  1
