# generated using pymatgen
data_Rb8Ho6RhBr20
_symmetry_space_group_name_H-M   'P 1'
_cell_length_a   12.39827155
_cell_length_b   12.39827229
_cell_length_c   12.39827100
_cell_angle_alpha   60.00000078
_cell_angle_beta   59.99999881
_cell_angle_gamma   59.99999964
_symmetry_Int_Tables_number   1
_chemical_formula_structural   Rb8Ho6RhBr20
_chemical_formula_sum   'Rb8 Ho6 Rh1 Br20'
_cell_volume   1347.62307601
_cell_formula_units_Z   1
loop_
 _symmetry_equiv_pos_site_id
 _symmetry_equiv_pos_as_xyz
  1  'x, y, z'
loop_
 _atom_site_type_symbol
 _atom_site_label
 _atom_site_symmetry_multiplicity
 _atom_site_fract_x
 _atom_site_fract_y
 _atom_site_fract_z
 _atom_site_occupancy
  Rb  Rb0  1  0.359298  0.359298  0.359298  1
  Rb  Rb1  1  0.640702  0.640702  0.640702  1
  Rb  Rb2  1  0.359298  0.359298  0.922106  1
  Rb  Rb3  1  0.359298  0.922106  0.359298  1
  Rb  Rb4  1  0.640702  0.640702  0.077894  1
  Rb  Rb5  1  0.640702  0.077894  0.640702  1
  Rb  Rb6  1  0.922106  0.359298  0.359298  1
  Rb  Rb7  1  0.077894  0.640702  0.640702  1
  Ho  Ho8  1  0.844994  0.155006  0.155006  1
  Ho  Ho9  1  0.155006  0.844994  0.844994  1
  Ho  Ho10  1  0.155006  0.844994  0.155006  1
  Ho  Ho11  1  0.844994  0.155006  0.844994  1
  Ho  Ho12  1  0.155006  0.155006  0.844994  1
  Ho  Ho13  1  0.844994  0.844994  0.155006  1
  Rh  Rh14  1  0.000000  0.000000  0.000000  1
  Br  Br15  1  0.328523  0.000000  0.000000  1
  Br  Br16  1  0.671477  0.000000  0.000000  1
  Br  Br17  1  0.000000  0.328523  0.671477  1
  Br  Br18  1  0.000000  0.671477  0.328523  1
  Br  Br19  1  0.000000  0.328523  0.000000  1
  Br  Br20  1  0.671477  0.000000  0.328523  1
  Br  Br21  1  0.000000  0.671477  0.000000  1
  Br  Br22  1  0.328523  0.000000  0.671477  1
  Br  Br23  1  0.000000  0.000000  0.328523  1
  Br  Br24  1  0.000000  0.000000  0.671477  1
  Br  Br25  1  0.671477  0.328523  0.000000  1
  Br  Br26  1  0.328523  0.671477  0.000000  1
  Br  Br27  1  0.681590  0.318410  0.318410  1
  Br  Br28  1  0.318410  0.681590  0.681590  1
  Br  Br29  1  0.318410  0.681590  0.318410  1
  Br  Br30  1  0.681590  0.318410  0.681590  1
  Br  Br31  1  0.318410  0.318410  0.681590  1
  Br  Br32  1  0.681590  0.681590  0.318410  1
  Br  Br33  1  0.250000  0.250000  0.250000  1
  Br  Br34  1  0.750000  0.750000  0.750000  1
