# generated using pymatgen
data_ReSb12OsPd2
_symmetry_space_group_name_H-M   'P 1'
_cell_length_a   8.22158442
_cell_length_b   8.23251785
_cell_length_c   9.46645029
_cell_angle_alpha   54.50984688
_cell_angle_beta   54.81207650
_cell_angle_gamma   70.40420167
_symmetry_Int_Tables_number   1
_chemical_formula_structural   ReSb12OsPd2
_chemical_formula_sum   'Re1 Sb12 Os1 Pd2'
_cell_volume   426.36143876
_cell_formula_units_Z   1
loop_
 _symmetry_equiv_pos_site_id
 _symmetry_equiv_pos_as_xyz
  1  'x, y, z'
loop_
 _atom_site_type_symbol
 _atom_site_label
 _atom_site_symmetry_multiplicity
 _atom_site_fract_x
 _atom_site_fract_y
 _atom_site_fract_z
 _atom_site_occupancy
  Re  Re0  1  0.000000  0.500000  0.500000  1
  Sb  Sb1  1  0.667475  0.670212  0.486369  1
  Sb  Sb2  1  0.332525  0.329788  0.513631  1
  Sb  Sb3  1  0.650919  0.651247  0.195856  1
  Sb  Sb4  1  0.349081  0.348753  0.804144  1
  Sb  Sb5  1  0.159356  0.849761  0.654181  1
  Sb  Sb6  1  0.840644  0.150239  0.345819  1
  Sb  Sb7  1  0.849168  0.158373  0.655439  1
  Sb  Sb8  1  0.150832  0.841627  0.344561  1
  Sb  Sb9  1  0.813556  0.493426  0.843361  1
  Sb  Sb10  1  0.186444  0.506574  0.156639  1
  Sb  Sb11  1  0.505737  0.186367  0.157829  1
  Sb  Sb12  1  0.494263  0.813633  0.842171  1
  Os  Os13  1  0.500000  0.000000  0.500000  1
  Pd  Pd14  1  0.000000  0.500000  0.000000  1
  Pd  Pd15  1  0.500000  0.000000  0.000000  1
