# generated using pymatgen
data_Dy4Er7(Lu3Bi4)3
_symmetry_space_group_name_H-M   'P 1'
_cell_length_a   8.18425067
_cell_length_b   9.43265005
_cell_length_c   11.92981190
_cell_angle_alpha   89.99957848
_cell_angle_beta   89.95535056
_cell_angle_gamma   90.01234780
_symmetry_Int_Tables_number   1
_chemical_formula_structural   Dy4Er7(Lu3Bi4)3
_chemical_formula_sum   'Dy4 Er7 Lu9 Bi12'
_cell_volume   920.97130638
_cell_formula_units_Z   1
loop_
 _symmetry_equiv_pos_site_id
 _symmetry_equiv_pos_as_xyz
  1  'x, y, z'
loop_
 _atom_site_type_symbol
 _atom_site_label
 _atom_site_symmetry_multiplicity
 _atom_site_fract_x
 _atom_site_fract_y
 _atom_site_fract_z
 _atom_site_occupancy
  Dy  Dy0  1  0.312989  0.250176  0.218082  1
  Dy  Dy1  1  0.812986  0.250063  0.282219  1
  Dy  Dy2  1  0.687002  0.750170  0.782007  1
  Dy  Dy3  1  0.187140  0.749805  0.717972  1
  Er  Er4  1  0.352470  0.750001  0.217383  1
  Er  Er5  1  0.852508  0.750184  0.282572  1
  Er  Er6  1  0.647924  0.250377  0.782454  1
  Er  Er7  1  0.147320  0.250269  0.717258  1
  Er  Er8  1  0.692299  0.565581  0.059274  1
  Er  Er9  1  0.192054  0.934312  0.440802  1
  Er  Er10  1  0.307749  0.065617  0.940685  1
  Lu  Lu11  1  0.807487  0.433260  0.559287  1
  Lu  Lu12  1  0.307763  0.433340  0.940725  1
  Lu  Lu13  1  0.807799  0.066778  0.559132  1
  Lu  Lu14  1  0.692205  0.933352  0.059281  1
  Lu  Lu15  1  0.192365  0.566667  0.440785  1
  Lu  Lu16  1  0.477562  0.250124  0.488969  1
  Lu  Lu17  1  0.977025  0.250160  0.011081  1
  Lu  Lu18  1  0.523199  0.749856  0.511032  1
  Lu  Lu19  1  0.022958  0.750255  0.988848  1
  Bi  Bi20  1  0.403737  0.749038  0.958333  1
  Bi  Bi21  1  0.903336  0.749567  0.541863  1
  Bi  Bi22  1  0.596267  0.248998  0.041636  1
  Bi  Bi23  1  0.096028  0.251352  0.458478  1
  Bi  Bi24  1  0.565420  0.995143  0.326585  1
  Bi  Bi25  1  0.065235  0.504992  0.173560  1
  Bi  Bi26  1  0.434829  0.495106  0.673375  1
  Bi  Bi27  1  0.934591  0.005034  0.826426  1
  Bi  Bi28  1  0.434767  0.004933  0.673443  1
  Bi  Bi29  1  0.934624  0.495287  0.826335  1
  Bi  Bi30  1  0.565139  0.504930  0.326580  1
  Bi  Bi31  1  0.065224  0.995271  0.173540  1
