# generated using pymatgen
data_TbEr15InHg3Rh4
_symmetry_space_group_name_H-M   'P 1'
_cell_length_a   9.55380303
_cell_length_b   9.55866861
_cell_length_c   9.55866879
_cell_angle_alpha   59.69736325
_cell_angle_beta   59.71452941
_cell_angle_gamma   59.71452479
_symmetry_Int_Tables_number   1
_chemical_formula_structural   TbEr15InHg3Rh4
_chemical_formula_sum   'Tb1 Er15 In1 Hg3 Rh4'
_cell_volume   613.16036709
_cell_formula_units_Z   1
loop_
 _symmetry_equiv_pos_site_id
 _symmetry_equiv_pos_as_xyz
  1  'x, y, z'
loop_
 _atom_site_type_symbol
 _atom_site_label
 _atom_site_symmetry_multiplicity
 _atom_site_fract_x
 _atom_site_fract_y
 _atom_site_fract_z
 _atom_site_occupancy
  Tb  Tb0  1  0.065599  0.435406  0.435406  1
  Er  Er1  1  0.810642  0.809316  0.190885  1
  Er  Er2  1  0.810642  0.190885  0.809316  1
  Er  Er3  1  0.189061  0.188968  0.812373  1
  Er  Er4  1  0.648641  0.052662  0.648595  1
  Er  Er5  1  0.065917  0.060029  0.436752  1
  Er  Er6  1  0.438310  0.436513  0.061122  1
  Er  Er7  1  0.649934  0.649630  0.649630  1
  Er  Er8  1  0.811828  0.189833  0.189833  1
  Er  Er9  1  0.189894  0.810593  0.810593  1
  Er  Er10  1  0.054068  0.648030  0.648030  1
  Er  Er11  1  0.438108  0.062815  0.062815  1
  Er  Er12  1  0.438310  0.061122  0.436513  1
  Er  Er13  1  0.065917  0.436752  0.060029  1
  Er  Er14  1  0.648641  0.648595  0.052662  1
  Er  Er15  1  0.189061  0.812373  0.188968  1
  In  In16  1  0.742331  0.419523  0.419523  1
  Hg  Hg17  1  0.415609  0.415379  0.415379  1
  Hg  Hg18  1  0.414157  0.414362  0.757420  1
  Hg  Hg19  1  0.414157  0.757420  0.414362  1
  Rh  Rh20  1  0.856782  0.428237  0.857459  1
  Rh  Rh21  1  0.857196  0.857182  0.857182  1
  Rh  Rh22  1  0.856782  0.857459  0.428237  1
  Rh  Rh23  1  0.428415  0.856915  0.856915  1
