# generated using pymatgen
data_Y12AlNi4Pd
_symmetry_space_group_name_H-M   'P 1'
_cell_length_a   8.32365216
_cell_length_b   8.31366087
_cell_length_c   8.32365265
_cell_angle_alpha   111.90307783
_cell_angle_beta   109.97066158
_cell_angle_gamma   106.63147439
_symmetry_Int_Tables_number   1
_chemical_formula_structural   Y12AlNi4Pd
_chemical_formula_sum   'Y12 Al1 Ni4 Pd1'
_cell_volume   442.18551992
_cell_formula_units_Z   1
loop_
 _symmetry_equiv_pos_site_id
 _symmetry_equiv_pos_as_xyz
  1  'x, y, z'
loop_
 _atom_site_type_symbol
 _atom_site_label
 _atom_site_symmetry_multiplicity
 _atom_site_fract_x
 _atom_site_fract_y
 _atom_site_fract_z
 _atom_site_occupancy
  Y  Y0  1  0.415957  0.224308  0.191654  1
  Y  Y1  1  0.584043  0.775692  0.808346  1
  Y  Y2  1  0.032654  0.224308  0.808351  1
  Y  Y3  1  0.967346  0.775692  0.191649  1
  Y  Y4  1  0.182442  0.292357  0.474789  1
  Y  Y5  1  0.817558  0.707643  0.525211  1
  Y  Y6  1  0.182433  0.707643  0.890085  1
  Y  Y7  1  0.817567  0.292357  0.109915  1
  Y  Y8  1  0.324656  0.629817  0.305163  1
  Y  Y9  1  0.675344  0.370183  0.694837  1
  Y  Y10  1  0.324486  0.019312  0.694826  1
  Y  Y11  1  0.675514  0.980688  0.305174  1
  Al  Al12  1  0.500000  0.500000  0.000000  1
  Ni  Ni13  1  0.357147  0.000000  0.357147  1
  Ni  Ni14  1  0.642853  0.000000  0.642853  1
  Ni  Ni15  1  0.123905  0.623774  0.499869  1
  Ni  Ni16  1  0.876095  0.376226  0.500131  1
  Pd  Pd17  1  0.000000  0.000000  0.000000  1
