# generated using pymatgen
data_Er4Tm8GaCo5
_symmetry_space_group_name_H-M   'P 1'
_cell_length_a   8.11588596
_cell_length_b   8.11588673
_cell_length_c   8.11588618
_cell_angle_alpha   110.87919724
_cell_angle_beta   110.81521578
_cell_angle_gamma   106.75297554
_symmetry_Int_Tables_number   1
_chemical_formula_structural   Er4Tm8GaCo5
_chemical_formula_sum   'Er4 Tm8 Ga1 Co5'
_cell_volume   410.82464021
_cell_formula_units_Z   1
loop_
 _symmetry_equiv_pos_site_id
 _symmetry_equiv_pos_as_xyz
  1  'x, y, z'
loop_
 _atom_site_type_symbol
 _atom_site_label
 _atom_site_symmetry_multiplicity
 _atom_site_fract_x
 _atom_site_fract_y
 _atom_site_fract_z
 _atom_site_occupancy
  Er  Er0  1  0.287410  0.185551  0.472961  1
  Er  Er1  1  0.712590  0.814449  0.527039  1
  Er  Er2  1  0.287410  0.814449  0.101858  1
  Er  Er3  1  0.712590  0.185551  0.898142  1
  Tm  Tm4  1  0.619268  0.316269  0.302998  1
  Tm  Tm5  1  0.380732  0.683731  0.697002  1
  Tm  Tm6  1  0.013271  0.316269  0.697002  1
  Tm  Tm7  1  0.986729  0.683731  0.302998  1
  Tm  Tm8  1  0.217192  0.408571  0.191380  1
  Tm  Tm9  1  0.782808  0.591429  0.808620  1
  Tm  Tm10  1  0.217192  0.025812  0.808620  1
  Tm  Tm11  1  0.782808  0.974188  0.191380  1
  Ga  Ga12  1  0.500000  0.500000  0.000000  1
  Co  Co13  1  0.000000  0.374938  0.374938  1
  Co  Co14  1  0.000000  0.625062  0.625062  1
  Co  Co15  1  0.385901  0.885901  0.500000  1
  Co  Co16  1  0.614099  0.114099  0.500000  1
  Co  Co17  1  0.000000  0.000000  0.000000  1
