# generated using pymatgen
data_Ce2As4IrRh3
_symmetry_space_group_name_H-M   'P 1'
_cell_length_a   4.30950200
_cell_length_b   4.30950200
_cell_length_c   9.93249100
_cell_angle_alpha   90.00000000
_cell_angle_beta   90.00000000
_cell_angle_gamma   90.00000000
_symmetry_Int_Tables_number   1
_chemical_formula_structural   Ce2As4IrRh3
_chemical_formula_sum   'Ce2 As4 Ir1 Rh3'
_cell_volume   184.46431073
_cell_formula_units_Z   1
loop_
 _symmetry_equiv_pos_site_id
 _symmetry_equiv_pos_as_xyz
  1  'x, y, z'
loop_
 _atom_site_type_symbol
 _atom_site_label
 _atom_site_symmetry_multiplicity
 _atom_site_fract_x
 _atom_site_fract_y
 _atom_site_fract_z
 _atom_site_occupancy
  Ce  Ce0  1  0.000000  0.500000  0.252706  1
  Ce  Ce1  1  0.500000  0.000000  0.747296  1
  As  As2  1  0.000000  0.000000  0.498737  1
  As  As3  1  0.500000  0.500000  0.498737  1
  As  As4  1  0.000000  0.500000  0.864035  1
  As  As5  1  0.500000  0.000000  0.136997  1
  Ir  Ir6  1  0.000000  0.500000  0.619858  1
  Rh  Rh7  1  0.000000  0.000000  0.000326  1
  Rh  Rh8  1  0.500000  0.500000  0.000326  1
  Rh  Rh9  1  0.500000  0.000000  0.380981  1
