# generated using pymatgen
data_Sr20Cd3IrAu8
_symmetry_space_group_name_H-M   'P 1'
_cell_length_a   8.48606904
_cell_length_b   8.47932097
_cell_length_c   15.74586244
_cell_angle_alpha   89.91975554
_cell_angle_beta   89.96881637
_cell_angle_gamma   90.51238192
_symmetry_Int_Tables_number   1
_chemical_formula_structural   Sr20Cd3IrAu8
_chemical_formula_sum   'Sr20 Cd3 Ir1 Au8'
_cell_volume   1132.96431104
_cell_formula_units_Z   1
loop_
 _symmetry_equiv_pos_site_id
 _symmetry_equiv_pos_as_xyz
  1  'x, y, z'
loop_
 _atom_site_type_symbol
 _atom_site_label
 _atom_site_symmetry_multiplicity
 _atom_site_fract_x
 _atom_site_fract_y
 _atom_site_fract_z
 _atom_site_occupancy
  Sr  Sr0  1  0.000070  0.999404  0.755978  1
  Sr  Sr1  1  0.503483  0.492870  0.251019  1
  Sr  Sr2  1  0.992560  0.003581  0.244222  1
  Sr  Sr3  1  0.499409  0.500072  0.749089  1
  Sr  Sr4  1  0.174170  0.660666  0.110477  1
  Sr  Sr5  1  0.669431  0.167415  0.611838  1
  Sr  Sr6  1  0.815381  0.328225  0.113932  1
  Sr  Sr7  1  0.331808  0.834187  0.611085  1
  Sr  Sr8  1  0.350444  0.174090  0.112926  1
  Sr  Sr9  1  0.832378  0.669364  0.608912  1
  Sr  Sr10  1  0.662084  0.838714  0.113050  1
  Sr  Sr11  1  0.167124  0.330254  0.608957  1
  Sr  Sr12  1  0.339392  0.824752  0.893264  1
  Sr  Sr13  1  0.823187  0.320581  0.382010  1
  Sr  Sr14  1  0.661960  0.175849  0.892476  1
  Sr  Sr15  1  0.165068  0.667031  0.385720  1
  Sr  Sr16  1  0.176247  0.337354  0.895580  1
  Sr  Sr17  1  0.668224  0.845815  0.382766  1
  Sr  Sr18  1  0.823116  0.661310  0.895910  1
  Sr  Sr19  1  0.343163  0.165909  0.383164  1
  Cd  Cd20  1  0.002073  0.999432  0.499184  1
  Cd  Cd21  1  0.002194  0.999011  0.000790  1
  Cd  Cd22  1  0.499669  0.502149  0.499200  1
  Ir  Ir23  1  0.625249  0.125921  0.247788  1
  Au  Au24  1  0.126605  0.626435  0.751786  1
  Au  Au25  1  0.873880  0.374019  0.751907  1
  Au  Au26  1  0.374280  0.875433  0.248111  1
  Au  Au27  1  0.371264  0.128762  0.751885  1
  Au  Au28  1  0.871904  0.628768  0.248009  1
  Au  Au29  1  0.127895  0.370991  0.248141  1
  Au  Au30  1  0.629074  0.871267  0.751941  1
  Au  Au31  1  0.497214  0.500372  0.998884  1
