# generated using pymatgen
data_Li2Cr3AsO8
_symmetry_space_group_name_H-M   'P 1'
_cell_length_a   5.96882059
_cell_length_b   10.19089375
_cell_length_c   5.96881201
_cell_angle_alpha   72.96661850
_cell_angle_beta   59.99640140
_cell_angle_gamma   72.96678731
_symmetry_Int_Tables_number   1
_chemical_formula_structural   Li2Cr3AsO8
_chemical_formula_sum   'Li4 Cr6 As2 O16'
_cell_volume   295.88386926
_cell_formula_units_Z   2
loop_
 _symmetry_equiv_pos_site_id
 _symmetry_equiv_pos_as_xyz
  1  'x, y, z'
loop_
 _atom_site_type_symbol
 _atom_site_label
 _atom_site_symmetry_multiplicity
 _atom_site_fract_x
 _atom_site_fract_y
 _atom_site_fract_z
 _atom_site_occupancy
  Li  Li0  1  0.433604  0.699145  0.433649  1
  Li  Li1  1  0.933613  0.199135  0.933632  1
  Li  Li2  1  0.066354  0.800938  0.066347  1
  Li  Li3  1  0.566313  0.300944  0.566371  1
  Cr  Cr4  1  0.500154  0.999995  0.499876  1
  Cr  Cr5  1  0.499967  0.000008  0.999971  1
  Cr  Cr6  1  0.499771  0.500120  0.000100  1
  Cr  Cr7  1  0.000214  0.499913  0.999839  1
  Cr  Cr8  1  0.999719  0.499915  0.500105  1
  Cr  Cr9  1  0.000072  0.000031  0.499925  1
  As  As10  1  0.250105  0.249989  0.250044  1
  As  As11  1  0.750111  0.749985  0.750050  1
  O  O12  1  0.368000  0.896260  0.367804  1
  O  O13  1  0.867618  0.396226  0.868075  1
  O  O14  1  0.131736  0.603780  0.132199  1
  O  O15  1  0.632112  0.103816  0.631930  1
  O  O16  1  0.580358  0.129833  0.144914  1
  O  O17  1  0.080284  0.629792  0.644887  1
  O  O18  1  0.145038  0.129841  0.580293  1
  O  O19  1  0.644966  0.629878  0.080288  1
  O  O20  1  0.145062  0.129871  0.144917  1
  O  O21  1  0.644849  0.629841  0.645046  1
  O  O22  1  0.354955  0.370109  0.355158  1
  O  O23  1  0.855185  0.870135  0.855022  1
  O  O24  1  0.355118  0.370170  0.919726  1
  O  O25  1  0.855197  0.870128  0.419721  1
  O  O26  1  0.919725  0.370083  0.355032  1
  O  O27  1  0.419799  0.870118  0.855075  1
