# generated using pymatgen
data_PrBi(OF)2
_symmetry_space_group_name_H-M   'P 1'
_cell_length_a   4.03512700
_cell_length_b   4.03512700
_cell_length_c   5.87109900
_cell_angle_alpha   90.00000000
_cell_angle_beta   90.00000000
_cell_angle_gamma   90.00000000
_symmetry_Int_Tables_number   1
_chemical_formula_structural   PrBi(OF)2
_chemical_formula_sum   'Pr1 Bi1 O2 F2'
_cell_volume   95.59470114
_cell_formula_units_Z   1
loop_
 _symmetry_equiv_pos_site_id
 _symmetry_equiv_pos_as_xyz
  1  'x, y, z'
loop_
 _atom_site_type_symbol
 _atom_site_label
 _atom_site_symmetry_multiplicity
 _atom_site_fract_x
 _atom_site_fract_y
 _atom_site_fract_z
 _atom_site_occupancy
  Pr  Pr0  1  0.000000  0.500000  0.733572  1
  Bi  Bi1  1  0.500000  0.000000  0.305627  1
  O  O2  1  0.000000  0.000000  0.498719  1
  O  O3  1  0.500000  0.500000  0.498719  1
  F  F4  1  0.000000  0.000000  0.981682  1
  F  F5  1  0.500000  0.500000  0.981682  1
