# generated using pymatgen
data_NdDy3(Lu3Pt4)2
_symmetry_space_group_name_H-M   'P 1'
_cell_length_a   7.43358700
_cell_length_b   7.49992225
_cell_length_c   14.53912600
_cell_angle_alpha   90.04435504
_cell_angle_beta   90.00000000
_cell_angle_gamma   90.00000000
_symmetry_Int_Tables_number   1
_chemical_formula_structural   NdDy3(Lu3Pt4)2
_chemical_formula_sum   'Nd2 Dy6 Lu12 Pt16'
_cell_volume   810.57528896
_cell_formula_units_Z   2
loop_
 _symmetry_equiv_pos_site_id
 _symmetry_equiv_pos_as_xyz
  1  'x, y, z'
loop_
 _atom_site_type_symbol
 _atom_site_label
 _atom_site_symmetry_multiplicity
 _atom_site_fract_x
 _atom_site_fract_y
 _atom_site_fract_z
 _atom_site_occupancy
  Nd  Nd0  1  0.500009  0.675491  0.591542  1
  Nd  Nd1  1  0.000009  0.824509  0.908458  1
  Dy  Dy2  1  0.499596  0.322241  0.093841  1
  Dy  Dy3  1  0.999596  0.177759  0.406159  1
  Dy  Dy4  1  0.499325  0.319152  0.404428  1
  Dy  Dy5  1  0.999325  0.180848  0.095572  1
  Dy  Dy6  1  0.501050  0.675593  0.905636  1
  Dy  Dy7  1  0.001050  0.824407  0.594364  1
  Lu  Lu8  1  0.656108  0.166381  0.621543  1
  Lu  Lu9  1  0.156108  0.333619  0.878457  1
  Lu  Lu10  1  0.344759  0.832256  0.122201  1
  Lu  Lu11  1  0.844759  0.667744  0.377799  1
  Lu  Lu12  1  0.340643  0.835018  0.376148  1
  Lu  Lu13  1  0.840643  0.664982  0.123852  1
  Lu  Lu14  1  0.655297  0.166334  0.877639  1
  Lu  Lu15  1  0.155297  0.333666  0.622361  1
  Lu  Lu16  1  0.820104  0.507443  0.749978  1
  Lu  Lu17  1  0.320104  0.992557  0.750022  1
  Lu  Lu18  1  0.180148  0.492372  0.249974  1
  Lu  Lu19  1  0.680148  0.007628  0.250026  1
  Pt  Pt20  1  0.682064  0.968470  0.455719  1
  Pt  Pt21  1  0.182064  0.531530  0.044281  1
  Pt  Pt22  1  0.324138  0.039666  0.959381  1
  Pt  Pt23  1  0.824138  0.460334  0.540619  1
  Pt  Pt24  1  0.315474  0.040892  0.539283  1
  Pt  Pt25  1  0.815474  0.459108  0.960717  1
  Pt  Pt26  1  0.682028  0.968092  0.045009  1
  Pt  Pt27  1  0.182028  0.531908  0.454991  1
  Pt  Pt28  1  0.454127  0.376497  0.751034  1
  Pt  Pt29  1  0.954127  0.123503  0.748966  1
  Pt  Pt30  1  0.545282  0.619941  0.250721  1
  Pt  Pt31  1  0.045282  0.880059  0.249279  1
  Pt  Pt32  1  0.685023  0.859421  0.750916  1
  Pt  Pt33  1  0.185023  0.640579  0.749084  1
  Pt  Pt34  1  0.314824  0.142067  0.249093  1
  Pt  Pt35  1  0.814824  0.357933  0.250907  1
