# generated using pymatgen
data_Pm5Rh2
_symmetry_space_group_name_H-M   'P 1'
_cell_length_a   6.44508385
_cell_length_b   6.45086929
_cell_length_c   8.62608100
_cell_angle_alpha   111.68630213
_cell_angle_beta   111.71805715
_cell_angle_gamma   36.69670617
_symmetry_Int_Tables_number   1
_chemical_formula_structural   Pm5Rh2
_chemical_formula_sum   'Pm5 Rh2'
_cell_volume   197.38309579
_cell_formula_units_Z   1
loop_
 _symmetry_equiv_pos_site_id
 _symmetry_equiv_pos_as_xyz
  1  'x, y, z'
loop_
 _atom_site_type_symbol
 _atom_site_label
 _atom_site_symmetry_multiplicity
 _atom_site_fract_x
 _atom_site_fract_y
 _atom_site_fract_z
 _atom_site_occupancy
  Pm  Pm0  1  0.839904  0.460089  0.857012  1
  Pm  Pm1  1  0.176128  0.796230  0.481928  1
  Pm  Pm2  1  0.507924  0.128244  0.669474  1
  Pm  Pm3  1  0.390532  0.010133  0.237540  1
  Pm  Pm4  1  0.625604  0.246185  0.101438  1
  Rh  Rh5  1  0.182412  0.802339  0.903081  1
  Rh  Rh6  1  0.833650  0.454024  0.435788  1
