# generated using pymatgen
data_Be8V2IrOs
_symmetry_space_group_name_H-M   'P 1'
_cell_length_a   4.31616400
_cell_length_b   4.31616479
_cell_length_c   7.06648400
_cell_angle_alpha   90.00000000
_cell_angle_beta   90.00000000
_cell_angle_gamma   120.00000931
_symmetry_Int_Tables_number   1
_chemical_formula_structural   Be8V2IrOs
_chemical_formula_sum   'Be8 V2 Ir1 Os1'
_cell_volume   114.00658217
_cell_formula_units_Z   1
loop_
 _symmetry_equiv_pos_site_id
 _symmetry_equiv_pos_as_xyz
  1  'x, y, z'
loop_
 _atom_site_type_symbol
 _atom_site_label
 _atom_site_symmetry_multiplicity
 _atom_site_fract_x
 _atom_site_fract_y
 _atom_site_fract_z
 _atom_site_occupancy
  Be  Be0  1  0.000000  0.000000  0.996408  1
  Be  Be1  1  0.000000  0.000000  0.498444  1
  Be  Be2  1  0.831607  0.663213  0.249994  1
  Be  Be3  1  0.169398  0.830602  0.750139  1
  Be  Be4  1  0.661205  0.830602  0.750139  1
  Be  Be5  1  0.336787  0.168393  0.249994  1
  Be  Be6  1  0.831607  0.168393  0.249994  1
  Be  Be7  1  0.169398  0.338795  0.750139  1
  V  V8  1  0.666667  0.333333  0.941735  1
  V  V9  1  0.333333  0.666667  0.436479  1
  Ir  Ir10  1  0.666667  0.333333  0.563423  1
  Os  Os11  1  0.333333  0.666667  0.063109  1
