# generated using pymatgen
data_KEr2CuS4
_symmetry_space_group_name_H-M   'P 1'
_cell_length_a   3.92798600
_cell_length_b   6.98312807
_cell_length_c   13.70329300
_cell_angle_alpha   90.00000000
_cell_angle_beta   90.00000000
_cell_angle_gamma   73.66526929
_symmetry_Int_Tables_number   1
_chemical_formula_structural   KEr2CuS4
_chemical_formula_sum   'K2 Er4 Cu2 S8'
_cell_volume   360.70399672
_cell_formula_units_Z   2
loop_
 _symmetry_equiv_pos_site_id
 _symmetry_equiv_pos_as_xyz
  1  'x, y, z'
loop_
 _atom_site_type_symbol
 _atom_site_label
 _atom_site_symmetry_multiplicity
 _atom_site_fract_x
 _atom_site_fract_y
 _atom_site_fract_z
 _atom_site_occupancy
  K  K0  1  0.890354  0.219295  0.250000  1
  K  K1  1  0.109646  0.780705  0.750000  1
  Er  Er2  1  0.634475  0.731051  0.063689  1
  Er  Er3  1  0.634475  0.731051  0.436312  1
  Er  Er4  1  0.365525  0.268949  0.563688  1
  Er  Er5  1  0.365525  0.268949  0.936311  1
  Cu  Cu6  1  0.162663  0.674671  0.250000  1
  Cu  Cu7  1  0.837337  0.325328  0.750000  1
  S  S8  1  0.000000  0.000000  0.000000  1
  S  S9  1  0.262676  0.474648  0.109875  1
  S  S10  1  0.568925  0.862152  0.250000  1
  S  S11  1  0.262676  0.474648  0.390126  1
  S  S12  1  0.000000  0.000000  0.500000  1
  S  S13  1  0.737324  0.525353  0.609874  1
  S  S14  1  0.431075  0.137847  0.750000  1
  S  S15  1  0.737324  0.525353  0.890125  1
