# generated using pymatgen
data_Y8TcRuBr8
_symmetry_space_group_name_H-M   'P 1'
_cell_length_a   9.00877382
_cell_length_b   9.00877302
_cell_length_c   6.61137209
_cell_angle_alpha   89.49354939
_cell_angle_beta   89.49354946
_cell_angle_gamma   89.38094560
_symmetry_Int_Tables_number   1
_chemical_formula_structural   Y8TcRuBr8
_chemical_formula_sum   'Y8 Tc1 Ru1 Br8'
_cell_volume   536.49293447
_cell_formula_units_Z   1
loop_
 _symmetry_equiv_pos_site_id
 _symmetry_equiv_pos_as_xyz
  1  'x, y, z'
loop_
 _atom_site_type_symbol
 _atom_site_label
 _atom_site_symmetry_multiplicity
 _atom_site_fract_x
 _atom_site_fract_y
 _atom_site_fract_z
 _atom_site_occupancy
  Y  Y0  1  0.750119  0.099445  0.990532  1
  Y  Y1  1  0.099123  0.750836  0.488860  1
  Y  Y2  1  0.097485  0.248276  0.992651  1
  Y  Y3  1  0.248304  0.097489  0.490816  1
  Y  Y4  1  0.902511  0.751696  0.009184  1
  Y  Y5  1  0.900555  0.249881  0.509468  1
  Y  Y6  1  0.249164  0.900877  0.011140  1
  Y  Y7  1  0.751724  0.902515  0.507349  1
  Tc  Tc8  1  0.994689  0.005311  0.250000  1
  Ru  Ru9  1  0.005597  0.994403  0.750000  1
  Br  Br10  1  0.580658  0.182811  0.592206  1
  Br  Br11  1  0.810399  0.584935  0.406015  1
  Br  Br12  1  0.415065  0.189601  0.093985  1
  Br  Br13  1  0.189649  0.414739  0.594288  1
  Br  Br14  1  0.585261  0.810351  0.905712  1
  Br  Br15  1  0.419598  0.817092  0.408402  1
  Br  Br16  1  0.182908  0.580402  0.091598  1
  Br  Br17  1  0.817189  0.419342  0.907794  1
