# generated using pymatgen
data_Ca8Ga3Si12Rh
_symmetry_space_group_name_H-M   'P 1'
_cell_length_a   8.18269400
_cell_length_b   8.18269361
_cell_length_c   8.74422700
_cell_angle_alpha   90.00000000
_cell_angle_beta   90.00000000
_cell_angle_gamma   119.99999350
_symmetry_Int_Tables_number   1
_chemical_formula_structural   Ca8Ga3Si12Rh
_chemical_formula_sum   'Ca8 Ga3 Si12 Rh1'
_cell_volume   507.04287447
_cell_formula_units_Z   1
loop_
 _symmetry_equiv_pos_site_id
 _symmetry_equiv_pos_as_xyz
  1  'x, y, z'
loop_
 _atom_site_type_symbol
 _atom_site_label
 _atom_site_symmetry_multiplicity
 _atom_site_fract_x
 _atom_site_fract_y
 _atom_site_fract_z
 _atom_site_occupancy
  Ca  Ca0  1  0.000000  0.000000  0.751884  1
  Ca  Ca1  1  0.000000  0.000000  0.248368  1
  Ca  Ca2  1  0.496638  0.503362  0.755078  1
  Ca  Ca3  1  0.496638  0.993277  0.755078  1
  Ca  Ca4  1  0.006723  0.503362  0.755078  1
  Ca  Ca5  1  0.498076  0.501924  0.244936  1
  Ca  Ca6  1  0.003848  0.501924  0.244936  1
  Ca  Ca7  1  0.498076  0.996152  0.244936  1
  Ga  Ga8  1  0.666667  0.333333  0.996889  1
  Ga  Ga9  1  0.666667  0.333333  0.503715  1
  Ga  Ga10  1  0.333333  0.666667  0.496059  1
  Si  Si11  1  0.841271  0.158729  0.999828  1
  Si  Si12  1  0.841271  0.682544  0.999828  1
  Si  Si13  1  0.317456  0.158729  0.999828  1
  Si  Si14  1  0.835703  0.164297  0.500266  1
  Si  Si15  1  0.835703  0.671407  0.500266  1
  Si  Si16  1  0.328593  0.164297  0.500266  1
  Si  Si17  1  0.164607  0.835393  0.499859  1
  Si  Si18  1  0.670786  0.835393  0.499859  1
  Si  Si19  1  0.164607  0.329214  0.499859  1
  Si  Si20  1  0.172018  0.827982  0.000808  1
  Si  Si21  1  0.655965  0.827982  0.000808  1
  Si  Si22  1  0.172018  0.344035  0.000808  1
  Rh  Rh23  1  0.333333  0.666667  0.000760  1
