# generated using pymatgen
data_La3Gd(SeO3)6
_symmetry_space_group_name_H-M   'P 1'
_cell_length_a   7.39370249
_cell_length_b   8.43695048
_cell_length_c   9.42115858
_cell_angle_alpha   70.78973094
_cell_angle_beta   70.21052441
_cell_angle_gamma   66.28686497
_symmetry_Int_Tables_number   1
_chemical_formula_structural   La3Gd(SeO3)6
_chemical_formula_sum   'La3 Gd1 Se6 O18'
_cell_volume   493.44629069
_cell_formula_units_Z   1
loop_
 _symmetry_equiv_pos_site_id
 _symmetry_equiv_pos_as_xyz
  1  'x, y, z'
loop_
 _atom_site_type_symbol
 _atom_site_label
 _atom_site_symmetry_multiplicity
 _atom_site_fract_x
 _atom_site_fract_y
 _atom_site_fract_z
 _atom_site_occupancy
  La  La0  1  0.260137  0.267729  0.195091  1
  La  La1  1  0.335002  0.728820  0.589732  1
  La  La2  1  0.668420  0.265480  0.412044  1
  Gd  Gd3  1  0.739126  0.737120  0.804255  1
  Se  Se4  1  0.111876  0.241561  0.582943  1
  Se  Se5  1  0.428601  0.772435  0.196686  1
  Se  Se6  1  0.150513  0.757199  0.960559  1
  Se  Se7  1  0.847620  0.255785  0.031509  1
  Se  Se8  1  0.575086  0.218524  0.802154  1
  Se  Se9  1  0.886430  0.755009  0.425324  1
  O  O10  1  0.153187  0.021648  0.653553  1
  O  O11  1  0.166444  0.579751  0.113909  1
  O  O12  1  0.024407  0.708925  0.561225  1
  O  O13  1  0.337700  0.249903  0.443452  1
  O  O14  1  0.059985  0.703538  0.839269  1
  O  O15  1  0.599770  0.286869  0.143832  1
  O  O16  1  0.358773  0.205095  0.939281  1
  O  O17  1  0.367872  0.936038  0.295820  1
  O  O18  1  0.517492  0.594535  0.343893  1
  O  O19  1  0.490835  0.397252  0.654054  1
  O  O20  1  0.641219  0.052622  0.703757  1
  O  O21  1  0.639849  0.788895  0.052458  1
  O  O22  1  0.401703  0.715732  0.850827  1
  O  O23  1  0.933639  0.303172  0.158432  1
  O  O24  1  0.660846  0.751934  0.567022  1
  O  O25  1  0.969567  0.292123  0.448711  1
  O  O26  1  0.825208  0.438579  0.883338  1
  O  O27  1  0.848695  0.973726  0.346871  1
