# generated using pymatgen
data_CoTcNi7S8
_symmetry_space_group_name_H-M   'P 1'
_cell_length_a   7.05891041
_cell_length_b   7.05890906
_cell_length_c   7.05890942
_cell_angle_alpha   59.63340355
_cell_angle_beta   59.63340641
_cell_angle_gamma   59.63340159
_symmetry_Int_Tables_number   1
_chemical_formula_structural   CoTcNi7S8
_chemical_formula_sum   'Co1 Tc1 Ni7 S8'
_cell_volume   246.64072026
_cell_formula_units_Z   1
loop_
 _symmetry_equiv_pos_site_id
 _symmetry_equiv_pos_as_xyz
  1  'x, y, z'
loop_
 _atom_site_type_symbol
 _atom_site_label
 _atom_site_symmetry_multiplicity
 _atom_site_fract_x
 _atom_site_fract_y
 _atom_site_fract_z
 _atom_site_occupancy
  Co  Co0  1  0.875852  0.875852  0.875852  1
  Tc  Tc1  1  0.498939  0.498939  0.498939  1
  Ni  Ni2  1  0.622332  0.125992  0.125992  1
  Ni  Ni3  1  0.125992  0.622332  0.125992  1
  Ni  Ni4  1  0.125992  0.125992  0.622332  1
  Ni  Ni5  1  0.125956  0.125956  0.125956  1
  Ni  Ni6  1  0.380006  0.873025  0.873025  1
  Ni  Ni7  1  0.873025  0.380006  0.873025  1
  Ni  Ni8  1  0.873025  0.873025  0.380006  1
  S  S9  1  0.249622  0.249622  0.249622  1
  S  S10  1  0.754174  0.754174  0.754174  1
  S  S11  1  0.737620  0.261102  0.261102  1
  S  S12  1  0.739054  0.257154  0.739054  1
  S  S13  1  0.739054  0.739054  0.257154  1
  S  S14  1  0.257154  0.739054  0.739054  1
  S  S15  1  0.261102  0.737620  0.261102  1
  S  S16  1  0.261102  0.261102  0.737620  1
