# generated using pymatgen
data_YTm(OsO4)2
_symmetry_space_group_name_H-M   'P 1'
_cell_length_a   5.33852583
_cell_length_b   7.70737299
_cell_length_c   7.43429248
_cell_angle_alpha   79.49751366
_cell_angle_beta   91.35201083
_cell_angle_gamma   94.30503681
_symmetry_Int_Tables_number   1
_chemical_formula_structural   YTm(OsO4)2
_chemical_formula_sum   'Y2 Tm2 Os4 O16'
_cell_volume   299.90294253
_cell_formula_units_Z   2
loop_
 _symmetry_equiv_pos_site_id
 _symmetry_equiv_pos_as_xyz
  1  'x, y, z'
loop_
 _atom_site_type_symbol
 _atom_site_label
 _atom_site_symmetry_multiplicity
 _atom_site_fract_x
 _atom_site_fract_y
 _atom_site_fract_z
 _atom_site_occupancy
  Y  Y0  1  0.196919  0.168669  0.100953  1
  Y  Y1  1  0.803155  0.831568  0.899101  1
  Tm  Tm2  1  0.261271  0.109062  0.610998  1
  Tm  Tm3  1  0.738868  0.890766  0.389076  1
  Os  Os4  1  0.247176  0.663121  0.208699  1
  Os  Os5  1  0.752810  0.336877  0.791299  1
  Os  Os6  1  0.715638  0.334753  0.301082  1
  Os  Os7  1  0.284236  0.665195  0.698918  1
  O  O8  1  0.048456  0.472659  0.714326  1
  O  O9  1  0.951396  0.527247  0.285774  1
  O  O10  1  0.610151  0.326372  0.548966  1
  O  O11  1  0.389804  0.673559  0.450932  1
  O  O12  1  0.845751  0.316298  0.054606  1
  O  O13  1  0.154168  0.683868  0.945449  1
  O  O14  1  0.413009  0.442798  0.194665  1
  O  O15  1  0.587148  0.557127  0.805274  1
  O  O16  1  0.046306  0.885214  0.182835  1
  O  O17  1  0.953742  0.114794  0.817015  1
  O  O18  1  0.491191  0.108630  0.325055  1
  O  O19  1  0.508890  0.891325  0.674995  1
  O  O20  1  0.450650  0.193351  0.865068  1
  O  O21  1  0.549476  0.806613  0.135008  1
  O  O22  1  0.978330  0.162487  0.385454  1
  O  O23  1  0.021457  0.837648  0.614452  1
