# generated using pymatgen
data_K3Cu2AgP2
_symmetry_space_group_name_H-M   'P 1'
_cell_length_a   7.49614693
_cell_length_b   7.56704887
_cell_length_c   7.56704875
_cell_angle_alpha   44.84105233
_cell_angle_beta   46.09461574
_cell_angle_gamma   46.09461684
_symmetry_Int_Tables_number   1
_chemical_formula_structural   K3Cu2AgP2
_chemical_formula_sum   'K3 Cu2 Ag1 P2'
_cell_volume   200.13643556
_cell_formula_units_Z   1
loop_
 _symmetry_equiv_pos_site_id
 _symmetry_equiv_pos_as_xyz
  1  'x, y, z'
loop_
 _atom_site_type_symbol
 _atom_site_label
 _atom_site_symmetry_multiplicity
 _atom_site_fract_x
 _atom_site_fract_y
 _atom_site_fract_z
 _atom_site_occupancy
  K  K0  1  0.915500  0.903242  0.903242  1
  K  K1  1  0.500000  0.500000  0.500000  1
  K  K2  1  0.084500  0.096758  0.096758  1
  Cu  Cu3  1  0.500000  0.500000  0.000000  1
  Cu  Cu4  1  0.500000  0.000000  0.500000  1
  Ag  Ag5  1  0.000000  0.500000  0.500000  1
  P  P6  1  0.281926  0.240650  0.240650  1
  P  P7  1  0.718074  0.759350  0.759350  1
