# generated using pymatgen
data_Ca3Sn5Pd6
_symmetry_space_group_name_H-M   'P 1'
_cell_length_a   8.50138067
_cell_length_b   8.50138083
_cell_length_c   8.50138037
_cell_angle_alpha   147.60366391
_cell_angle_beta   109.98944235
_cell_angle_gamma   79.26836519
_symmetry_Int_Tables_number   1
_chemical_formula_structural   Ca3Sn5Pd6
_chemical_formula_sum   'Ca3 Sn5 Pd6'
_cell_volume   302.89004840
_cell_formula_units_Z   1
loop_
 _symmetry_equiv_pos_site_id
 _symmetry_equiv_pos_as_xyz
  1  'x, y, z'
loop_
 _atom_site_type_symbol
 _atom_site_label
 _atom_site_symmetry_multiplicity
 _atom_site_fract_x
 _atom_site_fract_y
 _atom_site_fract_z
 _atom_site_occupancy
  Ca  Ca0  1  0.000000  0.000000  0.000000  1
  Ca  Ca1  1  0.694532  0.694532  0.000000  1
  Ca  Ca2  1  0.305468  0.305468  0.000000  1
  Sn  Sn3  1  0.324071  0.666980  0.657091  1
  Sn  Sn4  1  0.500000  0.000000  0.500000  1
  Sn  Sn5  1  0.675929  0.333020  0.342909  1
  Sn  Sn6  1  0.990111  0.333020  0.657091  1
  Sn  Sn7  1  0.009889  0.666980  0.342909  1
  Pd  Pd8  1  0.335288  0.500000  0.835288  1
  Pd  Pd9  1  0.664712  0.500000  0.164712  1
  Pd  Pd10  1  0.396039  0.123808  0.272230  1
  Pd  Pd11  1  0.851577  0.123808  0.727770  1
  Pd  Pd12  1  0.148423  0.876192  0.272230  1
  Pd  Pd13  1  0.603961  0.876192  0.727770  1
