# generated using pymatgen
data_Tb7NdIn3Os
_symmetry_space_group_name_H-M   'P 1'
_cell_length_a   10.44126000
_cell_length_b   10.44126051
_cell_length_c   7.12436700
_cell_angle_alpha   90.00000000
_cell_angle_beta   90.00000000
_cell_angle_gamma   119.99999837
_symmetry_Int_Tables_number   1
_chemical_formula_structural   Tb7NdIn3Os
_chemical_formula_sum   'Tb14 Nd2 In6 Os2'
_cell_volume   672.64011489
_cell_formula_units_Z   2
loop_
 _symmetry_equiv_pos_site_id
 _symmetry_equiv_pos_as_xyz
  1  'x, y, z'
loop_
 _atom_site_type_symbol
 _atom_site_label
 _atom_site_symmetry_multiplicity
 _atom_site_fract_x
 _atom_site_fract_y
 _atom_site_fract_z
 _atom_site_occupancy
  Tb  Tb0  1  0.465949  0.534051  0.480917  1
  Tb  Tb1  1  0.068101  0.534051  0.480917  1
  Tb  Tb2  1  0.465949  0.931899  0.480917  1
  Tb  Tb3  1  0.534051  0.465949  0.980917  1
  Tb  Tb4  1  0.931899  0.465949  0.980917  1
  Tb  Tb5  1  0.534051  0.068101  0.980917  1
  Tb  Tb6  1  0.822569  0.177431  0.275404  1
  Tb  Tb7  1  0.354862  0.177431  0.275404  1
  Tb  Tb8  1  0.822569  0.645138  0.275404  1
  Tb  Tb9  1  0.177431  0.822569  0.775404  1
  Tb  Tb10  1  0.645138  0.822569  0.775404  1
  Tb  Tb11  1  0.177431  0.354862  0.775404  1
  Tb  Tb12  1  0.333333  0.666667  0.104180  1
  Tb  Tb13  1  0.666667  0.333333  0.604180  1
  Nd  Nd14  1  0.000000  0.000000  0.495370  1
  Nd  Nd15  1  0.000000  0.000000  0.995370  1
  In  In16  1  0.163916  0.836084  0.232592  1
  In  In17  1  0.672166  0.836084  0.232592  1
  In  In18  1  0.163916  0.327834  0.232592  1
  In  In19  1  0.836084  0.163916  0.732592  1
  In  In20  1  0.327834  0.163916  0.732592  1
  In  In21  1  0.836084  0.672166  0.732592  1
  Os  Os22  1  0.333333  0.666667  0.705989  1
  Os  Os23  1  0.666667  0.333333  0.205989  1
