# generated using pymatgen
data_Dy9HoIn8CuPt3
_symmetry_space_group_name_H-M   'P 1'
_cell_length_a   3.62903200
_cell_length_b   8.14170726
_cell_length_c   18.20437567
_cell_angle_alpha   89.93812707
_cell_angle_beta   90.00000000
_cell_angle_gamma   90.00000000
_symmetry_Int_Tables_number   1
_chemical_formula_structural   Dy9HoIn8CuPt3
_chemical_formula_sum   'Dy9 Ho1 In8 Cu1 Pt3'
_cell_volume   537.87556637
_cell_formula_units_Z   1
loop_
 _symmetry_equiv_pos_site_id
 _symmetry_equiv_pos_as_xyz
  1  'x, y, z'
loop_
 _atom_site_type_symbol
 _atom_site_label
 _atom_site_symmetry_multiplicity
 _atom_site_fract_x
 _atom_site_fract_y
 _atom_site_fract_z
 _atom_site_occupancy
  Dy  Dy0  1  0.000000  0.117646  0.415138  1
  Dy  Dy1  1  0.000000  0.884305  0.583881  1
  Dy  Dy2  1  0.000000  0.383944  0.915803  1
  Dy  Dy3  1  0.000000  0.617545  0.084588  1
  Dy  Dy4  1  0.000000  0.246359  0.219878  1
  Dy  Dy5  1  0.000000  0.757187  0.779736  1
  Dy  Dy6  1  0.000000  0.257282  0.720246  1
  Dy  Dy7  1  0.000000  0.735260  0.280393  1
  Dy  Dy8  1  0.000000  0.999113  0.000529  1
  Ho  Ho9  1  0.000000  0.499380  0.499419  1
  In  In10  1  0.500000  0.419731  0.352136  1
  In  In11  1  0.500000  0.577306  0.647710  1
  In  In12  1  0.500000  0.076675  0.851683  1
  In  In13  1  0.500000  0.925130  0.151422  1
  In  In14  1  0.500000  0.291557  0.067019  1
  In  In15  1  0.500000  0.709015  0.933568  1
  In  In16  1  0.500000  0.209165  0.566161  1
  In  In17  1  0.500000  0.793490  0.431590  1
  Cu  Cu18  1  0.500000  0.023897  0.302052  1
  Pt  Pt19  1  0.500000  0.975057  0.696004  1
  Pt  Pt20  1  0.500000  0.475062  0.803537  1
  Pt  Pt21  1  0.500000  0.525895  0.197505  1
