# generated using pymatgen
data_Hf10Sn5Ge2Sb
_symmetry_space_group_name_H-M   'P 1'
_cell_length_a   8.62852758
_cell_length_b   8.63247126
_cell_length_c   5.84915600
_cell_angle_alpha   90.00000000
_cell_angle_beta   90.00000000
_cell_angle_gamma   120.01512221
_symmetry_Int_Tables_number   1
_chemical_formula_structural   Hf10Sn5Ge2Sb
_chemical_formula_sum   'Hf10 Sn5 Ge2 Sb1'
_cell_volume   377.25019252
_cell_formula_units_Z   1
loop_
 _symmetry_equiv_pos_site_id
 _symmetry_equiv_pos_as_xyz
  1  'x, y, z'
loop_
 _atom_site_type_symbol
 _atom_site_label
 _atom_site_symmetry_multiplicity
 _atom_site_fract_x
 _atom_site_fract_y
 _atom_site_fract_z
 _atom_site_occupancy
  Hf  Hf0  1  0.667575  0.333557  0.999608  1
  Hf  Hf1  1  0.332425  0.665984  0.999608  1
  Hf  Hf2  1  0.332425  0.665984  0.500392  1
  Hf  Hf3  1  0.667575  0.333557  0.500392  1
  Hf  Hf4  1  0.735419  0.734841  0.750000  1
  Hf  Hf5  1  0.264581  0.999422  0.750000  1
  Hf  Hf6  1  0.000000  0.265703  0.750000  1
  Hf  Hf7  1  0.264046  0.264349  0.250000  1
  Hf  Hf8  1  0.735954  0.000304  0.250000  1
  Hf  Hf9  1  0.000000  0.734926  0.250000  1
  Sn  Sn10  1  0.392594  0.392050  0.750000  1
  Sn  Sn11  1  0.607406  0.999457  0.750000  1
  Sn  Sn12  1  0.000000  0.608850  0.750000  1
  Sn  Sn13  1  0.607616  0.607578  0.250000  1
  Sn  Sn14  1  0.392384  0.999961  0.250000  1
  Ge  Ge15  1  0.000000  0.999778  0.500401  1
  Ge  Ge16  1  0.000000  0.999778  0.999599  1
  Sb  Sb17  1  0.000000  0.393919  0.250000  1
