# generated using pymatgen
data_Sm8SbPd5Pt19
_symmetry_space_group_name_H-M   'P 1'
_cell_length_a   8.48402926
_cell_length_b   8.52160400
_cell_length_c   8.51311626
_cell_angle_alpha   90.00000000
_cell_angle_beta   90.10032504
_cell_angle_gamma   90.00000000
_symmetry_Int_Tables_number   1
_chemical_formula_structural   Sm8SbPd5Pt19
_chemical_formula_sum   'Sm8 Sb1 Pd5 Pt19'
_cell_volume   615.47639961
_cell_formula_units_Z   1
loop_
 _symmetry_equiv_pos_site_id
 _symmetry_equiv_pos_as_xyz
  1  'x, y, z'
loop_
 _atom_site_type_symbol
 _atom_site_label
 _atom_site_symmetry_multiplicity
 _atom_site_fract_x
 _atom_site_fract_y
 _atom_site_fract_z
 _atom_site_occupancy
  Sm  Sm0  1  0.747888  0.747427  0.252506  1
  Sm  Sm1  1  0.747734  0.252676  0.747427  1
  Sm  Sm2  1  0.251637  0.748435  0.748419  1
  Sm  Sm3  1  0.747734  0.747324  0.747427  1
  Sm  Sm4  1  0.747888  0.252573  0.252506  1
  Sm  Sm5  1  0.251637  0.251565  0.748419  1
  Sm  Sm6  1  0.251669  0.748285  0.251694  1
  Sm  Sm7  1  0.251669  0.251715  0.251694  1
  Sb  Sb8  1  0.007257  0.000000  0.999285  1
  Pd  Pd9  1  0.499053  0.500000  0.255207  1
  Pd  Pd10  1  0.499143  0.255513  0.500218  1
  Pd  Pd11  1  0.499143  0.744487  0.500218  1
  Pd  Pd12  1  0.744706  0.500000  0.500319  1
  Pd  Pd13  1  0.691570  0.000000  0.000364  1
  Pt  Pt14  1  0.997847  0.000000  0.310206  1
  Pt  Pt15  1  0.731941  0.000000  0.499960  1
  Pt  Pt16  1  0.732016  0.500000  0.999783  1
  Pt  Pt17  1  0.500386  0.000000  0.732429  1
  Pt  Pt18  1  0.000338  0.733465  0.499926  1
  Pt  Pt19  1  0.500214  0.000000  0.267874  1
  Pt  Pt20  1  0.000338  0.266535  0.499926  1
  Pt  Pt21  1  0.500264  0.732541  0.999910  1
  Pt  Pt22  1  0.255487  0.500000  0.500532  1
  Pt  Pt23  1  0.498799  0.500000  0.744785  1
  Pt  Pt24  1  0.318630  0.000000  0.999976  1
  Pt  Pt25  1  0.998303  0.000000  0.688413  1
  Pt  Pt26  1  0.000491  0.500000  0.267007  1
  Pt  Pt27  1  0.998003  0.310509  0.000232  1
  Pt  Pt28  1  0.998003  0.689491  0.000232  1
  Pt  Pt29  1  0.264593  0.500000  0.999747  1
  Pt  Pt30  1  0.264904  0.000000  0.499797  1
  Pt  Pt31  1  0.000451  0.500000  0.733651  1
  Pt  Pt32  1  0.500264  0.267459  0.999910  1
