# generated using pymatgen
data_Ac15SmO24
_symmetry_space_group_name_H-M   'P 1'
_cell_length_a   10.21417311
_cell_length_b   10.21417313
_cell_length_c   11.79918300
_cell_angle_alpha   54.79839004
_cell_angle_beta   54.79838998
_cell_angle_gamma   70.59430234
_symmetry_Int_Tables_number   1
_chemical_formula_structural   Ac15SmO24
_chemical_formula_sum   'Ac15 Sm1 O24'
_cell_volume   821.93844498
_cell_formula_units_Z   1
loop_
 _symmetry_equiv_pos_site_id
 _symmetry_equiv_pos_as_xyz
  1  'x, y, z'
loop_
 _atom_site_type_symbol
 _atom_site_label
 _atom_site_symmetry_multiplicity
 _atom_site_fract_x
 _atom_site_fract_y
 _atom_site_fract_z
 _atom_site_occupancy
  Ac  Ac0  1  0.971438  0.028562  0.000000  1
  Ac  Ac1  1  0.000142  0.503604  0.748328  1
  Ac  Ac2  1  0.723911  0.220134  0.776038  1
  Ac  Ac3  1  0.779866  0.276089  0.223962  1
  Ac  Ac4  1  0.248362  0.245921  0.033506  1
  Ac  Ac5  1  0.247644  0.248966  0.528109  1
  Ac  Ac6  1  0.496396  0.999858  0.251672  1
  Ac  Ac7  1  0.999920  0.495377  0.254149  1
  Ac  Ac8  1  0.504623  0.000080  0.745851  1
  Ac  Ac9  1  0.527960  0.472040  0.500000  1
  Ac  Ac10  1  0.471497  0.528503  0.000000  1
  Ac  Ac11  1  0.751034  0.752356  0.471891  1
  Ac  Ac12  1  0.754079  0.751638  0.966494  1
  Ac  Ac13  1  0.221243  0.724508  0.278971  1
  Ac  Ac14  1  0.275492  0.778757  0.721029  1
  Sm  Sm15  1  0.031521  0.968479  0.500000  1
  O  O16  1  0.465340  0.238955  0.777037  1
  O  O17  1  0.035203  0.260169  0.982187  1
  O  O18  1  0.027961  0.737833  0.750178  1
  O  O19  1  0.730057  0.026267  0.260090  1
  O  O20  1  0.525131  0.231378  0.482183  1
  O  O21  1  0.228391  0.525027  0.983945  1
  O  O22  1  0.761045  0.534660  0.222963  1
  O  O23  1  0.739831  0.964797  0.017813  1
  O  O24  1  0.233499  0.990887  0.784319  1
  O  O25  1  0.990637  0.219207  0.298592  1
  O  O26  1  0.509296  0.266358  0.009140  1
  O  O27  1  0.266332  0.508987  0.509240  1
  O  O28  1  0.009113  0.766501  0.215681  1
  O  O29  1  0.491013  0.733668  0.490760  1
  O  O30  1  0.780793  0.009363  0.701408  1
  O  O31  1  0.733642  0.490704  0.990860  1
  O  O32  1  0.241642  0.465165  0.275588  1
  O  O33  1  0.245647  0.034041  0.483757  1
  O  O34  1  0.768622  0.474869  0.517817  1
  O  O35  1  0.474973  0.771609  0.016055  1
  O  O36  1  0.262167  0.972039  0.249822  1
  O  O37  1  0.973733  0.269943  0.739910  1
  O  O38  1  0.534835  0.758358  0.724412  1
  O  O39  1  0.965959  0.754353  0.516243  1
