# generated using pymatgen
data_Tb5Co19Si11B
_symmetry_space_group_name_H-M   'P 1'
_cell_length_a   12.11244611
_cell_length_b   12.11244534
_cell_length_c   3.72841600
_cell_angle_alpha   90.00000000
_cell_angle_beta   90.00000000
_cell_angle_gamma   120.18635204
_symmetry_Int_Tables_number   1
_chemical_formula_structural   Tb5Co19Si11B
_chemical_formula_sum   'Tb5 Co19 Si11 B1'
_cell_volume   472.82463411
_cell_formula_units_Z   1
loop_
 _symmetry_equiv_pos_site_id
 _symmetry_equiv_pos_as_xyz
  1  'x, y, z'
loop_
 _atom_site_type_symbol
 _atom_site_label
 _atom_site_symmetry_multiplicity
 _atom_site_fract_x
 _atom_site_fract_y
 _atom_site_fract_z
 _atom_site_occupancy
  Tb  Tb0  1  0.331187  0.661626  0.000000  1
  Tb  Tb1  1  0.661626  0.331187  0.000000  1
  Tb  Tb2  1  0.187767  0.008730  0.500000  1
  Tb  Tb3  1  0.008730  0.187767  0.500000  1
  Tb  Tb4  1  0.815273  0.815273  0.500000  1
  Co  Co5  1  0.194611  0.366790  0.000000  1
  Co  Co6  1  0.623854  0.820031  0.000000  1
  Co  Co7  1  0.180665  0.803122  0.000000  1
  Co  Co8  1  0.820031  0.623854  0.000000  1
  Co  Co9  1  0.803122  0.180665  0.000000  1
  Co  Co10  1  0.366790  0.194611  0.000000  1
  Co  Co11  1  0.559174  0.999704  0.000000  1
  Co  Co12  1  0.999704  0.559174  0.000000  1
  Co  Co13  1  0.437036  0.437036  0.000000  1
  Co  Co14  1  0.123135  0.477634  0.500000  1
  Co  Co15  1  0.518067  0.640829  0.500000  1
  Co  Co16  1  0.356678  0.876926  0.500000  1
  Co  Co17  1  0.640829  0.518067  0.500000  1
  Co  Co18  1  0.876926  0.356678  0.500000  1
  Co  Co19  1  0.477634  0.123135  0.500000  1
  Co  Co20  1  0.720402  0.000525  0.500000  1
  Co  Co21  1  0.000525  0.720402  0.500000  1
  Co  Co22  1  0.270079  0.270079  0.500000  1
  Co  Co23  1  0.019728  0.019728  0.000000  1
  Si  Si24  1  0.371921  0.000378  0.000000  1
  Si  Si25  1  0.000378  0.371921  0.000000  1
  Si  Si26  1  0.626231  0.626231  0.000000  1
  Si  Si27  1  0.314489  0.470610  0.500000  1
  Si  Si28  1  0.522821  0.839342  0.500000  1
  Si  Si29  1  0.159972  0.682134  0.500000  1
  Si  Si30  1  0.839342  0.522821  0.500000  1
  Si  Si31  1  0.682134  0.159972  0.500000  1
  Si  Si32  1  0.470610  0.314489  0.500000  1
  Si  Si33  1  0.821280  0.002088  0.000000  1
  Si  Si34  1  0.002088  0.821280  0.000000  1
  B  B35  1  0.195164  0.195164  0.000000  1
