# generated using pymatgen
data_TbYbHoZn11
_symmetry_space_group_name_H-M   'P 1'
_cell_length_a   8.18449888
_cell_length_b   8.18449865
_cell_length_c   8.18449908
_cell_angle_alpha   148.22042338
_cell_angle_beta   115.91068014
_cell_angle_gamma   73.31858312
_symmetry_Int_Tables_number   1
_chemical_formula_structural   TbYbHoZn11
_chemical_formula_sum   'Tb1 Yb1 Ho1 Zn11'
_cell_volume   255.55479574
_cell_formula_units_Z   1
loop_
 _symmetry_equiv_pos_site_id
 _symmetry_equiv_pos_as_xyz
  1  'x, y, z'
loop_
 _atom_site_type_symbol
 _atom_site_label
 _atom_site_symmetry_multiplicity
 _atom_site_fract_x
 _atom_site_fract_y
 _atom_site_fract_z
 _atom_site_occupancy
  Tb  Tb0  1  0.702197  0.702197  0.000000  1
  Yb  Yb1  1  0.999965  0.999965  0.000000  1
  Ho  Ho2  1  0.297993  0.297993  0.000000  1
  Zn  Zn3  1  0.500051  0.000051  0.500000  1
  Zn  Zn4  1  0.678538  0.499841  0.178697  1
  Zn  Zn5  1  0.321145  0.499841  0.821303  1
  Zn  Zn6  1  0.694859  0.338571  0.356288  1
  Zn  Zn7  1  0.304883  0.661630  0.643252  1
  Zn  Zn8  1  0.982282  0.338571  0.643712  1
  Zn  Zn9  1  0.018378  0.661630  0.356748  1
  Zn  Zn10  1  0.419867  0.136796  0.283071  1
  Zn  Zn11  1  0.579437  0.863059  0.716379  1
  Zn  Zn12  1  0.853725  0.136796  0.716929  1
  Zn  Zn13  1  0.146680  0.863059  0.283621  1
