# generated using pymatgen
data_Nd2CoCu2Ni5B2
_symmetry_space_group_name_H-M   'P 1'
_cell_length_a   5.12793312
_cell_length_b   5.12206663
_cell_length_c   6.95239200
_cell_angle_alpha   90.00000000
_cell_angle_beta   90.00000000
_cell_angle_gamma   119.96215208
_symmetry_Int_Tables_number   1
_chemical_formula_structural   Nd2CoCu2Ni5B2
_chemical_formula_sum   'Nd2 Co1 Cu2 Ni5 B2'
_cell_volume   158.20418353
_cell_formula_units_Z   1
loop_
 _symmetry_equiv_pos_site_id
 _symmetry_equiv_pos_as_xyz
  1  'x, y, z'
loop_
 _atom_site_type_symbol
 _atom_site_label
 _atom_site_symmetry_multiplicity
 _atom_site_fract_x
 _atom_site_fract_y
 _atom_site_fract_z
 _atom_site_occupancy
  Nd  Nd0  1  0.000000  0.000000  0.499516  1
  Nd  Nd1  1  0.000000  0.000000  0.003934  1
  Co  Co2  1  0.000000  0.500000  0.300861  1
  Cu  Cu3  1  0.331008  0.665505  0.999897  1
  Cu  Cu4  1  0.668992  0.334495  0.999897  1
  Ni  Ni5  1  0.500000  0.000000  0.296426  1
  Ni  Ni6  1  0.500000  0.500000  0.296426  1
  Ni  Ni7  1  0.500000  0.000000  0.701963  1
  Ni  Ni8  1  0.500000  0.500000  0.701963  1
  Ni  Ni9  1  0.000000  0.500000  0.704004  1
  B  B10  1  0.671899  0.335949  0.497557  1
  B  B11  1  0.328101  0.664051  0.497557  1
