# generated using pymatgen
data_Y19LuPb16
_symmetry_space_group_name_H-M   'P 1'
_cell_length_a   8.22575820
_cell_length_b   15.68840700
_cell_length_c   8.30211920
_cell_angle_alpha   90.00000000
_cell_angle_beta   90.02540332
_cell_angle_gamma   90.00000000
_symmetry_Int_Tables_number   1
_chemical_formula_structural   Y19LuPb16
_chemical_formula_sum   'Y19 Lu1 Pb16'
_cell_volume   1071.38042918
_cell_formula_units_Z   1
loop_
 _symmetry_equiv_pos_site_id
 _symmetry_equiv_pos_as_xyz
  1  'x, y, z'
loop_
 _atom_site_type_symbol
 _atom_site_label
 _atom_site_symmetry_multiplicity
 _atom_site_fract_x
 _atom_site_fract_y
 _atom_site_fract_z
 _atom_site_occupancy
  Y  Y0  1  0.624105  0.121162  0.157688  1
  Y  Y1  1  0.624105  0.378838  0.157688  1
  Y  Y2  1  0.034268  0.599318  0.176232  1
  Y  Y3  1  0.034268  0.900682  0.176232  1
  Y  Y4  1  0.534302  0.599371  0.323757  1
  Y  Y5  1  0.534302  0.900629  0.323757  1
  Y  Y6  1  0.124849  0.121123  0.341757  1
  Y  Y7  1  0.124849  0.378877  0.341757  1
  Y  Y8  1  0.792045  0.250000  0.496582  1
  Y  Y9  1  0.207990  0.750000  0.503537  1
  Y  Y10  1  0.875426  0.621088  0.657962  1
  Y  Y11  1  0.875426  0.878912  0.657962  1
  Y  Y12  1  0.465561  0.099363  0.676492  1
  Y  Y13  1  0.465561  0.400637  0.676492  1
  Y  Y14  1  0.965934  0.099398  0.823936  1
  Y  Y15  1  0.965934  0.400602  0.823936  1
  Y  Y16  1  0.375398  0.621020  0.842014  1
  Y  Y17  1  0.375398  0.878980  0.842014  1
  Y  Y18  1  0.707988  0.750000  0.996526  1
  Lu  Lu19  1  0.291633  0.250000  0.003722  1
  Pb  Pb20  1  0.282408  0.043223  0.034357  1
  Pb  Pb21  1  0.282408  0.456777  0.034357  1
  Pb  Pb22  1  0.930386  0.250000  0.124113  1
  Pb  Pb23  1  0.346110  0.750000  0.152731  1
  Pb  Pb24  1  0.846143  0.750000  0.347123  1
  Pb  Pb25  1  0.429143  0.250000  0.374917  1
  Pb  Pb26  1  0.782363  0.042784  0.465566  1
  Pb  Pb27  1  0.782363  0.457216  0.465566  1
  Pb  Pb28  1  0.217623  0.542718  0.534397  1
  Pb  Pb29  1  0.217623  0.957282  0.534397  1
  Pb  Pb30  1  0.570666  0.750000  0.624566  1
  Pb  Pb31  1  0.154055  0.250000  0.654019  1
  Pb  Pb32  1  0.653308  0.250000  0.847295  1
  Pb  Pb33  1  0.070706  0.750000  0.875474  1
  Pb  Pb34  1  0.717673  0.542715  0.965535  1
  Pb  Pb35  1  0.717673  0.957285  0.965535  1
