# generated using pymatgen
data_Y3Ho(Tc3Os)2
_symmetry_space_group_name_H-M   'P 1'
_cell_length_a   5.29648200
_cell_length_b   5.29648167
_cell_length_c   9.09471800
_cell_angle_alpha   90.00000000
_cell_angle_beta   90.00000000
_cell_angle_gamma   120.00001458
_symmetry_Int_Tables_number   1
_chemical_formula_structural   Y3Ho(Tc3Os)2
_chemical_formula_sum   'Y3 Ho1 Tc6 Os2'
_cell_volume   220.95039349
_cell_formula_units_Z   1
loop_
 _symmetry_equiv_pos_site_id
 _symmetry_equiv_pos_as_xyz
  1  'x, y, z'
loop_
 _atom_site_type_symbol
 _atom_site_label
 _atom_site_symmetry_multiplicity
 _atom_site_fract_x
 _atom_site_fract_y
 _atom_site_fract_z
 _atom_site_occupancy
  Y  Y0  1  0.333333  0.666667  0.436547  1
  Y  Y1  1  0.666667  0.333333  0.563363  1
  Y  Y2  1  0.666667  0.333333  0.936822  1
  Ho  Ho3  1  0.333333  0.666667  0.063328  1
  Tc  Tc4  1  0.829552  0.170448  0.249689  1
  Tc  Tc5  1  0.829552  0.659106  0.249689  1
  Tc  Tc6  1  0.340894  0.170448  0.249689  1
  Tc  Tc7  1  0.170498  0.829502  0.750203  1
  Tc  Tc8  1  0.170498  0.340995  0.750203  1
  Tc  Tc9  1  0.659005  0.829502  0.750203  1
  Os  Os10  1  0.000000  0.000000  0.500107  1
  Os  Os11  1  0.000000  0.000000  0.000156  1
