# generated using pymatgen
data_Rb3NaMnO4
_symmetry_space_group_name_H-M   'P 1'
_cell_length_a   6.66085600
_cell_length_b   10.60235069
_cell_length_c   10.85585994
_cell_angle_alpha   67.62998637
_cell_angle_beta   90.00000000
_cell_angle_gamma   90.00000000
_symmetry_Int_Tables_number   1
_chemical_formula_structural   Rb3NaMnO4
_chemical_formula_sum   'Rb12 Na4 Mn4 O16'
_cell_volume   708.95487810
_cell_formula_units_Z   4
loop_
 _symmetry_equiv_pos_site_id
 _symmetry_equiv_pos_as_xyz
  1  'x, y, z'
loop_
 _atom_site_type_symbol
 _atom_site_label
 _atom_site_symmetry_multiplicity
 _atom_site_fract_x
 _atom_site_fract_y
 _atom_site_fract_z
 _atom_site_occupancy
  Rb  Rb0  1  0.654759  0.044491  0.328626  1
  Rb  Rb1  1  0.124286  0.317651  0.594784  1
  Rb  Rb2  1  0.397126  0.544302  0.309415  1
  Rb  Rb3  1  0.102874  0.544302  0.809415  1
  Rb  Rb4  1  0.845241  0.044491  0.828626  1
  Rb  Rb5  1  0.602874  0.455698  0.690585  1
  Rb  Rb6  1  0.875714  0.682349  0.405216  1
  Rb  Rb7  1  0.154759  0.955509  0.171374  1
  Rb  Rb8  1  0.624286  0.682349  0.905216  1
  Rb  Rb9  1  0.375714  0.317651  0.094784  1
  Rb  Rb10  1  0.345241  0.955509  0.671374  1
  Rb  Rb11  1  0.897126  0.455698  0.190585  1
  Na  Na12  1  0.613948  0.874382  0.108889  1
  Na  Na13  1  0.386052  0.125618  0.891111  1
  Na  Na14  1  0.886052  0.874382  0.608889  1
  Na  Na15  1  0.113948  0.125618  0.391111  1
  Mn  Mn16  1  0.367066  0.759531  0.484445  1
  Mn  Mn17  1  0.632934  0.240469  0.515555  1
  Mn  Mn18  1  0.867066  0.240469  0.015555  1
  Mn  Mn19  1  0.132934  0.759531  0.984445  1
  O  O20  1  0.990937  0.203242  0.174682  1
  O  O21  1  0.490937  0.796758  0.325318  1
  O  O22  1  0.257844  0.595711  0.042722  1
  O  O23  1  0.151284  0.876056  0.465680  1
  O  O24  1  0.742156  0.404289  0.957278  1
  O  O25  1  0.415278  0.232990  0.413702  1
  O  O26  1  0.651284  0.123944  0.034320  1
  O  O27  1  0.009063  0.796758  0.825318  1
  O  O28  1  0.757844  0.404289  0.457278  1
  O  O29  1  0.084722  0.232990  0.913702  1
  O  O30  1  0.348716  0.876056  0.965680  1
  O  O31  1  0.848716  0.123944  0.534320  1
  O  O32  1  0.584722  0.767010  0.586298  1
  O  O33  1  0.242156  0.595711  0.542722  1
  O  O34  1  0.509063  0.203242  0.674682  1
  O  O35  1  0.915278  0.767010  0.086298  1
