# generated using pymatgen
data_Y3Er9Tl2Fe2Os
_symmetry_space_group_name_H-M   'P 1'
_cell_length_a   8.34783294
_cell_length_b   8.34849463
_cell_length_c   8.37243037
_cell_angle_alpha   108.57537912
_cell_angle_beta   108.49348681
_cell_angle_gamma   111.10623014
_symmetry_Int_Tables_number   1
_chemical_formula_structural   Y3Er9Tl2Fe2Os
_chemical_formula_sum   'Y3 Er9 Tl2 Fe2 Os1'
_cell_volume   450.25955501
_cell_formula_units_Z   1
loop_
 _symmetry_equiv_pos_site_id
 _symmetry_equiv_pos_as_xyz
  1  'x, y, z'
loop_
 _atom_site_type_symbol
 _atom_site_label
 _atom_site_symmetry_multiplicity
 _atom_site_fract_x
 _atom_site_fract_y
 _atom_site_fract_z
 _atom_site_occupancy
  Y  Y0  1  0.307586  0.306557  0.614161  1
  Y  Y1  1  0.693445  0.692629  0.386037  1
  Y  Y2  1  0.307522  0.692580  0.000055  1
  Er  Er3  1  0.690162  0.309448  0.999847  1
  Er  Er4  1  0.427334  0.190529  0.235448  1
  Er  Er5  1  0.572844  0.810600  0.764088  1
  Er  Er6  1  0.953525  0.191050  0.764173  1
  Er  Er7  1  0.191786  0.955026  0.764197  1
  Er  Er8  1  0.045076  0.808113  0.235630  1
  Er  Er9  1  0.808708  0.046463  0.235666  1
  Er  Er10  1  0.189056  0.426613  0.235467  1
  Er  Er11  1  0.809144  0.572273  0.764083  1
  Tl  Tl12  1  0.500126  0.999499  0.499264  1
  Tl  Tl13  1  0.001477  0.500817  0.501749  1
  Fe  Fe14  1  0.387272  0.384998  0.000254  1
  Fe  Fe15  1  0.615007  0.613077  0.000073  1
  Os  Os16  1  0.999928  0.999729  0.999809  1
