# generated using pymatgen
data_Sm2Ho(TmRh6)3
_symmetry_space_group_name_H-M   'P 1'
_cell_length_a   5.26420200
_cell_length_b   5.26417103
_cell_length_c   17.49419800
_cell_angle_alpha   90.00034829
_cell_angle_beta   89.99939049
_cell_angle_gamma   120.00269567
_symmetry_Int_Tables_number   1
_chemical_formula_structural   Sm2Ho(TmRh6)3
_chemical_formula_sum   'Sm2 Ho1 Tm3 Rh18'
_cell_volume   419.83187471
_cell_formula_units_Z   1
loop_
 _symmetry_equiv_pos_site_id
 _symmetry_equiv_pos_as_xyz
  1  'x, y, z'
loop_
 _atom_site_type_symbol
 _atom_site_label
 _atom_site_symmetry_multiplicity
 _atom_site_fract_x
 _atom_site_fract_y
 _atom_site_fract_z
 _atom_site_occupancy
  Sm  Sm0  1  0.333327  0.666666  0.750011  1
  Sm  Sm1  1  0.666670  0.333335  0.250037  1
  Ho  Ho2  1  0.333327  0.666656  0.540812  1
  Tm  Tm3  1  0.333341  0.666661  0.959031  1
  Tm  Tm4  1  0.666663  0.333338  0.040960  1
  Tm  Tm5  1  0.666662  0.333339  0.458907  1
  Rh  Rh6  1  0.167317  0.832698  0.375441  1
  Rh  Rh7  1  0.167307  0.334633  0.375445  1
  Rh  Rh8  1  0.665376  0.832694  0.375447  1
  Rh  Rh9  1  0.832498  0.167483  0.624727  1
  Rh  Rh10  1  0.832499  0.664993  0.624721  1
  Rh  Rh11  1  0.334998  0.167493  0.624722  1
  Rh  Rh12  1  0.832495  0.167499  0.875473  1
  Rh  Rh13  1  0.832500  0.664984  0.875477  1
  Rh  Rh14  1  0.335010  0.167495  0.875476  1
  Rh  Rh15  1  0.167461  0.832543  0.124531  1
  Rh  Rh16  1  0.167463  0.334936  0.124525  1
  Rh  Rh17  1  0.665077  0.832548  0.124524  1
  Rh  Rh18  1  0.333354  0.666677  0.250017  1
  Rh  Rh19  1  0.666660  0.333333  0.749961  1
  Rh  Rh20  1  0.999994  0.999998  0.250007  1
  Rh  Rh21  1  0.000001  0.999999  0.749919  1
  Rh  Rh22  1  0.000000  0.000001  0.499809  1
  Rh  Rh23  1  0.000002  0.999996  0.000021  1
