# generated using pymatgen
data_TbLu15(Ga3Ir)2
_symmetry_space_group_name_H-M   'P 1'
_cell_length_a   9.85897700
_cell_length_b   9.85897715
_cell_length_c   6.88528700
_cell_angle_alpha   90.00000000
_cell_angle_beta   90.00000000
_cell_angle_gamma   119.99999614
_symmetry_Int_Tables_number   1
_chemical_formula_structural   TbLu15(Ga3Ir)2
_chemical_formula_sum   'Tb1 Lu15 Ga6 Ir2'
_cell_volume   579.58402937
_cell_formula_units_Z   1
loop_
 _symmetry_equiv_pos_site_id
 _symmetry_equiv_pos_as_xyz
  1  'x, y, z'
loop_
 _atom_site_type_symbol
 _atom_site_label
 _atom_site_symmetry_multiplicity
 _atom_site_fract_x
 _atom_site_fract_y
 _atom_site_fract_z
 _atom_site_occupancy
  Tb  Tb0  1  0.000000  0.000000  0.267915  1
  Lu  Lu1  1  0.828008  0.656018  0.490560  1
  Lu  Lu2  1  0.343982  0.171992  0.490560  1
  Lu  Lu3  1  0.828008  0.171992  0.490560  1
  Lu  Lu4  1  0.172086  0.344169  0.987732  1
  Lu  Lu5  1  0.655831  0.827914  0.987732  1
  Lu  Lu6  1  0.172086  0.827914  0.987732  1
  Lu  Lu7  1  0.666667  0.333333  0.162717  1
  Lu  Lu8  1  0.333333  0.666667  0.664294  1
  Lu  Lu9  1  0.534437  0.068873  0.794817  1
  Lu  Lu10  1  0.931127  0.465563  0.794817  1
  Lu  Lu11  1  0.534437  0.465563  0.794817  1
  Lu  Lu12  1  0.465556  0.931113  0.294730  1
  Lu  Lu13  1  0.068887  0.534444  0.294730  1
  Lu  Lu14  1  0.465556  0.534444  0.294730  1
  Lu  Lu15  1  0.000000  0.000000  0.766433  1
  Ga  Ga16  1  0.836383  0.672768  0.039006  1
  Ga  Ga17  1  0.327232  0.163617  0.039006  1
  Ga  Ga18  1  0.836383  0.163617  0.039006  1
  Ga  Ga19  1  0.163487  0.326973  0.542735  1
  Ga  Ga20  1  0.673027  0.836513  0.542735  1
  Ga  Ga21  1  0.163487  0.836513  0.542735  1
  Ir  Ir22  1  0.666667  0.333333  0.556961  1
  Ir  Ir23  1  0.333333  0.666667  0.059011  1
