# generated using pymatgen
data_DyCd4In(BiO6)2
_symmetry_space_group_name_H-M   'P 1'
_cell_length_a   6.65101773
_cell_length_b   6.71214632
_cell_length_c   6.70760729
_cell_angle_alpha   90.42141556
_cell_angle_beta   90.36710688
_cell_angle_gamma   90.79371358
_symmetry_Int_Tables_number   1
_chemical_formula_structural   DyCd4In(BiO6)2
_chemical_formula_sum   'Dy1 Cd4 In1 Bi2 O12'
_cell_volume   299.40188238
_cell_formula_units_Z   1
loop_
 _symmetry_equiv_pos_site_id
 _symmetry_equiv_pos_as_xyz
  1  'x, y, z'
loop_
 _atom_site_type_symbol
 _atom_site_label
 _atom_site_symmetry_multiplicity
 _atom_site_fract_x
 _atom_site_fract_y
 _atom_site_fract_z
 _atom_site_occupancy
  Dy  Dy0  1  0.057826  0.748074  0.564190  1
  Cd  Cd1  1  0.560030  0.048743  0.747732  1
  Cd  Cd2  1  0.947250  0.250241  0.439020  1
  Cd  Cd3  1  0.252082  0.435103  0.948707  1
  Cd  Cd4  1  0.439028  0.956846  0.251489  1
  In  In5  1  0.747676  0.566167  0.055216  1
  Bi  Bi6  1  0.505933  0.498807  0.500664  1
  Bi  Bi7  1  0.995076  0.004722  0.003437  1
  O  O8  1  0.025960  0.691271  0.907557  1
  O  O9  1  0.693381  0.894187  0.040756  1
  O  O10  1  0.913159  0.028695  0.696198  1
  O  O11  1  0.943515  0.308845  0.092280  1
  O  O12  1  0.300244  0.092480  0.960553  1
  O  O13  1  0.084925  0.954955  0.303669  1
  O  O14  1  0.810134  0.582398  0.404940  1
  O  O15  1  0.581775  0.434047  0.805906  1
  O  O16  1  0.406934  0.798374  0.562116  1
  O  O17  1  0.198582  0.435357  0.581231  1
  O  O18  1  0.447297  0.571149  0.193419  1
  O  O19  1  0.589197  0.199539  0.440921  1
