# generated using pymatgen
data_Nd2FeB10
_symmetry_space_group_name_H-M   'P 1'
_cell_length_a   4.19773700
_cell_length_b   5.64799400
_cell_length_c   11.24676000
_cell_angle_alpha   90.00000000
_cell_angle_beta   90.00000000
_cell_angle_gamma   90.00000000
_symmetry_Int_Tables_number   1
_chemical_formula_structural   Nd2FeB10
_chemical_formula_sum   'Nd4 Fe2 B20'
_cell_volume   266.64710914
_cell_formula_units_Z   2
loop_
 _symmetry_equiv_pos_site_id
 _symmetry_equiv_pos_as_xyz
  1  'x, y, z'
loop_
 _atom_site_type_symbol
 _atom_site_label
 _atom_site_symmetry_multiplicity
 _atom_site_fract_x
 _atom_site_fract_y
 _atom_site_fract_z
 _atom_site_occupancy
  Nd  Nd0  1  0.500000  0.292552  0.868146  1
  Nd  Nd1  1  0.500000  0.707448  0.131854  1
  Nd  Nd2  1  0.500000  0.792552  0.631854  1
  Nd  Nd3  1  0.500000  0.207448  0.368146  1
  Fe  Fe4  1  0.000000  0.500000  0.500000  1
  Fe  Fe5  1  0.000000  0.000000  0.000000  1
  B  B6  1  0.000000  0.128737  0.539972  1
  B  B7  1  0.000000  0.871263  0.460028  1
  B  B8  1  0.000000  0.628737  0.960028  1
  B  B9  1  0.000000  0.371263  0.039972  1
  B  B10  1  0.000000  0.155520  0.697646  1
  B  B11  1  0.000000  0.844480  0.302354  1
  B  B12  1  0.297949  0.202592  0.112923  1
  B  B13  1  0.297949  0.797408  0.887077  1
  B  B14  1  0.702051  0.702592  0.387077  1
  B  B15  1  0.702051  0.297408  0.612923  1
  B  B16  1  0.702051  0.797408  0.887077  1
  B  B17  1  0.702051  0.202592  0.112923  1
  B  B18  1  0.297949  0.297408  0.612923  1
  B  B19  1  0.297949  0.702592  0.387077  1
  B  B20  1  0.000000  0.034046  0.186134  1
  B  B21  1  0.000000  0.965954  0.813866  1
  B  B22  1  0.000000  0.534046  0.313866  1
  B  B23  1  0.000000  0.465954  0.686134  1
  B  B24  1  0.000000  0.344480  0.197646  1
  B  B25  1  0.000000  0.655520  0.802354  1
