# generated using pymatgen
data_Ce(MnAs3)4
_symmetry_space_group_name_H-M   'P 1'
_cell_length_a   7.33384743
_cell_length_b   7.33384724
_cell_length_c   7.33384710
_cell_angle_alpha   109.46408586
_cell_angle_beta   109.46409628
_cell_angle_gamma   109.46408924
_symmetry_Int_Tables_number   1
_chemical_formula_structural   Ce(MnAs3)4
_chemical_formula_sum   'Ce1 Mn4 As12'
_cell_volume   303.73041722
_cell_formula_units_Z   1
loop_
 _symmetry_equiv_pos_site_id
 _symmetry_equiv_pos_as_xyz
  1  'x, y, z'
loop_
 _atom_site_type_symbol
 _atom_site_label
 _atom_site_symmetry_multiplicity
 _atom_site_fract_x
 _atom_site_fract_y
 _atom_site_fract_z
 _atom_site_occupancy
  Ce  Ce0  1  0.000000  0.000000  0.000000  1
  Mn  Mn1  1  0.500000  0.000000  0.000000  1
  Mn  Mn2  1  0.000000  0.500000  0.000000  1
  Mn  Mn3  1  0.000000  0.000000  0.500000  1
  Mn  Mn4  1  0.500000  0.500000  0.500000  1
  As  As5  1  0.848728  0.659054  0.505260  1
  As  As6  1  0.151272  0.340946  0.494740  1
  As  As7  1  0.154773  0.659694  0.813908  1
  As  As8  1  0.845227  0.340306  0.186092  1
  As  As9  1  0.659054  0.505260  0.848728  1
  As  As10  1  0.340946  0.494740  0.151272  1
  As  As11  1  0.659694  0.813908  0.154773  1
  As  As12  1  0.340306  0.186092  0.845227  1
  As  As13  1  0.505260  0.848728  0.659054  1
  As  As14  1  0.494740  0.151272  0.340946  1
  As  As15  1  0.813908  0.154773  0.659694  1
  As  As16  1  0.186092  0.845227  0.340306  1
