# generated using pymatgen
data_LiCa4Zn3Pt4
_symmetry_space_group_name_H-M   'P 1'
_cell_length_a   7.13269046
_cell_length_b   4.28025900
_cell_length_c   7.85712800
_cell_angle_alpha   90.00000000
_cell_angle_beta   90.28535185
_cell_angle_gamma   90.00000000
_symmetry_Int_Tables_number   1
_chemical_formula_structural   LiCa4Zn3Pt4
_chemical_formula_sum   'Li1 Ca4 Zn3 Pt4'
_cell_volume   239.87327709
_cell_formula_units_Z   1
loop_
 _symmetry_equiv_pos_site_id
 _symmetry_equiv_pos_as_xyz
  1  'x, y, z'
loop_
 _atom_site_type_symbol
 _atom_site_label
 _atom_site_symmetry_multiplicity
 _atom_site_fract_x
 _atom_site_fract_y
 _atom_site_fract_z
 _atom_site_occupancy
  Li  Li0  1  0.149658  0.249999  0.072328  1
  Ca  Ca1  1  0.482993  0.750000  0.191638  1
  Ca  Ca2  1  0.985927  0.750000  0.308076  1
  Ca  Ca3  1  0.015515  0.249999  0.689197  1
  Ca  Ca4  1  0.516594  0.249999  0.809607  1
  Zn  Zn5  1  0.660964  0.249999  0.423677  1
  Zn  Zn6  1  0.342354  0.750000  0.576175  1
  Zn  Zn7  1  0.847808  0.750000  0.926261  1
  Pt  Pt8  1  0.774779  0.249999  0.107297  1
  Pt  Pt9  1  0.285190  0.249999  0.398426  1
  Pt  Pt10  1  0.719221  0.750000  0.607974  1
  Pt  Pt11  1  0.218996  0.750000  0.889346  1
