# generated using pymatgen
data_Ba6Tb2(TeO6)3
_symmetry_space_group_name_H-M   'P 1'
_cell_length_a   10.43144352
_cell_length_b   10.43144337
_cell_length_c   10.43144392
_cell_angle_alpha   146.51830382
_cell_angle_beta   131.82707416
_cell_angle_gamma   59.93734094
_symmetry_Int_Tables_number   1
_chemical_formula_structural   Ba6Tb2(TeO6)3
_chemical_formula_sum   'Ba6 Tb2 Te3 O18'
_cell_volume   462.38208468
_cell_formula_units_Z   1
loop_
 _symmetry_equiv_pos_site_id
 _symmetry_equiv_pos_as_xyz
  1  'x, y, z'
loop_
 _atom_site_type_symbol
 _atom_site_label
 _atom_site_symmetry_multiplicity
 _atom_site_fract_x
 _atom_site_fract_y
 _atom_site_fract_z
 _atom_site_occupancy
  Ba  Ba0  1  0.777211  0.500000  0.277211  1
  Ba  Ba1  1  0.388355  0.154220  0.234135  1
  Ba  Ba2  1  0.079914  0.845780  0.234135  1
  Ba  Ba3  1  0.222789  0.500000  0.722789  1
  Ba  Ba4  1  0.920086  0.154220  0.765865  1
  Ba  Ba5  1  0.611645  0.845780  0.765865  1
  Tb  Tb6  1  0.666083  0.666083  0.000000  1
  Tb  Tb7  1  0.333917  0.333917  0.000000  1
  Te  Te8  1  0.500000  0.000000  0.500000  1
  Te  Te9  1  0.170328  0.670328  0.500000  1
  Te  Te10  1  0.829672  0.329672  0.500000  1
  O  O11  1  0.723756  0.000000  0.723756  1
  O  O12  1  0.403812  0.669784  0.734028  1
  O  O13  1  0.064244  0.330216  0.734028  1
  O  O14  1  0.578235  0.844301  0.266064  1
  O  O15  1  0.246728  0.515175  0.268446  1
  O  O16  1  0.905142  0.178978  0.273836  1
  O  O17  1  0.421765  0.687829  0.266064  1
  O  O18  1  0.094858  0.368694  0.273836  1
  O  O19  1  0.753272  0.021718  0.268446  1
  O  O20  1  0.276244  0.000000  0.276244  1
  O  O21  1  0.935756  0.669784  0.265972  1
  O  O22  1  0.596188  0.330216  0.265972  1
  O  O23  1  0.421765  0.155699  0.733936  1
  O  O24  1  0.094858  0.821022  0.726164  1
  O  O25  1  0.753272  0.484825  0.731554  1
  O  O26  1  0.578235  0.312171  0.733936  1
  O  O27  1  0.246728  0.978282  0.731554  1
  O  O28  1  0.905142  0.631307  0.726164  1
