# generated using pymatgen
data_Cd6BiIO12
_symmetry_space_group_name_H-M   'P 1'
_cell_length_a   5.82501293
_cell_length_b   5.66601487
_cell_length_c   10.04146356
_cell_angle_alpha   55.84552785
_cell_angle_beta   90.25226339
_cell_angle_gamma   91.15052774
_symmetry_Int_Tables_number   1
_chemical_formula_structural   Cd6BiIO12
_chemical_formula_sum   'Cd6 Bi1 I1 O12'
_cell_volume   274.18975814
_cell_formula_units_Z   1
loop_
 _symmetry_equiv_pos_site_id
 _symmetry_equiv_pos_as_xyz
  1  'x, y, z'
loop_
 _atom_site_type_symbol
 _atom_site_label
 _atom_site_symmetry_multiplicity
 _atom_site_fract_x
 _atom_site_fract_y
 _atom_site_fract_z
 _atom_site_occupancy
  Cd  Cd0  1  0.951889  0.260435  0.232672  1
  Cd  Cd1  1  0.449736  0.759138  0.255343  1
  Cd  Cd2  1  0.048111  0.739565  0.767328  1
  Cd  Cd3  1  0.550264  0.240862  0.744657  1
  Cd  Cd4  1  0.000000  0.500000  0.500000  1
  Cd  Cd5  1  0.500000  0.500000  0.000000  1
  Bi  Bi6  1  0.000000  0.000000  0.000000  1
  I  I7  1  0.500000  0.000000  0.500000  1
  O  O8  1  0.294812  0.908559  0.909981  1
  O  O9  1  0.770548  0.070760  0.584860  1
  O  O10  1  0.705188  0.091441  0.090019  1
  O  O11  1  0.229452  0.929240  0.415140  1
  O  O12  1  0.180274  0.266182  0.050699  1
  O  O13  1  0.670320  0.777144  0.446035  1
  O  O14  1  0.819726  0.733818  0.949301  1
  O  O15  1  0.329680  0.222856  0.553965  1
  O  O16  1  0.420349  0.662275  0.708458  1
  O  O17  1  0.918388  0.364168  0.756778  1
  O  O18  1  0.579651  0.337725  0.291542  1
  O  O19  1  0.081612  0.635832  0.243222  1
