# generated using pymatgen
data_Er19Tm(Bi2Pt)4
_symmetry_space_group_name_H-M   'P 1'
_cell_length_a   8.00807591
_cell_length_b   8.99630000
_cell_length_c   12.33067100
_cell_angle_alpha   90.00000000
_cell_angle_beta   90.06963004
_cell_angle_gamma   90.00000000
_symmetry_Int_Tables_number   1
_chemical_formula_structural   Er19Tm(Bi2Pt)4
_chemical_formula_sum   'Er19 Tm1 Bi8 Pt4'
_cell_volume   888.33853259
_cell_formula_units_Z   1
loop_
 _symmetry_equiv_pos_site_id
 _symmetry_equiv_pos_as_xyz
  1  'x, y, z'
loop_
 _atom_site_type_symbol
 _atom_site_label
 _atom_site_symmetry_multiplicity
 _atom_site_fract_x
 _atom_site_fract_y
 _atom_site_fract_z
 _atom_site_occupancy
  Er  Er0  1  0.336119  0.250000  0.289658  1
  Er  Er1  1  0.163863  0.250000  0.789715  1
  Er  Er2  1  0.836306  0.750000  0.210199  1
  Er  Er3  1  0.124596  0.750000  0.802945  1
  Er  Er4  1  0.874932  0.250000  0.196965  1
  Er  Er5  1  0.625134  0.250000  0.697155  1
  Er  Er6  1  0.374751  0.750000  0.303044  1
  Er  Er7  1  0.551321  0.750000  0.000396  1
  Er  Er8  1  0.448654  0.250000  0.999232  1
  Er  Er9  1  0.051561  0.250000  0.499240  1
  Er  Er10  1  0.948651  0.750000  0.500894  1
  Er  Er11  1  0.822422  0.452947  0.933046  1
  Er  Er12  1  0.177628  0.546974  0.066912  1
  Er  Er13  1  0.322388  0.547128  0.566935  1
  Er  Er14  1  0.177628  0.953026  0.066912  1
  Er  Er15  1  0.677800  0.452917  0.433052  1
  Er  Er16  1  0.822422  0.047053  0.933046  1
  Er  Er17  1  0.677800  0.047083  0.433052  1
  Er  Er18  1  0.322388  0.952872  0.566935  1
  Tm  Tm19  1  0.664034  0.750000  0.710094  1
  Bi  Bi20  1  0.931148  0.010659  0.672313  1
  Bi  Bi21  1  0.068539  0.989252  0.327839  1
  Bi  Bi22  1  0.431731  0.989102  0.827475  1
  Bi  Bi23  1  0.068539  0.510748  0.327839  1
  Bi  Bi24  1  0.568416  0.010556  0.172289  1
  Bi  Bi25  1  0.931148  0.489341  0.672313  1
  Bi  Bi26  1  0.568416  0.489444  0.172289  1
  Bi  Bi27  1  0.431731  0.510898  0.827475  1
  Pt  Pt28  1  0.922451  0.750000  0.988807  1
  Pt  Pt29  1  0.077431  0.250000  0.011411  1
  Pt  Pt30  1  0.422783  0.250000  0.511238  1
  Pt  Pt31  1  0.577268  0.750000  0.489287  1
