# generated using pymatgen
data_Er20Si12F
_symmetry_space_group_name_H-M   'P 1'
_cell_length_a   6.23506332
_cell_length_b   8.35959402
_cell_length_c   14.58268600
_cell_angle_alpha   90.00000685
_cell_angle_beta   90.00000000
_cell_angle_gamma   89.97972584
_symmetry_Int_Tables_number   1
_chemical_formula_structural   Er20Si12F
_chemical_formula_sum   'Er20 Si12 F1'
_cell_volume   760.08743257
_cell_formula_units_Z   1
loop_
 _symmetry_equiv_pos_site_id
 _symmetry_equiv_pos_as_xyz
  1  'x, y, z'
loop_
 _atom_site_type_symbol
 _atom_site_label
 _atom_site_symmetry_multiplicity
 _atom_site_fract_x
 _atom_site_fract_y
 _atom_site_fract_z
 _atom_site_occupancy
  Er  Er0  1  0.499992  0.000003  0.333715  1
  Er  Er1  1  0.500017  0.500002  0.831479  1
  Er  Er2  1  0.500017  0.500002  0.168521  1
  Er  Er3  1  0.499992  0.000003  0.666285  1
  Er  Er4  1  0.999991  0.499997  0.165075  1
  Er  Er5  1  0.000016  0.000003  0.667255  1
  Er  Er6  1  0.000016  0.000003  0.332745  1
  Er  Er7  1  0.999991  0.499997  0.834925  1
  Er  Er8  1  0.750739  0.246774  0.000000  1
  Er  Er9  1  0.751167  0.743992  0.500000  1
  Er  Er10  1  0.751094  0.377480  0.378886  1
  Er  Er11  1  0.754883  0.875908  0.876726  1
  Er  Er12  1  0.754883  0.875908  0.123274  1
  Er  Er13  1  0.751094  0.377480  0.621114  1
  Er  Er14  1  0.249267  0.753228  0.000000  1
  Er  Er15  1  0.248843  0.256005  0.500000  1
  Er  Er16  1  0.245128  0.124080  0.123277  1
  Er  Er17  1  0.248911  0.622533  0.621113  1
  Er  Er18  1  0.248911  0.622533  0.378887  1
  Er  Er19  1  0.245128  0.124080  0.876723  1
  Si  Si20  1  0.746290  0.607627  0.000000  1
  Si  Si21  1  0.751400  0.106747  0.500000  1
  Si  Si22  1  0.751383  0.195083  0.195727  1
  Si  Si23  1  0.752323  0.695735  0.696863  1
  Si  Si24  1  0.752323  0.695735  0.303137  1
  Si  Si25  1  0.751383  0.195083  0.804273  1
  Si  Si26  1  0.253697  0.392376  0.000000  1
  Si  Si27  1  0.248621  0.893259  0.500000  1
  Si  Si28  1  0.247696  0.304265  0.303136  1
  Si  Si29  1  0.248613  0.804915  0.804274  1
  Si  Si30  1  0.248613  0.804915  0.195726  1
  Si  Si31  1  0.247696  0.304265  0.696864  1
  F  F32  1  0.499882  0.999988  0.000000  1
