# generated using pymatgen
data_Tb4Lu6BiPb7
_symmetry_space_group_name_H-M   'P 1'
_cell_length_a   8.18024500
_cell_length_b   8.22445786
_cell_length_c   15.42119840
_cell_angle_alpha   90.09577270
_cell_angle_beta   90.00000000
_cell_angle_gamma   90.00000000
_symmetry_Int_Tables_number   1
_chemical_formula_structural   Tb4Lu6BiPb7
_chemical_formula_sum   'Tb8 Lu12 Bi2 Pb14'
_cell_volume   1037.50717527
_cell_formula_units_Z   2
loop_
 _symmetry_equiv_pos_site_id
 _symmetry_equiv_pos_as_xyz
  1  'x, y, z'
loop_
 _atom_site_type_symbol
 _atom_site_label
 _atom_site_symmetry_multiplicity
 _atom_site_fract_x
 _atom_site_fract_y
 _atom_site_fract_z
 _atom_site_occupancy
  Tb  Tb0  1  0.538868  0.326941  0.898896  1
  Tb  Tb1  1  0.038868  0.173059  0.601104  1
  Tb  Tb2  1  0.459434  0.676959  0.399070  1
  Tb  Tb3  1  0.959434  0.823041  0.100930  1
  Tb  Tb4  1  0.463324  0.672512  0.100031  1
  Tb  Tb5  1  0.963324  0.827488  0.399969  1
  Tb  Tb6  1  0.534111  0.322322  0.601087  1
  Tb  Tb7  1  0.034111  0.177678  0.898913  1
  Lu  Lu8  1  0.375932  0.840392  0.876647  1
  Lu  Lu9  1  0.875932  0.659608  0.623353  1
  Lu  Lu10  1  0.623605  0.154481  0.376891  1
  Lu  Lu11  1  0.123605  0.345519  0.123109  1
  Lu  Lu12  1  0.629685  0.158469  0.122819  1
  Lu  Lu13  1  0.129685  0.341531  0.377181  1
  Lu  Lu14  1  0.374274  0.842373  0.622554  1
  Lu  Lu15  1  0.874274  0.657627  0.877446  1
  Lu  Lu16  1  0.205686  0.504167  0.749611  1
  Lu  Lu17  1  0.705686  0.995833  0.750389  1
  Lu  Lu18  1  0.794166  0.496181  0.248229  1
  Lu  Lu19  1  0.294166  0.003819  0.251771  1
  Bi  Bi20  1  0.283644  0.034550  0.044172  1
  Bi  Bi21  1  0.783644  0.465450  0.455828  1
  Pb  Pb22  1  0.716295  0.964882  0.543287  1
  Pb  Pb23  1  0.216295  0.535118  0.956713  1
  Pb  Pb24  1  0.716896  0.965042  0.956996  1
  Pb  Pb25  1  0.216896  0.534958  0.543004  1
  Pb  Pb26  1  0.284238  0.034910  0.457102  1
  Pb  Pb27  1  0.784238  0.465090  0.042898  1
  Pb  Pb28  1  0.568746  0.629341  0.748956  1
  Pb  Pb29  1  0.068746  0.870659  0.751044  1
  Pb  Pb30  1  0.432665  0.369913  0.249732  1
  Pb  Pb31  1  0.932665  0.130087  0.250268  1
  Pb  Pb32  1  0.348116  0.153744  0.750723  1
  Pb  Pb33  1  0.848116  0.346256  0.749277  1
  Pb  Pb34  1  0.650315  0.845679  0.249711  1
  Pb  Pb35  1  0.150315  0.654321  0.250289  1
