# generated using pymatgen
data_LiLa8ZnPd23
_symmetry_space_group_name_H-M   'P 1'
_cell_length_a   8.50437600
_cell_length_b   8.59047000
_cell_length_c   8.59047000
_cell_angle_alpha   90.00000000
_cell_angle_beta   90.00000000
_cell_angle_gamma   90.00000000
_symmetry_Int_Tables_number   1
_chemical_formula_structural   LiLa8ZnPd23
_chemical_formula_sum   'Li1 La8 Zn1 Pd23'
_cell_volume   627.59041804
_cell_formula_units_Z   1
loop_
 _symmetry_equiv_pos_site_id
 _symmetry_equiv_pos_as_xyz
  1  'x, y, z'
loop_
 _atom_site_type_symbol
 _atom_site_label
 _atom_site_symmetry_multiplicity
 _atom_site_fract_x
 _atom_site_fract_y
 _atom_site_fract_z
 _atom_site_occupancy
  Li  Li0  1  0.255169  0.500000  0.500000  1
  La  La1  1  0.250476  0.245401  0.245401  1
  La  La2  1  0.748973  0.749424  0.749424  1
  La  La3  1  0.748973  0.749424  0.250576  1
  La  La4  1  0.748973  0.250576  0.749424  1
  La  La5  1  0.250476  0.245401  0.754599  1
  La  La6  1  0.250476  0.754599  0.245401  1
  La  La7  1  0.250476  0.754599  0.754599  1
  La  La8  1  0.748973  0.250576  0.250576  1
  Zn  Zn9  1  0.999593  0.000000  0.000000  1
  Pd  Pd10  1  0.262845  0.500000  0.000000  1
  Pd  Pd11  1  0.737618  0.500000  0.000000  1
  Pd  Pd12  1  0.002780  0.263604  0.500000  1
  Pd  Pd13  1  0.499835  0.263229  0.000000  1
  Pd  Pd14  1  0.002780  0.736396  0.500000  1
  Pd  Pd15  1  0.499835  0.736771  0.000000  1
  Pd  Pd16  1  0.499835  0.000000  0.263229  1
  Pd  Pd17  1  0.262845  0.000000  0.500000  1
  Pd  Pd18  1  0.499835  0.000000  0.736771  1
  Pd  Pd19  1  0.737618  0.000000  0.500000  1
  Pd  Pd20  1  0.002780  0.500000  0.263604  1
  Pd  Pd21  1  0.002780  0.500000  0.736396  1
  Pd  Pd22  1  0.745625  0.500000  0.500000  1
  Pd  Pd23  1  0.497471  0.255284  0.500000  1
  Pd  Pd24  1  0.497471  0.744716  0.500000  1
  Pd  Pd25  1  0.497471  0.500000  0.255284  1
  Pd  Pd26  1  0.497471  0.500000  0.744716  1
  Pd  Pd27  1  0.298306  0.000000  0.000000  1
  Pd  Pd28  1  0.701816  0.000000  0.000000  1
  Pd  Pd29  1  0.000107  0.298051  0.000000  1
  Pd  Pd30  1  0.000107  0.701949  0.000000  1
  Pd  Pd31  1  0.000107  0.000000  0.298051  1
  Pd  Pd32  1  0.000107  0.000000  0.701949  1
