# generated using pymatgen
data_Sc4As6Ir5Ru2
_symmetry_space_group_name_H-M   'P 1'
_cell_length_a   7.10518943
_cell_length_b   7.10510265
_cell_length_c   7.10518900
_cell_angle_alpha   109.40180374
_cell_angle_beta   109.61073560
_cell_angle_gamma   109.40178636
_symmetry_Int_Tables_number   1
_chemical_formula_structural   Sc4As6Ir5Ru2
_chemical_formula_sum   'Sc4 As6 Ir5 Ru2'
_cell_volume   276.11802541
_cell_formula_units_Z   1
loop_
 _symmetry_equiv_pos_site_id
 _symmetry_equiv_pos_as_xyz
  1  'x, y, z'
loop_
 _atom_site_type_symbol
 _atom_site_label
 _atom_site_symmetry_multiplicity
 _atom_site_fract_x
 _atom_site_fract_y
 _atom_site_fract_z
 _atom_site_occupancy
  Sc  Sc0  1  0.000334  0.000665  0.500334  1
  Sc  Sc1  1  0.499666  0.999335  0.999666  1
  Sc  Sc2  1  0.000332  0.500000  0.999668  1
  Sc  Sc3  1  0.499668  0.500000  0.500332  1
  As  As4  1  0.683742  0.686849  0.996893  1
  As  As5  1  0.310044  0.313150  0.996892  1
  As  As6  1  0.003108  0.686850  0.689956  1
  As  As7  1  0.003107  0.313151  0.316258  1
  As  As8  1  0.688611  0.000000  0.688610  1
  As  As9  1  0.311390  0.000000  0.311389  1
  Ir  Ir10  1  0.749524  0.249567  0.499954  1
  Ir  Ir11  1  0.500044  0.249567  0.749614  1
  Ir  Ir12  1  0.500046  0.750433  0.250476  1
  Ir  Ir13  1  0.750001  0.500000  0.249999  1
  Ir  Ir14  1  0.250386  0.750433  0.499956  1
  Ru  Ru15  1  0.000000  0.000000  0.000000  1
  Ru  Ru16  1  0.249999  0.500000  0.750001  1
