# generated using pymatgen
data_TbY(BIr)8
_symmetry_space_group_name_H-M   'P 1'
_cell_length_a   7.64429300
_cell_length_b   7.64429300
_cell_length_c   3.99094800
_cell_angle_alpha   90.00000000
_cell_angle_beta   90.00000000
_cell_angle_gamma   90.00000000
_symmetry_Int_Tables_number   1
_chemical_formula_structural   TbY(BIr)8
_chemical_formula_sum   'Tb1 Y1 B8 Ir8'
_cell_volume   233.21190631
_cell_formula_units_Z   1
loop_
 _symmetry_equiv_pos_site_id
 _symmetry_equiv_pos_as_xyz
  1  'x, y, z'
loop_
 _atom_site_type_symbol
 _atom_site_label
 _atom_site_symmetry_multiplicity
 _atom_site_fract_x
 _atom_site_fract_y
 _atom_site_fract_z
 _atom_site_occupancy
  Tb  Tb0  1  0.000000  0.000000  0.000000  1
  Y  Y1  1  0.500000  0.500000  0.500000  1
  B  B2  1  0.342142  0.778456  0.888440  1
  B  B3  1  0.657858  0.221544  0.888440  1
  B  B4  1  0.778456  0.657858  0.111560  1
  B  B5  1  0.221544  0.342142  0.111560  1
  B  B6  1  0.277985  0.157750  0.388388  1
  B  B7  1  0.722015  0.842250  0.388388  1
  B  B8  1  0.842250  0.277985  0.611612  1
  B  B9  1  0.157750  0.722015  0.611612  1
  Ir  Ir10  1  0.390518  0.160046  0.887078  1
  Ir  Ir11  1  0.609482  0.839954  0.887078  1
  Ir  Ir12  1  0.839954  0.390518  0.112922  1
  Ir  Ir13  1  0.160046  0.609482  0.112922  1
  Ir  Ir14  1  0.339980  0.890633  0.386993  1
  Ir  Ir15  1  0.660020  0.109367  0.386993  1
  Ir  Ir16  1  0.890633  0.660020  0.613007  1
  Ir  Ir17  1  0.109367  0.339980  0.613007  1
