# generated using pymatgen
data_Dy3Y(PS4)4
_symmetry_space_group_name_H-M   'P 1'
_cell_length_a   8.80660014
_cell_length_b   6.55525001
_cell_length_c   12.76575566
_cell_angle_alpha   90.00592501
_cell_angle_beta   120.87541684
_cell_angle_gamma   89.99825374
_symmetry_Int_Tables_number   1
_chemical_formula_structural   Dy3Y(PS4)4
_chemical_formula_sum   'Dy3 Y1 P4 S16'
_cell_volume   632.52204856
_cell_formula_units_Z   1
loop_
 _symmetry_equiv_pos_site_id
 _symmetry_equiv_pos_as_xyz
  1  'x, y, z'
loop_
 _atom_site_type_symbol
 _atom_site_label
 _atom_site_symmetry_multiplicity
 _atom_site_fract_x
 _atom_site_fract_y
 _atom_site_fract_z
 _atom_site_occupancy
  Dy  Dy0  1  0.557210  0.318537  0.164810  1
  Dy  Dy1  1  0.442811  0.818548  0.335218  1
  Dy  Dy2  1  0.557203  0.181447  0.664784  1
  Y  Y3  1  0.442801  0.681357  0.835286  1
  P  P4  1  0.311129  0.769840  0.038692  1
  P  P5  1  0.688842  0.269828  0.461349  1
  P  P6  1  0.311121  0.730189  0.538597  1
  P  P7  1  0.688868  0.230114  0.961367  1
  S  S8  1  0.574088  0.732889  0.088067  1
  S  S9  1  0.280498  0.037724  0.112182  1
  S  S10  1  0.261347  0.550079  0.133046  1
  S  S11  1  0.846587  0.246130  0.143522  1
  S  S12  1  0.153410  0.746136  0.356474  1
  S  S13  1  0.738659  0.050073  0.366946  1
  S  S14  1  0.719504  0.537734  0.387806  1
  S  S15  1  0.425950  0.232850  0.412073  1
  S  S16  1  0.574056  0.767167  0.587919  1
  S  S17  1  0.280375  0.462179  0.612010  1
  S  S18  1  0.261219  0.950100  0.632873  1
  S  S19  1  0.846591  0.253873  0.643530  1
  S  S20  1  0.153218  0.753962  0.856528  1
  S  S21  1  0.738804  0.449792  0.866961  1
  S  S22  1  0.719723  0.962551  0.887835  1
  S  S23  1  0.425984  0.266899  0.912125  1
