# generated using pymatgen
data_Yb6Al24Co3Os5
_symmetry_space_group_name_H-M   'P 1'
_cell_length_a   8.78096646
_cell_length_b   8.80711202
_cell_length_c   9.48149321
_cell_angle_alpha   90.00000101
_cell_angle_beta   89.58925523
_cell_angle_gamma   120.09853756
_symmetry_Int_Tables_number   1
_chemical_formula_structural   Yb6Al24Co3Os5
_chemical_formula_sum   'Yb6 Al24 Co3 Os5'
_cell_volume   634.36062502
_cell_formula_units_Z   1
loop_
 _symmetry_equiv_pos_site_id
 _symmetry_equiv_pos_as_xyz
  1  'x, y, z'
loop_
 _atom_site_type_symbol
 _atom_site_label
 _atom_site_symmetry_multiplicity
 _atom_site_fract_x
 _atom_site_fract_y
 _atom_site_fract_z
 _atom_site_occupancy
  Yb  Yb0  1  0.199789  0.390983  0.251476  1
  Yb  Yb1  1  0.800211  0.609017  0.748524  1
  Yb  Yb2  1  0.607822  0.803911  0.248789  1
  Yb  Yb3  1  0.392178  0.196089  0.751211  1
  Yb  Yb4  1  0.199789  0.808807  0.251476  1
  Yb  Yb5  1  0.800211  0.191193  0.748524  1
  Al  Al6  1  0.326109  0.663055  0.996984  1
  Al  Al7  1  0.673891  0.336945  0.003016  1
  Al  Al8  1  0.667418  0.333709  0.496844  1
  Al  Al9  1  0.332582  0.666291  0.503156  1
  Al  Al10  1  0.155891  0.314521  0.577642  1
  Al  Al11  1  0.844109  0.685479  0.422358  1
  Al  Al12  1  0.684652  0.842327  0.574702  1
  Al  Al13  1  0.844769  0.685510  0.076502  1
  Al  Al14  1  0.315348  0.157673  0.425298  1
  Al  Al15  1  0.155231  0.314490  0.923498  1
  Al  Al16  1  0.155891  0.841370  0.577642  1
  Al  Al17  1  0.316582  0.158290  0.075853  1
  Al  Al18  1  0.844109  0.158630  0.422358  1
  Al  Al19  1  0.683418  0.841710  0.924147  1
  Al  Al20  1  0.844769  0.159257  0.076502  1
  Al  Al21  1  0.155231  0.840743  0.923498  1
  Al  Al22  1  0.563796  0.123647  0.249485  1
  Al  Al23  1  0.436204  0.876353  0.750515  1
  Al  Al24  1  0.886960  0.443481  0.244951  1
  Al  Al25  1  0.113040  0.556519  0.755049  1
  Al  Al26  1  0.563796  0.440149  0.249485  1
  Al  Al27  1  0.436204  0.559851  0.750515  1
  Al  Al28  1  0.000454  0.000227  0.250249  1
  Al  Al29  1  0.999546  0.999773  0.749751  1
  Co  Co30  1  0.000000  0.500000  0.000000  1
  Co  Co31  1  0.000000  0.000000  0.000000  1
  Co  Co32  1  0.000000  0.000000  0.500000  1
  Os  Os33  1  0.500000  0.000000  0.000000  1
  Os  Os34  1  0.500000  0.000000  0.500000  1
  Os  Os35  1  0.500000  0.500000  0.000000  1
  Os  Os36  1  0.000000  0.500000  0.500000  1
  Os  Os37  1  0.500000  0.500000  0.500000  1
