# generated using pymatgen
data_Pr2SmSi5PPd20
_symmetry_space_group_name_H-M   'P 1'
_cell_length_a   8.77760603
_cell_length_b   8.77760544
_cell_length_c   8.77725400
_cell_angle_alpha   60.00133197
_cell_angle_beta   60.00133421
_cell_angle_gamma   59.99733749
_symmetry_Int_Tables_number   1
_chemical_formula_structural   Pr2SmSi5PPd20
_chemical_formula_sum   'Pr2 Sm1 Si5 P1 Pd20'
_cell_volume   478.18485643
_cell_formula_units_Z   1
loop_
 _symmetry_equiv_pos_site_id
 _symmetry_equiv_pos_as_xyz
  1  'x, y, z'
loop_
 _atom_site_type_symbol
 _atom_site_label
 _atom_site_symmetry_multiplicity
 _atom_site_fract_x
 _atom_site_fract_y
 _atom_site_fract_z
 _atom_site_occupancy
  Pr  Pr0  1  0.249352  0.249352  0.250648  1
  Pr  Pr1  1  0.749352  0.749352  0.750648  1
  Sm  Sm2  1  0.000466  0.000466  0.999534  1
  Si  Si3  1  0.732982  0.265439  0.267018  1
  Si  Si4  1  0.265439  0.732982  0.734561  1
  Si  Si5  1  0.265439  0.732982  0.267018  1
  Si  Si6  1  0.732982  0.265439  0.734561  1
  Si  Si7  1  0.266986  0.266986  0.733014  1
  P  P8  1  0.735439  0.735439  0.264561  1
  Pd  Pd9  1  0.385714  0.385714  0.385469  1
  Pd  Pd10  1  0.614488  0.614488  0.612823  1
  Pd  Pd11  1  0.385714  0.385714  0.843102  1
  Pd  Pd12  1  0.387177  0.841798  0.385512  1
  Pd  Pd13  1  0.614488  0.614488  0.158202  1
  Pd  Pd14  1  0.614531  0.156898  0.614286  1
  Pd  Pd15  1  0.841798  0.387177  0.385512  1
  Pd  Pd16  1  0.156898  0.614531  0.614286  1
  Pd  Pd17  1  0.346306  0.000142  0.999858  1
  Pd  Pd18  1  0.653767  0.998465  0.001535  1
  Pd  Pd19  1  0.000142  0.346306  0.653694  1
  Pd  Pd20  1  0.998465  0.653767  0.346233  1
  Pd  Pd21  1  0.000142  0.346306  0.999858  1
  Pd  Pd22  1  0.653767  0.998465  0.346233  1
  Pd  Pd23  1  0.998465  0.653767  0.001535  1
  Pd  Pd24  1  0.346306  0.000142  0.653694  1
  Pd  Pd25  1  0.000848  0.000848  0.345808  1
  Pd  Pd26  1  0.000848  0.000848  0.652495  1
  Pd  Pd27  1  0.654192  0.347505  0.999152  1
  Pd  Pd28  1  0.347505  0.654192  0.999152  1
