# generated using pymatgen
data_Y3Mg3TlAgRu
_symmetry_space_group_name_H-M   'P 1'
_cell_length_a   7.99155800
_cell_length_b   7.99155779
_cell_length_c   3.85788300
_cell_angle_alpha   90.00000000
_cell_angle_beta   90.00000000
_cell_angle_gamma   120.00000087
_symmetry_Int_Tables_number   1
_chemical_formula_structural   Y3Mg3TlAgRu
_chemical_formula_sum   'Y3 Mg3 Tl1 Ag1 Ru1'
_cell_volume   213.37453140
_cell_formula_units_Z   1
loop_
 _symmetry_equiv_pos_site_id
 _symmetry_equiv_pos_as_xyz
  1  'x, y, z'
loop_
 _atom_site_type_symbol
 _atom_site_label
 _atom_site_symmetry_multiplicity
 _atom_site_fract_x
 _atom_site_fract_y
 _atom_site_fract_z
 _atom_site_occupancy
  Y  Y0  1  0.434827  0.393313  0.500000  1
  Y  Y1  1  0.958486  0.565173  0.500000  1
  Y  Y2  1  0.606687  0.041514  0.500000  1
  Mg  Mg3  1  0.748777  0.747006  0.000000  1
  Mg  Mg4  1  0.252994  0.001771  0.000000  1
  Mg  Mg5  1  0.998229  0.251223  0.000000  1
  Tl  Tl6  1  0.333333  0.666667  0.000000  1
  Ag  Ag7  1  0.000000  0.000000  0.500000  1
  Ru  Ru8  1  0.666667  0.333333  0.000000  1
