# generated using pymatgen
data_La2Eu4NbWO14
_symmetry_space_group_name_H-M   'P 1'
_cell_length_a   6.65309175
_cell_length_b   6.65309190
_cell_length_c   7.82107423
_cell_angle_alpha   90.18900306
_cell_angle_beta   89.81100052
_cell_angle_gamma   110.45124281
_symmetry_Int_Tables_number   1
_chemical_formula_structural   La2Eu4NbWO14
_chemical_formula_sum   'La2 Eu4 Nb1 W1 O14'
_cell_volume   324.36617921
_cell_formula_units_Z   1
loop_
 _symmetry_equiv_pos_site_id
 _symmetry_equiv_pos_as_xyz
  1  'x, y, z'
loop_
 _atom_site_type_symbol
 _atom_site_label
 _atom_site_symmetry_multiplicity
 _atom_site_fract_x
 _atom_site_fract_y
 _atom_site_fract_z
 _atom_site_occupancy
  La  La0  1  0.503668  0.503668  0.500000  1
  La  La1  1  0.497017  0.497017  0.000000  1
  Eu  Eu2  1  0.470501  0.001044  0.247254  1
  Eu  Eu3  1  0.529660  0.999424  0.754941  1
  Eu  Eu4  1  0.001044  0.470501  0.752746  1
  Eu  Eu5  1  0.999424  0.529660  0.245059  1
  Nb  Nb6  1  0.999856  0.999856  0.000000  1
  W  W7  1  0.999621  0.999621  0.500000  1
  O  O8  1  0.305285  0.063287  0.531866  1
  O  O9  1  0.684446  0.931572  0.026495  1
  O  O10  1  0.063287  0.305285  0.468134  1
  O  O11  1  0.931572  0.684446  0.973505  1
  O  O12  1  0.932960  0.691704  0.529659  1
  O  O13  1  0.072098  0.318160  0.023716  1
  O  O14  1  0.691704  0.932960  0.470341  1
  O  O15  1  0.318160  0.072098  0.976284  1
  O  O16  1  0.632672  0.368267  0.251622  1
  O  O17  1  0.368267  0.632672  0.748378  1
  O  O18  1  0.362074  0.637738  0.252935  1
  O  O19  1  0.637738  0.362074  0.747065  1
  O  O20  1  0.049216  0.949731  0.255842  1
  O  O21  1  0.949731  0.049216  0.744158  1
