# generated using pymatgen
data_Sm4Se3N2
_symmetry_space_group_name_H-M   'P 1'
_cell_length_a   8.22560014
_cell_length_b   8.22559942
_cell_length_c   6.40688855
_cell_angle_alpha   89.87766940
_cell_angle_beta   89.87766555
_cell_angle_gamma   75.65908875
_symmetry_Int_Tables_number   1
_chemical_formula_structural   Sm4Se3N2
_chemical_formula_sum   'Sm8 Se6 N4'
_cell_volume   419.98366394
_cell_formula_units_Z   2
loop_
 _symmetry_equiv_pos_site_id
 _symmetry_equiv_pos_as_xyz
  1  'x, y, z'
loop_
 _atom_site_type_symbol
 _atom_site_label
 _atom_site_symmetry_multiplicity
 _atom_site_fract_x
 _atom_site_fract_y
 _atom_site_fract_z
 _atom_site_occupancy
  Sm  Sm0  1  0.244581  0.086071  0.572350  1
  Sm  Sm1  1  0.913929  0.755419  0.927650  1
  Sm  Sm2  1  0.755419  0.913929  0.427650  1
  Sm  Sm3  1  0.086071  0.244581  0.072350  1
  Sm  Sm4  1  0.811897  0.443279  0.529740  1
  Sm  Sm5  1  0.556721  0.188103  0.970260  1
  Sm  Sm6  1  0.188103  0.556721  0.470260  1
  Sm  Sm7  1  0.443279  0.811897  0.029740  1
  Se  Se8  1  0.745849  0.483743  0.035439  1
  Se  Se9  1  0.096450  0.903550  0.250000  1
  Se  Se10  1  0.516257  0.254151  0.464561  1
  Se  Se11  1  0.254151  0.516257  0.964561  1
  Se  Se12  1  0.903550  0.096450  0.750000  1
  Se  Se13  1  0.483743  0.745849  0.535439  1
  N  N14  1  0.082081  0.329139  0.414853  1
  N  N15  1  0.329139  0.082081  0.914853  1
  N  N16  1  0.917919  0.670861  0.585147  1
  N  N17  1  0.670861  0.917919  0.085147  1
