# generated using pymatgen
data_La2(CN2)3
_symmetry_space_group_name_H-M   'P 1'
_cell_length_a   7.90205488
_cell_length_b   7.90205507
_cell_length_c   5.38663995
_cell_angle_alpha   83.38777112
_cell_angle_beta   83.38777066
_cell_angle_gamma   30.03852528
_symmetry_Int_Tables_number   1
_chemical_formula_structural   La2(CN2)3
_chemical_formula_sum   'La2 C3 N6'
_cell_volume   167.17248279
_cell_formula_units_Z   1
loop_
 _symmetry_equiv_pos_site_id
 _symmetry_equiv_pos_as_xyz
  1  'x, y, z'
loop_
 _atom_site_type_symbol
 _atom_site_label
 _atom_site_symmetry_multiplicity
 _atom_site_fract_x
 _atom_site_fract_y
 _atom_site_fract_z
 _atom_site_occupancy
  La  La0  1  0.864947  0.864947  0.573302  1
  La  La1  1  0.135053  0.135053  0.426698  1
  C  C2  1  0.327750  0.327750  0.093556  1
  C  C3  1  0.672250  0.672250  0.906444  1
  C  C4  1  0.000000  0.000000  0.000000  1
  N  N5  1  0.689209  0.689209  0.673833  1
  N  N6  1  0.310791  0.310791  0.326167  1
  N  N7  1  0.658103  0.658103  0.134812  1
  N  N8  1  0.341897  0.341897  0.865188  1
  N  N9  1  0.989591  0.989591  0.230813  1
  N  N10  1  0.010409  0.010409  0.769187  1
