# generated using pymatgen
data_Ta7TiAl6Re2B
_symmetry_space_group_name_H-M   'P 1'
_cell_length_a   7.73430100
_cell_length_b   7.73430012
_cell_length_c   5.19589800
_cell_angle_alpha   90.00000000
_cell_angle_beta   90.00000000
_cell_angle_gamma   119.99999092
_symmetry_Int_Tables_number   1
_chemical_formula_structural   Ta7TiAl6Re2B
_chemical_formula_sum   'Ta7 Ti1 Al6 Re2 B1'
_cell_volume   269.17416752
_cell_formula_units_Z   1
loop_
 _symmetry_equiv_pos_site_id
 _symmetry_equiv_pos_as_xyz
  1  'x, y, z'
loop_
 _atom_site_type_symbol
 _atom_site_label
 _atom_site_symmetry_multiplicity
 _atom_site_fract_x
 _atom_site_fract_y
 _atom_site_fract_z
 _atom_site_occupancy
  Ta  Ta0  1  0.333333  0.666667  0.000000  1
  Ta  Ta1  1  0.002318  0.765889  0.233702  1
  Ta  Ta2  1  0.234111  0.236429  0.233702  1
  Ta  Ta3  1  0.763571  0.997682  0.233702  1
  Ta  Ta4  1  0.002318  0.236429  0.766298  1
  Ta  Ta5  1  0.763571  0.765889  0.766298  1
  Ta  Ta6  1  0.234111  0.997682  0.766298  1
  Ti  Ti7  1  0.666667  0.333333  0.000000  1
  Al  Al8  1  0.996719  0.404549  0.267282  1
  Al  Al9  1  0.595451  0.592170  0.267282  1
  Al  Al10  1  0.407830  0.003281  0.267282  1
  Al  Al11  1  0.996719  0.592170  0.732718  1
  Al  Al12  1  0.407830  0.404549  0.732718  1
  Al  Al13  1  0.595451  0.003281  0.732718  1
  Re  Re14  1  0.333333  0.666667  0.500000  1
  Re  Re15  1  0.666667  0.333333  0.500000  1
  B  B16  1  0.000000  0.000000  0.500000  1
