# generated using pymatgen
data_La8YHoIn6
_symmetry_space_group_name_H-M   'P 1'
_cell_length_a   6.37578057
_cell_length_b   9.52669561
_cell_length_c   9.52669504
_cell_angle_alpha   83.57080735
_cell_angle_beta   70.45014302
_cell_angle_gamma   70.45014387
_symmetry_Int_Tables_number   1
_chemical_formula_structural   La8YHoIn6
_chemical_formula_sum   'La8 Y1 Ho1 In6'
_cell_volume   513.85785537
_cell_formula_units_Z   1
loop_
 _symmetry_equiv_pos_site_id
 _symmetry_equiv_pos_as_xyz
  1  'x, y, z'
loop_
 _atom_site_type_symbol
 _atom_site_label
 _atom_site_symmetry_multiplicity
 _atom_site_fract_x
 _atom_site_fract_y
 _atom_site_fract_z
 _atom_site_occupancy
  La  La0  1  0.723097  0.864691  0.689050  1
  La  La1  1  0.276840  0.135309  0.310950  1
  La  La2  1  0.776903  0.310950  0.135309  1
  La  La3  1  0.223160  0.689050  0.864691  1
  La  La4  1  0.587852  0.689050  0.135309  1
  La  La5  1  0.412212  0.310950  0.864691  1
  La  La6  1  0.087788  0.135309  0.689050  1
  La  La7  1  0.912148  0.864691  0.310950  1
  Y  Y8  1  0.750000  0.500000  0.500000  1
  Ho  Ho9  1  0.250000  0.500000  0.500000  1
  In  In10  1  0.156329  0.500000  0.187493  1
  In  In11  1  0.843820  0.500000  0.812507  1
  In  In12  1  0.343671  0.812507  0.500000  1
  In  In13  1  0.656180  0.187493  0.500000  1
  In  In14  1  0.250000  0.000000  0.000000  1
  In  In15  1  0.750000  0.000000  0.000000  1
