# generated using pymatgen
data_SmAuBr6
_symmetry_space_group_name_H-M   'P 1'
_cell_length_a   8.33247656
_cell_length_b   10.53295454
_cell_length_c   15.04910603
_cell_angle_alpha   103.19147924
_cell_angle_beta   96.44999347
_cell_angle_gamma   112.47760176
_symmetry_Int_Tables_number   1
_chemical_formula_structural   SmAuBr6
_chemical_formula_sum   'Sm4 Au4 Br24'
_cell_volume   1158.63811312
_cell_formula_units_Z   4
loop_
 _symmetry_equiv_pos_site_id
 _symmetry_equiv_pos_as_xyz
  1  'x, y, z'
loop_
 _atom_site_type_symbol
 _atom_site_label
 _atom_site_symmetry_multiplicity
 _atom_site_fract_x
 _atom_site_fract_y
 _atom_site_fract_z
 _atom_site_occupancy
  Sm  Sm0  1  0.579719  0.923054  0.622103  1
  Sm  Sm1  1  0.420281  0.076946  0.377897  1
  Sm  Sm2  1  0.975242  0.312778  0.870947  1
  Sm  Sm3  1  0.024758  0.687222  0.129053  1
  Au  Au4  1  0.294640  0.631901  0.762875  1
  Au  Au5  1  0.705360  0.368099  0.237125  1
  Au  Au6  1  0.500000  0.500000  0.500000  1
  Au  Au7  1  0.000000  0.000000  0.000000  1
  Br  Br8  1  0.608537  0.735702  0.748684  1
  Br  Br9  1  0.391463  0.264298  0.251316  1
  Br  Br10  1  0.275909  0.847827  0.733416  1
  Br  Br11  1  0.724091  0.152173  0.266584  1
  Br  Br12  1  0.977460  0.530935  0.771861  1
  Br  Br13  1  0.022540  0.469065  0.228139  1
  Br  Br14  1  0.310472  0.411477  0.787395  1
  Br  Br15  1  0.689528  0.588523  0.212605  1
  Br  Br16  1  0.687949  0.365958  0.505991  1
  Br  Br17  1  0.312051  0.634042  0.494009  1
  Br  Br18  1  0.762698  0.730335  0.527266  1
  Br  Br19  1  0.237302  0.269665  0.472734  1
  Br  Br20  1  0.790058  0.111321  0.978056  1
  Br  Br21  1  0.209942  0.888679  0.021944  1
  Br  Br22  1  0.769562  0.792954  0.031630  1
  Br  Br23  1  0.230438  0.207046  0.968370  1
  Br  Br24  1  0.618435  0.192855  0.745343  1
  Br  Br25  1  0.381565  0.807145  0.254657  1
  Br  Br26  1  0.948675  0.056153  0.728567  1
  Br  Br27  1  0.051325  0.943847  0.271433  1
  Br  Br28  1  0.724731  0.048517  0.481298  1
  Br  Br29  1  0.275269  0.951483  0.518702  1
  Br  Br30  1  0.763758  0.435796  0.977548  1
  Br  Br31  1  0.236242  0.564204  0.022452  1
