# generated using pymatgen
data_Tb5Bi2PbC
_symmetry_space_group_name_H-M   'P 1'
_cell_length_a   9.17577739
_cell_length_b   9.17577795
_cell_length_c   6.55240300
_cell_angle_alpha   90.00000000
_cell_angle_beta   90.00000000
_cell_angle_gamma   120.23558307
_symmetry_Int_Tables_number   1
_chemical_formula_structural   Tb5Bi2PbC
_chemical_formula_sum   'Tb10 Bi4 Pb2 C2'
_cell_volume   476.62972735
_cell_formula_units_Z   2
loop_
 _symmetry_equiv_pos_site_id
 _symmetry_equiv_pos_as_xyz
  1  'x, y, z'
loop_
 _atom_site_type_symbol
 _atom_site_label
 _atom_site_symmetry_multiplicity
 _atom_site_fract_x
 _atom_site_fract_y
 _atom_site_fract_z
 _atom_site_occupancy
  Tb  Tb0  1  0.210092  0.002811  0.250000  1
  Tb  Tb1  1  0.789908  0.997189  0.750000  1
  Tb  Tb2  1  0.002811  0.210092  0.250000  1
  Tb  Tb3  1  0.997189  0.789908  0.750000  1
  Tb  Tb4  1  0.790476  0.790476  0.250000  1
  Tb  Tb5  1  0.209524  0.209524  0.750000  1
  Tb  Tb6  1  0.335053  0.664947  0.000000  1
  Tb  Tb7  1  0.664947  0.335053  0.000000  1
  Tb  Tb8  1  0.664947  0.335053  0.500000  1
  Tb  Tb9  1  0.335053  0.664947  0.500000  1
  Bi  Bi10  1  0.599681  0.000676  0.250000  1
  Bi  Bi11  1  0.400319  0.999324  0.750000  1
  Bi  Bi12  1  0.000676  0.599681  0.250000  1
  Bi  Bi13  1  0.999324  0.400319  0.750000  1
  Pb  Pb14  1  0.405104  0.405104  0.250000  1
  Pb  Pb15  1  0.594896  0.594896  0.750000  1
  C  C16  1  0.000000  0.000000  0.000000  1
  C  C17  1  0.000000  0.000000  0.500000  1
