# generated using pymatgen
data_Ba7Ca4Zn(ReN4)4
_symmetry_space_group_name_H-M   'P 1'
_cell_length_a   10.71298589
_cell_length_b   10.47734547
_cell_length_c   8.13410592
_cell_angle_alpha   70.02884642
_cell_angle_beta   65.90263480
_cell_angle_gamma   45.12883423
_symmetry_Int_Tables_number   1
_chemical_formula_structural   Ba7Ca4Zn(ReN4)4
_chemical_formula_sum   'Ba7 Ca4 Zn1 Re4 N16'
_cell_volume   588.62949596
_cell_formula_units_Z   1
loop_
 _symmetry_equiv_pos_site_id
 _symmetry_equiv_pos_as_xyz
  1  'x, y, z'
loop_
 _atom_site_type_symbol
 _atom_site_label
 _atom_site_symmetry_multiplicity
 _atom_site_fract_x
 _atom_site_fract_y
 _atom_site_fract_z
 _atom_site_occupancy
  Ba  Ba0  1  0.933955  0.566045  0.566045  1
  Ba  Ba1  1  0.314635  0.685365  0.685365  1
  Ba  Ba2  1  0.119929  0.108327  0.898794  1
  Ba  Ba3  1  0.145492  0.121099  0.359365  1
  Ba  Ba4  1  0.374044  0.359365  0.121099  1
  Ba  Ba5  1  0.680020  0.319980  0.319980  1
  Ba  Ba6  1  0.872950  0.898794  0.108327  1
  Ca  Ca7  1  0.359997  0.306878  0.668947  1
  Ca  Ca8  1  0.850419  0.937683  0.637659  1
  Ca  Ca9  1  0.664178  0.668947  0.306878  1
  Ca  Ca10  1  0.574240  0.637659  0.937683  1
  Zn  Zn11  1  0.523907  0.976093  0.976093  1
  Re  Re12  1  0.488644  0.003309  0.486103  1
  Re  Re13  1  0.021944  0.486103  0.003309  1
  Re  Re14  1  0.760849  0.262155  0.741697  1
  Re  Re15  1  0.235300  0.741697  0.262155  1
  N  N16  1  0.043683  0.623734  0.801738  1
  N  N17  1  0.697514  0.318639  0.970766  1
  N  N18  1  0.647703  0.027287  0.475067  1
  N  N19  1  0.530847  0.801738  0.623734  1
  N  N20  1  0.257533  0.550495  0.403530  1
  N  N21  1  0.788442  0.403530  0.550495  1
  N  N22  1  0.979649  0.023553  0.719472  1
  N  N23  1  0.522420  0.983437  0.250354  1
  N  N24  1  0.417983  0.720321  0.275889  1
  N  N25  1  0.974368  0.566265  0.209954  1
  N  N26  1  0.277326  0.719472  0.023553  1
  N  N27  1  0.849944  0.475067  0.027287  1
  N  N28  1  0.243789  0.250354  0.983437  1
  N  N29  1  0.585806  0.275889  0.720321  1
  N  N30  1  0.249413  0.209954  0.566265  1
  N  N31  1  0.013080  0.970766  0.318639  1
