# generated using pymatgen
data_Hf16FeCo3Pt4
_symmetry_space_group_name_H-M   'P 1'
_cell_length_a   8.63626935
_cell_length_b   8.63608777
_cell_length_c   8.63608700
_cell_angle_alpha   59.99999913
_cell_angle_beta   60.00069462
_cell_angle_gamma   60.00069265
_symmetry_Int_Tables_number   1
_chemical_formula_structural   Hf16FeCo3Pt4
_chemical_formula_sum   'Hf16 Fe1 Co3 Pt4'
_cell_volume   455.45952372
_cell_formula_units_Z   1
loop_
 _symmetry_equiv_pos_site_id
 _symmetry_equiv_pos_as_xyz
  1  'x, y, z'
loop_
 _atom_site_type_symbol
 _atom_site_label
 _atom_site_symmetry_multiplicity
 _atom_site_fract_x
 _atom_site_fract_y
 _atom_site_fract_z
 _atom_site_occupancy
  Hf  Hf0  1  0.070148  0.643284  0.643284  1
  Hf  Hf1  1  0.643355  0.069813  0.643417  1
  Hf  Hf2  1  0.643355  0.643417  0.069813  1
  Hf  Hf3  1  0.643355  0.643417  0.643417  1
  Hf  Hf4  1  0.809605  0.809962  0.190216  1
  Hf  Hf5  1  0.191943  0.188027  0.810015  1
  Hf  Hf6  1  0.809605  0.190216  0.809962  1
  Hf  Hf7  1  0.191943  0.810015  0.188027  1
  Hf  Hf8  1  0.191943  0.810015  0.810015  1
  Hf  Hf9  1  0.809605  0.190216  0.190216  1
  Hf  Hf10  1  0.438096  0.439805  0.061050  1
  Hf  Hf11  1  0.061628  0.062247  0.438063  1
  Hf  Hf12  1  0.438096  0.061050  0.439805  1
  Hf  Hf13  1  0.061628  0.438063  0.062247  1
  Hf  Hf14  1  0.061628  0.438063  0.438063  1
  Hf  Hf15  1  0.438096  0.061050  0.061050  1
  Fe  Fe16  1  0.432033  0.855989  0.855989  1
  Co  Co17  1  0.855017  0.432619  0.856182  1
  Co  Co18  1  0.855017  0.856182  0.432619  1
  Co  Co19  1  0.855017  0.856182  0.856182  1
  Pt  Pt20  1  0.769201  0.410266  0.410266  1
  Pt  Pt21  1  0.409896  0.769960  0.410072  1
  Pt  Pt22  1  0.409896  0.410072  0.769960  1
  Pt  Pt23  1  0.409896  0.410072  0.410072  1
