# generated using pymatgen
data_Tb5Nd15Si15Os
_symmetry_space_group_name_H-M   'P 1'
_cell_length_a   7.62451481
_cell_length_b   7.96186387
_cell_length_c   15.02650628
_cell_angle_alpha   89.97958263
_cell_angle_beta   89.92748098
_cell_angle_gamma   90.12688004
_symmetry_Int_Tables_number   1
_chemical_formula_structural   Tb5Nd15Si15Os
_chemical_formula_sum   'Tb5 Nd15 Si15 Os1'
_cell_volume   912.18628097
_cell_formula_units_Z   1
loop_
 _symmetry_equiv_pos_site_id
 _symmetry_equiv_pos_as_xyz
  1  'x, y, z'
loop_
 _atom_site_type_symbol
 _atom_site_label
 _atom_site_symmetry_multiplicity
 _atom_site_fract_x
 _atom_site_fract_y
 _atom_site_fract_z
 _atom_site_occupancy
  Tb  Tb0  1  0.141436  0.517670  0.749895  1
  Tb  Tb1  1  0.810622  0.323442  0.622833  1
  Tb  Tb2  1  0.846733  0.485837  0.249958  1
  Tb  Tb3  1  0.363919  0.016153  0.250044  1
  Tb  Tb4  1  0.638862  0.985666  0.749814  1
  Nd  Nd5  1  0.463772  0.687949  0.899438  1
  Nd  Nd6  1  0.964107  0.814954  0.901078  1
  Nd  Nd7  1  0.198270  0.675146  0.127141  1
  Nd  Nd8  1  0.681626  0.814614  0.124273  1
  Nd  Nd9  1  0.310285  0.180218  0.876412  1
  Nd  Nd10  1  0.197348  0.674625  0.374011  1
  Nd  Nd11  1  0.035244  0.185174  0.098679  1
  Nd  Nd12  1  0.311248  0.180928  0.623101  1
  Nd  Nd13  1  0.530537  0.323036  0.401116  1
  Nd  Nd14  1  0.810298  0.322083  0.877546  1
  Nd  Nd15  1  0.964288  0.814888  0.598345  1
  Nd  Nd16  1  0.464758  0.688260  0.599636  1
  Nd  Nd17  1  0.033959  0.184678  0.402000  1
  Nd  Nd18  1  0.681744  0.814688  0.376041  1
  Nd  Nd19  1  0.530055  0.323160  0.099293  1
  Si  Si20  1  0.245222  0.365732  0.250155  1
  Si  Si21  1  0.864182  0.521855  0.460432  1
  Si  Si22  1  0.518173  0.403105  0.747968  1
  Si  Si23  1  0.635599  0.025109  0.957946  1
  Si  Si24  1  0.008061  0.101773  0.748084  1
  Si  Si25  1  0.758178  0.623906  0.748255  1
  Si  Si26  1  0.751420  0.122312  0.250127  1
  Si  Si27  1  0.361471  0.977249  0.459293  1
  Si  Si28  1  0.987755  0.904075  0.250158  1
  Si  Si29  1  0.359744  0.976434  0.041042  1
  Si  Si30  1  0.639747  0.028877  0.542572  1
  Si  Si31  1  0.141215  0.474685  0.959752  1
  Si  Si32  1  0.136688  0.472670  0.541732  1
  Si  Si33  1  0.868199  0.524344  0.041868  1
  Si  Si34  1  0.254061  0.873689  0.749623  1
  Os  Os35  1  0.491173  0.591012  0.250338  1
