# generated using pymatgen
data_Tb2Y3ErPtI10
_symmetry_space_group_name_H-M   'P 1'
_cell_length_a   7.72864100
_cell_length_b   9.74799725
_cell_length_c   9.79601956
_cell_angle_alpha   107.23471920
_cell_angle_beta   96.87180334
_cell_angle_gamma   104.70194538
_symmetry_Int_Tables_number   1
_chemical_formula_structural   Tb2Y3ErPtI10
_chemical_formula_sum   'Tb2 Y3 Er1 Pt1 I10'
_cell_volume   666.46717084
_cell_formula_units_Z   1
loop_
 _symmetry_equiv_pos_site_id
 _symmetry_equiv_pos_as_xyz
  1  'x, y, z'
loop_
 _atom_site_type_symbol
 _atom_site_label
 _atom_site_symmetry_multiplicity
 _atom_site_fract_x
 _atom_site_fract_y
 _atom_site_fract_z
 _atom_site_occupancy
  Tb  Tb0  1  0.885239  0.959580  0.242345  1
  Tb  Tb1  1  0.116915  0.041523  0.758661  1
  Y  Y2  1  0.650774  0.874436  0.834105  1
  Y  Y3  1  0.971080  0.287680  0.087238  1
  Y  Y4  1  0.029885  0.712632  0.913509  1
  Er  Er5  1  0.345617  0.124908  0.164622  1
  Pt  Pt6  1  0.000913  0.000376  0.000358  1
  I  I7  1  0.356831  0.450652  0.272477  1
  I  I8  1  0.644754  0.546678  0.727276  1
  I  I9  1  0.914398  0.626655  0.179109  1
  I  I10  1  0.085322  0.373219  0.820863  1
  I  I11  1  0.453468  0.819131  0.092512  1
  I  I12  1  0.546559  0.183141  0.910057  1
  I  I13  1  0.261243  0.087985  0.460843  1
  I  I14  1  0.740376  0.912625  0.537850  1
  I  I15  1  0.775292  0.257973  0.345321  1
  I  I16  1  0.221333  0.740807  0.652853  1
