# generated using pymatgen
data_Tb2Tm3Sn4
_symmetry_space_group_name_H-M   'P 1'
_cell_length_a   7.99250500
_cell_length_b   8.13542500
_cell_length_c   15.36017700
_cell_angle_alpha   90.00000000
_cell_angle_beta   90.00000000
_cell_angle_gamma   90.00000000
_symmetry_Int_Tables_number   1
_chemical_formula_structural   Tb2Tm3Sn4
_chemical_formula_sum   'Tb8 Tm12 Sn16'
_cell_volume   998.75595681
_cell_formula_units_Z   4
loop_
 _symmetry_equiv_pos_site_id
 _symmetry_equiv_pos_as_xyz
  1  'x, y, z'
loop_
 _atom_site_type_symbol
 _atom_site_label
 _atom_site_symmetry_multiplicity
 _atom_site_fract_x
 _atom_site_fract_y
 _atom_site_fract_z
 _atom_site_occupancy
  Tb  Tb0  1  0.520890  0.320298  0.902641  1
  Tb  Tb1  1  0.020890  0.179702  0.597359  1
  Tb  Tb2  1  0.479110  0.679702  0.402641  1
  Tb  Tb3  1  0.979110  0.820298  0.097359  1
  Tb  Tb4  1  0.479110  0.679702  0.097359  1
  Tb  Tb5  1  0.979110  0.820298  0.402641  1
  Tb  Tb6  1  0.520890  0.320298  0.597359  1
  Tb  Tb7  1  0.020890  0.179702  0.902641  1
  Tm  Tm8  1  0.367178  0.836214  0.877417  1
  Tm  Tm9  1  0.867178  0.663786  0.622583  1
  Tm  Tm10  1  0.632822  0.163786  0.377417  1
  Tm  Tm11  1  0.132822  0.336214  0.122583  1
  Tm  Tm12  1  0.632822  0.163786  0.122583  1
  Tm  Tm13  1  0.132822  0.336214  0.377417  1
  Tm  Tm14  1  0.367178  0.836214  0.622583  1
  Tm  Tm15  1  0.867178  0.663786  0.877417  1
  Tm  Tm16  1  0.197976  0.504078  0.750000  1
  Tm  Tm17  1  0.697976  0.995922  0.750000  1
  Tm  Tm18  1  0.802024  0.495922  0.250000  1
  Tm  Tm19  1  0.302024  0.004078  0.250000  1
  Sn  Sn20  1  0.294404  0.036970  0.041838  1
  Sn  Sn21  1  0.794404  0.463030  0.458162  1
  Sn  Sn22  1  0.705596  0.963030  0.541838  1
  Sn  Sn23  1  0.205596  0.536970  0.958162  1
  Sn  Sn24  1  0.705596  0.963030  0.958162  1
  Sn  Sn25  1  0.205596  0.536970  0.541838  1
  Sn  Sn26  1  0.294404  0.036970  0.458162  1
  Sn  Sn27  1  0.794404  0.463030  0.041838  1
  Sn  Sn28  1  0.564352  0.621283  0.750000  1
  Sn  Sn29  1  0.064352  0.878717  0.750000  1
  Sn  Sn30  1  0.435648  0.378717  0.250000  1
  Sn  Sn31  1  0.935648  0.121283  0.250000  1
  Sn  Sn32  1  0.329597  0.146429  0.750000  1
  Sn  Sn33  1  0.829597  0.353571  0.750000  1
  Sn  Sn34  1  0.670403  0.853571  0.250000  1
  Sn  Sn35  1  0.170403  0.646429  0.250000  1
