# generated using pymatgen
data_DyHo4Tm2P12Ir17
_symmetry_space_group_name_H-M   'P 1'
_cell_length_a   12.70179403
_cell_length_b   12.98707505
_cell_length_c   3.97691900
_cell_angle_alpha   90.00000000
_cell_angle_beta   90.00000000
_cell_angle_gamma   119.26798255
_symmetry_Int_Tables_number   1
_chemical_formula_structural   DyHo4Tm2P12Ir17
_chemical_formula_sum   'Dy1 Ho4 Tm2 P12 Ir17'
_cell_volume   572.28221198
_cell_formula_units_Z   1
loop_
 _symmetry_equiv_pos_site_id
 _symmetry_equiv_pos_as_xyz
  1  'x, y, z'
loop_
 _atom_site_type_symbol
 _atom_site_label
 _atom_site_symmetry_multiplicity
 _atom_site_fract_x
 _atom_site_fract_y
 _atom_site_fract_z
 _atom_site_occupancy
  Dy  Dy0  1  0.667824  0.338023  0.500000  1
  Ho  Ho1  1  0.329856  0.661880  0.500000  1
  Ho  Ho2  1  0.002455  0.816502  0.000000  1
  Ho  Ho3  1  0.185964  0.183506  0.000000  1
  Ho  Ho4  1  0.810726  0.000015  0.000000  1
  Tm  Tm5  1  0.996031  0.443856  0.500000  1
  Tm  Tm6  1  0.552123  0.556188  0.500000  1
  P  P7  1  0.009683  0.658116  0.500000  1
  P  P8  1  0.351600  0.341892  0.500000  1
  P  P9  1  0.644390  0.000035  0.500000  1
  P  P10  1  0.516255  0.690554  0.000000  1
  P  P11  1  0.309158  0.824230  0.000000  1
  P  P12  1  0.166783  0.480719  0.000000  1
  P  P13  1  0.484745  0.175557  0.000000  1
  P  P14  1  0.686140  0.519472  0.000000  1
  P  P15  1  0.825880  0.309464  0.000000  1
  P  P16  1  0.999425  0.174512  0.500000  1
  P  P17  1  0.824880  0.825489  0.500000  1
  P  P18  1  0.181515  0.999990  0.500000  1
  Ir  Ir19  1  0.504135  0.865739  0.000000  1
  Ir  Ir20  1  0.121971  0.645297  0.000000  1
  Ir  Ir21  1  0.357740  0.501771  0.000000  1
  Ir  Ir22  1  0.476378  0.354713  0.000000  1
  Ir  Ir23  1  0.856390  0.498575  0.000000  1
  Ir  Ir24  1  0.638403  0.134001  0.000000  1
  Ir  Ir25  1  0.465068  0.999988  0.500000  1
  Ir  Ir26  1  0.996491  0.272099  0.000000  1
  Ir  Ir27  1  0.724340  0.727895  0.000000  1
  Ir  Ir28  1  0.286931  0.999979  0.000000  1
  Ir  Ir29  1  0.624147  0.810809  0.500000  1
  Ir  Ir30  1  0.208596  0.828448  0.500000  1
  Ir  Ir31  1  0.180617  0.364161  0.500000  1
  Ir  Ir32  1  0.380003  0.171482  0.500000  1
  Ir  Ir33  1  0.816455  0.635883  0.500000  1
  Ir  Ir34  1  0.813396  0.189168  0.500000  1
  Ir  Ir35  1  0.003503  0.999991  0.500000  1
