# generated using pymatgen
data_Eu4AlInPd4
_symmetry_space_group_name_H-M   'P 1'
_cell_length_a   5.90814740
_cell_length_b   5.90814690
_cell_length_c   8.21933051
_cell_angle_alpha   78.28974954
_cell_angle_beta   78.28974972
_cell_angle_gamma   60.29643961
_symmetry_Int_Tables_number   1
_chemical_formula_structural   Eu4AlInPd4
_chemical_formula_sum   'Eu4 Al1 In1 Pd4'
_cell_volume   242.24482056
_cell_formula_units_Z   1
loop_
 _symmetry_equiv_pos_site_id
 _symmetry_equiv_pos_as_xyz
  1  'x, y, z'
loop_
 _atom_site_type_symbol
 _atom_site_label
 _atom_site_symmetry_multiplicity
 _atom_site_fract_x
 _atom_site_fract_y
 _atom_site_fract_z
 _atom_site_occupancy
  Eu  Eu0  1  0.787204  0.509195  0.351197  1
  Eu  Eu1  1  0.490805  0.212796  0.148803  1
  Eu  Eu2  1  0.210248  0.493167  0.646901  1
  Eu  Eu3  1  0.506833  0.789752  0.853099  1
  Al  Al4  1  0.125264  0.874736  0.250000  1
  In  In5  1  0.851255  0.148745  0.750000  1
  Pd  Pd6  1  0.010366  0.732541  0.015726  1
  Pd  Pd7  1  0.267459  0.989634  0.484274  1
  Pd  Pd8  1  0.008030  0.257463  0.011076  1
  Pd  Pd9  1  0.742537  0.991970  0.488924  1
