# generated using pymatgen
data_Th14Os5Rh
_symmetry_space_group_name_H-M   'P 1'
_cell_length_a   10.04330600
_cell_length_b   10.02163897
_cell_length_c   6.34667057
_cell_angle_alpha   90.13198994
_cell_angle_beta   90.00000000
_cell_angle_gamma   120.07153840
_symmetry_Int_Tables_number   1
_chemical_formula_structural   Th14Os5Rh
_chemical_formula_sum   'Th14 Os5 Rh1'
_cell_volume   552.81138232
_cell_formula_units_Z   1
loop_
 _symmetry_equiv_pos_site_id
 _symmetry_equiv_pos_as_xyz
  1  'x, y, z'
loop_
 _atom_site_type_symbol
 _atom_site_label
 _atom_site_symmetry_multiplicity
 _atom_site_fract_x
 _atom_site_fract_y
 _atom_site_fract_z
 _atom_site_occupancy
  Th  Th0  1  0.458204  0.538933  0.299792  1
  Th  Th1  1  0.080729  0.538933  0.299792  1
  Th  Th2  1  0.920292  0.458804  0.798237  1
  Th  Th3  1  0.252382  0.125978  0.501874  1
  Th  Th4  1  0.540383  0.080766  0.799286  1
  Th  Th5  1  0.745349  0.874943  0.001450  1
  Th  Th6  1  0.665783  0.331565  0.289740  1
  Th  Th7  1  0.129594  0.874943  0.001450  1
  Th  Th8  1  0.459961  0.919922  0.299867  1
  Th  Th9  1  0.538513  0.458804  0.798237  1
  Th  Th10  1  0.873597  0.125978  0.501874  1
  Th  Th11  1  0.125901  0.251803  0.002177  1
  Th  Th12  1  0.874669  0.749338  0.502602  1
  Th  Th13  1  0.333209  0.666418  0.785803  1
  Os  Os14  1  0.813176  0.189158  0.050526  1
  Os  Os15  1  0.626343  0.812026  0.550411  1
  Os  Os16  1  0.375982  0.189158  0.050526  1
  Os  Os17  1  0.187259  0.374518  0.550923  1
  Os  Os18  1  0.185683  0.812026  0.550411  1
  Rh  Rh19  1  0.812992  0.625985  0.049018  1
