# generated using pymatgen
data_SmCdCuPt3
_symmetry_space_group_name_H-M   'P 1'
_cell_length_a   5.47509465
_cell_length_b   5.47509471
_cell_length_c   5.22996565
_cell_angle_alpha   58.43703280
_cell_angle_beta   58.43703949
_cell_angle_gamma   59.99999531
_symmetry_Int_Tables_number   1
_chemical_formula_structural   SmCdCuPt3
_chemical_formula_sum   'Sm1 Cd1 Cu1 Pt3'
_cell_volume   108.16647068
_cell_formula_units_Z   1
loop_
 _symmetry_equiv_pos_site_id
 _symmetry_equiv_pos_as_xyz
  1  'x, y, z'
loop_
 _atom_site_type_symbol
 _atom_site_label
 _atom_site_symmetry_multiplicity
 _atom_site_fract_x
 _atom_site_fract_y
 _atom_site_fract_z
 _atom_site_occupancy
  Sm  Sm0  1  0.998784  0.998784  0.003648  1
  Cd  Cd1  1  0.747603  0.747603  0.757192  1
  Cu  Cu2  1  0.376151  0.376151  0.871548  1
  Pt  Pt3  1  0.376695  0.376695  0.372537  1
  Pt  Pt4  1  0.874073  0.376695  0.372537  1
  Pt  Pt5  1  0.376695  0.874073  0.372537  1
