# generated using pymatgen
data_Tb6Dy2Hf9Nb3Si16
_symmetry_space_group_name_H-M   'P 1'
_cell_length_a   7.24986734
_cell_length_b   7.24859404
_cell_length_c   13.29918301
_cell_angle_alpha   90.03466555
_cell_angle_beta   90.03625598
_cell_angle_gamma   90.03691731
_symmetry_Int_Tables_number   1
_chemical_formula_structural   Tb6Dy2Hf9Nb3Si16
_chemical_formula_sum   'Tb6 Dy2 Hf9 Nb3 Si16'
_cell_volume   698.88954376
_cell_formula_units_Z   1
loop_
 _symmetry_equiv_pos_site_id
 _symmetry_equiv_pos_as_xyz
  1  'x, y, z'
loop_
 _atom_site_type_symbol
 _atom_site_label
 _atom_site_symmetry_multiplicity
 _atom_site_fract_x
 _atom_site_fract_y
 _atom_site_fract_z
 _atom_site_occupancy
  Tb  Tb0  1  0.155882  0.498211  0.464402  1
  Tb  Tb1  1  0.501807  0.844021  0.035573  1
  Tb  Tb2  1  0.844185  0.502850  0.966592  1
  Tb  Tb3  1  0.497160  0.155905  0.533398  1
  Tb  Tb4  1  0.342686  0.996869  0.785732  1
  Tb  Tb5  1  0.655941  0.001446  0.285407  1
  Dy  Dy6  1  0.998985  0.344338  0.214473  1
  Dy  Dy7  1  0.002726  0.657082  0.714118  1
  Hf  Hf8  1  0.675209  0.325109  0.749991  1
  Hf  Hf9  1  0.148283  0.993641  0.374886  1
  Hf  Hf10  1  0.852862  0.004318  0.876188  1
  Hf  Hf11  1  0.506433  0.649931  0.622739  1
  Hf  Hf12  1  0.349942  0.493663  0.877279  1
  Hf  Hf13  1  0.493187  0.351758  0.125053  1
  Hf  Hf14  1  0.648393  0.506728  0.374928  1
  Hf  Hf15  1  0.995660  0.147068  0.623796  1
  Hf  Hf16  1  0.006347  0.851771  0.125089  1
  Nb  Nb17  1  0.175340  0.175036  0.000660  1
  Nb  Nb18  1  0.825095  0.824532  0.499506  1
  Nb  Nb19  1  0.324161  0.675530  0.249983  1
  Si  Si20  1  0.362645  0.295774  0.316610  1
  Si  Si21  1  0.636949  0.704739  0.816863  1
  Si  Si22  1  0.203911  0.862354  0.566544  1
  Si  Si23  1  0.137326  0.795723  0.933592  1
  Si  Si24  1  0.795877  0.137193  0.067235  1
  Si  Si25  1  0.863124  0.204454  0.432911  1
  Si  Si26  1  0.294957  0.363656  0.683047  1
  Si  Si27  1  0.704551  0.636732  0.183305  1
  Si  Si28  1  0.295378  0.048968  0.185416  1
  Si  Si29  1  0.704883  0.950009  0.684355  1
  Si  Si30  1  0.450668  0.795799  0.434427  1
  Si  Si31  1  0.203940  0.549048  0.065743  1
  Si  Si32  1  0.547563  0.203303  0.936263  1
  Si  Si33  1  0.796934  0.452737  0.563898  1
  Si  Si34  1  0.049714  0.295692  0.815508  1
  Si  Si35  1  0.951296  0.704013  0.314491  1
