# generated using pymatgen
data_Tb14Y2Cd4Ni3Os
_symmetry_space_group_name_H-M   'P 1'
_cell_length_a   9.62998298
_cell_length_b   9.62998313
_cell_length_c   9.63351945
_cell_angle_alpha   59.55754075
_cell_angle_beta   59.55753417
_cell_angle_gamma   59.58491881
_symmetry_Int_Tables_number   1
_chemical_formula_structural   Tb14Y2Cd4Ni3Os
_chemical_formula_sum   'Tb14 Y2 Cd4 Ni3 Os1'
_cell_volume   625.49150862
_cell_formula_units_Z   1
loop_
 _symmetry_equiv_pos_site_id
 _symmetry_equiv_pos_as_xyz
  1  'x, y, z'
loop_
 _atom_site_type_symbol
 _atom_site_label
 _atom_site_symmetry_multiplicity
 _atom_site_fract_x
 _atom_site_fract_y
 _atom_site_fract_z
 _atom_site_occupancy
  Tb  Tb0  1  0.597825  0.597825  0.597868  1
  Tb  Tb1  1  0.600565  0.600565  0.203822  1
  Tb  Tb2  1  0.600474  0.204034  0.600511  1
  Tb  Tb3  1  0.204034  0.600474  0.600511  1
  Tb  Tb4  1  0.060266  0.438523  0.438564  1
  Tb  Tb5  1  0.436910  0.061076  0.061082  1
  Tb  Tb6  1  0.438523  0.060266  0.438564  1
  Tb  Tb7  1  0.061076  0.436910  0.061082  1
  Tb  Tb8  1  0.438504  0.438504  0.060270  1
  Tb  Tb9  1  0.061116  0.061116  0.437088  1
  Tb  Tb10  1  0.186186  0.815427  0.815390  1
  Tb  Tb11  1  0.807420  0.188611  0.188704  1
  Tb  Tb12  1  0.815427  0.186186  0.815390  1
  Tb  Tb13  1  0.188611  0.807420  0.188704  1
  Y  Y14  1  0.815311  0.815311  0.185995  1
  Y  Y15  1  0.188500  0.188500  0.807681  1
  Cd  Cd16  1  0.830290  0.830290  0.830444  1
  Cd  Cd17  1  0.830269  0.830269  0.505987  1
  Cd  Cd18  1  0.830363  0.506095  0.830181  1
  Cd  Cd19  1  0.506095  0.830363  0.830181  1
  Ni  Ni20  1  0.392106  0.392106  0.824828  1
  Ni  Ni21  1  0.392237  0.824800  0.392105  1
  Ni  Ni22  1  0.824800  0.392237  0.392105  1
  Os  Os23  1  0.393091  0.393091  0.392943  1
