# generated using pymatgen
data_Nd2CrFeO6
_symmetry_space_group_name_H-M   'P 1'
_cell_length_a   5.49765700
_cell_length_b   5.64314900
_cell_length_c   7.84203001
_cell_angle_alpha   90.00000000
_cell_angle_beta   90.00427721
_cell_angle_gamma   90.00000000
_symmetry_Int_Tables_number   1
_chemical_formula_structural   Nd2CrFeO6
_chemical_formula_sum   'Nd4 Cr2 Fe2 O12'
_cell_volume   243.29190378
_cell_formula_units_Z   2
loop_
 _symmetry_equiv_pos_site_id
 _symmetry_equiv_pos_as_xyz
  1  'x, y, z'
loop_
 _atom_site_type_symbol
 _atom_site_label
 _atom_site_symmetry_multiplicity
 _atom_site_fract_x
 _atom_site_fract_y
 _atom_site_fract_z
 _atom_site_occupancy
  Nd  Nd0  1  0.513291  0.551277  0.250019  1
  Nd  Nd1  1  0.986709  0.051277  0.249981  1
  Nd  Nd2  1  0.486709  0.448723  0.749981  1
  Nd  Nd3  1  0.013291  0.948723  0.750019  1
  Cr  Cr4  1  0.000000  0.500000  0.500000  1
  Cr  Cr5  1  0.500000  0.000000  0.000000  1
  Fe  Fe6  1  0.000000  0.500000  0.000000  1
  Fe  Fe7  1  0.500000  0.000000  0.500000  1
  O  O8  1  0.408795  0.973845  0.249757  1
  O  O9  1  0.091205  0.473845  0.250243  1
  O  O10  1  0.591205  0.026155  0.750243  1
  O  O11  1  0.908795  0.526155  0.749757  1
  O  O12  1  0.792682  0.792475  0.048759  1
  O  O13  1  0.707318  0.292475  0.451241  1
  O  O14  1  0.206821  0.208053  0.548705  1
  O  O15  1  0.293179  0.708053  0.951295  1
  O  O16  1  0.207318  0.207525  0.951241  1
  O  O17  1  0.292682  0.707525  0.548759  1
  O  O18  1  0.793179  0.791947  0.451295  1
  O  O19  1  0.706821  0.291947  0.048705  1
