# generated using pymatgen
data_ErMnFeSiC
_symmetry_space_group_name_H-M   'P 1'
_cell_length_a   5.53371744
_cell_length_b   5.53371643
_cell_length_c   6.83648046
_cell_angle_alpha   91.50401130
_cell_angle_beta   88.49598789
_cell_angle_gamma   140.76802457
_symmetry_Int_Tables_number   1
_chemical_formula_structural   ErMnFeSiC
_chemical_formula_sum   'Er2 Mn2 Fe2 Si2 C2'
_cell_volume   132.35245930
_cell_formula_units_Z   2
loop_
 _symmetry_equiv_pos_site_id
 _symmetry_equiv_pos_as_xyz
  1  'x, y, z'
loop_
 _atom_site_type_symbol
 _atom_site_label
 _atom_site_symmetry_multiplicity
 _atom_site_fract_x
 _atom_site_fract_y
 _atom_site_fract_z
 _atom_site_occupancy
  Er  Er0  1  0.546200  0.453800  0.247487  1
  Er  Er1  1  0.453800  0.546200  0.752513  1
  Mn  Mn2  1  0.171039  0.828961  0.560019  1
  Mn  Mn3  1  0.828961  0.171039  0.439981  1
  Fe  Fe4  1  0.835073  0.164927  0.064372  1
  Fe  Fe5  1  0.164927  0.835073  0.935628  1
  Si  Si6  1  0.266985  0.733015  0.234385  1
  Si  Si7  1  0.733015  0.266985  0.765615  1
  C  C8  1  0.000000  0.000000  0.000000  1
  C  C9  1  0.000000  0.000000  0.500000  1
