# generated using pymatgen
data_Dy3Pa(CdNi2)2
_symmetry_space_group_name_H-M   'P 1'
_cell_length_a   7.42455666
_cell_length_b   7.42455666
_cell_length_c   3.56800300
_cell_angle_alpha   90.00000000
_cell_angle_beta   90.00000000
_cell_angle_gamma   87.88325872
_symmetry_Int_Tables_number   1
_chemical_formula_structural   Dy3Pa(CdNi2)2
_chemical_formula_sum   'Dy3 Pa1 Cd2 Ni4'
_cell_volume   196.54853793
_cell_formula_units_Z   1
loop_
 _symmetry_equiv_pos_site_id
 _symmetry_equiv_pos_as_xyz
  1  'x, y, z'
loop_
 _atom_site_type_symbol
 _atom_site_label
 _atom_site_symmetry_multiplicity
 _atom_site_fract_x
 _atom_site_fract_y
 _atom_site_fract_z
 _atom_site_occupancy
  Dy  Dy0  1  0.827480  0.329688  0.500000  1
  Dy  Dy1  1  0.170313  0.672520  0.500000  1
  Dy  Dy2  1  0.673780  0.826220  0.500000  1
  Pa  Pa3  1  0.330304  0.169697  0.500000  1
  Cd  Cd4  1  0.993590  0.998127  0.000000  1
  Cd  Cd5  1  0.501872  0.506409  0.000000  1
  Ni  Ni6  1  0.605697  0.130102  0.000000  1
  Ni  Ni7  1  0.139565  0.360436  0.000000  1
  Ni  Ni8  1  0.887501  0.612499  0.000000  1
  Ni  Ni9  1  0.369899  0.894303  0.000000  1
