# generated using pymatgen
data_NdTh3IrAu3
_symmetry_space_group_name_H-M   'P 1'
_cell_length_a   4.58179200
_cell_length_b   5.95664671
_cell_length_c   7.58357200
_cell_angle_alpha   88.78479504
_cell_angle_beta   90.00000000
_cell_angle_gamma   90.00000000
_symmetry_Int_Tables_number   1
_chemical_formula_structural   NdTh3IrAu3
_chemical_formula_sum   'Nd1 Th3 Ir1 Au3'
_cell_volume   206.92517853
_cell_formula_units_Z   1
loop_
 _symmetry_equiv_pos_site_id
 _symmetry_equiv_pos_as_xyz
  1  'x, y, z'
loop_
 _atom_site_type_symbol
 _atom_site_label
 _atom_site_symmetry_multiplicity
 _atom_site_fract_x
 _atom_site_fract_y
 _atom_site_fract_z
 _atom_site_occupancy
  Nd  Nd0  1  0.250000  0.138601  0.183799  1
  Th  Th1  1  0.250000  0.365850  0.677974  1
  Th  Th2  1  0.750000  0.654693  0.330808  1
  Th  Th3  1  0.750000  0.861997  0.801260  1
  Ir  Ir4  1  0.250000  0.816277  0.550939  1
  Au  Au5  1  0.250000  0.654688  0.042834  1
  Au  Au6  1  0.750000  0.156868  0.455506  1
  Au  Au7  1  0.750000  0.351026  0.956880  1
