# generated using pymatgen
data_La2Ge2Ru2C
_symmetry_space_group_name_H-M   'P 1'
_cell_length_a   6.11413524
_cell_length_b   6.11413541
_cell_length_c   7.27949132
_cell_angle_alpha   124.91810459
_cell_angle_beta   124.91810565
_cell_angle_gamma   40.38268200
_symmetry_Int_Tables_number   1
_chemical_formula_structural   La2Ge2Ru2C
_chemical_formula_sum   'La2 Ge2 Ru2 C1'
_cell_volume   139.72231797
_cell_formula_units_Z   1
loop_
 _symmetry_equiv_pos_site_id
 _symmetry_equiv_pos_as_xyz
  1  'x, y, z'
loop_
 _atom_site_type_symbol
 _atom_site_label
 _atom_site_symmetry_multiplicity
 _atom_site_fract_x
 _atom_site_fract_y
 _atom_site_fract_z
 _atom_site_occupancy
  La  La0  1  0.557868  0.557868  0.298950  1
  La  La1  1  0.442133  0.442133  0.701049  1
  Ge  Ge2  1  0.824354  0.824354  0.276392  1
  Ge  Ge3  1  0.175646  0.175646  0.723609  1
  Ru  Ru4  1  0.191383  0.191383  0.081859  1
  Ru  Ru5  1  0.808617  0.808617  0.918140  1
  C  C6  1  0.000000  0.000000  0.000000  1
