# generated using pymatgen
data_NdY2Pa(Al3Co)6
_symmetry_space_group_name_H-M   'P 1'
_cell_length_a   7.40741003
_cell_length_b   7.41390817
_cell_length_c   9.31783400
_cell_angle_alpha   90.00000000
_cell_angle_beta   90.00000000
_cell_angle_gamma   119.22312269
_symmetry_Int_Tables_number   1
_chemical_formula_structural   NdY2Pa(Al3Co)6
_chemical_formula_sum   'Nd1 Y2 Pa1 Al18 Co6'
_cell_volume   446.58695627
_cell_formula_units_Z   1
loop_
 _symmetry_equiv_pos_site_id
 _symmetry_equiv_pos_as_xyz
  1  'x, y, z'
loop_
 _atom_site_type_symbol
 _atom_site_label
 _atom_site_symmetry_multiplicity
 _atom_site_fract_x
 _atom_site_fract_y
 _atom_site_fract_z
 _atom_site_occupancy
  Nd  Nd0  1  0.006773  0.328796  0.750000  1
  Y  Y1  1  0.673489  0.991882  0.250000  1
  Y  Y2  1  0.327859  0.006653  0.750000  1
  Pa  Pa3  1  0.994523  0.673721  0.250000  1
  Al  Al4  1  0.130488  0.128695  0.250000  1
  Al  Al5  1  0.873456  0.873097  0.750000  1
  Al  Al6  1  0.333192  0.331805  0.541470  1
  Al  Al7  1  0.664227  0.666605  0.044405  1
  Al  Al8  1  0.333192  0.331805  0.958530  1
  Al  Al9  1  0.664227  0.666605  0.455595  1
  Al  Al10  1  0.340386  0.552694  0.250000  1
  Al  Al11  1  0.656654  0.446001  0.750000  1
  Al  Al12  1  0.552266  0.340911  0.250000  1
  Al  Al13  1  0.448504  0.663636  0.750000  1
  Al  Al14  1  0.998208  0.332800  0.073344  1
  Al  Al15  1  0.000685  0.666219  0.571586  1
  Al  Al16  1  0.339307  0.001038  0.428392  1
  Al  Al17  1  0.663566  0.000805  0.931171  1
  Al  Al18  1  0.000685  0.666219  0.928414  1
  Al  Al19  1  0.998208  0.332800  0.426656  1
  Al  Al20  1  0.663566  0.000805  0.568829  1
  Al  Al21  1  0.339307  0.001038  0.071608  1
  Co  Co22  1  0.998896  0.994514  0.005767  1
  Co  Co23  1  0.998896  0.994514  0.494233  1
  Co  Co24  1  0.673260  0.331878  0.003738  1
  Co  Co25  1  0.326458  0.671294  0.496127  1
  Co  Co26  1  0.326458  0.671294  0.003873  1
  Co  Co27  1  0.673260  0.331878  0.496262  1
