# generated using pymatgen
data_Y14Th2MgCd3Ir4
_symmetry_space_group_name_H-M   'P 1'
_cell_length_a   9.73823205
_cell_length_b   9.73823912
_cell_length_c   9.72813903
_cell_angle_alpha   59.93011938
_cell_angle_beta   59.93011065
_cell_angle_gamma   60.06753603
_symmetry_Int_Tables_number   1
_chemical_formula_structural   Y14Th2MgCd3Ir4
_chemical_formula_sum   'Y14 Th2 Mg1 Cd3 Ir4'
_cell_volume   651.98329819
_cell_formula_units_Z   1
loop_
 _symmetry_equiv_pos_site_id
 _symmetry_equiv_pos_as_xyz
  1  'x, y, z'
loop_
 _atom_site_type_symbol
 _atom_site_label
 _atom_site_symmetry_multiplicity
 _atom_site_fract_x
 _atom_site_fract_y
 _atom_site_fract_z
 _atom_site_occupancy
  Y  Y0  1  0.351969  0.948574  0.349823  1
  Y  Y1  1  0.948573  0.351969  0.349824  1
  Y  Y2  1  0.810005  0.191778  0.189978  1
  Y  Y3  1  0.189052  0.812296  0.810909  1
  Y  Y4  1  0.191779  0.810005  0.189978  1
  Y  Y5  1  0.812298  0.189050  0.810909  1
  Y  Y6  1  0.187450  0.187449  0.812623  1
  Y  Y7  1  0.812239  0.812237  0.185930  1
  Y  Y8  1  0.939489  0.565601  0.563851  1
  Y  Y9  1  0.563504  0.938364  0.935792  1
  Y  Y10  1  0.565601  0.939490  0.563851  1
  Y  Y11  1  0.938364  0.563503  0.935793  1
  Y  Y12  1  0.564485  0.564485  0.937935  1
  Y  Y13  1  0.941384  0.941385  0.559459  1
  Th  Th14  1  0.345208  0.345209  0.350709  1
  Th  Th15  1  0.345876  0.345877  0.957969  1
  Mg  Mg16  1  0.575729  0.575728  0.574516  1
  Cd  Cd17  1  0.582114  0.582114  0.254531  1
  Cd  Cd18  1  0.582633  0.251955  0.581779  1
  Cd  Cd19  1  0.251954  0.582634  0.581779  1
  Ir  Ir20  1  0.142125  0.142125  0.144161  1
  Ir  Ir21  1  0.141347  0.141347  0.572767  1
  Ir  Ir22  1  0.144964  0.571862  0.142569  1
  Ir  Ir23  1  0.571862  0.144964  0.142570  1
