# generated using pymatgen
data_Sm8Lu12Si15Bi
_symmetry_space_group_name_H-M   'P 1'
_cell_length_a   7.44185486
_cell_length_b   7.68238421
_cell_length_c   14.54752026
_cell_angle_alpha   90.10196694
_cell_angle_beta   88.04974158
_cell_angle_gamma   90.22613852
_symmetry_Int_Tables_number   1
_chemical_formula_structural   Sm8Lu12Si15Bi
_chemical_formula_sum   'Sm8 Lu12 Si15 Bi1'
_cell_volume   831.20965576
_cell_formula_units_Z   1
loop_
 _symmetry_equiv_pos_site_id
 _symmetry_equiv_pos_as_xyz
  1  'x, y, z'
loop_
 _atom_site_type_symbol
 _atom_site_label
 _atom_site_symmetry_multiplicity
 _atom_site_fract_x
 _atom_site_fract_y
 _atom_site_fract_z
 _atom_site_occupancy
  Sm  Sm0  1  0.017427  0.179138  0.098118  1
  Sm  Sm1  1  0.983244  0.823253  0.902424  1
  Sm  Sm2  1  0.483463  0.677399  0.902250  1
  Sm  Sm3  1  0.992647  0.828801  0.599301  1
  Sm  Sm4  1  0.517768  0.322585  0.099156  1
  Sm  Sm5  1  0.001908  0.171479  0.398827  1
  Sm  Sm6  1  0.512586  0.317202  0.397239  1
  Sm  Sm7  1  0.509575  0.685699  0.602184  1
  Lu  Lu8  1  0.163261  0.505068  0.755011  1
  Lu  Lu9  1  0.835208  0.493985  0.252230  1
  Lu  Lu10  1  0.335914  0.007350  0.250711  1
  Lu  Lu11  1  0.667117  0.993559  0.751273  1
  Lu  Lu12  1  0.347937  0.154997  0.629934  1
  Lu  Lu13  1  0.658318  0.827562  0.374511  1
  Lu  Lu14  1  0.153852  0.683524  0.370374  1
  Lu  Lu15  1  0.672924  0.822763  0.122558  1
  Lu  Lu16  1  0.825882  0.328159  0.624139  1
  Lu  Lu17  1  0.324469  0.174872  0.876690  1
  Lu  Lu18  1  0.825632  0.323356  0.876986  1
  Lu  Lu19  1  0.173498  0.677190  0.123282  1
  Si  Si20  1  0.034301  0.119648  0.751199  1
  Si  Si21  1  0.961581  0.887921  0.245554  1
  Si  Si22  1  0.461316  0.614606  0.247182  1
  Si  Si23  1  0.534223  0.384571  0.753435  1
  Si  Si24  1  0.288043  0.867028  0.753513  1
  Si  Si25  1  0.714511  0.125144  0.246457  1
  Si  Si26  1  0.213519  0.375333  0.248373  1
  Si  Si27  1  0.790616  0.628212  0.752159  1
  Si  Si28  1  0.810645  0.538719  0.456168  1
  Si  Si29  1  0.325351  0.964489  0.458882  1
  Si  Si30  1  0.850116  0.532348  0.040063  1
  Si  Si31  1  0.676719  0.036592  0.539968  1
  Si  Si32  1  0.148964  0.468049  0.960872  1
  Si  Si33  1  0.648424  0.031823  0.960140  1
  Si  Si34  1  0.349929  0.969401  0.040621  1
  Bi  Bi35  1  0.189110  0.458178  0.538217  1
