# generated using pymatgen
data_Mg2Co3(B2Os)2
_symmetry_space_group_name_H-M   'P 1'
_cell_length_a   2.97590200
_cell_length_b   8.07106800
_cell_length_c   9.32360400
_cell_angle_alpha   90.00000000
_cell_angle_beta   90.00000000
_cell_angle_gamma   90.00000000
_symmetry_Int_Tables_number   1
_chemical_formula_structural   Mg2Co3(B2Os)2
_chemical_formula_sum   'Mg4 Co6 B8 Os4'
_cell_volume   223.94091642
_cell_formula_units_Z   2
loop_
 _symmetry_equiv_pos_site_id
 _symmetry_equiv_pos_as_xyz
  1  'x, y, z'
loop_
 _atom_site_type_symbol
 _atom_site_label
 _atom_site_symmetry_multiplicity
 _atom_site_fract_x
 _atom_site_fract_y
 _atom_site_fract_z
 _atom_site_occupancy
  Mg  Mg0  1  0.500000  0.660829  0.818627  1
  Mg  Mg1  1  0.500000  0.339171  0.181373  1
  Mg  Mg2  1  0.500000  0.160829  0.681373  1
  Mg  Mg3  1  0.500000  0.839171  0.318627  1
  Co  Co4  1  0.000000  0.408070  0.743772  1
  Co  Co5  1  0.000000  0.591930  0.256228  1
  Co  Co6  1  0.000000  0.908070  0.756228  1
  Co  Co7  1  0.000000  0.091930  0.243772  1
  Co  Co8  1  0.000000  0.000000  0.500000  1
  Co  Co9  1  0.000000  0.500000  0.000000  1
  B  B10  1  0.500000  0.865769  0.602505  1
  B  B11  1  0.500000  0.134231  0.397495  1
  B  B12  1  0.500000  0.365769  0.897495  1
  B  B13  1  0.500000  0.634231  0.102505  1
  B  B14  1  0.500000  0.961478  0.900335  1
  B  B15  1  0.500000  0.038522  0.099665  1
  B  B16  1  0.500000  0.461478  0.599665  1
  B  B17  1  0.500000  0.538522  0.400335  1
  Os  Os18  1  0.000000  0.664722  0.547247  1
  Os  Os19  1  0.000000  0.335278  0.452753  1
  Os  Os20  1  0.000000  0.164722  0.952753  1
  Os  Os21  1  0.000000  0.835278  0.047247  1
