# generated using pymatgen
data_Mg6PaIn5Rh12
_symmetry_space_group_name_H-M   'P 1'
_cell_length_a   4.54600200
_cell_length_b   6.40500100
_cell_length_c   13.60611500
_cell_angle_alpha   90.00000000
_cell_angle_beta   89.99980653
_cell_angle_gamma   90.00000000
_symmetry_Int_Tables_number   1
_chemical_formula_structural   Mg6PaIn5Rh12
_chemical_formula_sum   'Mg6 Pa1 In5 Rh12'
_cell_volume   396.17125540
_cell_formula_units_Z   1
loop_
 _symmetry_equiv_pos_site_id
 _symmetry_equiv_pos_as_xyz
  1  'x, y, z'
loop_
 _atom_site_type_symbol
 _atom_site_label
 _atom_site_symmetry_multiplicity
 _atom_site_fract_x
 _atom_site_fract_y
 _atom_site_fract_z
 _atom_site_occupancy
  Mg  Mg0  1  0.000000  0.500000  0.000000  1
  Mg  Mg1  1  0.499922  0.000000  0.175408  1
  Mg  Mg2  1  0.999920  0.500000  0.335624  1
  Mg  Mg3  1  0.500000  0.000000  0.500000  1
  Mg  Mg4  1  0.000080  0.500000  0.664376  1
  Mg  Mg5  1  0.500077  0.000000  0.824593  1
  Pa  Pa6  1  0.000000  0.000000  0.000000  1
  In  In7  1  0.499952  0.500000  0.170013  1
  In  In8  1  0.999947  0.000000  0.335726  1
  In  In9  1  0.500000  0.500000  0.500000  1
  In  In10  1  0.000054  0.000000  0.664273  1
  In  In11  1  0.500048  0.500000  0.829987  1
  Rh  Rh12  1  0.500000  0.250455  0.000000  1
  Rh  Rh13  1  0.500000  0.749546  0.000000  1
  Rh  Rh14  1  0.999923  0.245068  0.162415  1
  Rh  Rh15  1  0.999923  0.754931  0.162415  1
  Rh  Rh16  1  0.499931  0.250741  0.332843  1
  Rh  Rh17  1  0.499931  0.749258  0.332843  1
  Rh  Rh18  1  0.000000  0.249792  0.500000  1
  Rh  Rh19  1  0.000000  0.750208  0.500000  1
  Rh  Rh20  1  0.500071  0.250741  0.667158  1
  Rh  Rh21  1  0.500071  0.749258  0.667158  1
  Rh  Rh22  1  0.000076  0.245068  0.837585  1
  Rh  Rh23  1  0.000076  0.754931  0.837585  1
