# generated using pymatgen
data_Dy12TlFe2Co2Pt
_symmetry_space_group_name_H-M   'P 1'
_cell_length_a   8.33307679
_cell_length_b   8.33307755
_cell_length_c   8.33307837
_cell_angle_alpha   110.68451038
_cell_angle_beta   110.06845028
_cell_angle_gamma   107.67609760
_symmetry_Int_Tables_number   1
_chemical_formula_structural   Dy12TlFe2Co2Pt
_chemical_formula_sum   'Dy12 Tl1 Fe2 Co2 Pt1'
_cell_volume   445.10529434
_cell_formula_units_Z   1
loop_
 _symmetry_equiv_pos_site_id
 _symmetry_equiv_pos_as_xyz
  1  'x, y, z'
loop_
 _atom_site_type_symbol
 _atom_site_label
 _atom_site_symmetry_multiplicity
 _atom_site_fract_x
 _atom_site_fract_y
 _atom_site_fract_z
 _atom_site_occupancy
  Dy  Dy0  1  0.314821  0.618403  0.303579  1
  Dy  Dy1  1  0.685179  0.381597  0.696421  1
  Dy  Dy2  1  0.314821  0.011241  0.696421  1
  Dy  Dy3  1  0.685179  0.988759  0.303579  1
  Dy  Dy4  1  0.184469  0.291205  0.475674  1
  Dy  Dy5  1  0.815531  0.708795  0.524326  1
  Dy  Dy6  1  0.184469  0.708795  0.893265  1
  Dy  Dy7  1  0.815531  0.291205  0.106735  1
  Dy  Dy8  1  0.413392  0.213640  0.199752  1
  Dy  Dy9  1  0.586608  0.786360  0.800248  1
  Dy  Dy10  1  0.013890  0.213640  0.800248  1
  Dy  Dy11  1  0.986110  0.786360  0.199752  1
  Tl  Tl12  1  0.500000  0.500000  0.000000  1
  Fe  Fe13  1  0.109014  0.609014  0.500000  1
  Fe  Fe14  1  0.890986  0.390986  0.500000  1
  Co  Co15  1  0.382024  0.000000  0.382024  1
  Co  Co16  1  0.617976  0.000000  0.617976  1
  Pt  Pt17  1  0.000000  0.000000  0.000000  1
