# generated using pymatgen
data_VAg(HgO2)2
_symmetry_space_group_name_H-M   'P 1'
_cell_length_a   6.31221800
_cell_length_b   9.28082600
_cell_length_c   9.80908100
_cell_angle_alpha   90.00000000
_cell_angle_beta   90.00000000
_cell_angle_gamma   90.00000000
_symmetry_Int_Tables_number   1
_chemical_formula_structural   VAg(HgO2)2
_chemical_formula_sum   'V4 Ag4 Hg8 O16'
_cell_volume   574.64143850
_cell_formula_units_Z   4
loop_
 _symmetry_equiv_pos_site_id
 _symmetry_equiv_pos_as_xyz
  1  'x, y, z'
loop_
 _atom_site_type_symbol
 _atom_site_label
 _atom_site_symmetry_multiplicity
 _atom_site_fract_x
 _atom_site_fract_y
 _atom_site_fract_z
 _atom_site_occupancy
  V  V0  1  0.000000  0.966421  0.710310  1
  V  V1  1  0.000000  0.466421  0.789690  1
  V  V2  1  0.000000  0.033579  0.289690  1
  V  V3  1  0.000000  0.533579  0.210311  1
  Ag  Ag4  1  0.500000  0.041206  0.857975  1
  Ag  Ag5  1  0.500000  0.458794  0.357975  1
  Ag  Ag6  1  0.500000  0.541206  0.642025  1
  Ag  Ag7  1  0.500000  0.958794  0.142025  1
  Hg  Hg8  1  0.286874  0.739742  0.464038  1
  Hg  Hg9  1  0.713126  0.260258  0.535962  1
  Hg  Hg10  1  0.286874  0.239742  0.035962  1
  Hg  Hg11  1  0.286874  0.260258  0.535962  1
  Hg  Hg12  1  0.713126  0.239742  0.035962  1
  Hg  Hg13  1  0.713126  0.760258  0.964038  1
  Hg  Hg14  1  0.286874  0.760258  0.964038  1
  Hg  Hg15  1  0.713126  0.739742  0.464038  1
  O  O16  1  0.000000  0.666326  0.079957  1
  O  O17  1  0.231044  0.432705  0.198510  1
  O  O18  1  0.000000  0.882136  0.870632  1
  O  O19  1  0.000000  0.382136  0.629368  1
  O  O20  1  0.000000  0.333674  0.920043  1
  O  O21  1  0.231044  0.567295  0.801490  1
  O  O22  1  0.000000  0.117864  0.129368  1
  O  O23  1  0.231044  0.932705  0.301490  1
  O  O24  1  0.000000  0.617864  0.370632  1
  O  O25  1  0.231044  0.067295  0.698510  1
  O  O26  1  0.768956  0.067295  0.698510  1
  O  O27  1  0.000000  0.166326  0.420043  1
  O  O28  1  0.768956  0.432705  0.198510  1
  O  O29  1  0.000000  0.833674  0.579957  1
  O  O30  1  0.768956  0.567295  0.801490  1
  O  O31  1  0.768956  0.932705  0.301490  1
