# generated using pymatgen
data_CePr4Si2Pb
_symmetry_space_group_name_H-M   'P 1'
_cell_length_a   7.91665300
_cell_length_b   9.29024992
_cell_length_c   7.91665300
_cell_angle_alpha   115.21862254
_cell_angle_beta   90.00000000
_cell_angle_gamma   115.21862254
_symmetry_Int_Tables_number   1
_chemical_formula_structural   CePr4Si2Pb
_chemical_formula_sum   'Ce2 Pr8 Si4 Pb2'
_cell_volume   464.68010257
_cell_formula_units_Z   2
loop_
 _symmetry_equiv_pos_site_id
 _symmetry_equiv_pos_as_xyz
  1  'x, y, z'
loop_
 _atom_site_type_symbol
 _atom_site_label
 _atom_site_symmetry_multiplicity
 _atom_site_fract_x
 _atom_site_fract_y
 _atom_site_fract_z
 _atom_site_occupancy
  Ce  Ce0  1  0.000000  0.000000  0.000000  1
  Ce  Ce1  1  0.500000  0.000000  0.500000  1
  Pr  Pr2  1  0.538511  0.725476  0.686966  1
  Pr  Pr3  1  0.186966  0.725476  0.038511  1
  Pr  Pr4  1  0.686966  0.725476  0.186966  1
  Pr  Pr5  1  0.038511  0.725476  0.538511  1
  Pr  Pr6  1  0.461489  0.274524  0.313034  1
  Pr  Pr7  1  0.813034  0.274524  0.961489  1
  Pr  Pr8  1  0.313034  0.274524  0.813034  1
  Pr  Pr9  1  0.961489  0.274524  0.461489  1
  Si  Si10  1  0.884138  0.000000  0.615862  1
  Si  Si11  1  0.115862  0.000000  0.384138  1
  Si  Si12  1  0.615862  0.000000  0.115862  1
  Si  Si13  1  0.384138  0.000000  0.884138  1
  Pb  Pb14  1  0.750000  0.500000  0.750000  1
  Pb  Pb15  1  0.250000  0.500000  0.250000  1
