# generated using pymatgen
data_Dy5Ta3Co16(AsP2)4
_symmetry_space_group_name_H-M   'P 1'
_cell_length_a   12.32429102
_cell_length_b   12.30094700
_cell_length_c   3.73303900
_cell_angle_alpha   90.00000000
_cell_angle_beta   90.00000000
_cell_angle_gamma   120.05664331
_symmetry_Int_Tables_number   1
_chemical_formula_structural   Dy5Ta3Co16(AsP2)4
_chemical_formula_sum   'Dy5 Ta3 Co16 As4 P8'
_cell_volume   489.83011615
_cell_formula_units_Z   1
loop_
 _symmetry_equiv_pos_site_id
 _symmetry_equiv_pos_as_xyz
  1  'x, y, z'
loop_
 _atom_site_type_symbol
 _atom_site_label
 _atom_site_symmetry_multiplicity
 _atom_site_fract_x
 _atom_site_fract_y
 _atom_site_fract_z
 _atom_site_occupancy
  Dy  Dy0  1  0.661158  0.334025  0.000000  1
  Dy  Dy1  1  0.334093  0.666880  0.000000  1
  Dy  Dy2  1  0.179365  0.178388  0.500000  1
  Dy  Dy3  1  0.821666  0.999461  0.500000  1
  Dy  Dy4  1  0.999785  0.821902  0.500000  1
  Ta  Ta5  1  0.559408  0.559981  0.000000  1
  Ta  Ta6  1  0.439510  0.998981  0.000000  1
  Ta  Ta7  1  0.005818  0.443225  0.000000  1
  Co  Co8  1  0.829640  0.198192  0.000000  1
  Co  Co9  1  0.796122  0.625886  0.000000  1
  Co  Co10  1  0.374997  0.171632  0.000000  1
  Co  Co11  1  0.203050  0.827552  0.000000  1
  Co  Co12  1  0.624477  0.796238  0.000000  1
  Co  Co13  1  0.174259  0.375538  0.000000  1
  Co  Co14  1  0.636008  0.124245  0.500000  1
  Co  Co15  1  0.871009  0.522171  0.500000  1
  Co  Co16  1  0.486907  0.356227  0.500000  1
  Co  Co17  1  0.132438  0.644050  0.500000  1
  Co  Co18  1  0.511692  0.868503  0.500000  1
  Co  Co19  1  0.356933  0.487293  0.500000  1
  Co  Co20  1  0.718470  0.719182  0.500000  1
  Co  Co21  1  0.280530  0.999450  0.500000  1
  Co  Co22  1  0.005025  0.281067  0.500000  1
  Co  Co23  1  0.000421  0.999491  0.000000  1
  As  As24  1  0.353846  0.353244  0.000000  1
  As  As25  1  0.646050  0.998546  0.000000  1
  As  As26  1  0.999877  0.647176  0.000000  1
  As  As27  1  0.829334  0.313075  0.500000  1
  P  P28  1  0.688091  0.521669  0.500000  1
  P  P29  1  0.477566  0.167210  0.500000  1
  P  P30  1  0.310837  0.831219  0.500000  1
  P  P31  1  0.520181  0.688849  0.500000  1
  P  P32  1  0.170203  0.479938  0.500000  1
  P  P33  1  0.822194  0.822637  0.000000  1
  P  P34  1  0.177626  0.999572  0.000000  1
  P  P35  1  0.001412  0.177305  0.000000  1
