# generated using pymatgen
data_ThNp(AlC)6
_symmetry_space_group_name_H-M   'P 1'
_cell_length_a   3.43702700
_cell_length_b   3.43702701
_cell_length_c   17.73501400
_cell_angle_alpha   90.00000000
_cell_angle_beta   90.00000000
_cell_angle_gamma   119.99999024
_symmetry_Int_Tables_number   1
_chemical_formula_structural   ThNp(AlC)6
_chemical_formula_sum   'Th1 Np1 Al6 C6'
_cell_volume   181.43793708
_cell_formula_units_Z   1
loop_
 _symmetry_equiv_pos_site_id
 _symmetry_equiv_pos_as_xyz
  1  'x, y, z'
loop_
 _atom_site_type_symbol
 _atom_site_label
 _atom_site_symmetry_multiplicity
 _atom_site_fract_x
 _atom_site_fract_y
 _atom_site_fract_z
 _atom_site_occupancy
  Th  Th0  1  0.000000  0.000000  0.003161  1
  Np  Np1  1  0.000000  0.000000  0.503222  1
  Al  Al2  1  0.333333  0.666667  0.141320  1
  Al  Al3  1  0.666667  0.333333  0.864988  1
  Al  Al4  1  0.666667  0.333333  0.636856  1
  Al  Al5  1  0.333333  0.666667  0.760016  1
  Al  Al6  1  0.333333  0.666667  0.369536  1
  Al  Al7  1  0.666667  0.333333  0.246225  1
  C  C8  1  0.333333  0.666667  0.591280  1
  C  C9  1  0.666667  0.333333  0.415250  1
  C  C10  1  0.333333  0.666667  0.896540  1
  C  C11  1  0.666667  0.333333  0.109839  1
  C  C12  1  0.666667  0.333333  0.749212  1
  C  C13  1  0.333333  0.666667  0.257155  1
