# generated using pymatgen
data_CdFeSiO4
_symmetry_space_group_name_H-M   'P 1'
_cell_length_a   4.94906600
_cell_length_b   6.38528400
_cell_length_c   11.20499200
_cell_angle_alpha   90.00000000
_cell_angle_beta   90.00000000
_cell_angle_gamma   90.00000000
_symmetry_Int_Tables_number   1
_chemical_formula_structural   CdFeSiO4
_chemical_formula_sum   'Cd4 Fe4 Si4 O16'
_cell_volume   354.09110293
_cell_formula_units_Z   4
loop_
 _symmetry_equiv_pos_site_id
 _symmetry_equiv_pos_as_xyz
  1  'x, y, z'
loop_
 _atom_site_type_symbol
 _atom_site_label
 _atom_site_symmetry_multiplicity
 _atom_site_fract_x
 _atom_site_fract_y
 _atom_site_fract_z
 _atom_site_occupancy
  Cd  Cd0  1  0.014983  0.750000  0.721301  1
  Cd  Cd1  1  0.985017  0.250000  0.278699  1
  Cd  Cd2  1  0.514983  0.250000  0.778699  1
  Cd  Cd3  1  0.485017  0.750000  0.221301  1
  Fe  Fe4  1  0.500000  0.500000  0.500000  1
  Fe  Fe5  1  0.000000  0.500000  0.000000  1
  Fe  Fe6  1  0.500000  0.000000  0.500000  1
  Fe  Fe7  1  0.000000  0.000000  0.000000  1
  Si  Si8  1  0.580827  0.750000  0.912144  1
  Si  Si9  1  0.419173  0.250000  0.087856  1
  Si  Si10  1  0.080827  0.250000  0.587856  1
  Si  Si11  1  0.919173  0.750000  0.412144  1
  O  O12  1  0.771195  0.750000  0.546659  1
  O  O13  1  0.228805  0.250000  0.453341  1
  O  O14  1  0.271195  0.250000  0.953341  1
  O  O15  1  0.728805  0.750000  0.046659  1
  O  O16  1  0.248985  0.750000  0.918133  1
  O  O17  1  0.751015  0.250000  0.081867  1
  O  O18  1  0.748985  0.250000  0.581867  1
  O  O19  1  0.251015  0.750000  0.418133  1
  O  O20  1  0.718514  0.543095  0.846306  1
  O  O21  1  0.281486  0.456905  0.153694  1
  O  O22  1  0.218514  0.456905  0.653694  1
  O  O23  1  0.281486  0.043095  0.153694  1
  O  O24  1  0.781486  0.543095  0.346306  1
  O  O25  1  0.718514  0.956905  0.846306  1
  O  O26  1  0.781486  0.956905  0.346306  1
  O  O27  1  0.218514  0.043095  0.653694  1
