# generated using pymatgen
data_Ca3Sc5(B6Os)4
_symmetry_space_group_name_H-M   'P 1'
_cell_length_a   3.53296500
_cell_length_b   8.97413179
_cell_length_c   11.35442134
_cell_angle_alpha   90.00373644
_cell_angle_beta   90.00000000
_cell_angle_gamma   90.00000000
_symmetry_Int_Tables_number   1
_chemical_formula_structural   Ca3Sc5(B6Os)4
_chemical_formula_sum   'Ca3 Sc5 B24 Os4'
_cell_volume   359.99526077
_cell_formula_units_Z   1
loop_
 _symmetry_equiv_pos_site_id
 _symmetry_equiv_pos_as_xyz
  1  'x, y, z'
loop_
 _atom_site_type_symbol
 _atom_site_label
 _atom_site_symmetry_multiplicity
 _atom_site_fract_x
 _atom_site_fract_y
 _atom_site_fract_z
 _atom_site_occupancy
  Ca  Ca0  1  0.000000  0.321852  0.414727  1
  Ca  Ca1  1  0.000000  0.677744  0.585436  1
  Ca  Ca2  1  0.000000  0.821172  0.085123  1
  Sc  Sc3  1  0.000000  0.178024  0.914878  1
  Sc  Sc4  1  0.000000  0.943039  0.368764  1
  Sc  Sc5  1  0.000000  0.056940  0.630535  1
  Sc  Sc6  1  0.000000  0.443775  0.128500  1
  Sc  Sc7  1  0.000000  0.555902  0.871505  1
  B  B8  1  0.500000  0.553975  0.432867  1
  B  B9  1  0.500000  0.444652  0.568815  1
  B  B10  1  0.500000  0.055303  0.064751  1
  B  B11  1  0.500000  0.947905  0.933181  1
  B  B12  1  0.500000  0.752913  0.417456  1
  B  B13  1  0.500000  0.246884  0.583351  1
  B  B14  1  0.500000  0.252681  0.079227  1
  B  B15  1  0.500000  0.747767  0.917851  1
  B  B16  1  0.500000  0.794370  0.264145  1
  B  B17  1  0.500000  0.204949  0.737891  1
  B  B18  1  0.500000  0.294497  0.233575  1
  B  B19  1  0.500000  0.706793  0.765399  1
  B  B20  1  0.500000  0.628946  0.183219  1
  B  B21  1  0.500000  0.368755  0.819160  1
  B  B22  1  0.500000  0.129681  0.314964  1
  B  B23  1  0.500000  0.871666  0.683587  1
  B  B24  1  0.500000  0.981771  0.211899  1
  B  B25  1  0.500000  0.020352  0.788032  1
  B  B26  1  0.500000  0.481415  0.286402  1
  B  B27  1  0.500000  0.517518  0.714874  1
  B  B28  1  0.500000  0.595503  0.025927  1
  B  B29  1  0.500000  0.401057  0.973177  1
  B  B30  1  0.500000  0.094932  0.473993  1
  B  B31  1  0.500000  0.905658  0.525600  1
  Os  Os32  1  0.000000  0.640582  0.317668  1
  Os  Os33  1  0.000000  0.356859  0.685481  1
  Os  Os34  1  0.000000  0.140446  0.178563  1
  Os  Os35  1  0.000000  0.863721  0.819476  1
