# generated using pymatgen
data_Ho2Tm4Bi2Mo
_symmetry_space_group_name_H-M   'P 1'
_cell_length_a   8.21929985
_cell_length_b   8.21325733
_cell_length_c   4.33381300
_cell_angle_alpha   90.00000000
_cell_angle_beta   90.00000000
_cell_angle_gamma   119.97568673
_symmetry_Int_Tables_number   1
_chemical_formula_structural   Ho2Tm4Bi2Mo
_chemical_formula_sum   'Ho2 Tm4 Bi2 Mo1'
_cell_volume   253.42963778
_cell_formula_units_Z   1
loop_
 _symmetry_equiv_pos_site_id
 _symmetry_equiv_pos_as_xyz
  1  'x, y, z'
loop_
 _atom_site_type_symbol
 _atom_site_label
 _atom_site_symmetry_multiplicity
 _atom_site_fract_x
 _atom_site_fract_y
 _atom_site_fract_z
 _atom_site_occupancy
  Ho  Ho0  1  0.389230  0.389394  0.500000  1
  Ho  Ho1  1  0.610770  0.000164  0.500000  1
  Tm  Tm2  1  0.234542  0.999374  0.000000  1
  Tm  Tm3  1  0.000000  0.611980  0.500000  1
  Tm  Tm4  1  0.765458  0.764832  0.000000  1
  Tm  Tm5  1  0.000000  0.234628  0.000000  1
  Bi  Bi6  1  0.332571  0.666571  0.000000  1
  Bi  Bi7  1  0.667429  0.333999  0.000000  1
  Mo  Mo8  1  0.000000  0.999059  0.500000  1
