# generated using pymatgen
data_Dy2HoLu(NiP)4
_symmetry_space_group_name_H-M   'P 1'
_cell_length_a   3.88438100
_cell_length_b   3.88438158
_cell_length_c   15.28890500
_cell_angle_alpha   90.00000000
_cell_angle_beta   90.00000000
_cell_angle_gamma   120.00000361
_symmetry_Int_Tables_number   1
_chemical_formula_structural   Dy2HoLu(NiP)4
_chemical_formula_sum   'Dy2 Ho1 Lu1 Ni4 P4'
_cell_volume   199.77940009
_cell_formula_units_Z   1
loop_
 _symmetry_equiv_pos_site_id
 _symmetry_equiv_pos_as_xyz
  1  'x, y, z'
loop_
 _atom_site_type_symbol
 _atom_site_label
 _atom_site_symmetry_multiplicity
 _atom_site_fract_x
 _atom_site_fract_y
 _atom_site_fract_z
 _atom_site_occupancy
  Dy  Dy0  1  0.000000  0.000000  0.496888  1
  Dy  Dy1  1  0.000000  0.000000  0.003112  1
  Ho  Ho2  1  0.000000  0.000000  0.750000  1
  Lu  Lu3  1  0.000000  0.000000  0.250000  1
  Ni  Ni4  1  0.333333  0.666667  0.361638  1
  Ni  Ni5  1  0.666667  0.333333  0.630115  1
  Ni  Ni6  1  0.666667  0.333333  0.869885  1
  Ni  Ni7  1  0.333333  0.666667  0.138362  1
  P  P8  1  0.333333  0.666667  0.878101  1
  P  P9  1  0.666667  0.333333  0.124590  1
  P  P10  1  0.666667  0.333333  0.375410  1
  P  P11  1  0.333333  0.666667  0.621899  1
