# generated using pymatgen
data_Yb9Pr9(DySn8)2
_symmetry_space_group_name_H-M   'P 1'
_cell_length_a   8.00671667
_cell_length_b   8.50551667
_cell_length_c   16.03182376
_cell_angle_alpha   90.11535579
_cell_angle_beta   90.05366497
_cell_angle_gamma   89.93712497
_symmetry_Int_Tables_number   1
_chemical_formula_structural   Yb9Pr9(DySn8)2
_chemical_formula_sum   'Yb9 Pr9 Dy2 Sn16'
_cell_volume   1091.78408537
_cell_formula_units_Z   1
loop_
 _symmetry_equiv_pos_site_id
 _symmetry_equiv_pos_as_xyz
  1  'x, y, z'
loop_
 _atom_site_type_symbol
 _atom_site_label
 _atom_site_symmetry_multiplicity
 _atom_site_fract_x
 _atom_site_fract_y
 _atom_site_fract_z
 _atom_site_occupancy
  Yb  Yb0  1  0.671107  0.170743  0.376794  1
  Yb  Yb1  1  0.172205  0.328829  0.124521  1
  Yb  Yb2  1  0.670787  0.171686  0.124373  1
  Yb  Yb3  1  0.171816  0.329439  0.376533  1
  Yb  Yb4  1  0.327560  0.830644  0.622238  1
  Yb  Yb5  1  0.158502  0.500328  0.748881  1
  Yb  Yb6  1  0.657767  0.999278  0.748132  1
  Yb  Yb7  1  0.843395  0.495253  0.250675  1
  Yb  Yb8  1  0.343081  0.005097  0.250161  1
  Pr  Pr9  1  0.829059  0.673023  0.875857  1
  Pr  Pr10  1  0.489258  0.315139  0.904141  1
  Pr  Pr11  1  0.991542  0.183678  0.595500  1
  Pr  Pr12  1  0.509357  0.687422  0.403414  1
  Pr  Pr13  1  0.010779  0.814254  0.098014  1
  Pr  Pr14  1  0.510342  0.685018  0.096891  1
  Pr  Pr15  1  0.010063  0.814923  0.403443  1
  Pr  Pr16  1  0.488506  0.315015  0.595060  1
  Pr  Pr17  1  0.991030  0.183650  0.904126  1
  Dy  Dy18  1  0.327243  0.828923  0.876170  1
  Dy  Dy19  1  0.827202  0.670235  0.624075  1
  Sn  Sn20  1  0.328679  0.035134  0.038531  1
  Sn  Sn21  1  0.829691  0.465033  0.461616  1
  Sn  Sn22  1  0.671393  0.960990  0.539778  1
  Sn  Sn23  1  0.173479  0.536980  0.960873  1
  Sn  Sn24  1  0.664445  0.964372  0.960512  1
  Sn  Sn25  1  0.163958  0.537028  0.540552  1
  Sn  Sn26  1  0.331558  0.036523  0.460390  1
  Sn  Sn27  1  0.831995  0.461933  0.040299  1
  Sn  Sn28  1  0.526462  0.607901  0.747549  1
  Sn  Sn29  1  0.030297  0.889398  0.749536  1
  Sn  Sn30  1  0.471520  0.395823  0.250827  1
  Sn  Sn31  1  0.971122  0.105213  0.250644  1
  Sn  Sn32  1  0.286130  0.140075  0.750623  1
  Sn  Sn33  1  0.784774  0.361154  0.749260  1
  Sn  Sn34  1  0.716814  0.859270  0.249887  1
  Sn  Sn35  1  0.217079  0.640593  0.250124  1
