# generated using pymatgen
data_SmEr(Co3Si2)2
_symmetry_space_group_name_H-M   'P 1'
_cell_length_a   6.28785618
_cell_length_b   6.28785604
_cell_length_c   6.28785702
_cell_angle_alpha   130.47336527
_cell_angle_beta   113.47124330
_cell_angle_gamma   87.28412256
_symmetry_Int_Tables_number   1
_chemical_formula_structural   SmEr(Co3Si2)2
_chemical_formula_sum   'Sm1 Er1 Co6 Si4'
_cell_volume   165.33500641
_cell_formula_units_Z   1
loop_
 _symmetry_equiv_pos_site_id
 _symmetry_equiv_pos_as_xyz
  1  'x, y, z'
loop_
 _atom_site_type_symbol
 _atom_site_label
 _atom_site_symmetry_multiplicity
 _atom_site_fract_x
 _atom_site_fract_y
 _atom_site_fract_z
 _atom_site_occupancy
  Sm  Sm0  1  0.250000  0.528615  0.278615  1
  Er  Er1  1  0.750000  0.466058  0.716058  1
  Co  Co2  1  0.001326  0.001196  0.502522  1
  Co  Co3  1  0.498674  0.001196  0.999870  1
  Co  Co4  1  0.724732  0.002661  0.724692  1
  Co  Co5  1  0.222030  0.499960  0.724692  1
  Co  Co6  1  0.277970  0.002661  0.277930  1
  Co  Co7  1  0.775268  0.499960  0.277930  1
  Si  Si8  1  0.078419  0.871847  0.793428  1
  Si  Si9  1  0.916782  0.122200  0.205418  1
  Si  Si10  1  0.583218  0.788638  0.205418  1
  Si  Si11  1  0.421581  0.215007  0.793428  1
