# generated using pymatgen
data_Tm2Mn3Si6Ni9P
_symmetry_space_group_name_H-M   'P 1'
_cell_length_a   9.20616423
_cell_length_b   9.21150138
_cell_length_c   3.69018000
_cell_angle_alpha   90.00000000
_cell_angle_beta   90.00000000
_cell_angle_gamma   119.95524523
_symmetry_Int_Tables_number   1
_chemical_formula_structural   Tm2Mn3Si6Ni9P
_chemical_formula_sum   'Tm2 Mn3 Si6 Ni9 P1'
_cell_volume   271.13338927
_cell_formula_units_Z   1
loop_
 _symmetry_equiv_pos_site_id
 _symmetry_equiv_pos_as_xyz
  1  'x, y, z'
loop_
 _atom_site_type_symbol
 _atom_site_label
 _atom_site_symmetry_multiplicity
 _atom_site_fract_x
 _atom_site_fract_y
 _atom_site_fract_z
 _atom_site_occupancy
  Tm  Tm0  1  0.002966  0.998770  0.000000  1
  Tm  Tm1  1  0.669056  0.335142  0.500000  1
  Mn  Mn2  1  0.447663  0.568046  0.500000  1
  Mn  Mn3  1  0.425417  0.883666  0.500000  1
  Mn  Mn4  1  0.120416  0.549358  0.500000  1
  Si  Si5  1  0.449528  0.376564  0.000000  1
  Si  Si6  1  0.623527  0.072582  0.000000  1
  Si  Si7  1  0.929308  0.552223  0.000000  1
  Si  Si8  1  0.040541  0.260096  0.500000  1
  Si  Si9  1  0.738118  0.779307  0.500000  1
  Si  Si10  1  0.332407  0.666046  0.000000  1
  Ni  Ni11  1  0.711925  0.610094  0.000000  1
  Ni  Ni12  1  0.389632  0.100545  0.000000  1
  Ni  Ni13  1  0.898415  0.288993  0.000000  1
  Ni  Ni14  1  0.207752  0.383225  0.000000  1
  Ni  Ni15  1  0.613610  0.822479  0.000000  1
  Ni  Ni16  1  0.178080  0.794673  0.000000  1
  Ni  Ni17  1  0.282593  0.229834  0.500000  1
  Ni  Ni18  1  0.765838  0.048694  0.500000  1
  Ni  Ni19  1  0.954013  0.720650  0.500000  1
  P  P20  1  0.219194  0.959012  0.500000  1
