# generated using pymatgen
data_Dy2Tm14In3HgRh4
_symmetry_space_group_name_H-M   'P 1'
_cell_length_a   9.53847615
_cell_length_b   9.53236589
_cell_length_c   9.53387433
_cell_angle_alpha   60.05600263
_cell_angle_beta   60.02017727
_cell_angle_gamma   60.04301669
_symmetry_Int_Tables_number   1
_chemical_formula_structural   Dy2Tm14In3HgRh4
_chemical_formula_sum   'Dy2 Tm14 In3 Hg1 Rh4'
_cell_volume   613.51472562
_cell_formula_units_Z   1
loop_
 _symmetry_equiv_pos_site_id
 _symmetry_equiv_pos_as_xyz
  1  'x, y, z'
loop_
 _atom_site_type_symbol
 _atom_site_label
 _atom_site_symmetry_multiplicity
 _atom_site_fract_x
 _atom_site_fract_y
 _atom_site_fract_z
 _atom_site_occupancy
  Dy  Dy0  1  0.061215  0.062065  0.438017  1
  Dy  Dy1  1  0.436808  0.066168  0.435874  1
  Tm  Tm2  1  0.061906  0.438840  0.061133  1
  Tm  Tm3  1  0.052178  0.647596  0.648646  1
  Tm  Tm4  1  0.436718  0.437315  0.064702  1
  Tm  Tm5  1  0.647934  0.052029  0.648473  1
  Tm  Tm6  1  0.188854  0.812786  0.188576  1
  Tm  Tm7  1  0.188436  0.188784  0.813746  1
  Tm  Tm8  1  0.811007  0.809945  0.190306  1
  Tm  Tm9  1  0.439003  0.061722  0.060153  1
  Tm  Tm10  1  0.813451  0.188871  0.188215  1
  Tm  Tm11  1  0.064625  0.438207  0.436663  1
  Tm  Tm12  1  0.810050  0.190384  0.811068  1
  Tm  Tm13  1  0.190408  0.809521  0.811564  1
  Tm  Tm14  1  0.648331  0.647886  0.051960  1
  Tm  Tm15  1  0.651727  0.651581  0.651915  1
  In  In16  1  0.748148  0.417860  0.417111  1
  In  In17  1  0.417957  0.747353  0.417319  1
  In  In18  1  0.417044  0.417060  0.749122  1
  Hg  Hg19  1  0.413411  0.414321  0.413655  1
  Rh  Rh20  1  0.858782  0.857684  0.427210  1
  Rh  Rh21  1  0.856386  0.856410  0.857213  1
  Rh  Rh22  1  0.427295  0.858070  0.859118  1
  Rh  Rh23  1  0.858323  0.427537  0.858239  1
