# generated using pymatgen
data_Yb3(MnN2)2
_symmetry_space_group_name_H-M   'P 1'
_cell_length_a   5.55677600
_cell_length_b   9.50245500
_cell_length_c   8.86340600
_cell_angle_alpha   90.00000000
_cell_angle_beta   90.00000000
_cell_angle_gamma   90.00000000
_symmetry_Int_Tables_number   1
_chemical_formula_structural   Yb3(MnN2)2
_chemical_formula_sum   'Yb12 Mn8 N16'
_cell_volume   468.01455009
_cell_formula_units_Z   4
loop_
 _symmetry_equiv_pos_site_id
 _symmetry_equiv_pos_as_xyz
  1  'x, y, z'
loop_
 _atom_site_type_symbol
 _atom_site_label
 _atom_site_symmetry_multiplicity
 _atom_site_fract_x
 _atom_site_fract_y
 _atom_site_fract_z
 _atom_site_occupancy
  Yb  Yb0  1  0.613323  0.155998  0.416712  1
  Yb  Yb1  1  0.886677  0.844002  0.416712  1
  Yb  Yb2  1  0.613323  0.344002  0.083288  1
  Yb  Yb3  1  0.886677  0.655998  0.083288  1
  Yb  Yb4  1  0.386677  0.844002  0.583288  1
  Yb  Yb5  1  0.113323  0.155998  0.583288  1
  Yb  Yb6  1  0.386677  0.655998  0.916712  1
  Yb  Yb7  1  0.113323  0.344002  0.916712  1
  Yb  Yb8  1  0.750000  0.500000  0.400050  1
  Yb  Yb9  1  0.750000  0.000000  0.099950  1
  Yb  Yb10  1  0.250000  0.500000  0.599950  1
  Yb  Yb11  1  0.250000  0.000000  0.900050  1
  Mn  Mn12  1  0.750000  0.500000  0.733134  1
  Mn  Mn13  1  0.750000  0.000000  0.766866  1
  Mn  Mn14  1  0.250000  0.500000  0.266865  1
  Mn  Mn15  1  0.250000  0.000000  0.233135  1
  Mn  Mn16  1  0.646071  0.250000  0.750000  1
  Mn  Mn17  1  0.853929  0.750000  0.750000  1
  Mn  Mn18  1  0.353929  0.750000  0.250000  1
  Mn  Mn19  1  0.146071  0.250000  0.250000  1
  N  N20  1  0.877362  0.356728  0.620817  1
  N  N21  1  0.622638  0.643272  0.620817  1
  N  N22  1  0.877362  0.143272  0.879183  1
  N  N23  1  0.622638  0.856728  0.879183  1
  N  N24  1  0.122638  0.643272  0.379183  1
  N  N25  1  0.377362  0.356728  0.379183  1
  N  N26  1  0.122638  0.856728  0.120817  1
  N  N27  1  0.377362  0.143272  0.120817  1
  N  N28  1  0.499764  0.417089  0.837010  1
  N  N29  1  0.000236  0.582911  0.837010  1
  N  N30  1  0.499764  0.082911  0.662990  1
  N  N31  1  0.000236  0.917089  0.662990  1
  N  N32  1  0.500236  0.582911  0.162990  1
  N  N33  1  0.999764  0.417089  0.162990  1
  N  N34  1  0.500236  0.917089  0.337010  1
  N  N35  1  0.999764  0.082911  0.337010  1
