# generated using pymatgen
data_Li2Pr2IrPt
_symmetry_space_group_name_H-M   'P 1'
_cell_length_a   4.12214500
_cell_length_b   7.22701100
_cell_length_c   8.58950100
_cell_angle_alpha   90.00000000
_cell_angle_beta   90.00000000
_cell_angle_gamma   90.00000000
_symmetry_Int_Tables_number   1
_chemical_formula_structural   Li2Pr2IrPt
_chemical_formula_sum   'Li4 Pr4 Ir2 Pt2'
_cell_volume   255.88799695
_cell_formula_units_Z   2
loop_
 _symmetry_equiv_pos_site_id
 _symmetry_equiv_pos_as_xyz
  1  'x, y, z'
loop_
 _atom_site_type_symbol
 _atom_site_label
 _atom_site_symmetry_multiplicity
 _atom_site_fract_x
 _atom_site_fract_y
 _atom_site_fract_z
 _atom_site_occupancy
  Li  Li0  1  0.250000  0.122154  0.053450  1
  Li  Li1  1  0.250000  0.622154  0.446550  1
  Li  Li2  1  0.750000  0.875389  0.947589  1
  Li  Li3  1  0.750000  0.375389  0.552411  1
  Pr  Pr4  1  0.250000  0.049937  0.673403  1
  Pr  Pr5  1  0.250000  0.549937  0.826597  1
  Pr  Pr6  1  0.750000  0.958752  0.314897  1
  Pr  Pr7  1  0.750000  0.458752  0.185103  1
  Ir  Ir8  1  0.250000  0.244476  0.376043  1
  Ir  Ir9  1  0.250000  0.744476  0.123957  1
  Pt  Pt10  1  0.750000  0.749292  0.622713  1
  Pt  Pt11  1  0.750000  0.249292  0.877287  1
