# generated using pymatgen
data_Ti8Al14GaCo7
_symmetry_space_group_name_H-M   'P 1'
_cell_length_a   8.41880165
_cell_length_b   8.41822118
_cell_length_c   8.41892188
_cell_angle_alpha   120.20836465
_cell_angle_beta   119.84432619
_cell_angle_gamma   89.95609054
_symmetry_Int_Tables_number   1
_chemical_formula_structural   Ti8Al14GaCo7
_chemical_formula_sum   'Ti8 Al14 Ga1 Co7'
_cell_volume   421.72377139
_cell_formula_units_Z   1
loop_
 _symmetry_equiv_pos_site_id
 _symmetry_equiv_pos_as_xyz
  1  'x, y, z'
loop_
 _atom_site_type_symbol
 _atom_site_label
 _atom_site_symmetry_multiplicity
 _atom_site_fract_x
 _atom_site_fract_y
 _atom_site_fract_z
 _atom_site_occupancy
  Ti  Ti0  1  0.791644  0.287900  0.072774  1
  Ti  Ti1  1  0.215122  0.287873  0.496221  1
  Ti  Ti2  1  0.209300  0.709291  0.499982  1
  Ti  Ti3  1  0.215135  0.718991  0.927351  1
  Ti  Ti4  1  0.791649  0.718981  0.503815  1
  Ti  Ti5  1  0.783057  0.282971  0.499954  1
  Ti  Ti6  1  0.380053  0.120929  0.741001  1
  Ti  Ti7  1  0.379903  0.639011  0.259048  1
  Al  Al8  1  0.157851  0.340583  0.182515  1
  Al  Al9  1  0.158123  0.975459  0.817499  1
  Al  Al10  1  0.154786  0.343356  0.811565  1
  Al  Al11  1  0.531800  0.343187  0.188409  1
  Al  Al12  1  0.842076  0.656905  0.814970  1
  Al  Al13  1  0.841970  0.027147  0.184993  1
  Al  Al14  1  0.841165  0.657325  0.183622  1
  Al  Al15  1  0.473696  0.657497  0.816338  1
  Al  Al16  1  0.380340  0.120346  0.259963  1
  Al  Al17  1  0.860380  0.120438  0.740118  1
  Al  Al18  1  0.620227  0.878699  0.258396  1
  Al  Al19  1  0.620312  0.361814  0.741598  1
  Al  Al20  1  0.619956  0.879085  0.741062  1
  Al  Al21  1  0.138017  0.878966  0.259016  1
  Ga  Ga22  1  0.996044  0.495969  0.499929  1
  Co  Co23  1  0.002749  0.000939  0.502614  1
  Co  Co24  1  0.498346  0.000919  0.998274  1
  Co  Co25  1  0.497300  0.497211  0.999934  1
  Co  Co26  1  0.498271  0.500130  0.497393  1
  Co  Co27  1  0.002630  0.500078  0.001753  1
  Co  Co28  1  0.999767  0.999681  0.999903  1
  Co  Co29  1  0.498327  0.998314  0.499990  1
