# generated using pymatgen
data_Na2BiPd3
_symmetry_space_group_name_H-M   'P 1'
_cell_length_a   5.65751200
_cell_length_b   5.65751277
_cell_length_c   8.95062400
_cell_angle_alpha   90.00000000
_cell_angle_beta   90.00000000
_cell_angle_gamma   119.99999551
_symmetry_Int_Tables_number   1
_chemical_formula_structural   Na2BiPd3
_chemical_formula_sum   'Na4 Bi2 Pd6'
_cell_volume   248.10469995
_cell_formula_units_Z   2
loop_
 _symmetry_equiv_pos_site_id
 _symmetry_equiv_pos_as_xyz
  1  'x, y, z'
loop_
 _atom_site_type_symbol
 _atom_site_label
 _atom_site_symmetry_multiplicity
 _atom_site_fract_x
 _atom_site_fract_y
 _atom_site_fract_z
 _atom_site_occupancy
  Na  Na0  1  0.333333  0.666666  0.072264  1
  Na  Na1  1  0.333333  0.666666  0.427736  1
  Na  Na2  1  0.666666  0.333333  0.572264  1
  Na  Na3  1  0.666666  0.333333  0.927736  1
  Bi  Bi4  1  0.000000  0.000000  0.000000  1
  Bi  Bi5  1  0.000000  0.000000  0.500000  1
  Pd  Pd6  1  0.342634  0.171317  0.250000  1
  Pd  Pd7  1  0.828683  0.171317  0.250000  1
  Pd  Pd8  1  0.828682  0.657365  0.250000  1
  Pd  Pd9  1  0.171317  0.342634  0.750000  1
  Pd  Pd10  1  0.171317  0.828683  0.750000  1
  Pd  Pd11  1  0.657366  0.828683  0.750000  1
