# generated using pymatgen
data_LaPa(Al5Os)4
_symmetry_space_group_name_H-M   'P 1'
_cell_length_a   6.87234953
_cell_length_b   6.87234952
_cell_length_c   9.18402600
_cell_angle_alpha   90.00000000
_cell_angle_beta   90.00000000
_cell_angle_gamma   97.20682746
_symmetry_Int_Tables_number   1
_chemical_formula_structural   LaPa(Al5Os)4
_chemical_formula_sum   'La1 Pa1 Al20 Os4'
_cell_volume   430.32732873
_cell_formula_units_Z   1
loop_
 _symmetry_equiv_pos_site_id
 _symmetry_equiv_pos_as_xyz
  1  'x, y, z'
loop_
 _atom_site_type_symbol
 _atom_site_label
 _atom_site_symmetry_multiplicity
 _atom_site_fract_x
 _atom_site_fract_y
 _atom_site_fract_z
 _atom_site_occupancy
  La  La0  1  0.373313  0.626687  0.250000  1
  Pa  Pa1  1  0.626887  0.373113  0.750000  1
  Al  Al2  1  0.280685  0.017899  0.750000  1
  Al  Al3  1  0.015901  0.279711  0.250000  1
  Al  Al4  1  0.720289  0.984099  0.250000  1
  Al  Al5  1  0.982101  0.719315  0.750000  1
  Al  Al6  1  0.877370  0.122630  0.949751  1
  Al  Al7  1  0.123686  0.876314  0.045018  1
  Al  Al8  1  0.877370  0.122630  0.550249  1
  Al  Al9  1  0.123686  0.876314  0.454982  1
  Al  Al10  1  0.644094  0.910198  0.750000  1
  Al  Al11  1  0.913442  0.646606  0.250000  1
  Al  Al12  1  0.353394  0.086558  0.250000  1
  Al  Al13  1  0.089802  0.355906  0.750000  1
  Al  Al14  1  0.344658  0.655342  0.896563  1
  Al  Al15  1  0.660021  0.339979  0.102880  1
  Al  Al16  1  0.344658  0.655342  0.603437  1
  Al  Al17  1  0.660021  0.339979  0.397120  1
  Al  Al18  1  0.722410  0.724592  0.999302  1
  Al  Al19  1  0.722410  0.724592  0.500698  1
  Al  Al20  1  0.275408  0.277590  0.999302  1
  Al  Al21  1  0.275408  0.277590  0.500698  1
  Os  Os22  1  0.500898  0.004405  0.996495  1
  Os  Os23  1  0.995595  0.499102  0.996495  1
  Os  Os24  1  0.500898  0.004405  0.503505  1
  Os  Os25  1  0.995595  0.499102  0.503505  1
