# generated using pymatgen
data_Ti3Nb6Ge6B2Mo
_symmetry_space_group_name_H-M   'P 1'
_cell_length_a   7.74251100
_cell_length_b   7.74251193
_cell_length_c   5.25446600
_cell_angle_alpha   90.00000000
_cell_angle_beta   90.00000000
_cell_angle_gamma   120.00000030
_symmetry_Int_Tables_number   1
_chemical_formula_structural   Ti3Nb6Ge6B2Mo
_chemical_formula_sum   'Ti3 Nb6 Ge6 B2 Mo1'
_cell_volume   272.78653594
_cell_formula_units_Z   1
loop_
 _symmetry_equiv_pos_site_id
 _symmetry_equiv_pos_as_xyz
  1  'x, y, z'
loop_
 _atom_site_type_symbol
 _atom_site_label
 _atom_site_symmetry_multiplicity
 _atom_site_fract_x
 _atom_site_fract_y
 _atom_site_fract_z
 _atom_site_occupancy
  Ti  Ti0  1  0.333333  0.666667  0.500000  1
  Ti  Ti1  1  0.333333  0.666667  0.000000  1
  Ti  Ti2  1  0.666667  0.333333  0.000000  1
  Nb  Nb3  1  0.755533  0.756668  0.248464  1
  Nb  Nb4  1  0.243332  0.998865  0.248464  1
  Nb  Nb5  1  0.001135  0.244467  0.248464  1
  Nb  Nb6  1  0.243332  0.244467  0.751536  1
  Nb  Nb7  1  0.755533  0.998865  0.751536  1
  Nb  Nb8  1  0.001135  0.756668  0.751536  1
  Ge  Ge9  1  0.403064  0.403960  0.251091  1
  Ge  Ge10  1  0.596040  0.999104  0.251091  1
  Ge  Ge11  1  0.000896  0.596936  0.251091  1
  Ge  Ge12  1  0.596040  0.596936  0.748909  1
  Ge  Ge13  1  0.403064  0.999104  0.748909  1
  Ge  Ge14  1  0.000896  0.403960  0.748909  1
  B  B15  1  0.000000  0.000000  0.500000  1
  B  B16  1  0.000000  0.000000  0.000000  1
  Mo  Mo17  1  0.666667  0.333333  0.500000  1
