# generated using pymatgen
data_Y9Er(SnBi)3
_symmetry_space_group_name_H-M   'P 1'
_cell_length_a   9.07794503
_cell_length_b   9.09196898
_cell_length_c   6.50401902
_cell_angle_alpha   90.00562746
_cell_angle_beta   89.99243319
_cell_angle_gamma   119.99294605
_symmetry_Int_Tables_number   1
_chemical_formula_structural   Y9Er(SnBi)3
_chemical_formula_sum   'Y9 Er1 Sn3 Bi3'
_cell_volume   464.93130466
_cell_formula_units_Z   1
loop_
 _symmetry_equiv_pos_site_id
 _symmetry_equiv_pos_as_xyz
  1  'x, y, z'
loop_
 _atom_site_type_symbol
 _atom_site_label
 _atom_site_symmetry_multiplicity
 _atom_site_fract_x
 _atom_site_fract_y
 _atom_site_fract_z
 _atom_site_occupancy
  Y  Y0  1  0.759235  0.753422  0.250026  1
  Y  Y1  1  0.005410  0.246377  0.250114  1
  Y  Y2  1  0.764835  0.005902  0.749911  1
  Y  Y3  1  0.236396  0.999589  0.250127  1
  Y  Y4  1  0.671617  0.337885  0.498674  1
  Y  Y5  1  0.999967  0.755443  0.749977  1
  Y  Y6  1  0.325941  0.659362  0.001345  1
  Y  Y7  1  0.237937  0.243719  0.749880  1
  Y  Y8  1  0.671782  0.338052  0.001362  1
  Er  Er9  1  0.325189  0.658613  0.498446  1
  Sn  Sn10  1  0.998386  0.392721  0.749484  1
  Sn  Sn11  1  0.392955  0.390444  0.250458  1
  Sn  Sn12  1  0.001770  0.609050  0.250588  1
  Bi  Bi13  1  0.608214  0.611448  0.749585  1
  Bi  Bi14  1  0.391693  0.000197  0.749579  1
  Bi  Bi15  1  0.608673  0.997776  0.250443  1
