# generated using pymatgen
data_Ce2Dy7Tm(Al2Ru3)2
_symmetry_space_group_name_H-M   'P 1'
_cell_length_a   8.44339840
_cell_length_b   8.35252791
_cell_length_c   8.32414583
_cell_angle_alpha   109.88530791
_cell_angle_beta   109.43033187
_cell_angle_gamma   110.22077950
_symmetry_Int_Tables_number   1
_chemical_formula_structural   Ce2Dy7Tm(Al2Ru3)2
_chemical_formula_sum   'Ce2 Dy7 Tm1 Al4 Ru6'
_cell_volume   445.52336867
_cell_formula_units_Z   1
loop_
 _symmetry_equiv_pos_site_id
 _symmetry_equiv_pos_as_xyz
  1  'x, y, z'
loop_
 _atom_site_type_symbol
 _atom_site_label
 _atom_site_symmetry_multiplicity
 _atom_site_fract_x
 _atom_site_fract_y
 _atom_site_fract_z
 _atom_site_occupancy
  Ce  Ce0  1  0.943978  0.251214  0.195316  1
  Ce  Ce1  1  0.196574  0.941669  0.251078  1
  Dy  Dy2  1  0.781697  0.786236  0.778569  1
  Dy  Dy3  1  0.317781  0.565944  0.754722  1
  Dy  Dy4  1  0.751156  0.317169  0.568276  1
  Dy  Dy5  1  0.566495  0.747659  0.312333  1
  Dy  Dy6  1  0.720687  0.502584  0.998683  1
  Dy  Dy7  1  0.999136  0.720305  0.506065  1
  Dy  Dy8  1  0.500615  0.992346  0.716659  1
  Tm  Tm9  1  0.253935  0.187218  0.931953  1
  Al  Al10  1  0.414933  0.410116  0.407642  1
  Al  Al11  1  0.093026  0.491519  0.996747  1
  Al  Al12  1  0.998486  0.091844  0.503446  1
  Al  Al13  1  0.502211  0.010576  0.094540  1
  Ru  Ru14  1  0.869284  0.117212  0.741586  1
  Ru  Ru15  1  0.754416  0.902909  0.122644  1
  Ru  Ru16  1  0.127614  0.763703  0.908386  1
  Ru  Ru17  1  0.224488  0.592865  0.364525  1
  Ru  Ru18  1  0.358263  0.222310  0.596065  1
  Ru  Ru19  1  0.625224  0.384605  0.250767  1
