# generated using pymatgen
data_Eu2Mg2IrPd
_symmetry_space_group_name_H-M   'P 1'
_cell_length_a   4.33318300
_cell_length_b   7.38220100
_cell_length_c   8.58081800
_cell_angle_alpha   90.00000000
_cell_angle_beta   90.00000000
_cell_angle_gamma   90.00000000
_symmetry_Int_Tables_number   1
_chemical_formula_structural   Eu2Mg2IrPd
_chemical_formula_sum   'Eu4 Mg4 Ir2 Pd2'
_cell_volume   274.48687771
_cell_formula_units_Z   2
loop_
 _symmetry_equiv_pos_site_id
 _symmetry_equiv_pos_as_xyz
  1  'x, y, z'
loop_
 _atom_site_type_symbol
 _atom_site_label
 _atom_site_symmetry_multiplicity
 _atom_site_fract_x
 _atom_site_fract_y
 _atom_site_fract_z
 _atom_site_occupancy
  Eu  Eu0  1  0.250000  0.036090  0.329464  1
  Eu  Eu1  1  0.250000  0.536090  0.170536  1
  Eu  Eu2  1  0.750000  0.973090  0.681358  1
  Eu  Eu3  1  0.750000  0.473090  0.818642  1
  Mg  Mg4  1  0.250000  0.134885  0.934186  1
  Mg  Mg5  1  0.250000  0.634885  0.565814  1
  Mg  Mg6  1  0.750000  0.859387  0.055204  1
  Mg  Mg7  1  0.750000  0.359387  0.444796  1
  Ir  Ir8  1  0.250000  0.266739  0.625623  1
  Ir  Ir9  1  0.250000  0.766739  0.874377  1
  Pd  Pd10  1  0.750000  0.729809  0.375767  1
  Pd  Pd11  1  0.750000  0.229809  0.124233  1
