# generated using pymatgen
data_Sc8Ta11Si16Tc
_symmetry_space_group_name_H-M   'P 1'
_cell_length_a   6.87798794
_cell_length_b   6.88574837
_cell_length_c   12.66996204
_cell_angle_alpha   90.22545468
_cell_angle_beta   89.92368577
_cell_angle_gamma   89.97117005
_symmetry_Int_Tables_number   1
_chemical_formula_structural   Sc8Ta11Si16Tc
_chemical_formula_sum   'Sc8 Ta11 Si16 Tc1'
_cell_volume   600.04534094
_cell_formula_units_Z   1
loop_
 _symmetry_equiv_pos_site_id
 _symmetry_equiv_pos_as_xyz
  1  'x, y, z'
loop_
 _atom_site_type_symbol
 _atom_site_label
 _atom_site_symmetry_multiplicity
 _atom_site_fract_x
 _atom_site_fract_y
 _atom_site_fract_z
 _atom_site_occupancy
  Sc  Sc0  1  0.000237  0.660429  0.032255  1
  Sc  Sc1  1  0.839597  0.502893  0.280810  1
  Sc  Sc2  1  0.159477  0.500430  0.780937  1
  Sc  Sc3  1  0.501340  0.840776  0.717757  1
  Sc  Sc4  1  0.498265  0.158776  0.220074  1
  Sc  Sc5  1  0.000548  0.341945  0.529469  1
  Sc  Sc6  1  0.659340  0.001252  0.969908  1
  Sc  Sc7  1  0.341248  0.000371  0.469214  1
  Ta  Ta8  1  0.329566  0.328786  0.999644  1
  Ta  Ta9  1  0.173135  0.830037  0.250416  1
  Ta  Ta10  1  0.829301  0.171573  0.749122  1
  Ta  Ta11  1  0.672151  0.667673  0.500098  1
  Ta  Ta12  1  0.004206  0.151007  0.127119  1
  Ta  Ta13  1  0.348576  0.505444  0.376091  1
  Ta  Ta14  1  0.650983  0.493918  0.877006  1
  Ta  Ta15  1  0.508984  0.345990  0.621778  1
  Ta  Ta16  1  0.494691  0.653102  0.124816  1
  Ta  Ta17  1  0.995071  0.848758  0.626977  1
  Ta  Ta18  1  0.151056  0.006314  0.873950  1
  Si  Si19  1  0.301130  0.956544  0.063593  1
  Si  Si20  1  0.546918  0.803136  0.315838  1
  Si  Si21  1  0.457000  0.197381  0.812998  1
  Si  Si22  1  0.801724  0.543825  0.686587  1
  Si  Si23  1  0.198642  0.455167  0.186693  1
  Si  Si24  1  0.701245  0.040071  0.560621  1
  Si  Si25  1  0.956107  0.302499  0.936648  1
  Si  Si26  1  0.041666  0.705149  0.436135  1
  Si  Si27  1  0.703859  0.360268  0.072570  1
  Si  Si28  1  0.131054  0.201701  0.322643  1
  Si  Si29  1  0.859954  0.795297  0.821575  1
  Si  Si30  1  0.205485  0.139915  0.677528  1
  Si  Si31  1  0.796297  0.862423  0.180728  1
  Si  Si32  1  0.294575  0.636876  0.571034  1
  Si  Si33  1  0.361261  0.706480  0.928155  1
  Si  Si34  1  0.640396  0.289788  0.425806  1
  Tc  Tc35  1  0.844914  0.994004  0.373406  1
