# generated using pymatgen
data_Sr4CuH12Pt
_symmetry_space_group_name_H-M   'P 1'
_cell_length_a   7.46416969
_cell_length_b   7.46417018
_cell_length_c   5.55944802
_cell_angle_alpha   90.04480876
_cell_angle_beta   90.04481249
_cell_angle_gamma   136.24927028
_symmetry_Int_Tables_number   1
_chemical_formula_structural   Sr4CuH12Pt
_chemical_formula_sum   'Sr4 Cu1 H12 Pt1'
_cell_volume   214.19035759
_cell_formula_units_Z   1
loop_
 _symmetry_equiv_pos_site_id
 _symmetry_equiv_pos_as_xyz
  1  'x, y, z'
loop_
 _atom_site_type_symbol
 _atom_site_label
 _atom_site_symmetry_multiplicity
 _atom_site_fract_x
 _atom_site_fract_y
 _atom_site_fract_z
 _atom_site_occupancy
  Sr  Sr0  1  0.646833  0.353167  0.000000  1
  Sr  Sr1  1  0.353167  0.646833  0.000000  1
  Sr  Sr2  1  0.854507  0.145493  0.500000  1
  Sr  Sr3  1  0.145493  0.854507  0.500000  1
  Cu  Cu4  1  0.000000  0.000000  0.000000  1
  H  H5  1  0.886085  0.113915  0.000000  1
  H  H6  1  0.113915  0.886085  0.000000  1
  H  H7  1  0.620758  0.379242  0.500000  1
  H  H8  1  0.379242  0.620758  0.500000  1
  H  H9  1  0.000078  0.499557  0.251925  1
  H  H10  1  0.999922  0.500443  0.748075  1
  H  H11  1  0.500443  0.999922  0.748075  1
  H  H12  1  0.499557  0.000078  0.251925  1
  H  H13  1  0.278030  0.278030  0.274448  1
  H  H14  1  0.721970  0.721970  0.725552  1
  H  H15  1  0.270791  0.270791  0.728478  1
  H  H16  1  0.729209  0.729209  0.271522  1
  Pt  Pt17  1  0.500000  0.500000  0.500000  1
