# generated using pymatgen
data_ErGa(Ni7B2)3
_symmetry_space_group_name_H-M   'P 1'
_cell_length_a   7.46615261
_cell_length_b   7.46615303
_cell_length_c   7.46615300
_cell_angle_alpha   60.00000458
_cell_angle_beta   60.00000268
_cell_angle_gamma   60.00000880
_symmetry_Int_Tables_number   1
_chemical_formula_structural   ErGa(Ni7B2)3
_chemical_formula_sum   'Er1 Ga1 Ni21 B6'
_cell_volume   294.29012556
_cell_formula_units_Z   1
loop_
 _symmetry_equiv_pos_site_id
 _symmetry_equiv_pos_as_xyz
  1  'x, y, z'
loop_
 _atom_site_type_symbol
 _atom_site_label
 _atom_site_symmetry_multiplicity
 _atom_site_fract_x
 _atom_site_fract_y
 _atom_site_fract_z
 _atom_site_occupancy
  Er  Er0  1  0.750000  0.750000  0.750000  1
  Ga  Ga1  1  0.250000  0.250000  0.250000  1
  Ni  Ni2  1  0.000000  0.000000  0.000000  1
  Ni  Ni3  1  0.608267  0.608267  0.175198  1
  Ni  Ni4  1  0.608267  0.175198  0.608267  1
  Ni  Ni5  1  0.175198  0.608267  0.608267  1
  Ni  Ni6  1  0.608267  0.608267  0.608267  1
  Ni  Ni7  1  0.378979  0.378979  0.863064  1
  Ni  Ni8  1  0.378979  0.863064  0.378979  1
  Ni  Ni9  1  0.863064  0.378979  0.378979  1
  Ni  Ni10  1  0.378979  0.378979  0.378979  1
  Ni  Ni11  1  0.000172  0.000172  0.337085  1
  Ni  Ni12  1  0.662571  0.000172  0.337085  1
  Ni  Ni13  1  0.000172  0.662571  0.337085  1
  Ni  Ni14  1  0.662571  0.337085  0.000172  1
  Ni  Ni15  1  0.000172  0.337085  0.000172  1
  Ni  Ni16  1  0.000172  0.337085  0.662571  1
  Ni  Ni17  1  0.337085  0.662571  0.000172  1
  Ni  Ni18  1  0.337085  0.000172  0.662571  1
  Ni  Ni19  1  0.337085  0.000172  0.000172  1
  Ni  Ni20  1  0.000172  0.000172  0.662571  1
  Ni  Ni21  1  0.000172  0.662571  0.000172  1
  Ni  Ni22  1  0.662571  0.000172  0.000172  1
  B  B23  1  0.729010  0.729010  0.270990  1
  B  B24  1  0.270990  0.729010  0.270990  1
  B  B25  1  0.729010  0.270990  0.270990  1
  B  B26  1  0.270990  0.270990  0.729010  1
  B  B27  1  0.729010  0.270990  0.729010  1
  B  B28  1  0.270990  0.729010  0.729010  1
