# generated using pymatgen
data_Dy5Ho3Zn2(Si6Rh)2
_symmetry_space_group_name_H-M   'P 1'
_cell_length_a   8.12211901
_cell_length_b   8.12189241
_cell_length_c   8.06996401
_cell_angle_alpha   90.00304904
_cell_angle_beta   89.99540700
_cell_angle_gamma   120.00060183
_symmetry_Int_Tables_number   1
_chemical_formula_structural   Dy5Ho3Zn2(Si6Rh)2
_chemical_formula_sum   'Dy5 Ho3 Zn2 Si12 Rh2'
_cell_volume   461.02680304
_cell_formula_units_Z   1
loop_
 _symmetry_equiv_pos_site_id
 _symmetry_equiv_pos_as_xyz
  1  'x, y, z'
loop_
 _atom_site_type_symbol
 _atom_site_label
 _atom_site_symmetry_multiplicity
 _atom_site_fract_x
 _atom_site_fract_y
 _atom_site_fract_z
 _atom_site_occupancy
  Dy  Dy0  1  0.999997  0.000004  0.248266  1
  Dy  Dy1  1  0.000008  0.000006  0.751548  1
  Dy  Dy2  1  0.504807  0.495177  0.243080  1
  Dy  Dy3  1  0.504804  0.009664  0.243084  1
  Dy  Dy4  1  0.990328  0.495184  0.243103  1
  Ho  Ho5  1  0.494726  0.505239  0.757202  1
  Ho  Ho6  1  0.494729  0.989529  0.757205  1
  Ho  Ho7  1  0.010446  0.505244  0.757213  1
  Zn  Zn8  1  0.333126  0.666608  0.471960  1
  Zn  Zn9  1  0.666425  0.333337  0.532161  1
  Si  Si10  1  0.166444  0.833487  0.508213  1
  Si  Si11  1  0.166429  0.333027  0.508215  1
  Si  Si12  1  0.666888  0.833497  0.508221  1
  Si  Si13  1  0.833300  0.166619  0.492610  1
  Si  Si14  1  0.833317  0.666806  0.492606  1
  Si  Si15  1  0.333106  0.166596  0.492596  1
  Si  Si16  1  0.833125  0.166878  0.994044  1
  Si  Si17  1  0.833085  0.666083  0.994031  1
  Si  Si18  1  0.334288  0.167107  0.994007  1
  Si  Si19  1  0.167000  0.833134  0.004828  1
  Si  Si20  1  0.166957  0.333708  0.004813  1
  Si  Si21  1  0.666229  0.833074  0.004815  1
  Rh  Rh22  1  0.667047  0.333419  0.988219  1
  Rh  Rh23  1  0.333387  0.666574  0.007962  1
