# generated using pymatgen
data_DyHoGa6(NiAg)2
_symmetry_space_group_name_H-M   'P 1'
_cell_length_a   4.10407857
_cell_length_b   6.54925000
_cell_length_c   8.04619725
_cell_angle_alpha   90.00000000
_cell_angle_beta   104.77549313
_cell_angle_gamma   90.00000000
_symmetry_Int_Tables_number   1
_chemical_formula_structural   DyHoGa6(NiAg)2
_chemical_formula_sum   'Dy1 Ho1 Ga6 Ni2 Ag2'
_cell_volume   209.11928969
_cell_formula_units_Z   1
loop_
 _symmetry_equiv_pos_site_id
 _symmetry_equiv_pos_as_xyz
  1  'x, y, z'
loop_
 _atom_site_type_symbol
 _atom_site_label
 _atom_site_symmetry_multiplicity
 _atom_site_fract_x
 _atom_site_fract_y
 _atom_site_fract_z
 _atom_site_occupancy
  Dy  Dy0  1  0.627510  0.250000  0.255019  1
  Ho  Ho1  1  0.372421  0.750000  0.744842  1
  Ga  Ga2  1  0.569253  0.750000  0.138507  1
  Ga  Ga3  1  0.430655  0.250000  0.861310  1
  Ga  Ga4  1  0.185117  0.550346  0.370233  1
  Ga  Ga5  1  0.815068  0.450028  0.630136  1
  Ga  Ga6  1  0.185117  0.949654  0.370233  1
  Ga  Ga7  1  0.815068  0.049972  0.630136  1
  Ni  Ni8  1  0.723034  0.750000  0.446070  1
  Ni  Ni9  1  0.277052  0.250000  0.554102  1
  Ag  Ag10  1  0.999853  0.500229  0.999705  1
  Ag  Ag11  1  0.999853  0.999771  0.999705  1
