# generated using pymatgen
data_Lu4CdCo
_symmetry_space_group_name_H-M   'P 1'
_cell_length_a   9.31708362
_cell_length_b   9.31708315
_cell_length_c   9.31708400
_cell_angle_alpha   59.99999697
_cell_angle_beta   59.99999867
_cell_angle_gamma   59.99999331
_symmetry_Int_Tables_number   1
_chemical_formula_structural   Lu4CdCo
_chemical_formula_sum   'Lu16 Cd4 Co4'
_cell_volume   571.90638016
_cell_formula_units_Z   4
loop_
 _symmetry_equiv_pos_site_id
 _symmetry_equiv_pos_as_xyz
  1  'x, y, z'
loop_
 _atom_site_type_symbol
 _atom_site_label
 _atom_site_symmetry_multiplicity
 _atom_site_fract_x
 _atom_site_fract_y
 _atom_site_fract_z
 _atom_site_occupancy
  Lu  Lu0  1  0.438298  0.438298  0.061702  1
  Lu  Lu1  1  0.596401  0.596401  0.596401  1
  Lu  Lu2  1  0.188223  0.811777  0.811777  1
  Lu  Lu3  1  0.061702  0.061702  0.438298  1
  Lu  Lu4  1  0.438298  0.061702  0.061702  1
  Lu  Lu5  1  0.811777  0.188223  0.811777  1
  Lu  Lu6  1  0.438298  0.061702  0.438298  1
  Lu  Lu7  1  0.596401  0.210797  0.596401  1
  Lu  Lu8  1  0.811777  0.811777  0.188223  1
  Lu  Lu9  1  0.210797  0.596401  0.596401  1
  Lu  Lu10  1  0.811777  0.188223  0.188223  1
  Lu  Lu11  1  0.061702  0.438298  0.438298  1
  Lu  Lu12  1  0.188223  0.811777  0.188223  1
  Lu  Lu13  1  0.596401  0.596401  0.210797  1
  Lu  Lu14  1  0.188223  0.188223  0.811777  1
  Lu  Lu15  1  0.061702  0.438298  0.061702  1
  Cd  Cd16  1  0.830708  0.830708  0.507875  1
  Cd  Cd17  1  0.830708  0.830708  0.830708  1
  Cd  Cd18  1  0.507875  0.830708  0.830708  1
  Cd  Cd19  1  0.830708  0.507875  0.830708  1
  Co  Co20  1  0.390965  0.390965  0.390965  1
  Co  Co21  1  0.827105  0.390965  0.390965  1
  Co  Co22  1  0.390965  0.827105  0.390965  1
  Co  Co23  1  0.390965  0.390965  0.827105  1
