# generated using pymatgen
data_Er5ScCo16(P6Os)2
_symmetry_space_group_name_H-M   'P 1'
_cell_length_a   3.69141000
_cell_length_b   10.45416280
_cell_length_c   12.16689948
_cell_angle_alpha   89.90195515
_cell_angle_beta   90.00000000
_cell_angle_gamma   90.00000000
_symmetry_Int_Tables_number   1
_chemical_formula_structural   Er5ScCo16(P6Os)2
_chemical_formula_sum   'Er5 Sc1 Co16 P12 Os2'
_cell_volume   469.52727720
_cell_formula_units_Z   1
loop_
 _symmetry_equiv_pos_site_id
 _symmetry_equiv_pos_as_xyz
  1  'x, y, z'
loop_
 _atom_site_type_symbol
 _atom_site_label
 _atom_site_symmetry_multiplicity
 _atom_site_fract_x
 _atom_site_fract_y
 _atom_site_fract_z
 _atom_site_occupancy
  Er  Er0  1  0.750000  0.249841  0.475075  1
  Er  Er1  1  0.250000  0.750834  0.526687  1
  Er  Er2  1  0.250000  0.568807  0.792780  1
  Er  Er3  1  0.750000  0.067295  0.207492  1
  Er  Er4  1  0.750000  0.432445  0.206372  1
  Sc  Sc5  1  0.250000  0.932336  0.792145  1
  Co  Co6  1  0.250000  0.249539  0.296373  1
  Co  Co7  1  0.750000  0.752111  0.704195  1
  Co  Co8  1  0.750000  0.248317  0.011657  1
  Co  Co9  1  0.250000  0.751274  0.985307  1
  Co  Co10  1  0.250000  0.417334  0.009742  1
  Co  Co11  1  0.250000  0.081021  0.008750  1
  Co  Co12  1  0.750000  0.583504  0.988734  1
  Co  Co13  1  0.750000  0.917696  0.987572  1
  Co  Co14  1  0.250000  0.452612  0.568700  1
  Co  Co15  1  0.250000  0.047139  0.571026  1
  Co  Co16  1  0.750000  0.547698  0.431625  1
  Co  Co17  1  0.750000  0.952572  0.433348  1
  Co  Co18  1  0.250000  0.871132  0.292876  1
  Co  Co19  1  0.250000  0.628930  0.291773  1
  Co  Co20  1  0.750000  0.126765  0.709666  1
  Co  Co21  1  0.750000  0.370748  0.707941  1
  P  P22  1  0.250000  0.248976  0.118884  1
  P  P23  1  0.750000  0.752649  0.878626  1
  P  P24  1  0.250000  0.250168  0.648433  1
  P  P25  1  0.750000  0.750014  0.352306  1
  P  P26  1  0.250000  0.437430  0.383502  1
  P  P27  1  0.250000  0.062306  0.385043  1
  P  P28  1  0.750000  0.563595  0.616832  1
  P  P29  1  0.750000  0.937501  0.620179  1
  P  P30  1  0.250000  0.903634  0.107734  1
  P  P31  1  0.250000  0.596780  0.106664  1
  P  P32  1  0.750000  0.092756  0.889932  1
  P  P33  1  0.750000  0.404022  0.892049  1
  Os  Os34  1  0.250000  0.249496  0.840956  1
  Os  Os35  1  0.750000  0.750722  0.159024  1
