# generated using pymatgen
data_Ni4Mo2PtRh
_symmetry_space_group_name_H-M   'P 1'
_cell_length_a   4.29819100
_cell_length_b   4.62710293
_cell_length_c   5.22013883
_cell_angle_alpha   90.70555949
_cell_angle_beta   90.00000000
_cell_angle_gamma   90.00000000
_symmetry_Int_Tables_number   1
_chemical_formula_structural   Ni4Mo2PtRh
_chemical_formula_sum   'Ni4 Mo2 Pt1 Rh1'
_cell_volume   103.81114821
_cell_formula_units_Z   1
loop_
 _symmetry_equiv_pos_site_id
 _symmetry_equiv_pos_as_xyz
  1  'x, y, z'
loop_
 _atom_site_type_symbol
 _atom_site_label
 _atom_site_symmetry_multiplicity
 _atom_site_fract_x
 _atom_site_fract_y
 _atom_site_fract_z
 _atom_site_occupancy
  Ni  Ni0  1  0.500000  0.160671  0.241056  1
  Ni  Ni1  1  0.000000  0.837336  0.258158  1
  Ni  Ni2  1  0.000000  0.337616  0.484852  1
  Ni  Ni3  1  0.500000  0.663790  0.015291  1
  Mo  Mo4  1  0.500000  0.656175  0.485584  1
  Mo  Mo5  1  0.000000  0.348757  0.013902  1
  Pt  Pt6  1  0.500000  0.170414  0.740980  1
  Rh  Rh7  1  0.000000  0.825239  0.760178  1
