# generated using pymatgen
data_Hf3ZnCo(SnIr)2
_symmetry_space_group_name_H-M   'P 1'
_cell_length_a   7.47868948
_cell_length_b   7.47868911
_cell_length_c   3.30372600
_cell_angle_alpha   90.00000000
_cell_angle_beta   90.00000000
_cell_angle_gamma   120.03152599
_symmetry_Int_Tables_number   1
_chemical_formula_structural   Hf3ZnCo(SnIr)2
_chemical_formula_sum   'Hf3 Zn1 Co1 Sn2 Ir2'
_cell_volume   159.97332870
_cell_formula_units_Z   1
loop_
 _symmetry_equiv_pos_site_id
 _symmetry_equiv_pos_as_xyz
  1  'x, y, z'
loop_
 _atom_site_type_symbol
 _atom_site_label
 _atom_site_symmetry_multiplicity
 _atom_site_fract_x
 _atom_site_fract_y
 _atom_site_fract_z
 _atom_site_occupancy
  Hf  Hf0  1  0.412759  0.412759  0.500000  1
  Hf  Hf1  1  0.611819  0.979503  0.500000  1
  Hf  Hf2  1  0.979503  0.611819  0.500000  1
  Zn  Zn3  1  0.732419  0.732419  0.000000  1
  Co  Co4  1  0.990999  0.990999  0.500000  1
  Sn  Sn5  1  0.263304  0.002648  0.000000  1
  Sn  Sn6  1  0.002648  0.263304  0.000000  1
  Ir  Ir7  1  0.670065  0.336481  0.000000  1
  Ir  Ir8  1  0.336481  0.670065  0.000000  1
