# generated using pymatgen
data_Hf6ReTc2Ir3
_symmetry_space_group_name_H-M   'P 1'
_cell_length_a   4.61592000
_cell_length_b   6.50267800
_cell_length_c   13.91612300
_cell_angle_alpha   90.00000000
_cell_angle_beta   90.00054893
_cell_angle_gamma   90.00000000
_symmetry_Int_Tables_number   1
_chemical_formula_structural   Hf6ReTc2Ir3
_chemical_formula_sum   'Hf12 Re2 Tc4 Ir6'
_cell_volume   417.70414133
_cell_formula_units_Z   2
loop_
 _symmetry_equiv_pos_site_id
 _symmetry_equiv_pos_as_xyz
  1  'x, y, z'
loop_
 _atom_site_type_symbol
 _atom_site_label
 _atom_site_symmetry_multiplicity
 _atom_site_fract_x
 _atom_site_fract_y
 _atom_site_fract_z
 _atom_site_occupancy
  Hf  Hf0  1  0.499994  0.250043  0.000082  1
  Hf  Hf1  1  0.499994  0.749957  0.000082  1
  Hf  Hf2  1  0.999994  0.249963  0.166590  1
  Hf  Hf3  1  0.999994  0.750038  0.166590  1
  Hf  Hf4  1  0.499995  0.249917  0.333246  1
  Hf  Hf5  1  0.499995  0.750083  0.333246  1
  Hf  Hf6  1  0.999992  0.249721  0.500000  1
  Hf  Hf7  1  0.999992  0.750279  0.500000  1
  Hf  Hf8  1  0.500005  0.250286  0.666659  1
  Hf  Hf9  1  0.500005  0.749714  0.666659  1
  Hf  Hf10  1  0.000004  0.250091  0.833419  1
  Hf  Hf11  1  0.000004  0.749910  0.833419  1
  Re  Re12  1  0.000022  0.000000  0.999853  1
  Re  Re13  1  0.499968  0.499999  0.166808  1
  Tc  Tc14  1  0.999994  0.000000  0.333742  1
  Tc  Tc15  1  0.500010  0.499999  0.500165  1
  Tc  Tc16  1  0.000000  0.000000  0.666488  1
  Tc  Tc17  1  0.500018  0.499999  0.832947  1
  Ir  Ir18  1  0.000011  0.499999  0.999694  1
  Ir  Ir19  1  0.499981  0.000000  0.166988  1
  Ir  Ir20  1  0.000002  0.499999  0.333819  1
  Ir  Ir21  1  0.500010  0.000000  0.500198  1
  Ir  Ir22  1  0.000009  0.499999  0.666469  1
  Ir  Ir23  1  0.500007  0.000000  0.832836  1
