# generated using pymatgen
data_Li4Ca3NdSi8
_symmetry_space_group_name_H-M   'P 1'
_cell_length_a   3.82165700
_cell_length_b   7.89250913
_cell_length_c   10.60067571
_cell_angle_alpha   89.81607840
_cell_angle_beta   90.00000000
_cell_angle_gamma   90.00000000
_symmetry_Int_Tables_number   1
_chemical_formula_structural   Li4Ca3NdSi8
_chemical_formula_sum   'Li4 Ca3 Nd1 Si8'
_cell_volume   319.74083878
_cell_formula_units_Z   1
loop_
 _symmetry_equiv_pos_site_id
 _symmetry_equiv_pos_as_xyz
  1  'x, y, z'
loop_
 _atom_site_type_symbol
 _atom_site_label
 _atom_site_symmetry_multiplicity
 _atom_site_fract_x
 _atom_site_fract_y
 _atom_site_fract_z
 _atom_site_occupancy
  Li  Li0  1  0.250000  0.998096  0.388444  1
  Li  Li1  1  0.750000  0.000684  0.610301  1
  Li  Li2  1  0.250000  0.498230  0.111301  1
  Li  Li3  1  0.750000  0.504392  0.888157  1
  Ca  Ca4  1  0.750000  0.866141  0.135091  1
  Ca  Ca5  1  0.250000  0.635042  0.636148  1
  Ca  Ca6  1  0.750000  0.365731  0.364869  1
  Nd  Nd7  1  0.250000  0.131176  0.865317  1
  Si  Si8  1  0.750000  0.269725  0.066756  1
  Si  Si9  1  0.250000  0.733745  0.932707  1
  Si  Si10  1  0.750000  0.768152  0.432215  1
  Si  Si11  1  0.250000  0.229116  0.569260  1
  Si  Si12  1  0.750000  0.835477  0.823771  1
  Si  Si13  1  0.250000  0.165212  0.173813  1
  Si  Si14  1  0.750000  0.333332  0.676736  1
  Si  Si15  1  0.250000  0.665749  0.325117  1
