# generated using pymatgen
data_Sc12Ga2Fe3
_symmetry_space_group_name_H-M   'P 1'
_cell_length_a   7.68401296
_cell_length_b   7.68401238
_cell_length_c   7.68401315
_cell_angle_alpha   109.10049775
_cell_angle_beta   109.10050569
_cell_angle_gamma   110.21522816
_symmetry_Int_Tables_number   1
_chemical_formula_structural   Sc12Ga2Fe3
_chemical_formula_sum   'Sc12 Ga2 Fe3'
_cell_volume   349.21054950
_cell_formula_units_Z   1
loop_
 _symmetry_equiv_pos_site_id
 _symmetry_equiv_pos_as_xyz
  1  'x, y, z'
loop_
 _atom_site_type_symbol
 _atom_site_label
 _atom_site_symmetry_multiplicity
 _atom_site_fract_x
 _atom_site_fract_y
 _atom_site_fract_z
 _atom_site_occupancy
  Sc  Sc0  1  0.305923  0.305923  0.611846  1
  Sc  Sc1  1  0.694077  0.694077  0.388154  1
  Sc  Sc2  1  0.694077  0.305923  0.000000  1
  Sc  Sc3  1  0.305923  0.694077  0.000000  1
  Sc  Sc4  1  0.188950  0.430569  0.241619  1
  Sc  Sc5  1  0.811050  0.569431  0.758381  1
  Sc  Sc6  1  0.188950  0.947330  0.758381  1
  Sc  Sc7  1  0.947330  0.188950  0.758381  1
  Sc  Sc8  1  0.811050  0.052670  0.241619  1
  Sc  Sc9  1  0.052670  0.811050  0.241619  1
  Sc  Sc10  1  0.430569  0.188950  0.241619  1
  Sc  Sc11  1  0.569431  0.811050  0.758381  1
  Ga  Ga12  1  0.000000  0.500000  0.500000  1
  Ga  Ga13  1  0.500000  0.000000  0.500000  1
  Fe  Fe14  1  0.376843  0.376843  0.000000  1
  Fe  Fe15  1  0.623157  0.623157  0.000000  1
  Fe  Fe16  1  0.000000  0.000000  0.000000  1
