# generated using pymatgen
data_TbYb6TmBi6
_symmetry_space_group_name_H-M   'P 1'
_cell_length_a   8.14566952
_cell_length_b   8.33950204
_cell_length_c   8.33950110
_cell_angle_alpha   109.93726166
_cell_angle_beta   109.00106011
_cell_angle_gamma   109.00106277
_symmetry_Int_Tables_number   1
_chemical_formula_structural   TbYb6TmBi6
_chemical_formula_sum   'Tb1 Yb6 Tm1 Bi6'
_cell_volume   438.60359661
_cell_formula_units_Z   1
loop_
 _symmetry_equiv_pos_site_id
 _symmetry_equiv_pos_as_xyz
  1  'x, y, z'
loop_
 _atom_site_type_symbol
 _atom_site_label
 _atom_site_symmetry_multiplicity
 _atom_site_fract_x
 _atom_site_fract_y
 _atom_site_fract_z
 _atom_site_occupancy
  Tb  Tb0  1  0.141891  0.500000  0.000000  1
  Yb  Yb1  1  0.500955  0.999168  0.646392  1
  Yb  Yb2  1  0.354727  0.352721  0.353912  1
  Yb  Yb3  1  0.502006  0.001191  0.147279  1
  Yb  Yb4  1  0.001787  0.647224  0.500832  1
  Yb  Yb5  1  0.854563  0.853608  0.852776  1
  Yb  Yb6  1  0.000815  0.146088  0.498809  1
  Tm  Tm7  1  0.641790  0.500000  0.000000  1
  Bi  Bi8  1  0.377819  0.622363  0.757055  1
  Bi  Bi9  1  0.875525  0.256274  0.122876  1
  Bi  Bi10  1  0.620764  0.742945  0.365308  1
  Bi  Bi11  1  0.119251  0.866602  0.243726  1
  Bi  Bi12  1  0.255456  0.134692  0.877637  1
  Bi  Bi13  1  0.752649  0.377124  0.633398  1
