# generated using pymatgen
data_Li4Dy3YSn3Bi
_symmetry_space_group_name_H-M   'P 1'
_cell_length_a   9.42261367
_cell_length_b   9.42276576
_cell_length_c   7.27814002
_cell_angle_alpha   89.99994026
_cell_angle_beta   90.11079424
_cell_angle_gamma   120.00065856
_symmetry_Int_Tables_number   1
_chemical_formula_structural   Li4Dy3YSn3Bi
_chemical_formula_sum   'Li8 Dy6 Y2 Sn6 Bi2'
_cell_volume   559.62467357
_cell_formula_units_Z   2
loop_
 _symmetry_equiv_pos_site_id
 _symmetry_equiv_pos_as_xyz
  1  'x, y, z'
loop_
 _atom_site_type_symbol
 _atom_site_label
 _atom_site_symmetry_multiplicity
 _atom_site_fract_x
 _atom_site_fract_y
 _atom_site_fract_z
 _atom_site_occupancy
  Li  Li0  1  0.167880  0.334134  0.282749  1
  Li  Li1  1  0.167879  0.833746  0.282749  1
  Li  Li2  1  0.664787  0.832394  0.286215  1
  Li  Li3  1  0.829021  0.664444  0.787196  1
  Li  Li4  1  0.829021  0.164578  0.787197  1
  Li  Li5  1  0.337871  0.168936  0.791853  1
  Li  Li6  1  0.337872  0.668936  0.669341  1
  Li  Li7  1  0.665457  0.332727  0.173757  1
  Dy  Dy8  1  0.971957  0.485979  0.488992  1
  Dy  Dy9  1  0.493094  0.978362  0.996958  1
  Dy  Dy10  1  0.493094  0.514733  0.996958  1
  Dy  Dy11  1  0.017458  0.508729  0.999598  1
  Dy  Dy12  1  0.994810  0.997405  0.494784  1
  Dy  Dy13  1  0.995381  0.997690  0.004904  1
  Y  Y14  1  0.516841  0.026729  0.491181  1
  Y  Y15  1  0.516842  0.490112  0.491181  1
  Sn  Sn16  1  0.667248  0.833624  0.732862  1
  Sn  Sn17  1  0.834116  0.666953  0.232081  1
  Sn  Sn18  1  0.834116  0.167163  0.232082  1
  Sn  Sn19  1  0.332977  0.166489  0.231212  1
  Sn  Sn20  1  0.332356  0.666178  0.259287  1
  Sn  Sn21  1  0.667909  0.333954  0.761208  1
  Bi  Bi22  1  0.166006  0.333334  0.733826  1
  Bi  Bi23  1  0.166006  0.832672  0.733825  1
