# generated using pymatgen
data_DyMnCo4P3
_symmetry_space_group_name_H-M   'P 1'
_cell_length_a   3.65581500
_cell_length_b   10.32469100
_cell_length_c   11.81432800
_cell_angle_alpha   90.00000000
_cell_angle_beta   90.00000000
_cell_angle_gamma   90.00000000
_symmetry_Int_Tables_number   1
_chemical_formula_structural   DyMnCo4P3
_chemical_formula_sum   'Dy4 Mn4 Co16 P12'
_cell_volume   445.93370335
_cell_formula_units_Z   4
loop_
 _symmetry_equiv_pos_site_id
 _symmetry_equiv_pos_as_xyz
  1  'x, y, z'
loop_
 _atom_site_type_symbol
 _atom_site_label
 _atom_site_symmetry_multiplicity
 _atom_site_fract_x
 _atom_site_fract_y
 _atom_site_fract_z
 _atom_site_occupancy
  Dy  Dy0  1  0.250000  0.582303  0.704159  1
  Dy  Dy1  1  0.250000  0.917697  0.204159  1
  Dy  Dy2  1  0.750000  0.417697  0.295841  1
  Dy  Dy3  1  0.750000  0.082303  0.795841  1
  Mn  Mn4  1  0.250000  0.710218  0.988715  1
  Mn  Mn5  1  0.250000  0.789782  0.488715  1
  Mn  Mn6  1  0.750000  0.289782  0.011285  1
  Mn  Mn7  1  0.750000  0.210218  0.511285  1
  Co  Co8  1  0.250000  0.406606  0.488082  1
  Co  Co9  1  0.250000  0.093394  0.988082  1
  Co  Co10  1  0.750000  0.593394  0.511918  1
  Co  Co11  1  0.750000  0.906606  0.011918  1
  Co  Co12  1  0.250000  0.220721  0.176801  1
  Co  Co13  1  0.250000  0.279279  0.676801  1
  Co  Co14  1  0.750000  0.779279  0.823199  1
  Co  Co15  1  0.750000  0.720721  0.323199  1
  Co  Co16  1  0.250000  0.883614  0.698689  1
  Co  Co17  1  0.250000  0.616386  0.198689  1
  Co  Co18  1  0.750000  0.116386  0.301311  1
  Co  Co19  1  0.750000  0.383614  0.801311  1
  Co  Co20  1  0.250000  0.466156  0.932512  1
  Co  Co21  1  0.250000  0.033844  0.432512  1
  Co  Co22  1  0.750000  0.533844  0.067488  1
  Co  Co23  1  0.750000  0.966156  0.567488  1
  P  P24  1  0.250000  0.418632  0.112448  1
  P  P25  1  0.250000  0.081368  0.612448  1
  P  P26  1  0.750000  0.581368  0.887552  1
  P  P27  1  0.750000  0.918632  0.387552  1
  P  P28  1  0.250000  0.270096  0.868091  1
  P  P29  1  0.250000  0.229904  0.368091  1
  P  P30  1  0.750000  0.729904  0.131909  1
  P  P31  1  0.750000  0.770096  0.631909  1
  P  P32  1  0.250000  0.600218  0.391163  1
  P  P33  1  0.250000  0.899782  0.891163  1
  P  P34  1  0.750000  0.399782  0.608837  1
  P  P35  1  0.750000  0.100218  0.108837  1
