# generated using pymatgen
data_Hf3TcMo2AsP2
_symmetry_space_group_name_H-M   'P 1'
_cell_length_a   6.94443833
_cell_length_b   6.98007505
_cell_length_c   3.42364900
_cell_angle_alpha   90.00000000
_cell_angle_beta   90.00000000
_cell_angle_gamma   119.90213802
_symmetry_Int_Tables_number   1
_chemical_formula_structural   Hf3TcMo2AsP2
_chemical_formula_sum   'Hf3 Tc1 Mo2 As1 P2'
_cell_volume   143.86147412
_cell_formula_units_Z   1
loop_
 _symmetry_equiv_pos_site_id
 _symmetry_equiv_pos_as_xyz
  1  'x, y, z'
loop_
 _atom_site_type_symbol
 _atom_site_label
 _atom_site_symmetry_multiplicity
 _atom_site_fract_x
 _atom_site_fract_y
 _atom_site_fract_z
 _atom_site_occupancy
  Hf  Hf0  1  0.008754  0.603419  0.500000  1
  Hf  Hf1  1  0.395492  0.408184  0.500000  1
  Hf  Hf2  1  0.594413  0.989576  0.500000  1
  Tc  Tc3  1  0.248429  0.994765  0.000000  1
  Mo  Mo4  1  0.748505  0.752052  0.000000  1
  Mo  Mo5  1  0.005819  0.252664  0.000000  1
  As  As6  1  0.665242  0.332167  0.000000  1
  P  P7  1  0.332900  0.667015  0.000000  1
  P  P8  1  0.000446  0.000159  0.500000  1
