# generated using pymatgen
data_Ho3Er(Tc3Os)2
_symmetry_space_group_name_H-M   'P 1'
_cell_length_a   5.28534400
_cell_length_b   5.28534299
_cell_length_c   9.06402100
_cell_angle_alpha   90.00000000
_cell_angle_beta   90.00000000
_cell_angle_gamma   120.00000635
_symmetry_Int_Tables_number   1
_chemical_formula_structural   Ho3Er(Tc3Os)2
_chemical_formula_sum   'Ho3 Er1 Tc6 Os2'
_cell_volume   219.27945411
_cell_formula_units_Z   1
loop_
 _symmetry_equiv_pos_site_id
 _symmetry_equiv_pos_as_xyz
  1  'x, y, z'
loop_
 _atom_site_type_symbol
 _atom_site_label
 _atom_site_symmetry_multiplicity
 _atom_site_fract_x
 _atom_site_fract_y
 _atom_site_fract_z
 _atom_site_occupancy
  Ho  Ho0  1  0.666667  0.333333  0.562976  1
  Ho  Ho1  1  0.666667  0.333333  0.936950  1
  Ho  Ho2  1  0.333333  0.666667  0.063236  1
  Er  Er3  1  0.333333  0.666667  0.436705  1
  Tc  Tc4  1  0.829512  0.170488  0.250225  1
  Tc  Tc5  1  0.829512  0.659025  0.250225  1
  Tc  Tc6  1  0.340975  0.170488  0.250225  1
  Tc  Tc7  1  0.170537  0.829463  0.749823  1
  Tc  Tc8  1  0.170537  0.341074  0.749823  1
  Tc  Tc9  1  0.658926  0.829463  0.749823  1
  Os  Os10  1  0.000000  0.000000  0.499973  1
  Os  Os11  1  0.000000  0.000000  0.000018  1
