# generated using pymatgen
data_Th3GaGe2Ir3
_symmetry_space_group_name_H-M   'P 1'
_cell_length_a   7.31599019
_cell_length_b   7.34646634
_cell_length_c   4.02660600
_cell_angle_alpha   90.00000000
_cell_angle_beta   90.00000000
_cell_angle_gamma   120.13790611
_symmetry_Int_Tables_number   1
_chemical_formula_structural   Th3GaGe2Ir3
_chemical_formula_sum   'Th3 Ga1 Ge2 Ir3'
_cell_volume   187.16135754
_cell_formula_units_Z   1
loop_
 _symmetry_equiv_pos_site_id
 _symmetry_equiv_pos_as_xyz
  1  'x, y, z'
loop_
 _atom_site_type_symbol
 _atom_site_label
 _atom_site_symmetry_multiplicity
 _atom_site_fract_x
 _atom_site_fract_y
 _atom_site_fract_z
 _atom_site_occupancy
  Th  Th0  1  0.412707  0.414057  0.500000  1
  Th  Th1  1  0.587293  0.001350  0.500000  1
  Th  Th2  1  0.000000  0.584961  0.500000  1
  Ga  Ga3  1  0.000000  0.242930  0.000000  1
  Ge  Ge4  1  0.756541  0.760443  0.000000  1
  Ge  Ge5  1  0.243459  0.003903  0.000000  1
  Ir  Ir6  1  0.665423  0.331333  0.000000  1
  Ir  Ir7  1  0.334577  0.665911  0.000000  1
  Ir  Ir8  1  0.000000  0.995112  0.500000  1
