# generated using pymatgen
data_LiCeCdPt3
_symmetry_space_group_name_H-M   'P 1'
_cell_length_a   5.47490181
_cell_length_b   5.47490170
_cell_length_c   5.21115584
_cell_angle_alpha   58.31115033
_cell_angle_beta   58.31115213
_cell_angle_gamma   60.00000230
_symmetry_Int_Tables_number   1
_chemical_formula_structural   LiCeCdPt3
_chemical_formula_sum   'Li1 Ce1 Cd1 Pt3'
_cell_volume   107.54752764
_cell_formula_units_Z   1
loop_
 _symmetry_equiv_pos_site_id
 _symmetry_equiv_pos_as_xyz
  1  'x, y, z'
loop_
 _atom_site_type_symbol
 _atom_site_label
 _atom_site_symmetry_multiplicity
 _atom_site_fract_x
 _atom_site_fract_y
 _atom_site_fract_z
 _atom_site_occupancy
  Li  Li0  1  0.626608  0.626608  0.120175  1
  Ce  Ce1  1  0.247819  0.247819  0.256543  1
  Cd  Cd2  1  0.997973  0.997973  0.006082  1
  Pt  Pt3  1  0.626645  0.124309  0.622400  1
  Pt  Pt4  1  0.626645  0.626645  0.622400  1
  Pt  Pt5  1  0.124309  0.626645  0.622400  1
