# generated using pymatgen
data_YbMg(ZnNi)2
_symmetry_space_group_name_H-M   'P 1'
_cell_length_a   5.06547672
_cell_length_b   5.06547676
_cell_length_c   5.06547724
_cell_angle_alpha   118.97950457
_cell_angle_beta   118.23941075
_cell_angle_gamma   92.42699969
_symmetry_Int_Tables_number   1
_chemical_formula_structural   YbMg(ZnNi)2
_chemical_formula_sum   'Yb1 Mg1 Zn2 Ni2'
_cell_volume   93.74251583
_cell_formula_units_Z   1
loop_
 _symmetry_equiv_pos_site_id
 _symmetry_equiv_pos_as_xyz
  1  'x, y, z'
loop_
 _atom_site_type_symbol
 _atom_site_label
 _atom_site_symmetry_multiplicity
 _atom_site_fract_x
 _atom_site_fract_y
 _atom_site_fract_z
 _atom_site_occupancy
  Yb  Yb0  1  0.009103  0.009103  0.000000  1
  Mg  Mg1  1  0.245379  0.745379  0.500000  1
  Zn  Zn2  1  0.622898  0.871604  0.248707  1
  Zn  Zn3  1  0.622898  0.374192  0.751293  1
  Ni  Ni4  1  0.124728  0.374862  0.749867  1
  Ni  Ni5  1  0.624994  0.374862  0.250133  1
