# generated using pymatgen
data_TaBe6Al5Rh12
_symmetry_space_group_name_H-M   'P 1'
_cell_length_a   4.14231300
_cell_length_b   5.86152200
_cell_length_c   12.39874400
_cell_angle_alpha   90.00000000
_cell_angle_beta   89.99996768
_cell_angle_gamma   90.00000000
_symmetry_Int_Tables_number   1
_chemical_formula_structural   TaBe6Al5Rh12
_chemical_formula_sum   'Ta1 Be6 Al5 Rh12'
_cell_volume   301.04471287
_cell_formula_units_Z   1
loop_
 _symmetry_equiv_pos_site_id
 _symmetry_equiv_pos_as_xyz
  1  'x, y, z'
loop_
 _atom_site_type_symbol
 _atom_site_label
 _atom_site_symmetry_multiplicity
 _atom_site_fract_x
 _atom_site_fract_y
 _atom_site_fract_z
 _atom_site_occupancy
  Ta  Ta0  1  0.000000  0.000000  0.000000  1
  Be  Be1  1  0.000000  0.499999  0.000000  1
  Be  Be2  1  0.499790  0.000000  0.169118  1
  Be  Be3  1  0.999757  0.499999  0.339980  1
  Be  Be4  1  0.500000  0.000000  0.500000  1
  Be  Be5  1  0.000243  0.499999  0.660020  1
  Be  Be6  1  0.500210  0.000000  0.830882  1
  Al  Al7  1  0.499802  0.499999  0.171088  1
  Al  Al8  1  0.999802  0.000000  0.335201  1
  Al  Al9  1  0.500000  0.499999  0.500000  1
  Al  Al10  1  0.000199  0.000000  0.664799  1
  Al  Al11  1  0.500198  0.499999  0.828912  1
  Rh  Rh12  1  0.500000  0.260240  0.000000  1
  Rh  Rh13  1  0.500000  0.739759  0.000000  1
  Rh  Rh14  1  0.999830  0.253833  0.169600  1
  Rh  Rh15  1  0.999830  0.746167  0.169600  1
  Rh  Rh16  1  0.499831  0.249222  0.334378  1
  Rh  Rh17  1  0.499831  0.750778  0.334378  1
  Rh  Rh18  1  0.000000  0.250150  0.500000  1
  Rh  Rh19  1  0.000000  0.749851  0.500000  1
  Rh  Rh20  1  0.500169  0.249222  0.665622  1
  Rh  Rh21  1  0.500169  0.750778  0.665622  1
  Rh  Rh22  1  0.000168  0.253833  0.830401  1
  Rh  Rh23  1  0.000168  0.746167  0.830401  1
