# generated using pymatgen
data_Er8Ti8Nb3Si16Ag
_symmetry_space_group_name_H-M   'P 1'
_cell_length_a   7.04486325
_cell_length_b   7.04486458
_cell_length_c   12.87610844
_cell_angle_alpha   90.15229152
_cell_angle_beta   89.84770633
_cell_angle_gamma   89.60880886
_symmetry_Int_Tables_number   1
_chemical_formula_structural   Er8Ti8Nb3Si16Ag
_chemical_formula_sum   'Er8 Ti8 Nb3 Si16 Ag1'
_cell_volume   639.02320668
_cell_formula_units_Z   1
loop_
 _symmetry_equiv_pos_site_id
 _symmetry_equiv_pos_as_xyz
  1  'x, y, z'
loop_
 _atom_site_type_symbol
 _atom_site_label
 _atom_site_symmetry_multiplicity
 _atom_site_fract_x
 _atom_site_fract_y
 _atom_site_fract_z
 _atom_site_occupancy
  Er  Er0  1  0.342142  0.999650  0.467079  1
  Er  Er1  1  0.498644  0.841509  0.716955  1
  Er  Er2  1  0.500906  0.157348  0.215435  1
  Er  Er3  1  0.841509  0.498644  0.283045  1
  Er  Er4  1  0.157348  0.500906  0.784565  1
  Er  Er5  1  0.657112  0.002201  0.968226  1
  Er  Er6  1  0.999650  0.342142  0.532921  1
  Er  Er7  1  0.002201  0.657112  0.031774  1
  Ti  Ti8  1  0.147083  0.007895  0.875084  1
  Ti  Ti9  1  0.494295  0.651955  0.123810  1
  Ti  Ti10  1  0.508530  0.350570  0.624762  1
  Ti  Ti11  1  0.651955  0.494295  0.876190  1
  Ti  Ti12  1  0.350570  0.508530  0.375238  1
  Ti  Ti13  1  0.848622  0.990872  0.373309  1
  Ti  Ti14  1  0.007895  0.147083  0.124916  1
  Ti  Ti15  1  0.990872  0.848622  0.626691  1
  Nb  Nb16  1  0.173767  0.826067  0.249650  1
  Nb  Nb17  1  0.826067  0.173767  0.750350  1
  Nb  Nb18  1  0.672353  0.672353  0.500000  1
  Si  Si19  1  0.203425  0.132637  0.682674  1
  Si  Si20  1  0.373631  0.718823  0.928478  1
  Si  Si21  1  0.630905  0.293442  0.432270  1
  Si  Si22  1  0.718823  0.373631  0.071522  1
  Si  Si23  1  0.293442  0.630905  0.567730  1
  Si  Si24  1  0.796293  0.866557  0.181663  1
  Si  Si25  1  0.132637  0.203425  0.317326  1
  Si  Si26  1  0.866557  0.796293  0.818337  1
  Si  Si27  1  0.288565  0.940877  0.063527  1
  Si  Si28  1  0.547380  0.792212  0.313163  1
  Si  Si29  1  0.452645  0.207583  0.809280  1
  Si  Si30  1  0.792212  0.547380  0.686837  1
  Si  Si31  1  0.207583  0.452645  0.190720  1
  Si  Si32  1  0.708175  0.047405  0.563009  1
  Si  Si33  1  0.940877  0.288565  0.936473  1
  Si  Si34  1  0.047405  0.708175  0.436991  1
  Ag  Ag35  1  0.327926  0.327926  0.000000  1
