# generated using pymatgen
data_Ho4HfSc3Pt4
_symmetry_space_group_name_H-M   'P 1'
_cell_length_a   4.63786400
_cell_length_b   6.95980113
_cell_length_c   8.35882102
_cell_angle_alpha   89.36533372
_cell_angle_beta   90.00000000
_cell_angle_gamma   90.00000000
_symmetry_Int_Tables_number   1
_chemical_formula_structural   Ho4HfSc3Pt4
_chemical_formula_sum   'Ho4 Hf1 Sc3 Pt4'
_cell_volume   269.79458031
_cell_formula_units_Z   1
loop_
 _symmetry_equiv_pos_site_id
 _symmetry_equiv_pos_as_xyz
  1  'x, y, z'
loop_
 _atom_site_type_symbol
 _atom_site_label
 _atom_site_symmetry_multiplicity
 _atom_site_fract_x
 _atom_site_fract_y
 _atom_site_fract_z
 _atom_site_occupancy
  Ho  Ho0  1  0.250000  0.982557  0.323632  1
  Ho  Ho1  1  0.250000  0.483335  0.178582  1
  Ho  Ho2  1  0.750000  0.017061  0.673708  1
  Ho  Ho3  1  0.750000  0.519282  0.823334  1
  Hf  Hf4  1  0.750000  0.141061  0.072597  1
  Sc  Sc5  1  0.250000  0.355804  0.574931  1
  Sc  Sc6  1  0.250000  0.858474  0.924545  1
  Sc  Sc7  1  0.750000  0.639719  0.427717  1
  Pt  Pt8  1  0.250000  0.242734  0.909546  1
  Pt  Pt9  1  0.250000  0.744156  0.599272  1
  Pt  Pt10  1  0.750000  0.761292  0.097732  1
  Pt  Pt11  1  0.750000  0.254527  0.394404  1
