# generated using pymatgen
data_La15Pr5Ir11Os
_symmetry_space_group_name_H-M   'P 1'
_cell_length_a   11.43735772
_cell_length_b   11.45525753
_cell_length_c   6.64042916
_cell_angle_alpha   89.85752488
_cell_angle_beta   89.99394014
_cell_angle_gamma   90.11436449
_symmetry_Int_Tables_number   1
_chemical_formula_structural   La15Pr5Ir11Os
_chemical_formula_sum   'La15 Pr5 Ir11 Os1'
_cell_volume   870.01050960
_cell_formula_units_Z   1
loop_
 _symmetry_equiv_pos_site_id
 _symmetry_equiv_pos_as_xyz
  1  'x, y, z'
loop_
 _atom_site_type_symbol
 _atom_site_label
 _atom_site_symmetry_multiplicity
 _atom_site_fract_x
 _atom_site_fract_y
 _atom_site_fract_z
 _atom_site_occupancy
  La  La0  1  0.292365  0.091160  0.386258  1
  La  La1  1  0.293026  0.910091  0.891541  1
  La  La2  1  0.707235  0.090523  0.892167  1
  La  La3  1  0.707034  0.909615  0.387029  1
  La  La4  1  0.590728  0.792744  0.891477  1
  La  La5  1  0.590762  0.207355  0.386845  1
  La  La6  1  0.408926  0.792841  0.386685  1
  La  La7  1  0.408939  0.207437  0.892384  1
  La  La8  1  0.208258  0.407088  0.612347  1
  La  La9  1  0.207953  0.588691  0.111414  1
  La  La10  1  0.792391  0.409319  0.111249  1
  La  La11  1  0.790615  0.591949  0.612411  1
  La  La12  1  0.909352  0.709056  0.111774  1
  La  La13  1  0.909085  0.290811  0.612491  1
  La  La14  1  0.092124  0.709656  0.612624  1
  Pr  Pr15  1  0.089771  0.290232  0.113813  1
  Pr  Pr16  1  0.999524  0.000069  0.496968  1
  Pr  Pr17  1  0.000800  0.000938  0.997841  1
  Pr  Pr18  1  0.500098  0.499559  0.997954  1
  Pr  Pr19  1  0.500054  0.500039  0.498481  1
  Ir  Ir20  1  0.847380  0.156622  0.248382  1
  Ir  Ir21  1  0.845853  0.845462  0.749589  1
  Ir  Ir22  1  0.154502  0.153702  0.746753  1
  Ir  Ir23  1  0.153070  0.843708  0.248580  1
  Ir  Ir24  1  0.655108  0.345938  0.749313  1
  Ir  Ir25  1  0.656341  0.653138  0.248302  1
  Ir  Ir26  1  0.344138  0.347201  0.249686  1
  Ir  Ir27  1  0.344685  0.653997  0.749318  1
  Ir  Ir28  1  0.500165  0.999966  0.621740  1
  Ir  Ir29  1  0.000309  0.499853  0.878516  1
  Ir  Ir30  1  0.999554  0.501153  0.382346  1
  Os  Os31  1  0.499857  0.000086  0.123720  1
