# generated using pymatgen
data_Pa3BePt5
_symmetry_space_group_name_H-M   'P 1'
_cell_length_a   8.21015662
_cell_length_b   8.21015708
_cell_length_c   8.21015700
_cell_angle_alpha   129.30363033
_cell_angle_beta   126.50905319
_cell_angle_gamma   76.79830261
_symmetry_Int_Tables_number   1
_chemical_formula_structural   Pa3BePt5
_chemical_formula_sum   'Pa6 Be2 Pt10'
_cell_volume   334.24785671
_cell_formula_units_Z   2
loop_
 _symmetry_equiv_pos_site_id
 _symmetry_equiv_pos_as_xyz
  1  'x, y, z'
loop_
 _atom_site_type_symbol
 _atom_site_label
 _atom_site_symmetry_multiplicity
 _atom_site_fract_x
 _atom_site_fract_y
 _atom_site_fract_z
 _atom_site_occupancy
  Pa  Pa0  1  0.272858  0.555781  0.724516  1
  Pa  Pa1  1  0.727142  0.451658  0.282923  1
  Pa  Pa2  1  0.331264  0.055781  0.282923  1
  Pa  Pa3  1  0.668736  0.951658  0.724516  1
  Pa  Pa4  1  0.107546  0.752857  0.360403  1
  Pa  Pa5  1  0.892454  0.252857  0.645312  1
  Be  Be6  1  0.714659  0.755632  0.970291  1
  Be  Be7  1  0.285341  0.255632  0.040973  1
  Pt  Pt8  1  0.046509  0.904209  0.737738  1
  Pt  Pt9  1  0.953492  0.691229  0.857701  1
  Pt  Pt10  1  0.666472  0.404209  0.857701  1
  Pt  Pt11  1  0.333528  0.191229  0.737738  1
  Pt  Pt12  1  0.954252  0.103370  0.269715  1
  Pt  Pt13  1  0.045748  0.315463  0.149118  1
  Pt  Pt14  1  0.333656  0.603370  0.149118  1
  Pt  Pt15  1  0.666344  0.815463  0.269715  1
  Pt  Pt16  1  0.500107  0.504999  0.505106  1
  Pt  Pt17  1  0.499893  0.004999  0.004893  1
