# generated using pymatgen
data_TbDy7Tm8(Ga3Co)2
_symmetry_space_group_name_H-M   'P 1'
_cell_length_a   9.92220800
_cell_length_b   9.92220647
_cell_length_c   6.95682600
_cell_angle_alpha   90.00000000
_cell_angle_beta   90.00000000
_cell_angle_gamma   119.99999843
_symmetry_Int_Tables_number   1
_chemical_formula_structural   TbDy7Tm8(Ga3Co)2
_chemical_formula_sum   'Tb1 Dy7 Tm8 Ga6 Co2'
_cell_volume   593.14157580
_cell_formula_units_Z   1
loop_
 _symmetry_equiv_pos_site_id
 _symmetry_equiv_pos_as_xyz
  1  'x, y, z'
loop_
 _atom_site_type_symbol
 _atom_site_label
 _atom_site_symmetry_multiplicity
 _atom_site_fract_x
 _atom_site_fract_y
 _atom_site_fract_z
 _atom_site_occupancy
  Tb  Tb0  1  0.000000  0.000000  0.269071  1
  Dy  Dy1  1  0.536373  0.072745  0.791733  1
  Dy  Dy2  1  0.927255  0.463627  0.791733  1
  Dy  Dy3  1  0.536373  0.463627  0.791733  1
  Dy  Dy4  1  0.463611  0.927223  0.291686  1
  Dy  Dy5  1  0.072777  0.536389  0.291686  1
  Dy  Dy6  1  0.463611  0.536389  0.291686  1
  Dy  Dy7  1  0.000000  0.000000  0.768798  1
  Tm  Tm8  1  0.826508  0.653017  0.487585  1
  Tm  Tm9  1  0.346983  0.173492  0.487585  1
  Tm  Tm10  1  0.826508  0.173492  0.487585  1
  Tm  Tm11  1  0.173528  0.347056  0.987328  1
  Tm  Tm12  1  0.652944  0.826472  0.987328  1
  Tm  Tm13  1  0.173528  0.826472  0.987328  1
  Tm  Tm14  1  0.666667  0.333333  0.174136  1
  Tm  Tm15  1  0.333333  0.666667  0.674420  1
  Ga  Ga16  1  0.836241  0.672482  0.042910  1
  Ga  Ga17  1  0.327518  0.163759  0.042910  1
  Ga  Ga18  1  0.836241  0.163759  0.042910  1
  Ga  Ga19  1  0.163742  0.327485  0.543199  1
  Ga  Ga20  1  0.672515  0.836258  0.543199  1
  Ga  Ga21  1  0.163742  0.836258  0.543199  1
  Co  Co22  1  0.666667  0.333333  0.553088  1
  Co  Co23  1  0.333333  0.666667  0.053243  1
