# generated using pymatgen
data_Yb2H3Br
_symmetry_space_group_name_H-M   'P 1'
_cell_length_a   3.85626900
_cell_length_b   3.85626969
_cell_length_c   6.78729200
_cell_angle_alpha   90.00000000
_cell_angle_beta   90.00000000
_cell_angle_gamma   119.99998553
_symmetry_Int_Tables_number   1
_chemical_formula_structural   Yb2H3Br
_chemical_formula_sum   'Yb2 H3 Br1'
_cell_volume   87.41016668
_cell_formula_units_Z   1
loop_
 _symmetry_equiv_pos_site_id
 _symmetry_equiv_pos_as_xyz
  1  'x, y, z'
loop_
 _atom_site_type_symbol
 _atom_site_label
 _atom_site_symmetry_multiplicity
 _atom_site_fract_x
 _atom_site_fract_y
 _atom_site_fract_z
 _atom_site_occupancy
  Yb  Yb0  1  0.666667  0.333333  0.185704  1
  Yb  Yb1  1  0.333333  0.666667  0.814296  1
  H  H2  1  0.666667  0.333333  0.853829  1
  H  H3  1  0.333333  0.666667  0.146171  1
  H  H4  1  0.000000  0.000000  0.000000  1
  Br  Br5  1  0.000000  0.000000  0.500000  1
