# generated using pymatgen
data_Ta6Zn5CuRh12
_symmetry_space_group_name_H-M   'P 1'
_cell_length_a   4.17422900
_cell_length_b   6.82804600
_cell_length_c   12.54887300
_cell_angle_alpha   90.00000000
_cell_angle_beta   89.99968011
_cell_angle_gamma   90.00000000
_symmetry_Int_Tables_number   1
_chemical_formula_structural   Ta6Zn5CuRh12
_chemical_formula_sum   'Ta6 Zn5 Cu1 Rh12'
_cell_volume   357.66581515
_cell_formula_units_Z   1
loop_
 _symmetry_equiv_pos_site_id
 _symmetry_equiv_pos_as_xyz
  1  'x, y, z'
loop_
 _atom_site_type_symbol
 _atom_site_label
 _atom_site_symmetry_multiplicity
 _atom_site_fract_x
 _atom_site_fract_y
 _atom_site_fract_z
 _atom_site_occupancy
  Ta  Ta0  1  0.000000  0.499999  0.993482  1
  Ta  Ta1  1  0.499995  0.000000  0.166266  1
  Ta  Ta2  1  0.999984  0.499999  0.333293  1
  Ta  Ta3  1  0.500017  0.000000  0.500364  1
  Ta  Ta4  1  0.000009  0.499999  0.673224  1
  Ta  Ta5  1  0.500006  0.000000  0.833367  1
  Zn  Zn6  1  0.000002  0.000000  0.001262  1
  Zn  Zn7  1  0.499991  0.499999  0.164973  1
  Zn  Zn8  1  0.999985  0.000000  0.333320  1
  Zn  Zn9  1  0.500011  0.499999  0.501664  1
  Zn  Zn10  1  0.000020  0.000000  0.665434  1
  Cu  Cu11  1  0.499964  0.499999  0.833380  1
  Rh  Rh12  1  0.500006  0.248441  0.000074  1
  Rh  Rh13  1  0.500006  0.751559  0.000074  1
  Rh  Rh14  1  0.999988  0.252021  0.166193  1
  Rh  Rh15  1  0.999988  0.747979  0.166193  1
  Rh  Rh16  1  0.499991  0.250984  0.333303  1
  Rh  Rh17  1  0.499991  0.749016  0.333303  1
  Rh  Rh18  1  0.000006  0.252056  0.500434  1
  Rh  Rh19  1  0.000006  0.747944  0.500434  1
  Rh  Rh20  1  0.500016  0.248430  0.666630  1
  Rh  Rh21  1  0.500016  0.751570  0.666630  1
  Rh  Rh22  1  0.999997  0.245267  0.833352  1
  Rh  Rh23  1  0.999997  0.754733  0.833352  1
