# generated using pymatgen
data_Eu2Sc2Co20GeP11
_symmetry_space_group_name_H-M   'P 1'
_cell_length_a   3.63754200
_cell_length_b   10.30120010
_cell_length_c   11.73639712
_cell_angle_alpha   90.01630548
_cell_angle_beta   90.00000000
_cell_angle_gamma   90.00000000
_symmetry_Int_Tables_number   1
_chemical_formula_structural   Eu2Sc2Co20GeP11
_chemical_formula_sum   'Eu2 Sc2 Co20 Ge1 P11'
_cell_volume   439.77508233
_cell_formula_units_Z   1
loop_
 _symmetry_equiv_pos_site_id
 _symmetry_equiv_pos_as_xyz
  1  'x, y, z'
loop_
 _atom_site_type_symbol
 _atom_site_label
 _atom_site_symmetry_multiplicity
 _atom_site_fract_x
 _atom_site_fract_y
 _atom_site_fract_z
 _atom_site_occupancy
  Eu  Eu0  1  0.250000  0.583571  0.700309  1
  Eu  Eu1  1  0.250000  0.915705  0.204001  1
  Sc  Sc2  1  0.750000  0.416081  0.299569  1
  Sc  Sc3  1  0.750000  0.083562  0.797690  1
  Co  Co4  1  0.250000  0.721657  0.991878  1
  Co  Co5  1  0.250000  0.783386  0.488262  1
  Co  Co6  1  0.750000  0.280498  0.006704  1
  Co  Co7  1  0.750000  0.217567  0.506259  1
  Co  Co8  1  0.250000  0.405736  0.481650  1
  Co  Co9  1  0.250000  0.093974  0.982224  1
  Co  Co10  1  0.750000  0.590847  0.506173  1
  Co  Co11  1  0.750000  0.910853  0.007130  1
  Co  Co12  1  0.250000  0.220079  0.176205  1
  Co  Co13  1  0.250000  0.277709  0.673633  1
  Co  Co14  1  0.750000  0.794844  0.820187  1
  Co  Co15  1  0.750000  0.718938  0.324282  1
  Co  Co16  1  0.250000  0.888979  0.697917  1
  Co  Co17  1  0.250000  0.614760  0.201677  1
  Co  Co18  1  0.750000  0.122412  0.302845  1
  Co  Co19  1  0.750000  0.370709  0.801153  1
  Co  Co20  1  0.250000  0.453469  0.940852  1
  Co  Co21  1  0.250000  0.037045  0.435325  1
  Co  Co22  1  0.750000  0.522754  0.081008  1
  Co  Co23  1  0.750000  0.972541  0.571436  1
  Ge  Ge24  1  0.750000  0.585687  0.892825  1
  P  P25  1  0.250000  0.416322  0.120844  1
  P  P26  1  0.250000  0.082753  0.616160  1
  P  P27  1  0.750000  0.919933  0.391309  1
  P  P28  1  0.250000  0.264915  0.865697  1
  P  P29  1  0.250000  0.232605  0.367338  1
  P  P30  1  0.750000  0.725858  0.126513  1
  P  P31  1  0.750000  0.773888  0.626587  1
  P  P32  1  0.250000  0.598923  0.389508  1
  P  P33  1  0.250000  0.902842  0.888776  1
  P  P34  1  0.750000  0.395860  0.607672  1
  P  P35  1  0.750000  0.102739  0.108408  1
