# generated using pymatgen
data_Tm3AlGa4Rh
_symmetry_space_group_name_H-M   'P 1'
_cell_length_a   6.83127200
_cell_length_b   6.89208332
_cell_length_c   4.27212600
_cell_angle_alpha   90.00000000
_cell_angle_beta   90.00000000
_cell_angle_gamma   119.70855235
_symmetry_Int_Tables_number   1
_chemical_formula_structural   Tm3AlGa4Rh
_chemical_formula_sum   'Tm3 Al1 Ga4 Rh1'
_cell_volume   174.70074205
_cell_formula_units_Z   1
loop_
 _symmetry_equiv_pos_site_id
 _symmetry_equiv_pos_as_xyz
  1  'x, y, z'
loop_
 _atom_site_type_symbol
 _atom_site_label
 _atom_site_symmetry_multiplicity
 _atom_site_fract_x
 _atom_site_fract_y
 _atom_site_fract_z
 _atom_site_occupancy
  Tm  Tm0  1  0.589829  0.000000  0.000000  1
  Tm  Tm1  1  0.998962  0.586549  0.000000  1
  Tm  Tm2  1  0.412412  0.413451  0.000000  1
  Al  Al3  1  0.229405  0.000000  0.500000  1
  Ga  Ga4  1  0.003528  0.240762  0.500000  1
  Ga  Ga5  1  0.762765  0.759238  0.500000  1
  Ga  Ga6  1  0.334177  0.670627  0.500000  1
  Ga  Ga7  1  0.663551  0.329373  0.500000  1
  Rh  Rh8  1  0.005369  0.000000  0.000000  1
