# generated using pymatgen
data_Y5Tm15Si15Pt
_symmetry_space_group_name_H-M   'P 1'
_cell_length_a   7.31493748
_cell_length_b   7.66129914
_cell_length_c   14.43575352
_cell_angle_alpha   89.94266951
_cell_angle_beta   90.05565733
_cell_angle_gamma   90.02185618
_symmetry_Int_Tables_number   1
_chemical_formula_structural   Y5Tm15Si15Pt
_chemical_formula_sum   'Y5 Tm15 Si15 Pt1'
_cell_volume   809.00656035
_cell_formula_units_Z   1
loop_
 _symmetry_equiv_pos_site_id
 _symmetry_equiv_pos_as_xyz
  1  'x, y, z'
loop_
 _atom_site_type_symbol
 _atom_site_label
 _atom_site_symmetry_multiplicity
 _atom_site_fract_x
 _atom_site_fract_y
 _atom_site_fract_z
 _atom_site_occupancy
  Y  Y0  1  0.974892  0.181015  0.402708  1
  Y  Y1  1  0.476076  0.318114  0.403514  1
  Y  Y2  1  0.975194  0.180870  0.096696  1
  Y  Y3  1  0.522643  0.680856  0.906926  1
  Y  Y4  1  0.024252  0.819660  0.594630  1
  Tm  Tm5  1  0.678112  0.179537  0.624170  1
  Tm  Tm6  1  0.187833  0.324731  0.875893  1
  Tm  Tm7  1  0.318527  0.820370  0.123914  1
  Tm  Tm8  1  0.817279  0.676109  0.375269  1
  Tm  Tm9  1  0.319350  0.819806  0.376067  1
  Tm  Tm10  1  0.817709  0.676981  0.123675  1
  Tm  Tm11  1  0.677524  0.180093  0.876568  1
  Tm  Tm12  1  0.187823  0.325016  0.623951  1
  Tm  Tm13  1  0.523265  0.680260  0.595316  1
  Tm  Tm14  1  0.026623  0.817716  0.903886  1
  Tm  Tm15  1  0.473641  0.316422  0.097958  1
  Tm  Tm16  1  0.844007  0.509436  0.750021  1
  Tm  Tm17  1  0.354669  0.985922  0.749968  1
  Tm  Tm18  1  0.148907  0.487521  0.249776  1
  Tm  Tm19  1  0.649207  0.011243  0.249802  1
  Si  Si20  1  0.649673  0.968045  0.460231  1
  Si  Si21  1  0.149884  0.529866  0.039908  1
  Si  Si22  1  0.347467  0.028358  0.961135  1
  Si  Si23  1  0.849741  0.471572  0.539853  1
  Si  Si24  1  0.350349  0.026197  0.539822  1
  Si  Si25  1  0.853243  0.471977  0.959541  1
  Si  Si26  1  0.647159  0.971418  0.041063  1
  Si  Si27  1  0.147244  0.529584  0.459614  1
  Si  Si28  1  0.980335  0.104561  0.750620  1
  Si  Si29  1  0.519944  0.605718  0.249427  1
  Si  Si30  1  0.020502  0.891471  0.249643  1
  Si  Si31  1  0.738539  0.875312  0.750431  1
  Si  Si32  1  0.226552  0.632770  0.750406  1
  Si  Si33  1  0.270643  0.128648  0.249438  1
  Si  Si34  1  0.769256  0.370607  0.249066  1
  Pt  Pt35  1  0.481934  0.402221  0.749097  1
