# generated using pymatgen
data_Dy4Ho12Cd4CoRu3
_symmetry_space_group_name_H-M   'P 1'
_cell_length_a   9.61686774
_cell_length_b   9.60882070
_cell_length_c   9.53982786
_cell_angle_alpha   59.51331225
_cell_angle_beta   59.51044143
_cell_angle_gamma   59.73360366
_symmetry_Int_Tables_number   1
_chemical_formula_structural   Dy4Ho12Cd4CoRu3
_chemical_formula_sum   'Dy4 Ho12 Cd4 Co1 Ru3'
_cell_volume   617.47081616
_cell_formula_units_Z   1
loop_
 _symmetry_equiv_pos_site_id
 _symmetry_equiv_pos_as_xyz
  1  'x, y, z'
loop_
 _atom_site_type_symbol
 _atom_site_label
 _atom_site_symmetry_multiplicity
 _atom_site_fract_x
 _atom_site_fract_y
 _atom_site_fract_z
 _atom_site_occupancy
  Dy  Dy0  1  0.937761  0.938440  0.560208  1
  Dy  Dy1  1  0.810966  0.189777  0.187213  1
  Dy  Dy2  1  0.937350  0.565380  0.560133  1
  Dy  Dy3  1  0.939967  0.560490  0.940097  1
  Ho  Ho4  1  0.810866  0.811120  0.185656  1
  Ho  Ho5  1  0.344957  0.344874  0.351490  1
  Ho  Ho6  1  0.559967  0.940104  0.939966  1
  Ho  Ho7  1  0.565081  0.937555  0.560386  1
  Ho  Ho8  1  0.188645  0.815180  0.807281  1
  Ho  Ho9  1  0.188679  0.187557  0.807403  1
  Ho  Ho10  1  0.346353  0.345625  0.960895  1
  Ho  Ho11  1  0.344215  0.960823  0.351469  1
  Ho  Ho12  1  0.814674  0.188498  0.807152  1
  Ho  Ho13  1  0.560669  0.561543  0.938996  1
  Ho  Ho14  1  0.190137  0.810754  0.187279  1
  Ho  Ho15  1  0.961858  0.343332  0.351381  1
  Cd  Cd16  1  0.579892  0.580742  0.258051  1
  Cd  Cd17  1  0.258592  0.580303  0.579518  1
  Cd  Cd18  1  0.580235  0.580791  0.579419  1
  Cd  Cd19  1  0.580058  0.258271  0.579912  1
  Co  Co20  1  0.140671  0.140555  0.580066  1
  Ru  Ru21  1  0.579483  0.139816  0.142754  1
  Ru  Ru22  1  0.138972  0.138676  0.140763  1
  Ru  Ru23  1  0.139953  0.579794  0.142512  1
