# generated using pymatgen
data_Er6Al24Os5PtRh2
_symmetry_space_group_name_H-M   'P 1'
_cell_length_a   8.79851322
_cell_length_b   8.80708619
_cell_length_c   9.51831186
_cell_angle_alpha   90.05525570
_cell_angle_beta   89.67996261
_cell_angle_gamma   119.57009328
_symmetry_Int_Tables_number   1
_chemical_formula_structural   Er6Al24Os5PtRh2
_chemical_formula_sum   'Er6 Al24 Os5 Pt1 Rh2'
_cell_volume   641.48945703
_cell_formula_units_Z   1
loop_
 _symmetry_equiv_pos_site_id
 _symmetry_equiv_pos_as_xyz
  1  'x, y, z'
loop_
 _atom_site_type_symbol
 _atom_site_label
 _atom_site_symmetry_multiplicity
 _atom_site_fract_x
 _atom_site_fract_y
 _atom_site_fract_z
 _atom_site_occupancy
  Er  Er0  1  0.189280  0.387165  0.252311  1
  Er  Er1  1  0.810720  0.612835  0.747689  1
  Er  Er2  1  0.611419  0.813404  0.251628  1
  Er  Er3  1  0.388581  0.186596  0.748372  1
  Er  Er4  1  0.197337  0.807899  0.252041  1
  Er  Er5  1  0.802663  0.192101  0.747959  1
  Al  Al6  1  0.333680  0.667768  0.025583  1
  Al  Al7  1  0.666320  0.332232  0.974417  1
  Al  Al8  1  0.668798  0.331483  0.522797  1
  Al  Al9  1  0.331202  0.668517  0.477203  1
  Al  Al10  1  0.158629  0.324308  0.578282  1
  Al  Al11  1  0.841371  0.675692  0.421718  1
  Al  Al12  1  0.674905  0.840265  0.577108  1
  Al  Al13  1  0.836331  0.675421  0.077953  1
  Al  Al14  1  0.325095  0.159735  0.422892  1
  Al  Al15  1  0.163669  0.324579  0.922047  1
  Al  Al16  1  0.163886  0.835565  0.575864  1
  Al  Al17  1  0.325653  0.162022  0.076555  1
  Al  Al18  1  0.836114  0.164435  0.424136  1
  Al  Al19  1  0.674347  0.837978  0.923445  1
  Al  Al20  1  0.834155  0.162266  0.075779  1
  Al  Al21  1  0.165845  0.837734  0.924221  1
  Al  Al22  1  0.561323  0.125481  0.249715  1
  Al  Al23  1  0.438677  0.874519  0.750285  1
  Al  Al24  1  0.876619  0.440137  0.250337  1
  Al  Al25  1  0.123381  0.559863  0.749663  1
  Al  Al26  1  0.561001  0.439939  0.247144  1
  Al  Al27  1  0.438999  0.560061  0.752856  1
  Al  Al28  1  0.999044  0.001895  0.250046  1
  Al  Al29  1  0.000956  0.998105  0.749954  1
  Os  Os30  1  0.500000  0.000000  0.000000  1
  Os  Os31  1  0.500000  0.000000  0.500000  1
  Os  Os32  1  0.000000  0.500000  0.500000  1
  Os  Os33  1  0.000000  0.000000  0.000000  1
  Os  Os34  1  0.000000  0.000000  0.500000  1
  Pt  Pt35  1  0.500000  0.500000  0.500000  1
  Rh  Rh36  1  0.000000  0.500000  0.000000  1
  Rh  Rh37  1  0.500000  0.500000  0.000000  1
