# generated using pymatgen
data_Lu4ScSiPb3
_symmetry_space_group_name_H-M   'P 1'
_cell_length_a   9.09785600
_cell_length_b   9.09785427
_cell_length_c   6.30105600
_cell_angle_alpha   90.00000000
_cell_angle_beta   90.00000000
_cell_angle_gamma   119.99999900
_symmetry_Int_Tables_number   1
_chemical_formula_structural   Lu4ScSiPb3
_chemical_formula_sum   'Lu8 Sc2 Si2 Pb6'
_cell_volume   451.67079517
_cell_formula_units_Z   2
loop_
 _symmetry_equiv_pos_site_id
 _symmetry_equiv_pos_as_xyz
  1  'x, y, z'
loop_
 _atom_site_type_symbol
 _atom_site_label
 _atom_site_symmetry_multiplicity
 _atom_site_fract_x
 _atom_site_fract_y
 _atom_site_fract_z
 _atom_site_occupancy
  Lu  Lu0  1  0.666667  0.333333  0.500000  1
  Lu  Lu1  1  0.333333  0.666667  0.500000  1
  Lu  Lu2  1  0.749437  0.749437  0.249586  1
  Lu  Lu3  1  0.250563  0.000000  0.249586  1
  Lu  Lu4  1  0.000000  0.250563  0.249586  1
  Lu  Lu5  1  0.250563  0.250563  0.750414  1
  Lu  Lu6  1  0.749437  0.000000  0.750414  1
  Lu  Lu7  1  0.000000  0.749437  0.750414  1
  Sc  Sc8  1  0.333333  0.666667  0.000000  1
  Sc  Sc9  1  0.666667  0.333333  0.000000  1
  Si  Si10  1  0.000000  0.000000  0.500000  1
  Si  Si11  1  0.000000  0.000000  0.000000  1
  Pb  Pb12  1  0.393966  0.393966  0.246064  1
  Pb  Pb13  1  0.606034  0.000000  0.246064  1
  Pb  Pb14  1  0.000000  0.606034  0.246064  1
  Pb  Pb15  1  0.606034  0.606034  0.753936  1
  Pb  Pb16  1  0.393966  0.000000  0.753936  1
  Pb  Pb17  1  0.000000  0.393966  0.753936  1
