# generated using pymatgen
data_Tb15DyCd4NiIr3
_symmetry_space_group_name_H-M   'P 1'
_cell_length_a   9.62420666
_cell_length_b   9.62420663
_cell_length_c   9.62420786
_cell_angle_alpha   60.28433521
_cell_angle_beta   60.28434335
_cell_angle_gamma   60.28433694
_symmetry_Int_Tables_number   1
_chemical_formula_structural   Tb15DyCd4NiIr3
_chemical_formula_sum   'Tb15 Dy1 Cd4 Ni1 Ir3'
_cell_volume   634.40355718
_cell_formula_units_Z   1
loop_
 _symmetry_equiv_pos_site_id
 _symmetry_equiv_pos_as_xyz
  1  'x, y, z'
loop_
 _atom_site_type_symbol
 _atom_site_label
 _atom_site_symmetry_multiplicity
 _atom_site_fract_x
 _atom_site_fract_y
 _atom_site_fract_z
 _atom_site_occupancy
  Tb  Tb0  1  0.598632  0.598632  0.202590  1
  Tb  Tb1  1  0.598632  0.202590  0.598632  1
  Tb  Tb2  1  0.202590  0.598632  0.598632  1
  Tb  Tb3  1  0.061241  0.439748  0.439748  1
  Tb  Tb4  1  0.438222  0.060317  0.060317  1
  Tb  Tb5  1  0.439748  0.061241  0.439748  1
  Tb  Tb6  1  0.060317  0.438222  0.060317  1
  Tb  Tb7  1  0.439748  0.439748  0.061241  1
  Tb  Tb8  1  0.060317  0.060317  0.438222  1
  Tb  Tb9  1  0.188617  0.812107  0.812107  1
  Tb  Tb10  1  0.813993  0.187144  0.187144  1
  Tb  Tb11  1  0.812107  0.188617  0.812107  1
  Tb  Tb12  1  0.187144  0.813993  0.187144  1
  Tb  Tb13  1  0.812107  0.812107  0.188617  1
  Tb  Tb14  1  0.187144  0.187144  0.813993  1
  Dy  Dy15  1  0.598629  0.598629  0.598629  1
  Cd  Cd16  1  0.830626  0.830626  0.830626  1
  Cd  Cd17  1  0.831304  0.831304  0.506439  1
  Cd  Cd18  1  0.831304  0.506439  0.831304  1
  Cd  Cd19  1  0.506439  0.831304  0.831304  1
  Ni  Ni20  1  0.392155  0.392155  0.392155  1
  Ir  Ir21  1  0.392289  0.392289  0.824411  1
  Ir  Ir22  1  0.392289  0.824411  0.392289  1
  Ir  Ir23  1  0.824411  0.392289  0.392289  1
