# generated using pymatgen
data_Y7Tm9MgAg3Rh4
_symmetry_space_group_name_H-M   'P 1'
_cell_length_a   9.51561084
_cell_length_b   9.52101902
_cell_length_c   9.51492102
_cell_angle_alpha   60.02036853
_cell_angle_beta   59.99554482
_cell_angle_gamma   60.12899937
_symmetry_Int_Tables_number   1
_chemical_formula_structural   Y7Tm9MgAg3Rh4
_chemical_formula_sum   'Y7 Tm9 Mg1 Ag3 Rh4'
_cell_volume   610.21683848
_cell_formula_units_Z   1
loop_
 _symmetry_equiv_pos_site_id
 _symmetry_equiv_pos_as_xyz
  1  'x, y, z'
loop_
 _atom_site_type_symbol
 _atom_site_label
 _atom_site_symmetry_multiplicity
 _atom_site_fract_x
 _atom_site_fract_y
 _atom_site_fract_z
 _atom_site_occupancy
  Y  Y0  1  0.059851  0.061270  0.439454  1
  Y  Y1  1  0.185779  0.811610  0.815126  1
  Y  Y2  1  0.813218  0.186033  0.185647  1
  Y  Y3  1  0.813221  0.186026  0.815218  1
  Y  Y4  1  0.185898  0.811580  0.187447  1
  Y  Y5  1  0.811645  0.812454  0.188057  1
  Y  Y6  1  0.185908  0.186879  0.813635  1
  Tm  Tm7  1  0.599772  0.597904  0.600201  1
  Tm  Tm8  1  0.599928  0.598049  0.201827  1
  Tm  Tm9  1  0.597546  0.208971  0.596752  1
  Tm  Tm10  1  0.191892  0.602318  0.602907  1
  Tm  Tm11  1  0.059632  0.438302  0.439885  1
  Tm  Tm12  1  0.435206  0.063349  0.064181  1
  Tm  Tm13  1  0.435081  0.063447  0.437257  1
  Tm  Tm14  1  0.059666  0.438258  0.062277  1
  Tm  Tm15  1  0.434146  0.435034  0.065386  1
  Mg  Mg16  1  0.539123  0.822786  0.818876  1
  Ag  Ag17  1  0.833159  0.834130  0.831485  1
  Ag  Ag18  1  0.833358  0.833960  0.501306  1
  Ag  Ag19  1  0.833814  0.500866  0.832567  1
  Rh  Rh20  1  0.388400  0.395067  0.393474  1
  Rh  Rh21  1  0.388423  0.394990  0.823101  1
  Rh  Rh22  1  0.395000  0.818710  0.393133  1
  Rh  Rh23  1  0.820334  0.398013  0.390802  1
