# generated using pymatgen
data_Er4Co2BiO12
_symmetry_space_group_name_H-M   'P 1'
_cell_length_a   6.70602124
_cell_length_b   6.70602265
_cell_length_c   7.11972309
_cell_angle_alpha   74.56272410
_cell_angle_beta   74.56272171
_cell_angle_gamma   50.83452986
_symmetry_Int_Tables_number   1
_chemical_formula_structural   Er4Co2BiO12
_chemical_formula_sum   'Er4 Co2 Bi1 O12'
_cell_volume   237.21774090
_cell_formula_units_Z   1
loop_
 _symmetry_equiv_pos_site_id
 _symmetry_equiv_pos_as_xyz
  1  'x, y, z'
loop_
 _atom_site_type_symbol
 _atom_site_label
 _atom_site_symmetry_multiplicity
 _atom_site_fract_x
 _atom_site_fract_y
 _atom_site_fract_z
 _atom_site_occupancy
  Er  Er0  1  0.308112  0.308112  0.349251  1
  Er  Er1  1  0.691888  0.691888  0.650749  1
  Er  Er2  1  0.306466  0.306466  0.843095  1
  Er  Er3  1  0.693534  0.693534  0.156905  1
  Co  Co4  1  0.753611  0.246389  0.000000  1
  Co  Co5  1  0.246389  0.753611  0.000000  1
  Bi  Bi6  1  0.000000  0.000000  0.500000  1
  O  O7  1  0.900827  0.422101  0.918419  1
  O  O8  1  0.422101  0.900827  0.918419  1
  O  O9  1  0.099173  0.577899  0.081581  1
  O  O10  1  0.577899  0.099173  0.081581  1
  O  O11  1  0.097623  0.598102  0.574288  1
  O  O12  1  0.598102  0.097623  0.574288  1
  O  O13  1  0.902377  0.401898  0.425712  1
  O  O14  1  0.401898  0.902377  0.425712  1
  O  O15  1  0.000449  0.000449  0.824144  1
  O  O16  1  0.999551  0.999551  0.175856  1
  O  O17  1  0.499400  0.499400  0.819823  1
  O  O18  1  0.500600  0.500600  0.180177  1
