# generated using pymatgen
data_YbTm3(B6Ru)2
_symmetry_space_group_name_H-M   'P 1'
_cell_length_a   3.62154800
_cell_length_b   9.08986541
_cell_length_c   11.47611457
_cell_angle_alpha   89.84432282
_cell_angle_beta   90.00000000
_cell_angle_gamma   90.00000000
_symmetry_Int_Tables_number   1
_chemical_formula_structural   YbTm3(B6Ru)2
_chemical_formula_sum   'Yb2 Tm6 B24 Ru4'
_cell_volume   377.78522642
_cell_formula_units_Z   2
loop_
 _symmetry_equiv_pos_site_id
 _symmetry_equiv_pos_as_xyz
  1  'x, y, z'
loop_
 _atom_site_type_symbol
 _atom_site_label
 _atom_site_symmetry_multiplicity
 _atom_site_fract_x
 _atom_site_fract_y
 _atom_site_fract_z
 _atom_site_occupancy
  Yb  Yb0  1  0.000000  0.324742  0.414750  1
  Yb  Yb1  1  0.000000  0.675258  0.585250  1
  Tm  Tm2  1  0.000000  0.822107  0.085992  1
  Tm  Tm3  1  0.000000  0.177893  0.914008  1
  Tm  Tm4  1  0.000000  0.941985  0.369700  1
  Tm  Tm5  1  0.000000  0.058015  0.630300  1
  Tm  Tm6  1  0.000000  0.442752  0.130496  1
  Tm  Tm7  1  0.000000  0.557248  0.869504  1
  B  B8  1  0.500000  0.554393  0.432256  1
  B  B9  1  0.500000  0.445607  0.567744  1
  B  B10  1  0.500000  0.053586  0.066270  1
  B  B11  1  0.500000  0.946414  0.933730  1
  B  B12  1  0.500000  0.748680  0.417747  1
  B  B13  1  0.500000  0.251320  0.582253  1
  B  B14  1  0.500000  0.248698  0.080684  1
  B  B15  1  0.500000  0.751302  0.919316  1
  B  B16  1  0.500000  0.791762  0.263958  1
  B  B17  1  0.500000  0.208238  0.736042  1
  B  B18  1  0.500000  0.290388  0.234276  1
  B  B19  1  0.500000  0.709612  0.765724  1
  B  B20  1  0.500000  0.631380  0.184406  1
  B  B21  1  0.500000  0.368620  0.815594  1
  B  B22  1  0.500000  0.130417  0.314089  1
  B  B23  1  0.500000  0.869583  0.685911  1
  B  B24  1  0.500000  0.982454  0.211339  1
  B  B25  1  0.500000  0.017546  0.788661  1
  B  B26  1  0.500000  0.483662  0.287703  1
  B  B27  1  0.500000  0.516338  0.712297  1
  B  B28  1  0.500000  0.603326  0.028342  1
  B  B29  1  0.500000  0.396674  0.971658  1
  B  B30  1  0.500000  0.098761  0.472744  1
  B  B31  1  0.500000  0.901239  0.527256  1
  Ru  Ru32  1  0.000000  0.640359  0.318248  1
  Ru  Ru33  1  0.000000  0.359641  0.681752  1
  Ru  Ru34  1  0.000000  0.136947  0.177860  1
  Ru  Ru35  1  0.000000  0.863053  0.822140  1
