# generated using pymatgen
data_K2Ga3CuS6
_symmetry_space_group_name_H-M   'P 1'
_cell_length_a   7.48777018
_cell_length_b   7.48777007
_cell_length_c   20.02449900
_cell_angle_alpha   95.33778163
_cell_angle_beta   95.33778156
_cell_angle_gamma   90.17300051
_symmetry_Int_Tables_number   1
_chemical_formula_structural   K2Ga3CuS6
_chemical_formula_sum   'K8 Ga12 Cu4 S24'
_cell_volume   1112.91447069
_cell_formula_units_Z   4
loop_
 _symmetry_equiv_pos_site_id
 _symmetry_equiv_pos_as_xyz
  1  'x, y, z'
loop_
 _atom_site_type_symbol
 _atom_site_label
 _atom_site_symmetry_multiplicity
 _atom_site_fract_x
 _atom_site_fract_y
 _atom_site_fract_z
 _atom_site_occupancy
  K  K0  1  0.394086  0.776015  0.080485  1
  K  K1  1  0.896143  0.767434  0.080685  1
  K  K2  1  0.232566  0.103857  0.419315  1
  K  K3  1  0.223985  0.605914  0.419515  1
  K  K4  1  0.776015  0.394086  0.580484  1
  K  K5  1  0.767434  0.896143  0.580684  1
  K  K6  1  0.103857  0.232566  0.919315  1
  K  K7  1  0.605914  0.223985  0.919516  1
  Ga  Ga8  1  0.654481  0.279665  0.119040  1
  Ga  Ga9  1  0.154901  0.280601  0.120007  1
  Ga  Ga10  1  0.932197  0.067802  0.250000  1
  Ga  Ga11  1  0.442470  0.557530  0.250000  1
  Ga  Ga12  1  0.719400  0.845099  0.379992  1
  Ga  Ga13  1  0.720335  0.345519  0.380960  1
  Ga  Ga14  1  0.279665  0.654481  0.619040  1
  Ga  Ga15  1  0.280600  0.154900  0.620008  1
  Ga  Ga16  1  0.557530  0.442470  0.750000  1
  Ga  Ga17  1  0.067803  0.932197  0.750000  1
  Ga  Ga18  1  0.845100  0.719400  0.879992  1
  Ga  Ga19  1  0.345520  0.720335  0.880960  1
  Cu  Cu20  1  0.936828  0.562342  0.249896  1
  Cu  Cu21  1  0.437658  0.063173  0.250104  1
  Cu  Cu22  1  0.562342  0.936828  0.749896  1
  Cu  Cu23  1  0.063173  0.437659  0.750104  1
  S  S24  1  0.386558  0.240062  0.050821  1
  S  S25  1  0.888328  0.285133  0.050908  1
  S  S26  1  0.670269  0.553904  0.180640  1
  S  S27  1  0.669423  0.036889  0.180939  1
  S  S28  1  0.174323  0.554029  0.182439  1
  S  S29  1  0.166823  0.038255  0.182537  1
  S  S30  1  0.961745  0.833178  0.317463  1
  S  S31  1  0.445971  0.825677  0.317561  1
  S  S32  1  0.963111  0.330577  0.319061  1
  S  S33  1  0.446096  0.329730  0.319360  1
  S  S34  1  0.714867  0.111672  0.449093  1
  S  S35  1  0.759938  0.613442  0.449179  1
  S  S36  1  0.240062  0.386559  0.550821  1
  S  S37  1  0.285133  0.888327  0.550908  1
  S  S38  1  0.553904  0.670269  0.680640  1
  S  S39  1  0.036889  0.669423  0.680939  1
  S  S40  1  0.554029  0.174322  0.682438  1
  S  S41  1  0.038256  0.166823  0.682537  1
  S  S42  1  0.833178  0.961745  0.817463  1
  S  S43  1  0.825678  0.445971  0.817562  1
  S  S44  1  0.330577  0.963111  0.819061  1
  S  S45  1  0.329730  0.446096  0.819360  1
  S  S46  1  0.111672  0.714867  0.949092  1
  S  S47  1  0.613442  0.759938  0.949179  1
