# generated using pymatgen
data_Th4CuSi2Pd27
_symmetry_space_group_name_H-M   'P 1'
_cell_length_a   8.95457955
_cell_length_b   8.95457919
_cell_length_c   7.16149700
_cell_angle_alpha   90.16813335
_cell_angle_beta   90.16813334
_cell_angle_gamma   89.31360709
_symmetry_Int_Tables_number   1
_chemical_formula_structural   Th4CuSi2Pd27
_chemical_formula_sum   'Th4 Cu1 Si2 Pd27'
_cell_volume   574.19490540
_cell_formula_units_Z   1
loop_
 _symmetry_equiv_pos_site_id
 _symmetry_equiv_pos_as_xyz
  1  'x, y, z'
loop_
 _atom_site_type_symbol
 _atom_site_label
 _atom_site_symmetry_multiplicity
 _atom_site_fract_x
 _atom_site_fract_y
 _atom_site_fract_z
 _atom_site_occupancy
  Th  Th0  1  0.504590  0.004590  0.930193  1
  Th  Th1  1  0.995410  0.495410  0.069807  1
  Th  Th2  1  0.002469  0.997531  0.500000  1
  Th  Th3  1  0.497531  0.502469  0.500000  1
  Cu  Cu4  1  0.250000  0.750000  0.000000  1
  Si  Si5  1  0.500753  0.000753  0.444814  1
  Si  Si6  1  0.999247  0.499247  0.555186  1
  Pd  Pd7  1  0.335811  0.835811  0.611761  1
  Pd  Pd8  1  0.333100  0.165023  0.617962  1
  Pd  Pd9  1  0.665023  0.833100  0.617962  1
  Pd  Pd10  1  0.665230  0.165230  0.614410  1
  Pd  Pd11  1  0.164189  0.664189  0.388239  1
  Pd  Pd12  1  0.166900  0.334977  0.382038  1
  Pd  Pd13  1  0.834977  0.666900  0.382038  1
  Pd  Pd14  1  0.834770  0.334770  0.385590  1
  Pd  Pd15  1  0.498136  0.770890  0.254673  1
  Pd  Pd16  1  0.497297  0.230918  0.258088  1
  Pd  Pd17  1  0.270890  0.998136  0.254673  1
  Pd  Pd18  1  0.730918  0.997297  0.258088  1
  Pd  Pd19  1  0.001864  0.729110  0.745327  1
  Pd  Pd20  1  0.002703  0.269082  0.741912  1
  Pd  Pd21  1  0.229110  0.501864  0.745327  1
  Pd  Pd22  1  0.769082  0.502703  0.741912  1
  Pd  Pd23  1  0.499095  0.352778  0.850577  1
  Pd  Pd24  1  0.493405  0.659060  0.860010  1
  Pd  Pd25  1  0.852778  0.999095  0.850577  1
  Pd  Pd26  1  0.159060  0.993405  0.860010  1
  Pd  Pd27  1  0.000905  0.147222  0.149423  1
  Pd  Pd28  1  0.006595  0.840940  0.139990  1
  Pd  Pd29  1  0.647222  0.500905  0.149423  1
  Pd  Pd30  1  0.340940  0.506595  0.139990  1
  Pd  Pd31  1  0.250000  0.250000  0.000000  1
  Pd  Pd32  1  0.750000  0.750000  0.000000  1
  Pd  Pd33  1  0.750000  0.250000  0.000000  1
