# generated using pymatgen
data_Tb15HoZn3CdCo4
_symmetry_space_group_name_H-M   'P 1'
_cell_length_a   9.40000802
_cell_length_b   9.40702608
_cell_length_c   9.40311100
_cell_angle_alpha   60.01376990
_cell_angle_beta   59.98908316
_cell_angle_gamma   60.01261720
_symmetry_Int_Tables_number   1
_chemical_formula_structural   Tb15HoZn3CdCo4
_chemical_formula_sum   'Tb15 Ho1 Zn3 Cd1 Co4'
_cell_volume   588.01425842
_cell_formula_units_Z   1
loop_
 _symmetry_equiv_pos_site_id
 _symmetry_equiv_pos_as_xyz
  1  'x, y, z'
loop_
 _atom_site_type_symbol
 _atom_site_label
 _atom_site_symmetry_multiplicity
 _atom_site_fract_x
 _atom_site_fract_y
 _atom_site_fract_z
 _atom_site_occupancy
  Tb  Tb0  1  0.598274  0.599682  0.599032  1
  Tb  Tb1  1  0.188296  0.811232  0.812648  1
  Tb  Tb2  1  0.058983  0.059037  0.440990  1
  Tb  Tb3  1  0.441091  0.059656  0.058955  1
  Tb  Tb4  1  0.811502  0.184195  0.812090  1
  Tb  Tb5  1  0.441091  0.059656  0.440297  1
  Tb  Tb6  1  0.599848  0.200186  0.599982  1
  Tb  Tb7  1  0.812404  0.811488  0.188054  1
  Tb  Tb8  1  0.203333  0.599815  0.598426  1
  Tb  Tb9  1  0.811502  0.184195  0.192212  1
  Tb  Tb10  1  0.060752  0.441007  0.438270  1
  Tb  Tb11  1  0.188296  0.811232  0.187825  1
  Tb  Tb12  1  0.598274  0.599682  0.203013  1
  Tb  Tb13  1  0.192042  0.183643  0.812157  1
  Tb  Tb14  1  0.060752  0.441007  0.059969  1
  Ho  Ho15  1  0.439032  0.440776  0.060096  1
  Zn  Zn16  1  0.828003  0.831639  0.512204  1
  Zn  Zn17  1  0.828003  0.831639  0.828152  1
  Zn  Zn18  1  0.512082  0.831268  0.828325  1
  Cd  Cd19  1  0.826185  0.520029  0.826892  1
  Co  Co20  1  0.391760  0.390939  0.391316  1
  Co  Co21  1  0.825616  0.390816  0.391784  1
  Co  Co22  1  0.391117  0.826240  0.391321  1
  Co  Co23  1  0.391760  0.390939  0.825986  1
