# generated using pymatgen
data_Nd(Y3In2)3
_symmetry_space_group_name_H-M   'P 1'
_cell_length_a   9.18994452
_cell_length_b   9.18994293
_cell_length_c   9.18519800
_cell_angle_alpha   96.43577319
_cell_angle_beta   96.22852208
_cell_angle_gamma   141.21759369
_symmetry_Int_Tables_number   1
_chemical_formula_structural   Nd(Y3In2)3
_chemical_formula_sum   'Nd1 Y9 In6'
_cell_volume   458.30050738
_cell_formula_units_Z   1
loop_
 _symmetry_equiv_pos_site_id
 _symmetry_equiv_pos_as_xyz
  1  'x, y, z'
loop_
 _atom_site_type_symbol
 _atom_site_label
 _atom_site_symmetry_multiplicity
 _atom_site_fract_x
 _atom_site_fract_y
 _atom_site_fract_z
 _atom_site_occupancy
  Nd  Nd0  1  0.083291  0.780407  0.863698  1
  Y  Y1  1  0.716771  0.418766  0.135538  1
  Y  Y2  1  0.283415  0.581565  0.864979  1
  Y  Y3  1  0.582546  0.717033  0.299578  1
  Y  Y4  1  0.216574  0.082676  0.299250  1
  Y  Y5  1  0.916820  0.216939  0.133760  1
  Y  Y6  1  0.750112  0.249477  0.499366  1
  Y  Y7  1  0.249890  0.749254  0.499366  1
  Y  Y8  1  0.782879  0.918957  0.701836  1
  Y  Y9  1  0.417079  0.283741  0.700821  1
  In  In10  1  0.837305  0.660646  0.497952  1
  In  In11  1  0.340689  0.839077  0.179766  1
  In  In12  1  0.749314  0.751254  0.000826  1
  In  In13  1  0.662300  0.160625  0.822926  1
  In  In14  1  0.161444  0.338071  0.499516  1
  In  In15  1  0.249571  0.251511  0.000826  1
