# generated using pymatgen
data_BaCoH7
_symmetry_space_group_name_H-M   'P 1'
_cell_length_a   4.88056799
_cell_length_b   4.76701022
_cell_length_c   8.78083800
_cell_angle_alpha   90.00000000
_cell_angle_beta   90.00000000
_cell_angle_gamma   65.42796072
_symmetry_Int_Tables_number   1
_chemical_formula_structural   BaCoH7
_chemical_formula_sum   'Ba2 Co2 H14'
_cell_volume   185.79159353
_cell_formula_units_Z   2
loop_
 _symmetry_equiv_pos_site_id
 _symmetry_equiv_pos_as_xyz
  1  'x, y, z'
loop_
 _atom_site_type_symbol
 _atom_site_label
 _atom_site_symmetry_multiplicity
 _atom_site_fract_x
 _atom_site_fract_y
 _atom_site_fract_z
 _atom_site_occupancy
  Ba  Ba0  1  0.000000  0.000000  0.000000  1
  Ba  Ba1  1  0.000000  0.000000  0.500000  1
  Co  Co2  1  0.639841  0.648113  0.250000  1
  Co  Co3  1  0.360159  0.351887  0.750000  1
  H  H4  1  0.775296  0.873895  0.250000  1
  H  H5  1  0.224704  0.126105  0.750000  1
  H  H6  1  0.655594  0.664356  0.424334  1
  H  H7  1  0.344406  0.335644  0.924334  1
  H  H8  1  0.344406  0.335644  0.575666  1
  H  H9  1  0.655594  0.664356  0.075666  1
  H  H10  1  0.481777  0.440069  0.301607  1
  H  H11  1  0.518223  0.559931  0.801607  1
  H  H12  1  0.518223  0.559931  0.698393  1
  H  H13  1  0.481777  0.440069  0.198393  1
  H  H14  1  0.344137  0.938129  0.250000  1
  H  H15  1  0.655863  0.061871  0.750000  1
  H  H16  1  0.960071  0.387882  0.250000  1
  H  H17  1  0.039929  0.612118  0.750000  1
