# generated using pymatgen
data_Er7Pa(TcB6)4
_symmetry_space_group_name_H-M   'P 1'
_cell_length_a   3.67344700
_cell_length_b   9.11813627
_cell_length_c   11.48775318
_cell_angle_alpha   90.14477500
_cell_angle_beta   90.00000000
_cell_angle_gamma   90.00000000
_symmetry_Int_Tables_number   1
_chemical_formula_structural   Er7Pa(TcB6)4
_chemical_formula_sum   'Er7 Pa1 Tc4 B24'
_cell_volume   384.78095318
_cell_formula_units_Z   1
loop_
 _symmetry_equiv_pos_site_id
 _symmetry_equiv_pos_as_xyz
  1  'x, y, z'
loop_
 _atom_site_type_symbol
 _atom_site_label
 _atom_site_symmetry_multiplicity
 _atom_site_fract_x
 _atom_site_fract_y
 _atom_site_fract_z
 _atom_site_occupancy
  Er  Er0  1  0.000000  0.679154  0.586763  1
  Er  Er1  1  0.000000  0.823531  0.084834  1
  Er  Er2  1  0.000000  0.175370  0.913749  1
  Er  Er3  1  0.000000  0.942195  0.370726  1
  Er  Er4  1  0.000000  0.055642  0.630096  1
  Er  Er5  1  0.000000  0.443152  0.128342  1
  Er  Er6  1  0.000000  0.557602  0.869779  1
  Pa  Pa7  1  0.000000  0.323584  0.414301  1
  Tc  Tc8  1  0.000000  0.636043  0.321656  1
  Tc  Tc9  1  0.000000  0.362021  0.676799  1
  Tc  Tc10  1  0.000000  0.140866  0.181721  1
  Tc  Tc11  1  0.000000  0.861525  0.820782  1
  B  B12  1  0.500000  0.553329  0.432554  1
  B  B13  1  0.500000  0.446027  0.567173  1
  B  B14  1  0.500000  0.053805  0.067102  1
  B  B15  1  0.500000  0.946938  0.933714  1
  B  B16  1  0.500000  0.749285  0.418664  1
  B  B17  1  0.500000  0.250520  0.581277  1
  B  B18  1  0.500000  0.248937  0.080435  1
  B  B19  1  0.500000  0.750835  0.919162  1
  B  B20  1  0.500000  0.791781  0.265322  1
  B  B21  1  0.500000  0.207948  0.735280  1
  B  B22  1  0.500000  0.291744  0.234695  1
  B  B23  1  0.500000  0.707978  0.765128  1
  B  B24  1  0.500000  0.631161  0.184597  1
  B  B25  1  0.500000  0.369498  0.814581  1
  B  B26  1  0.500000  0.131421  0.315019  1
  B  B27  1  0.500000  0.868861  0.685531  1
  B  B28  1  0.500000  0.982208  0.211823  1
  B  B29  1  0.500000  0.017895  0.788410  1
  B  B30  1  0.500000  0.482863  0.287656  1
  B  B31  1  0.500000  0.517966  0.712604  1
  B  B32  1  0.500000  0.601805  0.027868  1
  B  B33  1  0.500000  0.398265  0.971143  1
  B  B34  1  0.500000  0.103011  0.471564  1
  B  B35  1  0.500000  0.895232  0.529151  1
