# generated using pymatgen
data_Er6Tm4CdIn7
_symmetry_space_group_name_H-M   'P 1'
_cell_length_a   9.17532700
_cell_length_b   9.17532738
_cell_length_c   6.63372000
_cell_angle_alpha   90.00000000
_cell_angle_beta   90.00000000
_cell_angle_gamma   119.99999502
_symmetry_Int_Tables_number   1
_chemical_formula_structural   Er6Tm4CdIn7
_chemical_formula_sum   'Er6 Tm4 Cd1 In7'
_cell_volume   483.64968616
_cell_formula_units_Z   1
loop_
 _symmetry_equiv_pos_site_id
 _symmetry_equiv_pos_as_xyz
  1  'x, y, z'
loop_
 _atom_site_type_symbol
 _atom_site_label
 _atom_site_symmetry_multiplicity
 _atom_site_fract_x
 _atom_site_fract_y
 _atom_site_fract_z
 _atom_site_occupancy
  Er  Er0  1  0.289389  0.000000  0.749940  1
  Er  Er1  1  0.710611  0.000000  0.250060  1
  Er  Er2  1  0.000000  0.289389  0.749940  1
  Er  Er3  1  0.000000  0.710611  0.250060  1
  Er  Er4  1  0.710611  0.710611  0.749940  1
  Er  Er5  1  0.289389  0.289389  0.250060  1
  Tm  Tm6  1  0.333333  0.666667  0.500000  1
  Tm  Tm7  1  0.666667  0.333333  0.500000  1
  Tm  Tm8  1  0.666667  0.333333  0.000000  1
  Tm  Tm9  1  0.333333  0.666667  0.000000  1
  Cd  Cd10  1  0.000000  0.000000  0.500000  1
  In  In11  1  0.000000  0.000000  0.000000  1
  In  In12  1  0.627729  0.000000  0.749770  1
  In  In13  1  0.372271  0.000000  0.250230  1
  In  In14  1  0.000000  0.627729  0.749770  1
  In  In15  1  0.000000  0.372271  0.250230  1
  In  In16  1  0.372271  0.372271  0.749770  1
  In  In17  1  0.627729  0.627729  0.250230  1
