# generated using pymatgen
data_Ho8Ta11Si16Ir
_symmetry_space_group_name_H-M   'P 1'
_cell_length_a   7.01221199
_cell_length_b   7.01221147
_cell_length_c   12.92796633
_cell_angle_alpha   90.21691058
_cell_angle_beta   89.78309156
_cell_angle_gamma   89.65877285
_symmetry_Int_Tables_number   1
_chemical_formula_structural   Ho8Ta11Si16Ir
_chemical_formula_sum   'Ho8 Ta11 Si16 Ir1'
_cell_volume   635.66205960
_cell_formula_units_Z   1
loop_
 _symmetry_equiv_pos_site_id
 _symmetry_equiv_pos_as_xyz
  1  'x, y, z'
loop_
 _atom_site_type_symbol
 _atom_site_label
 _atom_site_symmetry_multiplicity
 _atom_site_fract_x
 _atom_site_fract_y
 _atom_site_fract_z
 _atom_site_occupancy
  Ho  Ho0  1  0.340809  0.003856  0.468132  1
  Ho  Ho1  1  0.495169  0.841540  0.719736  1
  Ho  Ho2  1  0.501640  0.158682  0.216893  1
  Ho  Ho3  1  0.841540  0.495169  0.280264  1
  Ho  Ho4  1  0.158682  0.501640  0.783107  1
  Ho  Ho5  1  0.657455  0.997242  0.968677  1
  Ho  Ho6  1  0.003856  0.340809  0.531868  1
  Ho  Ho7  1  0.997242  0.657455  0.031323  1
  Ta  Ta8  1  0.174372  0.828464  0.247316  1
  Ta  Ta9  1  0.828464  0.174372  0.752684  1
  Ta  Ta10  1  0.670984  0.670984  0.500000  1
  Ta  Ta11  1  0.148948  0.002889  0.874840  1
  Ta  Ta12  1  0.495045  0.658799  0.124032  1
  Ta  Ta13  1  0.504969  0.347900  0.625903  1
  Ta  Ta14  1  0.658799  0.495045  0.875968  1
  Ta  Ta15  1  0.347900  0.504969  0.374097  1
  Ta  Ta16  1  0.848421  0.993891  0.373819  1
  Ta  Ta17  1  0.002889  0.148948  0.125160  1
  Ta  Ta18  1  0.993891  0.848421  0.626181  1
  Si  Si19  1  0.202504  0.136238  0.683217  1
  Si  Si20  1  0.367871  0.701713  0.932781  1
  Si  Si21  1  0.635754  0.296383  0.432198  1
  Si  Si22  1  0.701713  0.367871  0.067219  1
  Si  Si23  1  0.296383  0.635754  0.567802  1
  Si  Si24  1  0.795983  0.864780  0.182532  1
  Si  Si25  1  0.136238  0.202504  0.316783  1
  Si  Si26  1  0.864780  0.795983  0.817468  1
  Si  Si27  1  0.291024  0.955535  0.061449  1
  Si  Si28  1  0.545173  0.795062  0.313896  1
  Si  Si29  1  0.449544  0.208186  0.817556  1
  Si  Si30  1  0.795062  0.545173  0.686104  1
  Si  Si31  1  0.208186  0.449544  0.182444  1
  Si  Si32  1  0.704989  0.045230  0.564815  1
  Si  Si33  1  0.955535  0.291024  0.938551  1
  Si  Si34  1  0.045230  0.704989  0.435185  1
  Ir  Ir35  1  0.332955  0.332955  0.000000  1
