# generated using pymatgen
data_Y5In4PtRh
_symmetry_space_group_name_H-M   'P 1'
_cell_length_a   3.65288100
_cell_length_b   8.15036957
_cell_length_c   18.32906400
_cell_angle_alpha   90.10063219
_cell_angle_beta   90.00000000
_cell_angle_gamma   90.00000000
_symmetry_Int_Tables_number   1
_chemical_formula_structural   Y5In4PtRh
_chemical_formula_sum   'Y10 In8 Pt2 Rh2'
_cell_volume   545.69810305
_cell_formula_units_Z   2
loop_
 _symmetry_equiv_pos_site_id
 _symmetry_equiv_pos_as_xyz
  1  'x, y, z'
loop_
 _atom_site_type_symbol
 _atom_site_label
 _atom_site_symmetry_multiplicity
 _atom_site_fract_x
 _atom_site_fract_y
 _atom_site_fract_z
 _atom_site_occupancy
  Y  Y0  1  0.000000  0.115147  0.412207  1
  Y  Y1  1  0.000000  0.884853  0.587793  1
  Y  Y2  1  0.000000  0.383375  0.913938  1
  Y  Y3  1  0.000000  0.616625  0.086062  1
  Y  Y4  1  0.000000  0.238565  0.221016  1
  Y  Y5  1  0.000000  0.761435  0.778984  1
  Y  Y6  1  0.000000  0.250453  0.720115  1
  Y  Y7  1  0.000000  0.749547  0.279885  1
  Y  Y8  1  0.000000  0.000000  0.000000  1
  Y  Y9  1  0.000000  0.500000  0.500000  1
  In  In10  1  0.500000  0.424056  0.350957  1
  In  In11  1  0.500000  0.575944  0.649043  1
  In  In12  1  0.500000  0.072463  0.849791  1
  In  In13  1  0.500000  0.927537  0.150209  1
  In  In14  1  0.500000  0.291942  0.066996  1
  In  In15  1  0.500000  0.708058  0.933004  1
  In  In16  1  0.500000  0.206139  0.568276  1
  In  In17  1  0.500000  0.793861  0.431724  1
  Pt  Pt18  1  0.500000  0.478190  0.803068  1
  Pt  Pt19  1  0.500000  0.521810  0.196932  1
  Rh  Rh20  1  0.500000  0.021267  0.304440  1
  Rh  Rh21  1  0.500000  0.978733  0.695560  1
