# generated using pymatgen
data_La2Pr4Cd23As
_symmetry_space_group_name_H-M   'P 1'
_cell_length_a   10.16034156
_cell_length_b   10.16034126
_cell_length_c   10.09363900
_cell_angle_alpha   60.21693387
_cell_angle_beta   60.21693486
_cell_angle_gamma   59.95736246
_symmetry_Int_Tables_number   1
_chemical_formula_structural   La2Pr4Cd23As
_chemical_formula_sum   'La2 Pr4 Cd23 As1'
_cell_volume   738.96625124
_cell_formula_units_Z   1
loop_
 _symmetry_equiv_pos_site_id
 _symmetry_equiv_pos_as_xyz
  1  'x, y, z'
loop_
 _atom_site_type_symbol
 _atom_site_label
 _atom_site_symmetry_multiplicity
 _atom_site_fract_x
 _atom_site_fract_y
 _atom_site_fract_z
 _atom_site_occupancy
  La  La0  1  0.791090  0.208910  0.791750  1
  La  La1  1  0.208910  0.791090  0.791750  1
  Pr  Pr2  1  0.792848  0.792848  0.207823  1
  Pr  Pr3  1  0.208620  0.791380  0.209070  1
  Pr  Pr4  1  0.791380  0.208620  0.209070  1
  Pr  Pr5  1  0.207152  0.207152  0.793519  1
  Cd  Cd6  1  0.834013  0.834013  0.497017  1
  Cd  Cd7  1  0.831396  0.500862  0.834627  1
  Cd  Cd8  1  0.500862  0.831396  0.834627  1
  Cd  Cd9  1  0.832274  0.832274  0.834975  1
  Cd  Cd10  1  0.167726  0.167726  0.499521  1
  Cd  Cd11  1  0.168604  0.499138  0.166883  1
  Cd  Cd12  1  0.499138  0.168604  0.166883  1
  Cd  Cd13  1  0.165987  0.165987  0.165042  1
  Cd  Cd14  1  0.622742  0.622742  0.133585  1
  Cd  Cd15  1  0.621612  0.133744  0.620686  1
  Cd  Cd16  1  0.133744  0.621612  0.620686  1
  Cd  Cd17  1  0.624153  0.624153  0.619305  1
  Cd  Cd18  1  0.375847  0.375847  0.867613  1
  Cd  Cd19  1  0.378388  0.866256  0.376043  1
  Cd  Cd20  1  0.866256  0.378388  0.376043  1
  Cd  Cd21  1  0.377258  0.377258  0.379070  1
  Cd  Cd22  1  0.000000  0.000000  0.499565  1
  Cd  Cd23  1  0.500507  0.000286  0.500023  1
  Cd  Cd24  1  0.000286  0.500507  0.500023  1
  Cd  Cd25  1  0.500000  0.500000  0.001329  1
  Cd  Cd26  1  0.999714  0.499493  0.000816  1
  Cd  Cd27  1  0.499493  0.999714  0.000816  1
  Cd  Cd28  1  0.500000  0.500000  0.500370  1
  As  As29  1  0.000000  0.000000  0.001468  1
