# generated using pymatgen
data_Gd3Y3TaO12
_symmetry_space_group_name_H-M   'P 1'
_cell_length_a   6.54367381
_cell_length_b   6.53514748
_cell_length_c   6.54148810
_cell_angle_alpha   98.62028443
_cell_angle_beta   98.71873822
_cell_angle_gamma   98.72767731
_symmetry_Int_Tables_number   1
_chemical_formula_structural   Gd3Y3TaO12
_chemical_formula_sum   'Gd3 Y3 Ta1 O12'
_cell_volume   268.99192256
_cell_formula_units_Z   1
loop_
 _symmetry_equiv_pos_site_id
 _symmetry_equiv_pos_as_xyz
  1  'x, y, z'
loop_
 _atom_site_type_symbol
 _atom_site_label
 _atom_site_symmetry_multiplicity
 _atom_site_fract_x
 _atom_site_fract_y
 _atom_site_fract_z
 _atom_site_occupancy
  Gd  Gd0  1  0.699775  0.863751  0.391691  1
  Gd  Gd1  1  0.391166  0.695053  0.858562  1
  Gd  Gd2  1  0.138785  0.607576  0.303687  1
  Y  Y3  1  0.860932  0.388246  0.699745  1
  Y  Y4  1  0.610550  0.299599  0.135689  1
  Y  Y5  1  0.303338  0.142225  0.612077  1
  Ta  Ta6  1  0.001773  0.999313  0.000624  1
  O  O7  1  0.929188  0.042510  0.699114  1
  O  O8  1  0.957115  0.301289  0.070817  1
  O  O9  1  0.588078  0.178019  0.435888  1
  O  O10  1  0.819866  0.562861  0.410598  1
  O  O11  1  0.301658  0.074151  0.959744  1
  O  O12  1  0.564647  0.409976  0.822677  1
  O  O13  1  0.435794  0.587402  0.177007  1
  O  O14  1  0.699048  0.929815  0.040884  1
  O  O15  1  0.174924  0.434519  0.587738  1
  O  O16  1  0.411646  0.824116  0.565029  1
  O  O17  1  0.038096  0.698381  0.926372  1
  O  O18  1  0.073620  0.961198  0.302058  1
