# generated using pymatgen
data_Y6Tm2Sc12Si15Hg
_symmetry_space_group_name_H-M   'P 1'
_cell_length_a   7.11686801
_cell_length_b   7.38943958
_cell_length_c   14.06141657
_cell_angle_alpha   89.87790990
_cell_angle_beta   89.58045944
_cell_angle_gamma   90.19981085
_symmetry_Int_Tables_number   1
_chemical_formula_structural   Y6Tm2Sc12Si15Hg
_chemical_formula_sum   'Y6 Tm2 Sc12 Si15 Hg1'
_cell_volume   739.45916330
_cell_formula_units_Z   1
loop_
 _symmetry_equiv_pos_site_id
 _symmetry_equiv_pos_as_xyz
  1  'x, y, z'
loop_
 _atom_site_type_symbol
 _atom_site_label
 _atom_site_symmetry_multiplicity
 _atom_site_fract_x
 _atom_site_fract_y
 _atom_site_fract_z
 _atom_site_occupancy
  Y  Y0  1  0.011742  0.175757  0.097201  1
  Y  Y1  1  0.987851  0.824878  0.904463  1
  Y  Y2  1  0.487801  0.676818  0.904268  1
  Y  Y3  1  0.988514  0.830579  0.597895  1
  Y  Y4  1  0.511653  0.323677  0.096248  1
  Y  Y5  1  0.007563  0.171740  0.398665  1
  Tm  Tm6  1  0.511219  0.321947  0.399031  1
  Tm  Tm7  1  0.496489  0.682079  0.599993  1
  Sc  Sc8  1  0.162424  0.501153  0.754128  1
  Sc  Sc9  1  0.836990  0.498668  0.250316  1
  Sc  Sc10  1  0.338219  0.001226  0.249056  1
  Sc  Sc11  1  0.664113  0.996531  0.751377  1
  Sc  Sc12  1  0.341819  0.168468  0.628963  1
  Sc  Sc13  1  0.664354  0.824185  0.372704  1
  Sc  Sc14  1  0.167240  0.677652  0.370454  1
  Sc  Sc15  1  0.669552  0.823659  0.124964  1
  Sc  Sc16  1  0.825261  0.325178  0.626294  1
  Sc  Sc17  1  0.329224  0.175223  0.875717  1
  Sc  Sc18  1  0.829847  0.322813  0.875825  1
  Sc  Sc19  1  0.169173  0.676713  0.125454  1
  Si  Si20  1  0.034913  0.119889  0.751392  1
  Si  Si21  1  0.964964  0.884362  0.248098  1
  Si  Si22  1  0.466565  0.614178  0.248353  1
  Si  Si23  1  0.533224  0.386925  0.751609  1
  Si  Si24  1  0.285227  0.871324  0.751008  1
  Si  Si25  1  0.712269  0.128596  0.248549  1
  Si  Si26  1  0.214282  0.371279  0.248603  1
  Si  Si27  1  0.787508  0.628154  0.752050  1
  Si  Si28  1  0.830826  0.537607  0.458911  1
  Si  Si29  1  0.340064  0.962892  0.459760  1
  Si  Si30  1  0.843723  0.535557  0.038958  1
  Si  Si31  1  0.658607  0.037065  0.537490  1
  Si  Si32  1  0.156273  0.463752  0.962262  1
  Si  Si33  1  0.656146  0.035108  0.960777  1
  Si  Si34  1  0.343209  0.964843  0.039918  1
  Hg  Hg35  1  0.171152  0.459523  0.539247  1
