# generated using pymatgen
data_Rb4Sn2SbAu6
_symmetry_space_group_name_H-M   'P 1'
_cell_length_a   10.78577515
_cell_length_b   10.78577458
_cell_length_c   10.78577506
_cell_angle_alpha   37.93941355
_cell_angle_beta   37.93941645
_cell_angle_gamma   37.93941477
_symmetry_Int_Tables_number   1
_chemical_formula_structural   Rb4Sn2SbAu6
_chemical_formula_sum   'Rb4 Sn2 Sb1 Au6'
_cell_volume   425.71352457
_cell_formula_units_Z   1
loop_
 _symmetry_equiv_pos_site_id
 _symmetry_equiv_pos_as_xyz
  1  'x, y, z'
loop_
 _atom_site_type_symbol
 _atom_site_label
 _atom_site_symmetry_multiplicity
 _atom_site_fract_x
 _atom_site_fract_y
 _atom_site_fract_z
 _atom_site_occupancy
  Rb  Rb0  1  0.684298  0.684298  0.684298  1
  Rb  Rb1  1  0.315702  0.315702  0.315702  1
  Rb  Rb2  1  0.812467  0.812467  0.812467  1
  Rb  Rb3  1  0.187533  0.187533  0.187533  1
  Sn  Sn4  1  0.450976  0.450976  0.450976  1
  Sn  Sn5  1  0.549024  0.549024  0.549024  1
  Sb  Sb6  1  0.000000  0.000000  0.000000  1
  Au  Au7  1  0.199314  0.784121  0.784121  1
  Au  Au8  1  0.784121  0.784121  0.199314  1
  Au  Au9  1  0.784121  0.199314  0.784121  1
  Au  Au10  1  0.215879  0.800686  0.215879  1
  Au  Au11  1  0.800686  0.215879  0.215879  1
  Au  Au12  1  0.215879  0.215879  0.800686  1
