# generated using pymatgen
data_Sm3DyY(CoB3)2
_symmetry_space_group_name_H-M   'P 1'
_cell_length_a   5.42816711
_cell_length_b   5.42816713
_cell_length_c   8.54423484
_cell_angle_alpha   71.47908493
_cell_angle_beta   71.47908524
_cell_angle_gamma   59.99999026
_symmetry_Int_Tables_number   1
_chemical_formula_structural   Sm3DyY(CoB3)2
_chemical_formula_sum   'Sm3 Dy1 Y1 Co2 B6'
_cell_volume   202.83116348
_cell_formula_units_Z   1
loop_
 _symmetry_equiv_pos_site_id
 _symmetry_equiv_pos_as_xyz
  1  'x, y, z'
loop_
 _atom_site_type_symbol
 _atom_site_label
 _atom_site_symmetry_multiplicity
 _atom_site_fract_x
 _atom_site_fract_y
 _atom_site_fract_z
 _atom_site_occupancy
  Sm  Sm0  1  0.999923  0.999923  0.000231  1
  Sm  Sm1  1  0.252242  0.252242  0.243274  1
  Sm  Sm2  1  0.747724  0.747724  0.756827  1
  Dy  Dy3  1  0.581066  0.581066  0.256801  1
  Y  Y4  1  0.418838  0.418838  0.743485  1
  Co  Co5  1  0.120968  0.120968  0.637097  1
  Co  Co6  1  0.879038  0.879038  0.362886  1
  B  B7  1  0.167923  0.832137  0.499900  1
  B  B8  1  0.832137  0.500040  0.499900  1
  B  B9  1  0.500040  0.167923  0.499900  1
  B  B10  1  0.167923  0.500040  0.499900  1
  B  B11  1  0.500040  0.832137  0.499900  1
  B  B12  1  0.832137  0.167923  0.499900  1
