# generated using pymatgen
data_Sr2Zr(Si3Pd10)2
_symmetry_space_group_name_H-M   'P 1'
_cell_length_a   8.76486410
_cell_length_b   8.76486433
_cell_length_c   8.76486400
_cell_angle_alpha   60.00000126
_cell_angle_beta   60.00000038
_cell_angle_gamma   60.00000331
_symmetry_Int_Tables_number   1
_chemical_formula_structural   Sr2Zr(Si3Pd10)2
_chemical_formula_sum   'Sr2 Zr1 Si6 Pd20'
_cell_volume   476.12456082
_cell_formula_units_Z   1
loop_
 _symmetry_equiv_pos_site_id
 _symmetry_equiv_pos_as_xyz
  1  'x, y, z'
loop_
 _atom_site_type_symbol
 _atom_site_label
 _atom_site_symmetry_multiplicity
 _atom_site_fract_x
 _atom_site_fract_y
 _atom_site_fract_z
 _atom_site_occupancy
  Sr  Sr0  1  0.250000  0.250000  0.250000  1
  Sr  Sr1  1  0.750000  0.750000  0.750000  1
  Zr  Zr2  1  0.000000  0.000000  0.000000  1
  Si  Si3  1  0.731593  0.268407  0.268407  1
  Si  Si4  1  0.268407  0.731593  0.731593  1
  Si  Si5  1  0.268407  0.731593  0.268407  1
  Si  Si6  1  0.731593  0.268407  0.731593  1
  Si  Si7  1  0.268407  0.268407  0.731593  1
  Si  Si8  1  0.731593  0.731593  0.268407  1
  Pd  Pd9  1  0.386045  0.386045  0.386045  1
  Pd  Pd10  1  0.613955  0.613955  0.613955  1
  Pd  Pd11  1  0.386045  0.386045  0.841866  1
  Pd  Pd12  1  0.386045  0.841866  0.386045  1
  Pd  Pd13  1  0.613955  0.613955  0.158134  1
  Pd  Pd14  1  0.613955  0.158134  0.613955  1
  Pd  Pd15  1  0.841866  0.386045  0.386045  1
  Pd  Pd16  1  0.158134  0.613955  0.613955  1
  Pd  Pd17  1  0.340373  0.000000  0.000000  1
  Pd  Pd18  1  0.659627  0.000000  0.000000  1
  Pd  Pd19  1  0.000000  0.340373  0.659627  1
  Pd  Pd20  1  0.000000  0.659627  0.340373  1
  Pd  Pd21  1  0.000000  0.340373  0.000000  1
  Pd  Pd22  1  0.659627  0.000000  0.340373  1
  Pd  Pd23  1  0.000000  0.659627  0.000000  1
  Pd  Pd24  1  0.340373  0.000000  0.659627  1
  Pd  Pd25  1  0.000000  0.000000  0.340373  1
  Pd  Pd26  1  0.000000  0.000000  0.659627  1
  Pd  Pd27  1  0.659627  0.340373  0.000000  1
  Pd  Pd28  1  0.340373  0.659627  0.000000  1
