# generated using pymatgen
data_Tm12InCo2Ni2Hg
_symmetry_space_group_name_H-M   'P 1'
_cell_length_a   8.26860635
_cell_length_b   8.26860646
_cell_length_c   8.26860633
_cell_angle_alpha   111.69814408
_cell_angle_beta   109.39419978
_cell_angle_gamma   107.35058091
_symmetry_Int_Tables_number   1
_chemical_formula_structural   Tm12InCo2Ni2Hg
_chemical_formula_sum   'Tm12 In1 Co2 Ni2 Hg1'
_cell_volume   434.55823592
_cell_formula_units_Z   1
loop_
 _symmetry_equiv_pos_site_id
 _symmetry_equiv_pos_as_xyz
  1  'x, y, z'
loop_
 _atom_site_type_symbol
 _atom_site_label
 _atom_site_symmetry_multiplicity
 _atom_site_fract_x
 _atom_site_fract_y
 _atom_site_fract_z
 _atom_site_occupancy
  Tm  Tm0  1  0.437564  0.231157  0.206406  1
  Tm  Tm1  1  0.562436  0.768843  0.793594  1
  Tm  Tm2  1  0.024751  0.231157  0.793594  1
  Tm  Tm3  1  0.975249  0.768843  0.206406  1
  Tm  Tm4  1  0.184311  0.289316  0.473628  1
  Tm  Tm5  1  0.815689  0.710684  0.526372  1
  Tm  Tm6  1  0.184311  0.710684  0.894995  1
  Tm  Tm7  1  0.815689  0.289316  0.105005  1
  Tm  Tm8  1  0.318674  0.624629  0.305954  1
  Tm  Tm9  1  0.681326  0.375371  0.694046  1
  Tm  Tm10  1  0.318674  0.012720  0.694046  1
  Tm  Tm11  1  0.681326  0.987280  0.305954  1
  In  In12  1  0.500000  0.500000  0.000000  1
  Co  Co13  1  0.115074  0.615074  0.500000  1
  Co  Co14  1  0.884926  0.384926  0.500000  1
  Ni  Ni15  1  0.363486  0.000000  0.363486  1
  Ni  Ni16  1  0.636514  0.000000  0.636514  1
  Hg  Hg17  1  0.000000  0.000000  0.000000  1
