# generated using pymatgen
data_Tb2Ho2Lu2GaCo2
_symmetry_space_group_name_H-M   'P 1'
_cell_length_a   8.19332709
_cell_length_b   8.19330817
_cell_length_c   8.19332806
_cell_angle_alpha   106.88941322
_cell_angle_beta   109.26612140
_cell_angle_gamma   112.30395569
_symmetry_Int_Tables_number   1
_chemical_formula_structural   Tb2Ho2Lu2GaCo2
_chemical_formula_sum   'Tb4 Ho4 Lu4 Ga2 Co4'
_cell_volume   422.45339734
_cell_formula_units_Z   2
loop_
 _symmetry_equiv_pos_site_id
 _symmetry_equiv_pos_as_xyz
  1  'x, y, z'
loop_
 _atom_site_type_symbol
 _atom_site_label
 _atom_site_symmetry_multiplicity
 _atom_site_fract_x
 _atom_site_fract_y
 _atom_site_fract_z
 _atom_site_occupancy
  Tb  Tb0  1  0.698541  0.260988  0.959531  1
  Tb  Tb1  1  0.301459  0.739012  0.040469  1
  Tb  Tb2  1  0.698543  0.739012  0.437555  1
  Tb  Tb3  1  0.301457  0.260988  0.562445  1
  Ho  Ho4  1  0.601183  0.780850  0.820333  1
  Ho  Ho5  1  0.960517  0.780850  0.179667  1
  Ho  Ho6  1  0.039483  0.219150  0.820333  1
  Ho  Ho7  1  0.398817  0.219150  0.179667  1
  Lu  Lu8  1  0.812989  0.141153  0.328165  1
  Lu  Lu9  1  0.812980  0.484812  0.671831  1
  Lu  Lu10  1  0.187011  0.858847  0.671835  1
  Lu  Lu11  1  0.187020  0.515188  0.328169  1
  Ga  Ga12  1  0.500000  0.500000  0.000000  1
  Ga  Ga13  1  0.500000  0.000000  0.500000  1
  Co  Co14  1  0.840406  0.500000  0.340406  1
  Co  Co15  1  0.159594  0.500000  0.659594  1
  Co  Co16  1  0.999999  0.116021  0.116022  1
  Co  Co17  1  0.000001  0.883979  0.883978  1
