# generated using pymatgen
data_Cs3K5(HfSe4)2
_symmetry_space_group_name_H-M   'P 1'
_cell_length_a   8.47376600
_cell_length_b   10.63292600
_cell_length_c   16.14697300
_cell_angle_alpha   90.00000000
_cell_angle_beta   90.00000000
_cell_angle_gamma   90.00000000
_symmetry_Int_Tables_number   1
_chemical_formula_structural   Cs3K5(HfSe4)2
_chemical_formula_sum   'Cs6 K10 Hf4 Se16'
_cell_volume   1454.85723263
_cell_formula_units_Z   2
loop_
 _symmetry_equiv_pos_site_id
 _symmetry_equiv_pos_as_xyz
  1  'x, y, z'
loop_
 _atom_site_type_symbol
 _atom_site_label
 _atom_site_symmetry_multiplicity
 _atom_site_fract_x
 _atom_site_fract_y
 _atom_site_fract_z
 _atom_site_occupancy
  Cs  Cs0  1  0.001253  0.998054  0.998747  1
  Cs  Cs1  1  0.501253  0.001946  0.501253  1
  Cs  Cs2  1  0.001253  0.501946  0.998747  1
  Cs  Cs3  1  0.501253  0.498054  0.501253  1
  Cs  Cs4  1  0.991073  0.750000  0.430781  1
  Cs  Cs5  1  0.491073  0.250000  0.069219  1
  K  K6  1  0.030519  0.250000  0.567169  1
  K  K7  1  0.530519  0.750000  0.932831  1
  K  K8  1  0.830282  0.056825  0.267797  1
  K  K9  1  0.330282  0.943175  0.232203  1
  K  K10  1  0.168240  0.559518  0.732762  1
  K  K11  1  0.668240  0.440482  0.767238  1
  K  K12  1  0.168240  0.940482  0.732762  1
  K  K13  1  0.668240  0.059518  0.767238  1
  K  K14  1  0.830282  0.443175  0.267797  1
  K  K15  1  0.330282  0.556825  0.232203  1
  Hf  Hf16  1  0.770087  0.750000  0.677338  1
  Hf  Hf17  1  0.226374  0.250000  0.325441  1
  Hf  Hf18  1  0.726374  0.750000  0.174559  1
  Hf  Hf19  1  0.270087  0.250000  0.822662  1
  Se  Se20  1  0.972183  0.250000  0.820150  1
  Se  Se21  1  0.524764  0.250000  0.318873  1
  Se  Se22  1  0.472183  0.750000  0.679850  1
  Se  Se23  1  0.024764  0.750000  0.181127  1
  Se  Se24  1  0.631097  0.558470  0.099643  1
  Se  Se25  1  0.131097  0.441530  0.400357  1
  Se  Se26  1  0.367413  0.054270  0.894396  1
  Se  Se27  1  0.867413  0.945730  0.605604  1
  Se  Se28  1  0.367413  0.445730  0.894396  1
  Se  Se29  1  0.867413  0.554270  0.605604  1
  Se  Se30  1  0.631097  0.941530  0.099643  1
  Se  Se31  1  0.131097  0.058470  0.400357  1
  Se  Se32  1  0.608862  0.750000  0.319339  1
  Se  Se33  1  0.108862  0.250000  0.180661  1
  Se  Se34  1  0.379569  0.250000  0.676182  1
  Se  Se35  1  0.879569  0.750000  0.823818  1
