# generated using pymatgen
data_NaEu4Sb3O
_symmetry_space_group_name_H-M   'P 1'
_cell_length_a   9.73665575
_cell_length_b   9.73665662
_cell_length_c   9.73665600
_cell_angle_alpha   130.75677718
_cell_angle_beta   130.75677383
_cell_angle_gamma   72.19979746
_symmetry_Int_Tables_number   1
_chemical_formula_structural   NaEu4Sb3O
_chemical_formula_sum   'Na2 Eu8 Sb6 O2'
_cell_volume   517.82614908
_cell_formula_units_Z   2
loop_
 _symmetry_equiv_pos_site_id
 _symmetry_equiv_pos_as_xyz
  1  'x, y, z'
loop_
 _atom_site_type_symbol
 _atom_site_label
 _atom_site_symmetry_multiplicity
 _atom_site_fract_x
 _atom_site_fract_y
 _atom_site_fract_z
 _atom_site_occupancy
  Na  Na0  1  0.500000  0.500000  0.000000  1
  Na  Na1  1  0.000000  0.000000  0.000000  1
  Eu  Eu2  1  0.810520  0.996699  0.500000  1
  Eu  Eu3  1  0.496699  0.310520  0.500000  1
  Eu  Eu4  1  0.996699  0.496699  0.186180  1
  Eu  Eu5  1  0.189480  0.003301  0.500000  1
  Eu  Eu6  1  0.689480  0.189480  0.186180  1
  Eu  Eu7  1  0.003301  0.503301  0.813820  1
  Eu  Eu8  1  0.310520  0.810520  0.813820  1
  Eu  Eu9  1  0.503301  0.689480  0.500000  1
  Sb  Sb10  1  0.869896  0.630104  0.500000  1
  Sb  Sb11  1  0.250000  0.250000  0.000000  1
  Sb  Sb12  1  0.369896  0.869896  0.239793  1
  Sb  Sb13  1  0.630104  0.130104  0.760207  1
  Sb  Sb14  1  0.130104  0.369896  0.500000  1
  Sb  Sb15  1  0.750000  0.750000  0.000000  1
  O  O16  1  0.250000  0.750000  0.500000  1
  O  O17  1  0.750000  0.250000  0.500000  1
