# generated using pymatgen
data_Ho8Er12Si15Os
_symmetry_space_group_name_H-M   'P 1'
_cell_length_a   7.33776100
_cell_length_b   7.72395994
_cell_length_c   14.50026900
_cell_angle_alpha   90.00000000
_cell_angle_beta   90.00000000
_cell_angle_gamma   90.09193784
_symmetry_Int_Tables_number   1
_chemical_formula_structural   Ho8Er12Si15Os
_chemical_formula_sum   'Ho8 Er12 Si15 Os1'
_cell_volume   821.82448258
_cell_formula_units_Z   1
loop_
 _symmetry_equiv_pos_site_id
 _symmetry_equiv_pos_as_xyz
  1  'x, y, z'
loop_
 _atom_site_type_symbol
 _atom_site_label
 _atom_site_symmetry_multiplicity
 _atom_site_fract_x
 _atom_site_fract_y
 _atom_site_fract_z
 _atom_site_occupancy
  Ho  Ho0  1  0.024149  0.185278  0.097761  1
  Ho  Ho1  1  0.980031  0.827850  0.903615  1
  Ho  Ho2  1  0.477300  0.680778  0.904140  1
  Ho  Ho3  1  0.980031  0.827850  0.596385  1
  Ho  Ho4  1  0.523305  0.317917  0.097366  1
  Ho  Ho5  1  0.024149  0.185278  0.402239  1
  Ho  Ho6  1  0.523305  0.317917  0.402634  1
  Ho  Ho7  1  0.477300  0.680778  0.595860  1
  Er  Er8  1  0.148748  0.512111  0.750000  1
  Er  Er9  1  0.846904  0.488788  0.250000  1
  Er  Er10  1  0.347356  0.014530  0.250000  1
  Er  Er11  1  0.660693  0.986660  0.750000  1
  Er  Er12  1  0.309490  0.174236  0.626531  1
  Er  Er13  1  0.681120  0.824221  0.375779  1
  Er  Er14  1  0.179425  0.680288  0.375980  1
  Er  Er15  1  0.681120  0.824221  0.124221  1
  Er  Er16  1  0.831308  0.313081  0.626014  1
  Er  Er17  1  0.309490  0.174236  0.873469  1
  Er  Er18  1  0.831308  0.313081  0.873986  1
  Er  Er19  1  0.179425  0.680288  0.124020  1
  Si  Si20  1  0.976470  0.894738  0.250000  1
  Si  Si21  1  0.478113  0.607854  0.250000  1
  Si  Si22  1  0.522339  0.397022  0.750000  1
  Si  Si23  1  0.273416  0.864925  0.750000  1
  Si  Si24  1  0.726169  0.132084  0.250000  1
  Si  Si25  1  0.228153  0.370541  0.250000  1
  Si  Si26  1  0.762348  0.623203  0.750000  1
  Si  Si27  1  0.153536  0.473928  0.538360  1
  Si  Si28  1  0.849847  0.530667  0.461365  1
  Si  Si29  1  0.348758  0.970944  0.460253  1
  Si  Si30  1  0.849847  0.530667  0.038635  1
  Si  Si31  1  0.645496  0.029016  0.538888  1
  Si  Si32  1  0.153536  0.473928  0.961640  1
  Si  Si33  1  0.645496  0.029016  0.961112  1
  Si  Si34  1  0.348758  0.970944  0.039747  1
  Os  Os35  1  0.021754  0.091134  0.750000  1
