# generated using pymatgen
data_Nd3Ag2Hg3Ir
_symmetry_space_group_name_H-M   'P 1'
_cell_length_a   8.13871300
_cell_length_b   8.13871257
_cell_length_c   3.83618800
_cell_angle_alpha   90.00000000
_cell_angle_beta   90.00000000
_cell_angle_gamma   119.99999770
_symmetry_Int_Tables_number   1
_chemical_formula_structural   Nd3Ag2Hg3Ir
_chemical_formula_sum   'Nd3 Ag2 Hg3 Ir1'
_cell_volume   220.06043600
_cell_formula_units_Z   1
loop_
 _symmetry_equiv_pos_site_id
 _symmetry_equiv_pos_as_xyz
  1  'x, y, z'
loop_
 _atom_site_type_symbol
 _atom_site_label
 _atom_site_symmetry_multiplicity
 _atom_site_fract_x
 _atom_site_fract_y
 _atom_site_fract_z
 _atom_site_occupancy
  Nd  Nd0  1  0.580606  0.967812  0.000000  1
  Nd  Nd1  1  0.032188  0.612794  0.000000  1
  Nd  Nd2  1  0.387206  0.419394  0.000000  1
  Ag  Ag3  1  0.666667  0.333333  0.500000  1
  Ag  Ag4  1  0.000000  0.000000  0.000000  1
  Hg  Hg5  1  0.275320  0.008505  0.500000  1
  Hg  Hg6  1  0.991495  0.266815  0.500000  1
  Hg  Hg7  1  0.733185  0.724680  0.500000  1
  Ir  Ir8  1  0.333333  0.666667  0.500000  1
