# generated using pymatgen
data_Rb7PaBi4
_symmetry_space_group_name_H-M   'P 1'
_cell_length_a   9.45221300
_cell_length_b   10.66112100
_cell_length_c   11.77955500
_cell_angle_alpha   90.00000000
_cell_angle_beta   90.00000000
_cell_angle_gamma   90.00000000
_symmetry_Int_Tables_number   1
_chemical_formula_structural   Rb7PaBi4
_chemical_formula_sum   'Rb14 Pa2 Bi8'
_cell_volume   1187.03973392
_cell_formula_units_Z   2
loop_
 _symmetry_equiv_pos_site_id
 _symmetry_equiv_pos_as_xyz
  1  'x, y, z'
loop_
 _atom_site_type_symbol
 _atom_site_label
 _atom_site_symmetry_multiplicity
 _atom_site_fract_x
 _atom_site_fract_y
 _atom_site_fract_z
 _atom_site_occupancy
  Rb  Rb0  1  0.876646  0.032015  0.000000  1
  Rb  Rb1  1  0.706981  0.834888  0.719201  1
  Rb  Rb2  1  0.393544  0.907661  0.000000  1
  Rb  Rb3  1  0.376646  0.967985  0.500000  1
  Rb  Rb4  1  0.875161  0.462033  0.288854  1
  Rb  Rb5  1  0.893544  0.092339  0.500000  1
  Rb  Rb6  1  0.656779  0.333955  0.000000  1
  Rb  Rb7  1  0.156779  0.666045  0.500000  1
  Rb  Rb8  1  0.206981  0.165112  0.219201  1
  Rb  Rb9  1  0.375161  0.537967  0.211146  1
  Rb  Rb10  1  0.375161  0.537967  0.788854  1
  Rb  Rb11  1  0.875161  0.462033  0.711146  1
  Rb  Rb12  1  0.706981  0.834888  0.280799  1
  Rb  Rb13  1  0.206981  0.165112  0.780799  1
  Pa  Pa14  1  0.005796  0.672423  0.000000  1
  Pa  Pa15  1  0.505796  0.327577  0.500000  1
  Bi  Bi16  1  0.684865  0.676295  0.000000  1
  Bi  Bi17  1  0.184865  0.323705  0.500000  1
  Bi  Bi18  1  0.079192  0.394264  0.000000  1
  Bi  Bi19  1  0.579192  0.605736  0.500000  1
  Bi  Bi20  1  0.099998  0.816639  0.213056  1
  Bi  Bi21  1  0.599998  0.183361  0.286944  1
  Bi  Bi22  1  0.599998  0.183361  0.713056  1
  Bi  Bi23  1  0.099998  0.816639  0.786944  1
