# generated using pymatgen
data_Dy5YAl24(Os3Pd)2
_symmetry_space_group_name_H-M   'P 1'
_cell_length_a   8.79931682
_cell_length_b   8.85732439
_cell_length_c   9.57484900
_cell_angle_alpha   90.00000000
_cell_angle_beta   90.00000000
_cell_angle_gamma   119.74694652
_symmetry_Int_Tables_number   1
_chemical_formula_structural   Dy5YAl24(Os3Pd)2
_chemical_formula_sum   'Dy5 Y1 Al24 Os6 Pd2'
_cell_volume   647.91174818
_cell_formula_units_Z   1
loop_
 _symmetry_equiv_pos_site_id
 _symmetry_equiv_pos_as_xyz
  1  'x, y, z'
loop_
 _atom_site_type_symbol
 _atom_site_label
 _atom_site_symmetry_multiplicity
 _atom_site_fract_x
 _atom_site_fract_y
 _atom_site_fract_z
 _atom_site_occupancy
  Dy  Dy0  1  0.197142  0.383285  0.250000  1
  Dy  Dy1  1  0.802723  0.616640  0.750000  1
  Dy  Dy2  1  0.610822  0.806552  0.250000  1
  Dy  Dy3  1  0.389057  0.193516  0.750000  1
  Dy  Dy4  1  0.197509  0.812970  0.250000  1
  Y  Y5  1  0.803398  0.187289  0.750000  1
  Al  Al6  1  0.337550  0.669160  0.023423  1
  Al  Al7  1  0.662297  0.330681  0.976719  1
  Al  Al8  1  0.662297  0.330681  0.523281  1
  Al  Al9  1  0.337550  0.669160  0.476577  1
  Al  Al10  1  0.168073  0.324464  0.577678  1
  Al  Al11  1  0.832073  0.675645  0.422170  1
  Al  Al12  1  0.671478  0.834694  0.576248  1
  Al  Al13  1  0.832073  0.675645  0.077830  1
  Al  Al14  1  0.328353  0.165246  0.423533  1
  Al  Al15  1  0.168073  0.324464  0.922322  1
  Al  Al16  1  0.166950  0.842121  0.577716  1
  Al  Al17  1  0.328353  0.165246  0.076467  1
  Al  Al18  1  0.832895  0.157809  0.422059  1
  Al  Al19  1  0.671478  0.834694  0.923752  1
  Al  Al20  1  0.832895  0.157809  0.077941  1
  Al  Al21  1  0.166950  0.842121  0.922284  1
  Al  Al22  1  0.561310  0.124609  0.250000  1
  Al  Al23  1  0.438775  0.875717  0.750000  1
  Al  Al24  1  0.877274  0.439022  0.250000  1
  Al  Al25  1  0.122817  0.561204  0.750000  1
  Al  Al26  1  0.561939  0.438181  0.250000  1
  Al  Al27  1  0.438000  0.561917  0.750000  1
  Al  Al28  1  0.002293  0.002305  0.250000  1
  Al  Al29  1  0.998222  0.997193  0.750000  1
  Os  Os30  1  0.499762  0.999855  0.000225  1
  Os  Os31  1  0.499762  0.999855  0.499775  1
  Os  Os32  1  0.500025  0.500017  0.999983  1
  Os  Os33  1  0.500025  0.500017  0.500017  1
  Os  Os34  1  0.999910  0.000078  0.999960  1
  Os  Os35  1  0.999910  0.000078  0.500040  1
  Pd  Pd36  1  0.999994  0.500028  0.000049  1
  Pd  Pd37  1  0.999994  0.500028  0.499951  1
