# generated using pymatgen
data_HoLuHf2CN3
_symmetry_space_group_name_H-M   'P 1'
_cell_length_a   11.04784850
_cell_length_b   11.04784881
_cell_length_c   11.04784838
_cell_angle_alpha   17.24905098
_cell_angle_beta   17.24904733
_cell_angle_gamma   17.24905178
_symmetry_Int_Tables_number   1
_chemical_formula_structural   HoLuHf2CN3
_chemical_formula_sum   'Ho1 Lu1 Hf2 C1 N3'
_cell_volume   103.45604134
_cell_formula_units_Z   1
loop_
 _symmetry_equiv_pos_site_id
 _symmetry_equiv_pos_as_xyz
  1  'x, y, z'
loop_
 _atom_site_type_symbol
 _atom_site_label
 _atom_site_symmetry_multiplicity
 _atom_site_fract_x
 _atom_site_fract_y
 _atom_site_fract_z
 _atom_site_occupancy
  Ho  Ho0  1  0.124313  0.124313  0.124313  1
  Lu  Lu1  1  0.876355  0.876355  0.876355  1
  Hf  Hf2  1  0.372913  0.372913  0.372913  1
  Hf  Hf3  1  0.626399  0.626399  0.626399  1
  C  C4  1  0.999580  0.999580  0.999580  1
  N  N5  1  0.252815  0.252815  0.252815  1
  N  N6  1  0.501533  0.501533  0.501533  1
  N  N7  1  0.746092  0.746092  0.746092  1
