# generated using pymatgen
data_Tb3Dy7Cd3In4HgPd4
_symmetry_space_group_name_H-M   'P 1'
_cell_length_a   3.63557400
_cell_length_b   8.04210875
_cell_length_c   18.37308400
_cell_angle_alpha   89.95257951
_cell_angle_beta   90.00000000
_cell_angle_gamma   90.00000000
_symmetry_Int_Tables_number   1
_chemical_formula_structural   Tb3Dy7Cd3In4HgPd4
_chemical_formula_sum   'Tb3 Dy7 Cd3 In4 Hg1 Pd4'
_cell_volume   537.18619405
_cell_formula_units_Z   1
loop_
 _symmetry_equiv_pos_site_id
 _symmetry_equiv_pos_as_xyz
  1  'x, y, z'
loop_
 _atom_site_type_symbol
 _atom_site_label
 _atom_site_symmetry_multiplicity
 _atom_site_fract_x
 _atom_site_fract_y
 _atom_site_fract_z
 _atom_site_occupancy
  Tb  Tb0  1  0.000000  0.496794  0.500997  1
  Tb  Tb1  1  0.000000  0.000004  0.999828  1
  Tb  Tb2  1  0.000000  0.742855  0.283013  1
  Dy  Dy3  1  0.000000  0.257460  0.715701  1
  Dy  Dy4  1  0.000000  0.757134  0.783071  1
  Dy  Dy5  1  0.000000  0.242559  0.216886  1
  Dy  Dy6  1  0.000000  0.611620  0.083824  1
  Dy  Dy7  1  0.000000  0.388055  0.915720  1
  Dy  Dy8  1  0.000000  0.891223  0.584047  1
  Dy  Dy9  1  0.000000  0.112446  0.416598  1
  Cd  Cd10  1  0.500000  0.710955  0.932370  1
  Cd  Cd11  1  0.500000  0.288713  0.067517  1
  Cd  Cd12  1  0.500000  0.787918  0.432886  1
  In  In13  1  0.500000  0.581722  0.649133  1
  In  In14  1  0.500000  0.420312  0.351052  1
  In  In15  1  0.500000  0.921092  0.148443  1
  In  In16  1  0.500000  0.079079  0.850984  1
  Hg  Hg17  1  0.500000  0.211359  0.567221  1
  Pd  Pd18  1  0.500000  0.527494  0.196979  1
  Pd  Pd19  1  0.500000  0.471150  0.802502  1
  Pd  Pd20  1  0.500000  0.970247  0.698142  1
  Pd  Pd21  1  0.500000  0.029809  0.303086  1
