# generated using pymatgen
data_InFe2BO5
_symmetry_space_group_name_H-M   'P 1'
_cell_length_a   3.26809500
_cell_length_b   9.76740200
_cell_length_c   12.71547800
_cell_angle_alpha   90.00000000
_cell_angle_beta   90.00000000
_cell_angle_gamma   90.00000000
_symmetry_Int_Tables_number   1
_chemical_formula_structural   InFe2BO5
_chemical_formula_sum   'In4 Fe8 B4 O20'
_cell_volume   405.88820012
_cell_formula_units_Z   4
loop_
 _symmetry_equiv_pos_site_id
 _symmetry_equiv_pos_as_xyz
  1  'x, y, z'
loop_
 _atom_site_type_symbol
 _atom_site_label
 _atom_site_symmetry_multiplicity
 _atom_site_fract_x
 _atom_site_fract_y
 _atom_site_fract_z
 _atom_site_occupancy
  In  In0  1  0.000000  0.742524  0.383562  1
  In  In1  1  0.000000  0.257476  0.616438  1
  In  In2  1  0.000000  0.242524  0.116438  1
  In  In3  1  0.000000  0.757476  0.883562  1
  Fe  Fe4  1  0.500000  0.505869  0.220246  1
  Fe  Fe5  1  0.500000  0.494131  0.779754  1
  Fe  Fe6  1  0.500000  0.005869  0.279754  1
  Fe  Fe7  1  0.500000  0.994131  0.720246  1
  Fe  Fe8  1  0.500000  0.500000  0.500000  1
  Fe  Fe9  1  0.500000  0.000000  0.000000  1
  Fe  Fe10  1  0.000000  0.000000  0.500000  1
  Fe  Fe11  1  0.000000  0.500000  0.000000  1
  B  B12  1  0.000000  0.773911  0.138157  1
  B  B13  1  0.000000  0.226089  0.861843  1
  B  B14  1  0.000000  0.273911  0.361843  1
  B  B15  1  0.000000  0.726089  0.638157  1
  O  O16  1  0.000000  0.848141  0.044141  1
  O  O17  1  0.000000  0.151859  0.955859  1
  O  O18  1  0.000000  0.348141  0.455859  1
  O  O19  1  0.000000  0.651859  0.544141  1
  O  O20  1  0.500000  0.602413  0.358980  1
  O  O21  1  0.500000  0.397587  0.641020  1
  O  O22  1  0.500000  0.102413  0.141020  1
  O  O23  1  0.500000  0.897587  0.858980  1
  O  O24  1  0.000000  0.631522  0.140209  1
  O  O25  1  0.000000  0.368478  0.859791  1
  O  O26  1  0.000000  0.131522  0.359791  1
  O  O27  1  0.000000  0.868478  0.640209  1
  O  O28  1  0.500000  0.894377  0.417708  1
  O  O29  1  0.500000  0.105623  0.582292  1
  O  O30  1  0.500000  0.394377  0.082292  1
  O  O31  1  0.500000  0.605623  0.917708  1
  O  O32  1  0.000000  0.849216  0.231789  1
  O  O33  1  0.000000  0.150784  0.768211  1
  O  O34  1  0.000000  0.349216  0.268211  1
  O  O35  1  0.000000  0.650784  0.731789  1
