# generated using pymatgen
data_Dy6Er2Sc11Si16Ag
_symmetry_space_group_name_H-M   'P 1'
_cell_length_a   7.02599549
_cell_length_b   7.38416382
_cell_length_c   14.00418998
_cell_angle_alpha   89.94639234
_cell_angle_beta   89.97098970
_cell_angle_gamma   89.88106346
_symmetry_Int_Tables_number   1
_chemical_formula_structural   Dy6Er2Sc11Si16Ag
_chemical_formula_sum   'Dy6 Er2 Sc11 Si16 Ag1'
_cell_volume   726.55082808
_cell_formula_units_Z   1
loop_
 _symmetry_equiv_pos_site_id
 _symmetry_equiv_pos_as_xyz
  1  'x, y, z'
loop_
 _atom_site_type_symbol
 _atom_site_label
 _atom_site_symmetry_multiplicity
 _atom_site_fract_x
 _atom_site_fract_y
 _atom_site_fract_z
 _atom_site_occupancy
  Dy  Dy0  1  0.484146  0.673212  0.901856  1
  Dy  Dy1  1  0.990039  0.815015  0.598677  1
  Dy  Dy2  1  0.510861  0.323641  0.096155  1
  Dy  Dy3  1  0.011122  0.175033  0.403689  1
  Dy  Dy4  1  0.510840  0.323733  0.403099  1
  Dy  Dy5  1  0.484534  0.673240  0.598831  1
  Er  Er6  1  0.011234  0.175701  0.096239  1
  Er  Er7  1  0.989458  0.814463  0.901218  1
  Sc  Sc8  1  0.838489  0.497487  0.249630  1
  Sc  Sc9  1  0.340367  0.003462  0.249728  1
  Sc  Sc10  1  0.656907  0.997826  0.750198  1
  Sc  Sc11  1  0.324924  0.182264  0.627188  1
  Sc  Sc12  1  0.671646  0.823905  0.374919  1
  Sc  Sc13  1  0.170430  0.678886  0.373746  1
  Sc  Sc14  1  0.671769  0.824380  0.124661  1
  Sc  Sc15  1  0.837060  0.327274  0.626982  1
  Sc  Sc16  1  0.324815  0.182074  0.873306  1
  Sc  Sc17  1  0.836840  0.326635  0.873448  1
  Sc  Sc18  1  0.170232  0.679282  0.125810  1
  Si  Si19  1  0.026802  0.097857  0.750539  1
  Si  Si20  1  0.969333  0.888325  0.249562  1
  Si  Si21  1  0.467608  0.617839  0.249722  1
  Si  Si22  1  0.537568  0.383924  0.750310  1
  Si  Si23  1  0.287374  0.882319  0.750587  1
  Si  Si24  1  0.714386  0.128098  0.249331  1
  Si  Si25  1  0.212254  0.372236  0.249391  1
  Si  Si26  1  0.776980  0.628900  0.750506  1
  Si  Si27  1  0.161707  0.459859  0.531249  1
  Si  Si28  1  0.843201  0.535169  0.461779  1
  Si  Si29  1  0.344948  0.965120  0.462913  1
  Si  Si30  1  0.843416  0.535337  0.038192  1
  Si  Si31  1  0.657209  0.034235  0.540434  1
  Si  Si32  1  0.160915  0.460022  0.968516  1
  Si  Si33  1  0.658146  0.033636  0.959510  1
  Si  Si34  1  0.343847  0.965773  0.037272  1
  Ag  Ag35  1  0.158591  0.513831  0.750808  1
