# generated using pymatgen
data_Tb3MgCd2Ag2Ir
_symmetry_space_group_name_H-M   'P 1'
_cell_length_a   7.94992705
_cell_length_b   7.91526121
_cell_length_c   3.83057300
_cell_angle_alpha   90.00000000
_cell_angle_beta   90.00000000
_cell_angle_gamma   120.37920688
_symmetry_Int_Tables_number   1
_chemical_formula_structural   Tb3MgCd2Ag2Ir
_chemical_formula_sum   'Tb3 Mg1 Cd2 Ag2 Ir1'
_cell_volume   207.94599238
_cell_formula_units_Z   1
loop_
 _symmetry_equiv_pos_site_id
 _symmetry_equiv_pos_as_xyz
  1  'x, y, z'
loop_
 _atom_site_type_symbol
 _atom_site_label
 _atom_site_symmetry_multiplicity
 _atom_site_fract_x
 _atom_site_fract_y
 _atom_site_fract_z
 _atom_site_occupancy
  Tb  Tb0  1  0.574292  0.973151  0.000000  1
  Tb  Tb1  1  0.042157  0.607020  0.000000  1
  Tb  Tb2  1  0.384121  0.417994  0.000000  1
  Mg  Mg3  1  0.739753  0.738793  0.500000  1
  Cd  Cd4  1  0.264390  0.004149  0.500000  1
  Cd  Cd5  1  0.990384  0.257601  0.500000  1
  Ag  Ag6  1  0.668001  0.341886  0.500000  1
  Ag  Ag7  1  0.991982  0.990718  0.000000  1
  Ir  Ir8  1  0.344918  0.668689  0.500000  1
