# generated using pymatgen
data_Dy3YMn3VB16
_symmetry_space_group_name_H-M   'P 1'
_cell_length_a   3.42973100
_cell_length_b   5.92917524
_cell_length_c   11.46189633
_cell_angle_alpha   90.03616657
_cell_angle_beta   90.00000000
_cell_angle_gamma   90.00000000
_symmetry_Int_Tables_number   1
_chemical_formula_structural   Dy3YMn3VB16
_chemical_formula_sum   'Dy3 Y1 Mn3 V1 B16'
_cell_volume   233.08307284
_cell_formula_units_Z   1
loop_
 _symmetry_equiv_pos_site_id
 _symmetry_equiv_pos_as_xyz
  1  'x, y, z'
loop_
 _atom_site_type_symbol
 _atom_site_label
 _atom_site_symmetry_multiplicity
 _atom_site_fract_x
 _atom_site_fract_y
 _atom_site_fract_z
 _atom_site_occupancy
  Dy  Dy0  1  0.000000  0.626125  0.350947  1
  Dy  Dy1  1  0.000000  0.374097  0.650078  1
  Dy  Dy2  1  0.000000  0.124966  0.151403  1
  Y  Y3  1  0.000000  0.876504  0.847992  1
  Mn  Mn4  1  0.000000  0.376989  0.917761  1
  Mn  Mn5  1  0.000000  0.127502  0.417917  1
  Mn  Mn6  1  0.000000  0.872259  0.584272  1
  V  V7  1  0.000000  0.624012  0.080941  1
  B  B8  1  0.500000  0.784040  0.186170  1
  B  B9  1  0.500000  0.220712  0.816349  1
  B  B10  1  0.500000  0.279594  0.317263  1
  B  B11  1  0.500000  0.719334  0.683279  1
  B  B12  1  0.500000  0.865025  0.031239  1
  B  B13  1  0.500000  0.138533  0.965962  1
  B  B14  1  0.500000  0.361414  0.468180  1
  B  B15  1  0.500000  0.638387  0.532534  1
  B  B16  1  0.500000  0.887809  0.454392  1
  B  B17  1  0.500000  0.111929  0.546762  1
  B  B18  1  0.500000  0.383787  0.044315  1
  B  B19  1  0.500000  0.610094  0.951008  1
  B  B20  1  0.500000  0.975638  0.310126  1
  B  B21  1  0.500000  0.025402  0.690684  1
  B  B22  1  0.500000  0.472768  0.192241  1
  B  B23  1  0.500000  0.523082  0.808186  1
