# generated using pymatgen
data_Tb2Dy14Cd4Ni3Os
_symmetry_space_group_name_H-M   'P 1'
_cell_length_a   9.57676603
_cell_length_b   9.57676621
_cell_length_c   9.57633602
_cell_angle_alpha   59.55822009
_cell_angle_beta   59.55821685
_cell_angle_gamma   59.55766706
_symmetry_Int_Tables_number   1
_chemical_formula_structural   Tb2Dy14Cd4Ni3Os
_chemical_formula_sum   'Tb2 Dy14 Cd4 Ni3 Os1'
_cell_volume   614.80346871
_cell_formula_units_Z   1
loop_
 _symmetry_equiv_pos_site_id
 _symmetry_equiv_pos_as_xyz
  1  'x, y, z'
loop_
 _atom_site_type_symbol
 _atom_site_label
 _atom_site_symmetry_multiplicity
 _atom_site_fract_x
 _atom_site_fract_y
 _atom_site_fract_z
 _atom_site_occupancy
  Tb  Tb0  1  0.597419  0.597419  0.597535  1
  Tb  Tb1  1  0.601345  0.601345  0.202971  1
  Dy  Dy2  1  0.601253  0.203123  0.601274  1
  Dy  Dy3  1  0.203123  0.601253  0.601274  1
  Dy  Dy4  1  0.060340  0.438371  0.438334  1
  Dy  Dy5  1  0.436687  0.061375  0.061286  1
  Dy  Dy6  1  0.438371  0.060340  0.438334  1
  Dy  Dy7  1  0.061375  0.436687  0.061286  1
  Dy  Dy8  1  0.438320  0.438320  0.060298  1
  Dy  Dy9  1  0.061300  0.061300  0.436692  1
  Dy  Dy10  1  0.185983  0.815877  0.815891  1
  Dy  Dy11  1  0.806366  0.189075  0.189113  1
  Dy  Dy12  1  0.815877  0.185983  0.815891  1
  Dy  Dy13  1  0.189075  0.806366  0.189113  1
  Dy  Dy14  1  0.815912  0.815912  0.185943  1
  Dy  Dy15  1  0.189143  0.189143  0.806320  1
  Cd  Cd16  1  0.830218  0.830218  0.830039  1
  Cd  Cd17  1  0.830100  0.830100  0.505627  1
  Cd  Cd18  1  0.830119  0.505615  0.830028  1
  Cd  Cd19  1  0.505615  0.830119  0.830028  1
  Ni  Ni20  1  0.392062  0.392062  0.824976  1
  Ni  Ni21  1  0.391948  0.825099  0.392183  1
  Ni  Ni22  1  0.825099  0.391948  0.392183  1
  Os  Os23  1  0.392948  0.392948  0.393383  1
