# generated using pymatgen
data_K2Np(SO)2
_symmetry_space_group_name_H-M   'P 1'
_cell_length_a   7.03351758
_cell_length_b   7.03351779
_cell_length_c   8.16971244
_cell_angle_alpha   72.34188829
_cell_angle_beta   72.34189099
_cell_angle_gamma   63.37660853
_symmetry_Int_Tables_number   1
_chemical_formula_structural   K2Np(SO)2
_chemical_formula_sum   'K4 Np2 S4 O4'
_cell_volume   337.56937192
_cell_formula_units_Z   2
loop_
 _symmetry_equiv_pos_site_id
 _symmetry_equiv_pos_as_xyz
  1  'x, y, z'
loop_
 _atom_site_type_symbol
 _atom_site_label
 _atom_site_symmetry_multiplicity
 _atom_site_fract_x
 _atom_site_fract_y
 _atom_site_fract_z
 _atom_site_occupancy
  K  K0  1  0.684805  0.671278  0.666184  1
  K  K1  1  0.328722  0.315195  0.833816  1
  K  K2  1  0.315195  0.328722  0.333816  1
  K  K3  1  0.671278  0.684805  0.166184  1
  Np  Np4  1  0.002948  0.997052  0.750000  1
  Np  Np5  1  0.997052  0.002948  0.250000  1
  S  S6  1  0.242010  0.760241  0.001223  1
  S  S7  1  0.239759  0.757990  0.498777  1
  S  S8  1  0.757990  0.239759  0.998777  1
  S  S9  1  0.760241  0.242010  0.501223  1
  O  O10  1  0.168966  0.160091  0.664406  1
  O  O11  1  0.839909  0.831034  0.835594  1
  O  O12  1  0.831034  0.839909  0.335594  1
  O  O13  1  0.160091  0.168966  0.164406  1
