# generated using pymatgen
data_Ca5Sn3F
_symmetry_space_group_name_H-M   'P 1'
_cell_length_a   8.20909700
_cell_length_b   8.20909678
_cell_length_c   9.48042712
_cell_angle_alpha   115.65490562
_cell_angle_beta   115.65491005
_cell_angle_gamma   90.00000036
_symmetry_Int_Tables_number   1
_chemical_formula_structural   Ca5Sn3F
_chemical_formula_sum   'Ca10 Sn6 F2'
_cell_volume   505.12227864
_cell_formula_units_Z   2
loop_
 _symmetry_equiv_pos_site_id
 _symmetry_equiv_pos_as_xyz
  1  'x, y, z'
loop_
 _atom_site_type_symbol
 _atom_site_label
 _atom_site_symmetry_multiplicity
 _atom_site_fract_x
 _atom_site_fract_y
 _atom_site_fract_z
 _atom_site_occupancy
  Ca  Ca0  1  0.000000  0.000000  0.000000  1
  Ca  Ca1  1  0.500000  0.500000  0.000000  1
  Ca  Ca2  1  0.491431  0.312265  0.303697  1
  Ca  Ca3  1  0.991431  0.491431  0.303697  1
  Ca  Ca4  1  0.312265  0.812265  0.303697  1
  Ca  Ca5  1  0.812265  0.991431  0.303697  1
  Ca  Ca6  1  0.187735  0.008569  0.696303  1
  Ca  Ca7  1  0.687734  0.187735  0.696303  1
  Ca  Ca8  1  0.008569  0.508568  0.696303  1
  Ca  Ca9  1  0.508568  0.687734  0.696303  1
  Sn  Sn10  1  0.627797  0.127798  0.000000  1
  Sn  Sn11  1  0.127798  0.372202  0.000000  1
  Sn  Sn12  1  0.872203  0.627797  0.000000  1
  Sn  Sn13  1  0.372202  0.872203  0.000000  1
  Sn  Sn14  1  0.250000  0.250000  0.500000  1
  Sn  Sn15  1  0.750000  0.750000  0.500000  1
  F  F16  1  0.750000  0.250000  0.500000  1
  F  F17  1  0.250000  0.750000  0.500000  1
