# generated using pymatgen
data_NaEr(InCl3)2
_symmetry_space_group_name_H-M   'P 1'
_cell_length_a   7.21582325
_cell_length_b   7.80192300
_cell_length_c   12.60964745
_cell_angle_alpha   90.00000000
_cell_angle_beta   123.90962991
_cell_angle_gamma   90.00000000
_symmetry_Int_Tables_number   1
_chemical_formula_structural   NaEr(InCl3)2
_chemical_formula_sum   'Na2 Er2 In4 Cl12'
_cell_volume   589.15009655
_cell_formula_units_Z   2
loop_
 _symmetry_equiv_pos_site_id
 _symmetry_equiv_pos_as_xyz
  1  'x, y, z'
loop_
 _atom_site_type_symbol
 _atom_site_label
 _atom_site_symmetry_multiplicity
 _atom_site_fract_x
 _atom_site_fract_y
 _atom_site_fract_z
 _atom_site_occupancy
  Na  Na0  1  0.500000  0.000000  0.000000  1
  Na  Na1  1  0.500001  0.500000  0.500000  1
  Er  Er2  1  0.000000  0.500000  0.000000  1
  Er  Er3  1  0.000000  0.000000  0.500000  1
  In  In4  1  0.273813  0.081274  0.250113  1
  In  In5  1  0.726187  0.581274  0.249887  1
  In  In6  1  0.273812  0.418726  0.750113  1
  In  In7  1  0.726187  0.918726  0.749886  1
  Cl  Cl8  1  0.344151  0.319297  0.043844  1
  Cl  Cl9  1  0.230998  0.785162  0.051382  1
  Cl  Cl10  1  0.140061  0.470247  0.242259  1
  Cl  Cl11  1  0.859939  0.970247  0.257741  1
  Cl  Cl12  1  0.769003  0.285162  0.448619  1
  Cl  Cl13  1  0.655849  0.819297  0.456157  1
  Cl  Cl14  1  0.344152  0.180703  0.543844  1
  Cl  Cl15  1  0.230998  0.714838  0.551382  1
  Cl  Cl16  1  0.140060  0.029753  0.742259  1
  Cl  Cl17  1  0.859940  0.529754  0.757741  1
  Cl  Cl18  1  0.769002  0.214838  0.948619  1
  Cl  Cl19  1  0.655848  0.680703  0.956157  1
