# generated using pymatgen
data_La3Cu8Ni7
_symmetry_space_group_name_H-M   'P 1'
_cell_length_a   8.82220345
_cell_length_b   8.82683853
_cell_length_c   4.03461100
_cell_angle_alpha   90.00000000
_cell_angle_beta   90.00000000
_cell_angle_gamma   120.01737124
_symmetry_Int_Tables_number   1
_chemical_formula_structural   La3Cu8Ni7
_chemical_formula_sum   'La3 Cu8 Ni7'
_cell_volume   272.04359398
_cell_formula_units_Z   1
loop_
 _symmetry_equiv_pos_site_id
 _symmetry_equiv_pos_as_xyz
  1  'x, y, z'
loop_
 _atom_site_type_symbol
 _atom_site_label
 _atom_site_symmetry_multiplicity
 _atom_site_fract_x
 _atom_site_fract_y
 _atom_site_fract_z
 _atom_site_occupancy
  La  La0  1  0.671700  0.338088  0.500000  1
  La  La1  1  0.328300  0.666389  0.500000  1
  La  La2  1  0.000000  0.998635  0.000000  1
  Cu  Cu3  1  0.500591  0.500548  0.000000  1
  Cu  Cu4  1  0.499409  0.999958  0.000000  1
  Cu  Cu5  1  0.000000  0.500847  0.000000  1
  Cu  Cu6  1  0.698000  0.697526  0.500000  1
  Cu  Cu7  1  0.302000  0.999527  0.500000  1
  Cu  Cu8  1  0.000000  0.302602  0.500000  1
  Cu  Cu9  1  0.303114  0.303427  0.500000  1
  Cu  Cu10  1  0.696886  0.000312  0.500000  1
  Ni  Ni11  1  0.821710  0.179114  0.000000  1
  Ni  Ni12  1  0.823822  0.644468  0.000000  1
  Ni  Ni13  1  0.360463  0.179830  0.000000  1
  Ni  Ni14  1  0.176178  0.820645  0.000000  1
  Ni  Ni15  1  0.639537  0.819367  0.000000  1
  Ni  Ni16  1  0.178290  0.357403  0.000000  1
  Ni  Ni17  1  0.000000  0.691311  0.500000  1
