# generated using pymatgen
data_NpFeI6
_symmetry_space_group_name_H-M   'P 1'
_cell_length_a   7.75068100
_cell_length_b   7.75068069
_cell_length_c   6.97457200
_cell_angle_alpha   90.00000000
_cell_angle_beta   90.00000000
_cell_angle_gamma   120.00000558
_symmetry_Int_Tables_number   1
_chemical_formula_structural   NpFeI6
_chemical_formula_sum   'Np1 Fe1 I6'
_cell_volume   362.85062667
_cell_formula_units_Z   1
loop_
 _symmetry_equiv_pos_site_id
 _symmetry_equiv_pos_as_xyz
  1  'x, y, z'
loop_
 _atom_site_type_symbol
 _atom_site_label
 _atom_site_symmetry_multiplicity
 _atom_site_fract_x
 _atom_site_fract_y
 _atom_site_fract_z
 _atom_site_occupancy
  Np  Np0  1  0.000000  0.000000  0.500000  1
  Fe  Fe1  1  0.000000  0.000000  0.000000  1
  I  I2  1  0.302172  0.000000  0.230172  1
  I  I3  1  0.697828  0.000000  0.769828  1
  I  I4  1  0.000000  0.302172  0.230172  1
  I  I5  1  0.302172  0.302172  0.769828  1
  I  I6  1  0.000000  0.697828  0.769828  1
  I  I7  1  0.697828  0.697828  0.230172  1
