# generated using pymatgen
data_Dy6Tm6Co4BiOs
_symmetry_space_group_name_H-M   'P 1'
_cell_length_a   8.27349528
_cell_length_b   8.26558718
_cell_length_c   8.26560815
_cell_angle_alpha   110.58430194
_cell_angle_beta   111.22774798
_cell_angle_gamma   106.60177294
_symmetry_Int_Tables_number   1
_chemical_formula_structural   Dy6Tm6Co4BiOs
_chemical_formula_sum   'Dy6 Tm6 Co4 Bi1 Os1'
_cell_volume   434.50839746
_cell_formula_units_Z   1
loop_
 _symmetry_equiv_pos_site_id
 _symmetry_equiv_pos_as_xyz
  1  'x, y, z'
loop_
 _atom_site_type_symbol
 _atom_site_label
 _atom_site_symmetry_multiplicity
 _atom_site_fract_x
 _atom_site_fract_y
 _atom_site_fract_z
 _atom_site_occupancy
  Dy  Dy0  1  0.278305  0.180660  0.460635  1
  Dy  Dy1  1  0.721693  0.819337  0.539364  1
  Dy  Dy2  1  0.278304  0.817668  0.097643  1
  Dy  Dy3  1  0.721693  0.182330  0.902355  1
  Dy  Dy4  1  0.620639  0.311541  0.309098  1
  Dy  Dy5  1  0.379360  0.688459  0.690901  1
  Tm  Tm6  1  0.002025  0.311692  0.690331  1
  Tm  Tm7  1  0.997987  0.688312  0.309672  1
  Tm  Tm8  1  0.214538  0.411810  0.195890  1
  Tm  Tm9  1  0.785460  0.588191  0.804112  1
  Tm  Tm10  1  0.214540  0.018649  0.802727  1
  Tm  Tm11  1  0.785461  0.981350  0.197270  1
  Co  Co12  1  0.999999  0.375014  0.375014  1
  Co  Co13  1  0.999999  0.624991  0.624991  1
  Co  Co14  1  0.388356  0.888885  0.499469  1
  Co  Co15  1  0.611642  0.111114  0.500529  1
  Bi  Bi16  1  0.499999  0.499999  0.999999  1
  Os  Os17  1  0.999999  0.999999  0.999998  1
