# generated using pymatgen
data_Hf8Co2WAu
_symmetry_space_group_name_H-M   'P 1'
_cell_length_a   8.65707287
_cell_length_b   8.65697057
_cell_length_c   8.66460700
_cell_angle_alpha   59.97234837
_cell_angle_beta   59.97271674
_cell_angle_gamma   59.89341652
_symmetry_Int_Tables_number   1
_chemical_formula_structural   Hf8Co2WAu
_chemical_formula_sum   'Hf16 Co4 W2 Au2'
_cell_volume   458.60596294
_cell_formula_units_Z   2
loop_
 _symmetry_equiv_pos_site_id
 _symmetry_equiv_pos_as_xyz
  1  'x, y, z'
loop_
 _atom_site_type_symbol
 _atom_site_label
 _atom_site_symmetry_multiplicity
 _atom_site_fract_x
 _atom_site_fract_y
 _atom_site_fract_z
 _atom_site_occupancy
  Hf  Hf0  1  0.701228  0.103800  0.097488  1
  Hf  Hf1  1  0.103823  0.701268  0.097454  1
  Hf  Hf2  1  0.101233  0.101182  0.698610  1
  Hf  Hf3  1  0.101225  0.101175  0.098962  1
  Hf  Hf4  1  0.311712  0.311704  0.688292  1
  Hf  Hf5  1  0.687581  0.687585  0.312426  1
  Hf  Hf6  1  0.313890  0.675872  0.315196  1
  Hf  Hf7  1  0.675851  0.313895  0.695054  1
  Hf  Hf8  1  0.675855  0.313890  0.315210  1
  Hf  Hf9  1  0.313894  0.675869  0.695050  1
  Hf  Hf10  1  0.945801  0.945793  0.554197  1
  Hf  Hf11  1  0.544829  0.544896  0.955146  1
  Hf  Hf12  1  0.949510  0.556490  0.940312  1
  Hf  Hf13  1  0.556455  0.949507  0.553736  1
  Hf  Hf14  1  0.556457  0.949497  0.940308  1
  Hf  Hf15  1  0.949519  0.556489  0.553683  1
  Co  Co16  1  0.327167  0.893714  0.889547  1
  Co  Co17  1  0.893719  0.327174  0.889540  1
  Co  Co18  1  0.893275  0.893260  0.327803  1
  Co  Co19  1  0.893282  0.893267  0.885660  1
  W  W20  1  0.334501  0.334497  0.998481  1
  W  W21  1  0.334509  0.334501  0.332522  1
  Au  Au22  1  0.997371  0.337305  0.332662  1
  Au  Au23  1  0.337312  0.997369  0.332658  1
