# generated using pymatgen
data_Tb2SmIrO7
_symmetry_space_group_name_H-M   'P 1'
_cell_length_a   6.48937700
_cell_length_b   6.48937661
_cell_length_c   7.58746200
_cell_angle_alpha   90.00000000
_cell_angle_beta   90.00000000
_cell_angle_gamma   109.25340640
_symmetry_Int_Tables_number   1
_chemical_formula_structural   Tb2SmIrO7
_chemical_formula_sum   'Tb4 Sm2 Ir2 O14'
_cell_volume   301.65216232
_cell_formula_units_Z   2
loop_
 _symmetry_equiv_pos_site_id
 _symmetry_equiv_pos_as_xyz
  1  'x, y, z'
loop_
 _atom_site_type_symbol
 _atom_site_label
 _atom_site_symmetry_multiplicity
 _atom_site_fract_x
 _atom_site_fract_y
 _atom_site_fract_z
 _atom_site_occupancy
  Tb  Tb0  1  0.533525  0.999665  0.750000  1
  Tb  Tb1  1  0.999665  0.533525  0.250000  1
  Tb  Tb2  1  0.466475  0.000335  0.250000  1
  Tb  Tb3  1  0.000335  0.466475  0.750000  1
  Sm  Sm4  1  0.500000  0.500000  0.500000  1
  Sm  Sm5  1  0.500000  0.500000  0.000000  1
  Ir  Ir6  1  0.000000  0.000000  0.500000  1
  Ir  Ir7  1  0.000000  0.000000  0.000000  1
  O  O8  1  0.679493  0.927728  0.472565  1
  O  O9  1  0.927728  0.679493  0.527435  1
  O  O10  1  0.679493  0.927728  0.027435  1
  O  O11  1  0.927728  0.679493  0.972565  1
  O  O12  1  0.320507  0.072272  0.527435  1
  O  O13  1  0.072272  0.320507  0.472565  1
  O  O14  1  0.320507  0.072272  0.972565  1
  O  O15  1  0.072272  0.320507  0.027435  1
  O  O16  1  0.929159  0.070841  0.750000  1
  O  O17  1  0.070841  0.929159  0.250000  1
  O  O18  1  0.366619  0.633380  0.750000  1
  O  O19  1  0.633380  0.366619  0.250000  1
  O  O20  1  0.638222  0.361778  0.750000  1
  O  O21  1  0.361778  0.638222  0.250000  1
