# generated using pymatgen
data_LaPrPa2Cu3Sb8
_symmetry_space_group_name_H-M   'P 1'
_cell_length_a   10.64141952
_cell_length_b   10.64141921
_cell_length_c   10.64305894
_cell_angle_alpha   145.99528905
_cell_angle_beta   145.99529907
_cell_angle_gamma   48.92415311
_symmetry_Int_Tables_number   1
_chemical_formula_structural   LaPrPa2Cu3Sb8
_chemical_formula_sum   'La1 Pr1 Pa2 Cu3 Sb8'
_cell_volume   375.20169714
_cell_formula_units_Z   1
loop_
 _symmetry_equiv_pos_site_id
 _symmetry_equiv_pos_as_xyz
  1  'x, y, z'
loop_
 _atom_site_type_symbol
 _atom_site_label
 _atom_site_symmetry_multiplicity
 _atom_site_fract_x
 _atom_site_fract_y
 _atom_site_fract_z
 _atom_site_occupancy
  La  La0  1  0.123469  0.123469  0.494733  1
  Pr  Pr1  1  0.629590  0.629590  0.507990  1
  Pa  Pa2  1  0.365282  0.870771  0.999500  1
  Pa  Pa3  1  0.870771  0.365282  0.999500  1
  Cu  Cu4  1  0.001821  0.001821  0.997431  1
  Cu  Cu5  1  0.004941  0.505728  0.500674  1
  Cu  Cu6  1  0.505728  0.004941  0.500674  1
  Sb  Sb7  1  0.336649  0.336649  0.508873  1
  Sb  Sb8  1  0.827021  0.827021  0.489158  1
  Sb  Sb9  1  0.675317  0.186768  0.000768  1
  Sb  Sb10  1  0.186768  0.675317  0.000768  1
  Sb  Sb11  1  0.243676  0.243676  0.000847  1
  Sb  Sb12  1  0.742602  0.742602  0.999129  1
  Sb  Sb13  1  0.742584  0.243780  0.499979  1
  Sb  Sb14  1  0.243780  0.742584  0.499979  1
