# generated using pymatgen
data_CaLaU2(NiAs)4
_symmetry_space_group_name_H-M   'P 1'
_cell_length_a   4.10141400
_cell_length_b   4.10141388
_cell_length_c   15.75104200
_cell_angle_alpha   90.00000000
_cell_angle_beta   90.00000000
_cell_angle_gamma   120.00001710
_symmetry_Int_Tables_number   1
_chemical_formula_structural   CaLaU2(NiAs)4
_chemical_formula_sum   'Ca1 La1 U2 Ni4 As4'
_cell_volume   229.46003359
_cell_formula_units_Z   1
loop_
 _symmetry_equiv_pos_site_id
 _symmetry_equiv_pos_as_xyz
  1  'x, y, z'
loop_
 _atom_site_type_symbol
 _atom_site_label
 _atom_site_symmetry_multiplicity
 _atom_site_fract_x
 _atom_site_fract_y
 _atom_site_fract_z
 _atom_site_occupancy
  Ca  Ca0  1  0.000000  0.000000  0.500000  1
  La  La1  1  0.000000  0.000000  0.000000  1
  U  U2  1  0.000000  0.000000  0.252557  1
  U  U3  1  0.000000  0.000000  0.747443  1
  Ni  Ni4  1  0.333333  0.666667  0.157077  1
  Ni  Ni5  1  0.666667  0.333333  0.842923  1
  Ni  Ni6  1  0.666667  0.333333  0.656077  1
  Ni  Ni7  1  0.333333  0.666667  0.343923  1
  As  As8  1  0.333333  0.666667  0.624112  1
  As  As9  1  0.666667  0.333333  0.375888  1
  As  As10  1  0.666667  0.333333  0.126156  1
  As  As11  1  0.333333  0.666667  0.873844  1
