# generated using pymatgen
data_GaSi15(MoPt3)4
_symmetry_space_group_name_H-M   'P 1'
_cell_length_a   3.51878000
_cell_length_b   5.56865710
_cell_length_c   24.69808646
_cell_angle_alpha   89.97808481
_cell_angle_beta   90.00000000
_cell_angle_gamma   90.00000000
_symmetry_Int_Tables_number   1
_chemical_formula_structural   GaSi15(MoPt3)4
_chemical_formula_sum   'Ga1 Si15 Mo4 Pt12'
_cell_volume   483.95598600
_cell_formula_units_Z   1
loop_
 _symmetry_equiv_pos_site_id
 _symmetry_equiv_pos_as_xyz
  1  'x, y, z'
loop_
 _atom_site_type_symbol
 _atom_site_label
 _atom_site_symmetry_multiplicity
 _atom_site_fract_x
 _atom_site_fract_y
 _atom_site_fract_z
 _atom_site_occupancy
  Ga  Ga0  1  0.250000  0.183221  0.520270  1
  Si  Si1  1  0.750000  0.320375  0.019393  1
  Si  Si2  1  0.250000  0.679854  0.980608  1
  Si  Si3  1  0.750000  0.824167  0.481074  1
  Si  Si4  1  0.750000  0.319559  0.645071  1
  Si  Si5  1  0.250000  0.180821  0.145740  1
  Si  Si6  1  0.750000  0.818758  0.854330  1
  Si  Si7  1  0.250000  0.679599  0.353385  1
  Si  Si8  1  0.250000  0.665440  0.610109  1
  Si  Si9  1  0.750000  0.838859  0.109581  1
  Si  Si10  1  0.250000  0.160789  0.890415  1
  Si  Si11  1  0.750000  0.334483  0.389890  1
  Si  Si12  1  0.750000  0.828305  0.726879  1
  Si  Si13  1  0.250000  0.670195  0.225825  1
  Si  Si14  1  0.750000  0.329113  0.773773  1
  Si  Si15  1  0.250000  0.168920  0.273583  1
  Mo  Mo16  1  0.250000  0.502623  0.710384  1
  Mo  Mo17  1  0.750000  0.995718  0.209828  1
  Mo  Mo18  1  0.250000  0.003459  0.790414  1
  Mo  Mo19  1  0.750000  0.495325  0.289004  1
  Pt  Pt20  1  0.750000  0.991308  0.578252  1
  Pt  Pt21  1  0.250000  0.497598  0.074363  1
  Pt  Pt22  1  0.750000  0.502302  0.925565  1
  Pt  Pt23  1  0.250000  0.999352  0.423426  1
  Pt  Pt24  1  0.250000  0.003176  0.672025  1
  Pt  Pt25  1  0.750000  0.496662  0.169514  1
  Pt  Pt26  1  0.250000  0.502717  0.830276  1
  Pt  Pt27  1  0.750000  0.995439  0.328835  1
  Pt  Pt28  1  0.750000  0.506738  0.549507  1
  Pt  Pt29  1  0.250000  0.997100  0.048444  1
  Pt  Pt30  1  0.750000  0.002944  0.951695  1
  Pt  Pt31  1  0.250000  0.505080  0.448541  1
