# generated using pymatgen
data_Hf3Ti2Ir2Au
_symmetry_space_group_name_H-M   'P 1'
_cell_length_a   8.03971300
_cell_length_b   8.02906462
_cell_length_c   5.21713600
_cell_angle_alpha   90.00000000
_cell_angle_beta   90.00000000
_cell_angle_gamma   120.04388513
_symmetry_Int_Tables_number   1
_chemical_formula_structural   Hf3Ti2Ir2Au
_chemical_formula_sum   'Hf6 Ti4 Ir4 Au2'
_cell_volume   291.52517650
_cell_formula_units_Z   2
loop_
 _symmetry_equiv_pos_site_id
 _symmetry_equiv_pos_as_xyz
  1  'x, y, z'
loop_
 _atom_site_type_symbol
 _atom_site_label
 _atom_site_symmetry_multiplicity
 _atom_site_fract_x
 _atom_site_fract_y
 _atom_site_fract_z
 _atom_site_occupancy
  Hf  Hf0  1  0.237058  0.000000  0.250000  1
  Hf  Hf1  1  0.762942  0.000000  0.750000  1
  Hf  Hf2  1  0.008497  0.254325  0.250000  1
  Hf  Hf3  1  0.991503  0.745675  0.750000  1
  Hf  Hf4  1  0.754172  0.745675  0.250000  1
  Hf  Hf5  1  0.245828  0.254325  0.750000  1
  Ti  Ti6  1  0.326152  0.652306  0.000000  1
  Ti  Ti7  1  0.673848  0.347694  0.000000  1
  Ti  Ti8  1  0.673848  0.347694  0.500000  1
  Ti  Ti9  1  0.326152  0.652306  0.500000  1
  Ir  Ir10  1  0.005178  0.601206  0.250000  1
  Ir  Ir11  1  0.994822  0.398794  0.750000  1
  Ir  Ir12  1  0.403971  0.398794  0.250000  1
  Ir  Ir13  1  0.596029  0.601206  0.750000  1
  Au  Au14  1  0.596941  0.000000  0.250000  1
  Au  Au15  1  0.403059  0.000000  0.750000  1
