# generated using pymatgen
data_NdSmPa(Ga2Ni3)3
_symmetry_space_group_name_H-M   'P 1'
_cell_length_a   8.77586800
_cell_length_b   8.77586782
_cell_length_c   4.17553100
_cell_angle_alpha   90.00000000
_cell_angle_beta   90.00000000
_cell_angle_gamma   119.99999313
_symmetry_Int_Tables_number   1
_chemical_formula_structural   NdSmPa(Ga2Ni3)3
_chemical_formula_sum   'Nd1 Sm1 Pa1 Ga6 Ni9'
_cell_volume   278.49828802
_cell_formula_units_Z   1
loop_
 _symmetry_equiv_pos_site_id
 _symmetry_equiv_pos_as_xyz
  1  'x, y, z'
loop_
 _atom_site_type_symbol
 _atom_site_label
 _atom_site_symmetry_multiplicity
 _atom_site_fract_x
 _atom_site_fract_y
 _atom_site_fract_z
 _atom_site_occupancy
  Nd  Nd0  1  0.666667  0.333333  0.500000  1
  Sm  Sm1  1  0.333333  0.666667  0.500000  1
  Pa  Pa2  1  0.000000  0.000000  0.000000  1
  Ga  Ga3  1  0.482481  0.999299  0.000000  1
  Ga  Ga4  1  0.000701  0.483182  0.000000  1
  Ga  Ga5  1  0.516818  0.517519  0.000000  1
  Ga  Ga6  1  0.724978  0.999545  0.500000  1
  Ga  Ga7  1  0.000455  0.725433  0.500000  1
  Ga  Ga8  1  0.274567  0.275022  0.500000  1
  Ni  Ni9  1  0.190844  0.361573  0.000000  1
  Ni  Ni10  1  0.638427  0.829271  0.000000  1
  Ni  Ni11  1  0.170729  0.809156  0.000000  1
  Ni  Ni12  1  0.829915  0.640432  0.000000  1
  Ni  Ni13  1  0.810519  0.170085  0.000000  1
  Ni  Ni14  1  0.359568  0.189481  0.000000  1
  Ni  Ni15  1  0.286038  0.999479  0.500000  1
  Ni  Ni16  1  0.000521  0.286559  0.500000  1
  Ni  Ni17  1  0.713441  0.713962  0.500000  1
