# generated using pymatgen
data_Lu2B4Ir4Os
_symmetry_space_group_name_H-M   'P 1'
_cell_length_a   7.47242869
_cell_length_b   6.36400139
_cell_length_c   5.51355810
_cell_angle_alpha   77.60565431
_cell_angle_beta   56.28563195
_cell_angle_gamma   46.10872042
_symmetry_Int_Tables_number   1
_chemical_formula_structural   Lu2B4Ir4Os
_chemical_formula_sum   'Lu2 B4 Ir4 Os1'
_cell_volume   150.70710576
_cell_formula_units_Z   1
loop_
 _symmetry_equiv_pos_site_id
 _symmetry_equiv_pos_as_xyz
  1  'x, y, z'
loop_
 _atom_site_type_symbol
 _atom_site_label
 _atom_site_symmetry_multiplicity
 _atom_site_fract_x
 _atom_site_fract_y
 _atom_site_fract_z
 _atom_site_occupancy
  Lu  Lu0  1  0.861842  0.861840  0.138159  1
  Lu  Lu1  1  0.138159  0.138158  0.861842  1
  B  B2  1  0.472939  0.795920  0.217009  1
  B  B3  1  0.217009  0.514131  0.472939  1
  B  B4  1  0.795921  0.472938  0.514132  1
  B  B5  1  0.514132  0.217008  0.795921  1
  Ir  Ir6  1  0.500522  0.500522  0.999478  1
  Ir  Ir7  1  0.999478  0.999478  0.500522  1
  Ir  Ir8  1  0.500000  0.499999  0.500000  1
  Ir  Ir9  1  0.750000  0.749999  0.750000  1
  Os  Os10  1  0.250000  0.250000  0.250000  1
