# generated using pymatgen
data_Tl3Re2Br10N
_symmetry_space_group_name_H-M   'P 1'
_cell_length_a   7.37484800
_cell_length_b   7.37484800
_cell_length_c   19.02446500
_cell_angle_alpha   90.00000000
_cell_angle_beta   90.00000000
_cell_angle_gamma   90.00000000
_symmetry_Int_Tables_number   1
_chemical_formula_structural   Tl3Re2Br10N
_chemical_formula_sum   'Tl6 Re4 Br20 N2'
_cell_volume   1034.70988923
_cell_formula_units_Z   2
loop_
 _symmetry_equiv_pos_site_id
 _symmetry_equiv_pos_as_xyz
  1  'x, y, z'
loop_
 _atom_site_type_symbol
 _atom_site_label
 _atom_site_symmetry_multiplicity
 _atom_site_fract_x
 _atom_site_fract_y
 _atom_site_fract_z
 _atom_site_occupancy
  Tl  Tl0  1  0.500000  0.500000  0.000000  1
  Tl  Tl1  1  0.000000  0.000000  0.500000  1
  Tl  Tl2  1  0.000000  0.500000  0.250000  1
  Tl  Tl3  1  0.500000  0.000000  0.750000  1
  Tl  Tl4  1  0.500000  0.000000  0.250000  1
  Tl  Tl5  1  0.000000  0.500000  0.750000  1
  Re  Re6  1  0.500000  0.500000  0.404563  1
  Re  Re7  1  0.000000  0.000000  0.904563  1
  Re  Re8  1  0.500000  0.500000  0.595437  1
  Re  Re9  1  0.000000  0.000000  0.095437  1
  Br  Br10  1  0.786734  0.685249  0.395379  1
  Br  Br11  1  0.213266  0.314751  0.395379  1
  Br  Br12  1  0.713266  0.185249  0.895379  1
  Br  Br13  1  0.286734  0.814751  0.895379  1
  Br  Br14  1  0.685249  0.213266  0.395379  1
  Br  Br15  1  0.314751  0.786734  0.395379  1
  Br  Br16  1  0.185249  0.286734  0.895379  1
  Br  Br17  1  0.814751  0.713266  0.895379  1
  Br  Br18  1  0.213266  0.314751  0.604621  1
  Br  Br19  1  0.786734  0.685249  0.604621  1
  Br  Br20  1  0.286734  0.814751  0.104621  1
  Br  Br21  1  0.713266  0.185249  0.104621  1
  Br  Br22  1  0.314751  0.786734  0.604621  1
  Br  Br23  1  0.685249  0.213266  0.604621  1
  Br  Br24  1  0.814751  0.713266  0.104621  1
  Br  Br25  1  0.185249  0.286734  0.104621  1
  Br  Br26  1  0.500000  0.500000  0.263418  1
  Br  Br27  1  0.000000  0.000000  0.763418  1
  Br  Br28  1  0.500000  0.500000  0.736582  1
  Br  Br29  1  0.000000  0.000000  0.236582  1
  N  N30  1  0.500000  0.500000  0.500000  1
  N  N31  1  0.000000  0.000000  0.000000  1
