# generated using pymatgen
data_Pr3ErTmP12Ru19
_symmetry_space_group_name_H-M   'P 1'
_cell_length_a   12.59383300
_cell_length_b   12.59383385
_cell_length_c   4.00893000
_cell_angle_alpha   90.00000000
_cell_angle_beta   90.00000000
_cell_angle_gamma   120.00000040
_symmetry_Int_Tables_number   1
_chemical_formula_structural   Pr3ErTmP12Ru19
_chemical_formula_sum   'Pr3 Er1 Tm1 P12 Ru19'
_cell_volume   550.64917441
_cell_formula_units_Z   1
loop_
 _symmetry_equiv_pos_site_id
 _symmetry_equiv_pos_as_xyz
  1  'x, y, z'
loop_
 _atom_site_type_symbol
 _atom_site_label
 _atom_site_symmetry_multiplicity
 _atom_site_fract_x
 _atom_site_fract_y
 _atom_site_fract_z
 _atom_site_occupancy
  Pr  Pr0  1  0.183873  0.183871  0.500000  1
  Pr  Pr1  1  0.816129  0.000002  0.500000  1
  Pr  Pr2  1  0.999998  0.816127  0.500000  1
  Er  Er3  1  0.666667  0.333333  0.000000  1
  Tm  Tm4  1  0.333333  0.666667  0.000000  1
  P  P5  1  0.811118  0.811122  0.000000  1
  P  P6  1  0.188878  0.999995  0.000000  1
  P  P7  1  0.000005  0.188882  0.000000  1
  P  P8  1  0.174352  0.479269  0.500000  1
  P  P9  1  0.520731  0.695083  0.500000  1
  P  P10  1  0.304917  0.825648  0.500000  1
  P  P11  1  0.695104  0.520800  0.500000  1
  P  P12  1  0.825696  0.304896  0.500000  1
  P  P13  1  0.479200  0.174304  0.500000  1
  P  P14  1  0.374213  0.374200  0.000000  1
  P  P15  1  0.625800  0.000012  0.000000  1
  P  P16  1  0.999988  0.625787  0.000000  1
  Ru  Ru17  1  0.553753  0.553750  0.000000  1
  Ru  Ru18  1  0.446250  0.000004  0.000000  1
  Ru  Ru19  1  0.999996  0.446247  0.000000  1
  Ru  Ru20  1  0.712425  0.712431  0.500000  1
  Ru  Ru21  1  0.287569  0.999994  0.500000  1
  Ru  Ru22  1  0.000006  0.287575  0.500000  1
  Ru  Ru23  1  0.185509  0.381886  0.000000  1
  Ru  Ru24  1  0.618114  0.803624  0.000000  1
  Ru  Ru25  1  0.196376  0.814491  0.000000  1
  Ru  Ru26  1  0.803664  0.618194  0.000000  1
  Ru  Ru27  1  0.814530  0.196336  0.000000  1
  Ru  Ru28  1  0.381806  0.185470  0.000000  1
  Ru  Ru29  1  0.367861  0.494015  0.500000  1
  Ru  Ru30  1  0.505985  0.873846  0.500000  1
  Ru  Ru31  1  0.126154  0.632139  0.500000  1
  Ru  Ru32  1  0.873963  0.506096  0.500000  1
  Ru  Ru33  1  0.632133  0.126037  0.500000  1
  Ru  Ru34  1  0.493904  0.367867  0.500000  1
  Ru  Ru35  1  0.000000  0.000000  0.000000  1
