# generated using pymatgen
data_DyTh3(WN3)4
_symmetry_space_group_name_H-M   'P 1'
_cell_length_a   5.57447433
_cell_length_b   5.65702544
_cell_length_c   7.97578900
_cell_angle_alpha   90.00000000
_cell_angle_beta   90.00000000
_cell_angle_gamma   90.20947283
_symmetry_Int_Tables_number   1
_chemical_formula_structural   DyTh3(WN3)4
_chemical_formula_sum   'Dy1 Th3 W4 N12'
_cell_volume   251.51437116
_cell_formula_units_Z   1
loop_
 _symmetry_equiv_pos_site_id
 _symmetry_equiv_pos_as_xyz
  1  'x, y, z'
loop_
 _atom_site_type_symbol
 _atom_site_label
 _atom_site_symmetry_multiplicity
 _atom_site_fract_x
 _atom_site_fract_y
 _atom_site_fract_z
 _atom_site_occupancy
  Dy  Dy0  1  0.503890  0.552555  0.250000  1
  Th  Th1  1  0.996886  0.045694  0.250000  1
  Th  Th2  1  0.496322  0.455611  0.750000  1
  Th  Th3  1  0.002964  0.952962  0.750000  1
  W  W4  1  0.999544  0.500038  0.003901  1
  W  W5  1  0.500591  0.999305  0.496845  1
  W  W6  1  0.999544  0.500038  0.496099  1
  W  W7  1  0.500591  0.999305  0.003155  1
  N  N8  1  0.429442  0.976119  0.250000  1
  N  N9  1  0.081835  0.487912  0.250000  1
  N  N10  1  0.574862  0.021359  0.750000  1
  N  N11  1  0.924798  0.513078  0.750000  1
  N  N12  1  0.798700  0.796994  0.035780  1
  N  N13  1  0.699638  0.298549  0.456844  1
  N  N14  1  0.198199  0.199384  0.536585  1
  N  N15  1  0.297829  0.703086  0.960276  1
  N  N16  1  0.198199  0.199384  0.963415  1
  N  N17  1  0.297829  0.703086  0.539724  1
  N  N18  1  0.798700  0.796994  0.464220  1
  N  N19  1  0.699638  0.298549  0.043156  1
