# generated using pymatgen
data_LuU3Fe6Ge6Ru
_symmetry_space_group_name_H-M   'P 1'
_cell_length_a   6.99719905
_cell_length_b   6.88717349
_cell_length_c   6.99719914
_cell_angle_alpha   109.15300643
_cell_angle_beta   109.78755380
_cell_angle_gamma   109.15300002
_symmetry_Int_Tables_number   1
_chemical_formula_structural   LuU3Fe6Ge6Ru
_chemical_formula_sum   'Lu1 U3 Fe6 Ge6 Ru1'
_cell_volume   260.59022636
_cell_formula_units_Z   1
loop_
 _symmetry_equiv_pos_site_id
 _symmetry_equiv_pos_as_xyz
  1  'x, y, z'
loop_
 _atom_site_type_symbol
 _atom_site_label
 _atom_site_symmetry_multiplicity
 _atom_site_fract_x
 _atom_site_fract_y
 _atom_site_fract_z
 _atom_site_occupancy
  Lu  Lu0  1  0.000000  0.500000  0.000000  1
  U  U1  1  0.000000  0.000000  0.500000  1
  U  U2  1  0.500000  0.000000  0.000000  1
  U  U3  1  0.500000  0.500000  0.500000  1
  Fe  Fe4  1  0.741647  0.241647  0.483294  1
  Fe  Fe5  1  0.741647  0.500000  0.258353  1
  Fe  Fe6  1  0.483294  0.241647  0.741647  1
  Fe  Fe7  1  0.258353  0.500000  0.741647  1
  Fe  Fe8  1  0.258353  0.758353  0.516706  1
  Fe  Fe9  1  0.516706  0.758353  0.258353  1
  Ge  Ge10  1  0.682453  0.673814  0.000000  1
  Ge  Ge11  1  0.317547  0.991362  0.317547  1
  Ge  Ge12  1  0.000000  0.326186  0.317547  1
  Ge  Ge13  1  0.317547  0.326186  0.000000  1
  Ge  Ge14  1  0.682453  0.008638  0.682453  1
  Ge  Ge15  1  0.000000  0.673814  0.682453  1
  Ru  Ru16  1  0.000000  0.000000  0.000000  1
