# generated using pymatgen
data_DyEr15Cd4Co3Ni
_symmetry_space_group_name_H-M   'P 1'
_cell_length_a   9.44892306
_cell_length_b   9.44748522
_cell_length_c   9.44748500
_cell_angle_alpha   59.91815096
_cell_angle_beta   59.91501309
_cell_angle_gamma   59.91501647
_symmetry_Int_Tables_number   1
_chemical_formula_structural   DyEr15Cd4Co3Ni
_chemical_formula_sum   'Dy1 Er15 Cd4 Co3 Ni1'
_cell_volume   595.21244827
_cell_formula_units_Z   1
loop_
 _symmetry_equiv_pos_site_id
 _symmetry_equiv_pos_as_xyz
  1  'x, y, z'
loop_
 _atom_site_type_symbol
 _atom_site_label
 _atom_site_symmetry_multiplicity
 _atom_site_fract_x
 _atom_site_fract_y
 _atom_site_fract_z
 _atom_site_occupancy
  Dy  Dy0  1  0.343721  0.347839  0.347839  1
  Er  Er1  1  0.344832  0.349152  0.958705  1
  Er  Er2  1  0.344832  0.958705  0.349152  1
  Er  Er3  1  0.961469  0.346469  0.346469  1
  Er  Er4  1  0.814806  0.187812  0.187812  1
  Er  Er5  1  0.186639  0.812251  0.812251  1
  Er  Er6  1  0.187732  0.811515  0.187919  1
  Er  Er7  1  0.815770  0.186913  0.808665  1
  Er  Er8  1  0.187732  0.187919  0.811515  1
  Er  Er9  1  0.815770  0.808665  0.186913  1
  Er  Er10  1  0.937078  0.563058  0.563058  1
  Er  Er11  1  0.560633  0.937764  0.937764  1
  Er  Er12  1  0.561336  0.937878  0.564185  1
  Er  Er13  1  0.937060  0.562463  0.938088  1
  Er  Er14  1  0.561336  0.564185  0.937878  1
  Er  Er15  1  0.937060  0.938088  0.562463  1
  Cd  Cd16  1  0.580422  0.580016  0.580016  1
  Cd  Cd17  1  0.581289  0.580625  0.257515  1
  Cd  Cd18  1  0.581289  0.257515  0.580625  1
  Cd  Cd19  1  0.256256  0.581312  0.581312  1
  Co  Co20  1  0.142398  0.141355  0.141355  1
  Co  Co21  1  0.141959  0.141185  0.576242  1
  Co  Co22  1  0.141959  0.576242  0.141185  1
  Ni  Ni23  1  0.576624  0.141075  0.141075  1
