# generated using pymatgen
data_Ti7V5Sn9Hg
_symmetry_space_group_name_H-M   'P 1'
_cell_length_a   9.17426100
_cell_length_b   9.17432832
_cell_length_c   5.57312207
_cell_angle_alpha   89.98380941
_cell_angle_beta   90.00000000
_cell_angle_gamma   119.99975367
_symmetry_Int_Tables_number   1
_chemical_formula_structural   Ti7V5Sn9Hg
_chemical_formula_sum   'Ti7 V5 Sn9 Hg1'
_cell_volume   406.23338509
_cell_formula_units_Z   1
loop_
 _symmetry_equiv_pos_site_id
 _symmetry_equiv_pos_as_xyz
  1  'x, y, z'
loop_
 _atom_site_type_symbol
 _atom_site_label
 _atom_site_symmetry_multiplicity
 _atom_site_fract_x
 _atom_site_fract_y
 _atom_site_fract_z
 _atom_site_occupancy
  Ti  Ti0  1  0.841745  0.683491  0.756137  1
  Ti  Ti1  1  0.155377  0.839677  0.245464  1
  Ti  Ti2  1  0.684300  0.839677  0.245464  1
  Ti  Ti3  1  0.315700  0.160323  0.754536  1
  Ti  Ti4  1  0.844623  0.160323  0.754536  1
  Ti  Ti5  1  0.158255  0.316509  0.243863  1
  Ti  Ti6  1  0.500000  0.000000  0.500000  1
  V  V7  1  0.500000  0.500000  0.000000  1
  V  V8  1  0.000000  0.500000  0.000000  1
  V  V9  1  0.000000  0.500000  0.500000  1
  V  V10  1  0.500000  0.000000  0.000000  1
  V  V11  1  0.500000  0.500000  0.500000  1
  Sn  Sn12  1  0.206256  0.412511  0.746106  1
  Sn  Sn13  1  0.796285  0.207012  0.250405  1
  Sn  Sn14  1  0.410726  0.207012  0.250405  1
  Sn  Sn15  1  0.589274  0.792988  0.749595  1
  Sn  Sn16  1  0.203715  0.792988  0.749595  1
  Sn  Sn17  1  0.793744  0.587489  0.253894  1
  Sn  Sn18  1  0.667384  0.334767  0.755746  1
  Sn  Sn19  1  0.332616  0.665233  0.244254  1
  Sn  Sn20  1  0.000000  0.000000  0.000000  1
  Hg  Hg21  1  0.000000  0.000000  0.500000  1
