# generated using pymatgen
data_Tb3Y13TlCd3Pd4
_symmetry_space_group_name_H-M   'P 1'
_cell_length_a   9.74274690
_cell_length_b   9.74678173
_cell_length_c   9.74678100
_cell_angle_alpha   60.04417121
_cell_angle_beta   60.01693747
_cell_angle_gamma   60.01694524
_symmetry_Int_Tables_number   1
_chemical_formula_structural   Tb3Y13TlCd3Pd4
_chemical_formula_sum   'Tb3 Y13 Tl1 Cd3 Pd4'
_cell_volume   654.85458890
_cell_formula_units_Z   1
loop_
 _symmetry_equiv_pos_site_id
 _symmetry_equiv_pos_as_xyz
  1  'x, y, z'
loop_
 _atom_site_type_symbol
 _atom_site_label
 _atom_site_symmetry_multiplicity
 _atom_site_fract_x
 _atom_site_fract_y
 _atom_site_fract_z
 _atom_site_occupancy
  Tb  Tb0  1  0.351644  0.352700  0.352707  1
  Tb  Tb1  1  0.354244  0.356350  0.935399  1
  Tb  Tb2  1  0.354259  0.935394  0.356344  1
  Y  Y3  1  0.937148  0.354929  0.354914  1
  Y  Y4  1  0.810326  0.189597  0.189592  1
  Y  Y5  1  0.189910  0.810306  0.810315  1
  Y  Y6  1  0.189349  0.811386  0.188918  1
  Y  Y7  1  0.809766  0.189981  0.810446  1
  Y  Y8  1  0.189350  0.188921  0.811376  1
  Y  Y9  1  0.809776  0.810444  0.189972  1
  Y  Y10  1  0.937103  0.565997  0.566016  1
  Y  Y11  1  0.564400  0.936439  0.936445  1
  Y  Y12  1  0.565499  0.937982  0.564890  1
  Y  Y13  1  0.935198  0.565203  0.935693  1
  Y  Y14  1  0.565483  0.564880  0.938002  1
  Y  Y15  1  0.935175  0.935716  0.565212  1
  Tl  Tl16  1  0.585457  0.584036  0.584044  1
  Cd  Cd17  1  0.581894  0.580306  0.251284  1
  Cd  Cd18  1  0.581897  0.251288  0.580298  1
  Cd  Cd19  1  0.251857  0.580691  0.580706  1
  Pd  Pd20  1  0.146894  0.144720  0.144758  1
  Pd  Pd21  1  0.144760  0.142757  0.565799  1
  Pd  Pd22  1  0.144813  0.565807  0.142745  1
  Pd  Pd23  1  0.563795  0.144167  0.144123  1
