# generated using pymatgen
data_V5Tc(BiS3)4
_symmetry_space_group_name_H-M   'P 1'
_cell_length_a   5.53991616
_cell_length_b   5.53991750
_cell_length_c   17.45851000
_cell_angle_alpha   90.00000000
_cell_angle_beta   90.00000000
_cell_angle_gamma   120.10119834
_symmetry_Int_Tables_number   1
_chemical_formula_structural   V5Tc(BiS3)4
_chemical_formula_sum   'V5 Tc1 Bi4 S12'
_cell_volume   463.55420564
_cell_formula_units_Z   1
loop_
 _symmetry_equiv_pos_site_id
 _symmetry_equiv_pos_as_xyz
  1  'x, y, z'
loop_
 _atom_site_type_symbol
 _atom_site_label
 _atom_site_symmetry_multiplicity
 _atom_site_fract_x
 _atom_site_fract_y
 _atom_site_fract_z
 _atom_site_occupancy
  V  V0  1  0.327972  0.000451  0.750000  1
  V  V1  1  0.000451  0.327972  0.750000  1
  V  V2  1  0.322342  0.322342  0.250000  1
  V  V3  1  0.677943  0.000220  0.250000  1
  V  V4  1  0.000220  0.677943  0.250000  1
  Tc  Tc5  1  0.671131  0.671131  0.750000  1
  Bi  Bi6  1  0.666774  0.333446  0.010709  1
  Bi  Bi7  1  0.333446  0.666774  0.010709  1
  Bi  Bi8  1  0.333446  0.666774  0.489291  1
  Bi  Bi9  1  0.666774  0.333446  0.489291  1
  S  S10  1  0.004512  0.004512  0.836802  1
  S  S11  1  0.999939  0.999939  0.163288  1
  S  S12  1  0.999939  0.999939  0.336712  1
  S  S13  1  0.004512  0.004512  0.663198  1
  S  S14  1  0.666521  0.328760  0.834019  1
  S  S15  1  0.328760  0.666521  0.834019  1
  S  S16  1  0.333382  0.666637  0.168633  1
  S  S17  1  0.666637  0.333382  0.168633  1
  S  S18  1  0.333382  0.666637  0.331367  1
  S  S19  1  0.666637  0.333382  0.331367  1
  S  S20  1  0.666521  0.328760  0.665981  1
  S  S21  1  0.328760  0.666521  0.665981  1
