# generated using pymatgen
data_Na4Ac9Y7Pb16
_symmetry_space_group_name_H-M   'P 1'
_cell_length_a   8.54860048
_cell_length_b   16.40540778
_cell_length_c   8.58209100
_cell_angle_alpha   90.05702195
_cell_angle_beta   90.37436286
_cell_angle_gamma   90.22741756
_symmetry_Int_Tables_number   1
_chemical_formula_structural   Na4Ac9Y7Pb16
_chemical_formula_sum   'Na4 Ac9 Y7 Pb16'
_cell_volume   1203.54476398
_cell_formula_units_Z   1
loop_
 _symmetry_equiv_pos_site_id
 _symmetry_equiv_pos_as_xyz
  1  'x, y, z'
loop_
 _atom_site_type_symbol
 _atom_site_label
 _atom_site_symmetry_multiplicity
 _atom_site_fract_x
 _atom_site_fract_y
 _atom_site_fract_z
 _atom_site_occupancy
  Na  Na0  1  0.821158  0.753097  0.502430  1
  Na  Na1  1  0.322056  0.753751  0.998093  1
  Na  Na2  1  0.178868  0.248063  0.500602  1
  Na  Na3  1  0.679111  0.248932  0.001633  1
  Ac  Ac4  1  0.152289  0.621826  0.326762  1
  Ac  Ac5  1  0.501093  0.597584  0.676665  1
  Ac  Ac6  1  0.999921  0.905497  0.822202  1
  Ac  Ac7  1  0.498587  0.097122  0.320012  1
  Ac  Ac8  1  0.997309  0.399243  0.179846  1
  Ac  Ac9  1  0.498437  0.400561  0.325024  1
  Ac  Ac10  1  0.999233  0.097289  0.176567  1
  Ac  Ac11  1  0.502947  0.905953  0.680181  1
  Ac  Ac12  1  0.000954  0.598379  0.817850  1
  Y  Y13  1  0.652226  0.625885  0.170011  1
  Y  Y14  1  0.154467  0.877731  0.328211  1
  Y  Y15  1  0.343831  0.124338  0.829774  1
  Y  Y16  1  0.847581  0.373377  0.670804  1
  Y  Y17  1  0.352190  0.370963  0.829649  1
  Y  Y18  1  0.847157  0.124448  0.672046  1
  Y  Y19  1  0.651281  0.878050  0.168854  1
  Pb  Pb20  1  0.680698  0.462094  0.955683  1
  Pb  Pb21  1  0.176206  0.039367  0.541297  1
  Pb  Pb22  1  0.319815  0.963058  0.043614  1
  Pb  Pb23  1  0.805833  0.533377  0.456126  1
  Pb  Pb24  1  0.332905  0.533529  0.034266  1
  Pb  Pb25  1  0.823856  0.962395  0.456500  1
  Pb  Pb26  1  0.679522  0.039359  0.955464  1
  Pb  Pb27  1  0.178922  0.453941  0.552154  1
  Pb  Pb28  1  0.461121  0.756146  0.377088  1
  Pb  Pb29  1  0.947994  0.754370  0.120393  1
  Pb  Pb30  1  0.546866  0.246981  0.628412  1
  Pb  Pb31  1  0.045172  0.249329  0.874177  1
  Pb  Pb32  1  0.689369  0.751478  0.873714  1
  Pb  Pb33  1  0.198177  0.755665  0.630919  1
  Pb  Pb34  1  0.305883  0.249067  0.125424  1
  Pb  Pb35  1  0.806963  0.247760  0.377552  1
