# generated using pymatgen
data_BaBeO2
_symmetry_space_group_name_H-M   'P 1'
_cell_length_a   6.04592838
_cell_length_b   6.04592847
_cell_length_c   7.31804500
_cell_angle_alpha   90.00000000
_cell_angle_beta   90.00000000
_cell_angle_gamma   126.06652841
_symmetry_Int_Tables_number   1
_chemical_formula_structural   BaBeO2
_chemical_formula_sum   'Ba4 Be4 O8'
_cell_volume   216.22798331
_cell_formula_units_Z   4
loop_
 _symmetry_equiv_pos_site_id
 _symmetry_equiv_pos_as_xyz
  1  'x, y, z'
loop_
 _atom_site_type_symbol
 _atom_site_label
 _atom_site_symmetry_multiplicity
 _atom_site_fract_x
 _atom_site_fract_y
 _atom_site_fract_z
 _atom_site_occupancy
  Ba  Ba0  1  0.156666  0.843334  0.564980  1
  Ba  Ba1  1  0.843334  0.156666  0.435020  1
  Ba  Ba2  1  0.343334  0.656666  0.064980  1
  Ba  Ba3  1  0.656666  0.343334  0.935020  1
  Be  Be4  1  0.951962  0.048038  0.862787  1
  Be  Be5  1  0.548038  0.451962  0.362787  1
  Be  Be6  1  0.048038  0.951962  0.137213  1
  Be  Be7  1  0.451962  0.548038  0.637213  1
  O  O8  1  0.161915  0.338085  0.750000  1
  O  O9  1  0.338085  0.161915  0.250000  1
  O  O10  1  0.838085  0.661915  0.250000  1
  O  O11  1  0.661915  0.838085  0.750000  1
  O  O12  1  0.106881  0.893119  0.923777  1
  O  O13  1  0.606881  0.393119  0.576223  1
  O  O14  1  0.393119  0.606881  0.423777  1
  O  O15  1  0.893119  0.106881  0.076223  1
