# generated using pymatgen
data_Cs11LiMn4O16
_symmetry_space_group_name_H-M   'P 1'
_cell_length_a   8.49505180
_cell_length_b   8.49588969
_cell_length_c   11.67140958
_cell_angle_alpha   111.33903710
_cell_angle_beta   111.33671543
_cell_angle_gamma   90.01502806
_symmetry_Int_Tables_number   1
_chemical_formula_structural   Cs11LiMn4O16
_chemical_formula_sum   'Cs11 Li1 Mn4 O16'
_cell_volume   722.23889175
_cell_formula_units_Z   1
loop_
 _symmetry_equiv_pos_site_id
 _symmetry_equiv_pos_as_xyz
  1  'x, y, z'
loop_
 _atom_site_type_symbol
 _atom_site_label
 _atom_site_symmetry_multiplicity
 _atom_site_fract_x
 _atom_site_fract_y
 _atom_site_fract_z
 _atom_site_occupancy
  Cs  Cs0  1  0.294522  0.294665  0.589267  1
  Cs  Cs1  1  0.499906  0.999885  0.000015  1
  Cs  Cs2  1  0.249958  0.749963  0.499960  1
  Cs  Cs3  1  0.935278  0.935419  0.240003  1
  Cs  Cs4  1  0.064674  0.695214  0.759923  1
  Cs  Cs5  1  0.705330  0.705433  0.410753  1
  Cs  Cs6  1  0.999898  0.499913  0.999968  1
  Cs  Cs7  1  0.695325  0.064636  0.759965  1
  Cs  Cs8  1  0.304446  0.304508  0.239859  1
  Cs  Cs9  1  0.749919  0.250032  0.499947  1
  Cs  Cs10  1  0.499849  0.499904  0.999976  1
  Li  Li11  1  0.999951  0.999920  0.999983  1
  Mn  Mn12  1  0.872195  0.362549  0.234900  1
  Mn  Mn13  1  0.127639  0.127578  0.765174  1
  Mn  Mn14  1  0.637832  0.637584  0.765131  1
  Mn  Mn15  1  0.362495  0.872450  0.234979  1
  O  O16  1  0.364665  0.018626  0.384100  1
  O  O17  1  0.798907  0.798491  0.897327  1
  O  O18  1  0.669695  0.328872  0.230029  1
  O  O19  1  0.328887  0.669949  0.230172  1
  O  O20  1  0.018554  0.364754  0.383975  1
  O  O21  1  0.560403  0.902080  0.230665  1
  O  O22  1  0.329958  0.098424  0.769755  1
  O  O23  1  0.201448  0.901508  0.102956  1
  O  O24  1  0.635645  0.635282  0.616056  1
  O  O25  1  0.098528  0.098407  0.897121  1
  O  O26  1  0.671442  0.439773  0.769551  1
  O  O27  1  0.981130  0.980969  0.615914  1
  O  O28  1  0.901701  0.560390  0.230478  1
  O  O29  1  0.901281  0.201617  0.102774  1
  O  O30  1  0.098454  0.329914  0.769707  1
  O  O31  1  0.440084  0.671289  0.769618  1
