# generated using pymatgen
data_K8HfZrSe8
_symmetry_space_group_name_H-M   'P 1'
_cell_length_a   8.52605105
_cell_length_b   10.28721600
_cell_length_c   15.07069709
_cell_angle_alpha   90.00000000
_cell_angle_beta   89.98735524
_cell_angle_gamma   90.00000000
_symmetry_Int_Tables_number   1
_chemical_formula_structural   K8HfZrSe8
_chemical_formula_sum   'K16 Hf2 Zr2 Se16'
_cell_volume   1321.84069425
_cell_formula_units_Z   2
loop_
 _symmetry_equiv_pos_site_id
 _symmetry_equiv_pos_as_xyz
  1  'x, y, z'
loop_
 _atom_site_type_symbol
 _atom_site_label
 _atom_site_symmetry_multiplicity
 _atom_site_fract_x
 _atom_site_fract_y
 _atom_site_fract_z
 _atom_site_occupancy
  K  K0  1  0.000000  0.000000  0.000000  1
  K  K1  1  0.500000  0.000000  0.500000  1
  K  K2  1  0.000000  0.500000  0.000000  1
  K  K3  1  0.500000  0.500000  0.500000  1
  K  K4  1  0.983897  0.750000  0.429975  1
  K  K5  1  0.483472  0.250000  0.070630  1
  K  K6  1  0.016103  0.250000  0.570025  1
  K  K7  1  0.516528  0.750000  0.929370  1
  K  K8  1  0.847267  0.055645  0.275909  1
  K  K9  1  0.347320  0.945281  0.224251  1
  K  K10  1  0.152733  0.555645  0.724091  1
  K  K11  1  0.652680  0.445281  0.775749  1
  K  K12  1  0.152733  0.944355  0.724091  1
  K  K13  1  0.652680  0.054719  0.775749  1
  K  K14  1  0.847267  0.444355  0.275909  1
  K  K15  1  0.347320  0.554719  0.224251  1
  Hf  Hf16  1  0.753322  0.750000  0.667868  1
  Hf  Hf17  1  0.246678  0.250000  0.332132  1
  Zr  Zr18  1  0.746857  0.750000  0.167959  1
  Zr  Zr19  1  0.253143  0.250000  0.832041  1
  Se  Se20  1  0.954663  0.250000  0.824513  1
  Se  Se21  1  0.542464  0.250000  0.323840  1
  Se  Se22  1  0.457536  0.750000  0.676160  1
  Se  Se23  1  0.045337  0.750000  0.175487  1
  Se  Se24  1  0.655328  0.545178  0.089849  1
  Se  Se25  1  0.155346  0.452987  0.409513  1
  Se  Se26  1  0.344672  0.045178  0.910151  1
  Se  Se27  1  0.844654  0.952987  0.590487  1
  Se  Se28  1  0.344672  0.454822  0.910151  1
  Se  Se29  1  0.844654  0.547013  0.590487  1
  Se  Se30  1  0.655328  0.954822  0.089849  1
  Se  Se31  1  0.155346  0.047013  0.409513  1
  Se  Se32  1  0.628926  0.750000  0.324713  1
  Se  Se33  1  0.130819  0.250000  0.176789  1
  Se  Se34  1  0.371074  0.250000  0.675287  1
  Se  Se35  1  0.869181  0.750000  0.823211  1
