# generated using pymatgen
data_Yb2Ge(PRh2)6
_symmetry_space_group_name_H-M   'P 1'
_cell_length_a   9.66378400
_cell_length_b   9.66378225
_cell_length_c   3.85777300
_cell_angle_alpha   90.00000000
_cell_angle_beta   90.00000000
_cell_angle_gamma   119.99999914
_symmetry_Int_Tables_number   1
_chemical_formula_structural   Yb2Ge(PRh2)6
_chemical_formula_sum   'Yb2 Ge1 P6 Rh12'
_cell_volume   312.00507244
_cell_formula_units_Z   1
loop_
 _symmetry_equiv_pos_site_id
 _symmetry_equiv_pos_as_xyz
  1  'x, y, z'
loop_
 _atom_site_type_symbol
 _atom_site_label
 _atom_site_symmetry_multiplicity
 _atom_site_fract_x
 _atom_site_fract_y
 _atom_site_fract_z
 _atom_site_occupancy
  Yb  Yb0  1  0.333333  0.666667  0.749372  1
  Yb  Yb1  1  0.666667  0.333333  0.250628  1
  Ge  Ge2  1  0.000000  0.000000  0.500000  1
  P  P3  1  0.404607  0.286984  0.751564  1
  P  P4  1  0.713016  0.117622  0.751564  1
  P  P5  1  0.882378  0.595393  0.751564  1
  P  P6  1  0.595393  0.713016  0.248436  1
  P  P7  1  0.286984  0.882378  0.248436  1
  P  P8  1  0.117622  0.404607  0.248436  1
  Rh  Rh9  1  0.449064  0.064708  0.750771  1
  Rh  Rh10  1  0.935292  0.384354  0.750771  1
  Rh  Rh11  1  0.615646  0.550936  0.750771  1
  Rh  Rh12  1  0.550936  0.935292  0.249229  1
  Rh  Rh13  1  0.064708  0.615646  0.249229  1
  Rh  Rh14  1  0.384354  0.449064  0.249229  1
  Rh  Rh15  1  0.155819  0.274578  0.751075  1
  Rh  Rh16  1  0.725422  0.881242  0.751075  1
  Rh  Rh17  1  0.118758  0.844181  0.751075  1
  Rh  Rh18  1  0.844181  0.725422  0.248925  1
  Rh  Rh19  1  0.274578  0.118758  0.248925  1
  Rh  Rh20  1  0.881242  0.155819  0.248925  1
