# generated using pymatgen
data_Yb5As12Pd3Rh16
_symmetry_space_group_name_H-M   'P 1'
_cell_length_a   13.26181900
_cell_length_b   13.26181962
_cell_length_c   3.99178600
_cell_angle_alpha   90.00000000
_cell_angle_beta   90.00000000
_cell_angle_gamma   120.00000595
_symmetry_Int_Tables_number   1
_chemical_formula_structural   Yb5As12Pd3Rh16
_chemical_formula_sum   'Yb5 As12 Pd3 Rh16'
_cell_volume   608.00068572
_cell_formula_units_Z   1
loop_
 _symmetry_equiv_pos_site_id
 _symmetry_equiv_pos_as_xyz
  1  'x, y, z'
loop_
 _atom_site_type_symbol
 _atom_site_label
 _atom_site_symmetry_multiplicity
 _atom_site_fract_x
 _atom_site_fract_y
 _atom_site_fract_z
 _atom_site_occupancy
  Yb  Yb0  1  0.183916  0.183916  0.500000  1
  Yb  Yb1  1  0.816084  0.000000  0.500000  1
  Yb  Yb2  1  0.000000  0.816084  0.500000  1
  Yb  Yb3  1  0.333333  0.666667  0.000000  1
  Yb  Yb4  1  0.666667  0.333333  0.000000  1
  As  As5  1  0.819816  0.819816  0.000000  1
  As  As6  1  0.180184  0.000000  0.000000  1
  As  As7  1  0.000000  0.180184  0.000000  1
  As  As8  1  0.171113  0.483877  0.500000  1
  As  As9  1  0.516123  0.687235  0.500000  1
  As  As10  1  0.312765  0.828887  0.500000  1
  As  As11  1  0.687235  0.516123  0.500000  1
  As  As12  1  0.828887  0.312765  0.500000  1
  As  As13  1  0.483877  0.171113  0.500000  1
  As  As14  1  0.364421  0.364421  0.000000  1
  As  As15  1  0.635579  0.000000  0.000000  1
  As  As16  1  0.000000  0.635579  0.000000  1
  Pd  Pd17  1  0.551593  0.551593  0.000000  1
  Pd  Pd18  1  0.448407  0.000000  0.000000  1
  Pd  Pd19  1  0.000000  0.448407  0.000000  1
  Rh  Rh20  1  0.712223  0.712223  0.500000  1
  Rh  Rh21  1  0.287777  0.000000  0.500000  1
  Rh  Rh22  1  0.000000  0.287777  0.500000  1
  Rh  Rh23  1  0.180400  0.373422  0.000000  1
  Rh  Rh24  1  0.626578  0.806979  0.000000  1
  Rh  Rh25  1  0.193021  0.819600  0.000000  1
  Rh  Rh26  1  0.806979  0.626578  0.000000  1
  Rh  Rh27  1  0.819600  0.193021  0.000000  1
  Rh  Rh28  1  0.373422  0.180400  0.000000  1
  Rh  Rh29  1  0.357314  0.486543  0.500000  1
  Rh  Rh30  1  0.513457  0.870771  0.500000  1
  Rh  Rh31  1  0.129229  0.642686  0.500000  1
  Rh  Rh32  1  0.870771  0.513457  0.500000  1
  Rh  Rh33  1  0.642686  0.129229  0.500000  1
  Rh  Rh34  1  0.486543  0.357314  0.500000  1
  Rh  Rh35  1  0.000000  0.000000  0.000000  1
