# generated using pymatgen
data_La4LuRu2
_symmetry_space_group_name_H-M   'P 1'
_cell_length_a   6.66291190
_cell_length_b   7.20006851
_cell_length_c   9.01645531
_cell_angle_alpha   94.51303643
_cell_angle_beta   111.68393615
_cell_angle_gamma   90.00000317
_symmetry_Int_Tables_number   1
_chemical_formula_structural   La4LuRu2
_chemical_formula_sum   'La8 Lu2 Ru4'
_cell_volume   400.49769158
_cell_formula_units_Z   2
loop_
 _symmetry_equiv_pos_site_id
 _symmetry_equiv_pos_as_xyz
  1  'x, y, z'
loop_
 _atom_site_type_symbol
 _atom_site_label
 _atom_site_symmetry_multiplicity
 _atom_site_fract_x
 _atom_site_fract_y
 _atom_site_fract_z
 _atom_site_occupancy
  La  La0  1  0.792777  0.091085  0.818879  1
  La  La1  1  0.973899  0.408915  0.181121  1
  La  La2  1  0.207223  0.908915  0.181121  1
  La  La3  1  0.026101  0.591085  0.818879  1
  La  La4  1  0.209862  0.184459  0.573785  1
  La  La5  1  0.636077  0.315541  0.426215  1
  La  La6  1  0.790138  0.815541  0.426215  1
  La  La7  1  0.363923  0.684459  0.573785  1
  Lu  Lu8  1  0.431154  0.250000  0.000000  1
  Lu  Lu9  1  0.568846  0.750000  0.000000  1
  Ru  Ru10  1  0.601050  0.421624  0.784623  1
  Ru  Ru11  1  0.816426  0.078376  0.215377  1
  Ru  Ru12  1  0.398950  0.578376  0.215377  1
  Ru  Ru13  1  0.183574  0.921624  0.784623  1
