# generated using pymatgen
data_Tb7Tm13Pt16
_symmetry_space_group_name_H-M   'P 1'
_cell_length_a   7.40771858
_cell_length_b   7.51521549
_cell_length_c   14.70724421
_cell_angle_alpha   90.00681915
_cell_angle_beta   90.06252778
_cell_angle_gamma   89.95914497
_symmetry_Int_Tables_number   1
_chemical_formula_structural   Tb7Tm13Pt16
_chemical_formula_sum   'Tb7 Tm13 Pt16'
_cell_volume   818.76042862
_cell_formula_units_Z   1
loop_
 _symmetry_equiv_pos_site_id
 _symmetry_equiv_pos_as_xyz
  1  'x, y, z'
loop_
 _atom_site_type_symbol
 _atom_site_label
 _atom_site_symmetry_multiplicity
 _atom_site_fract_x
 _atom_site_fract_y
 _atom_site_fract_z
 _atom_site_occupancy
  Tb  Tb0  1  0.978853  0.827292  0.903303  1
  Tb  Tb1  1  0.521371  0.327145  0.096079  1
  Tb  Tb2  1  0.022592  0.172300  0.403583  1
  Tb  Tb3  1  0.521515  0.329381  0.404421  1
  Tb  Tb4  1  0.021351  0.172398  0.096126  1
  Tb  Tb5  1  0.478665  0.672611  0.903784  1
  Tb  Tb6  1  0.977645  0.827067  0.596215  1
  Tm  Tm7  1  0.635054  0.169312  0.621152  1
  Tm  Tm8  1  0.135916  0.330391  0.878247  1
  Tm  Tm9  1  0.364276  0.830444  0.121480  1
  Tm  Tm10  1  0.864820  0.668975  0.378901  1
  Tm  Tm11  1  0.366275  0.829700  0.379456  1
  Tm  Tm12  1  0.864603  0.669814  0.121119  1
  Tm  Tm13  1  0.635595  0.169639  0.878201  1
  Tm  Tm14  1  0.136031  0.331106  0.620696  1
  Tm  Tm15  1  0.477378  0.672787  0.597343  1
  Tm  Tm16  1  0.797449  0.509979  0.749282  1
  Tm  Tm17  1  0.297416  0.989722  0.749411  1
  Tm  Tm18  1  0.202438  0.489738  0.250145  1
  Tm  Tm19  1  0.702422  0.010322  0.250260  1
  Pt  Pt20  1  0.696642  0.973096  0.457139  1
  Pt  Pt21  1  0.195355  0.527222  0.042540  1
  Pt  Pt22  1  0.305128  0.027119  0.957094  1
  Pt  Pt23  1  0.799878  0.475807  0.543851  1
  Pt  Pt24  1  0.305221  0.023185  0.544337  1
  Pt  Pt25  1  0.805123  0.472560  0.956961  1
  Pt  Pt26  1  0.695040  0.972526  0.042473  1
  Pt  Pt27  1  0.196277  0.529620  0.458856  1
  Pt  Pt28  1  0.429897  0.380298  0.749277  1
  Pt  Pt29  1  0.929037  0.120321  0.749627  1
  Pt  Pt30  1  0.570585  0.620781  0.250079  1
  Pt  Pt31  1  0.070688  0.878635  0.250322  1
  Pt  Pt32  1  0.658665  0.859272  0.748586  1
  Pt  Pt33  1  0.160940  0.639532  0.749063  1
  Pt  Pt34  1  0.339767  0.139452  0.250469  1
  Pt  Pt35  1  0.840093  0.360451  0.250119  1
