# generated using pymatgen
data_ErTmCo2Pb
_symmetry_space_group_name_H-M   'P 1'
_cell_length_a   7.23073385
_cell_length_b   7.23073273
_cell_length_c   3.88786800
_cell_angle_alpha   90.00000000
_cell_angle_beta   90.00000000
_cell_angle_gamma   149.27437860
_symmetry_Int_Tables_number   1
_chemical_formula_structural   ErTmCo2Pb
_chemical_formula_sum   'Er1 Tm1 Co2 Pb1'
_cell_volume   103.85690309
_cell_formula_units_Z   1
loop_
 _symmetry_equiv_pos_site_id
 _symmetry_equiv_pos_as_xyz
  1  'x, y, z'
loop_
 _atom_site_type_symbol
 _atom_site_label
 _atom_site_symmetry_multiplicity
 _atom_site_fract_x
 _atom_site_fract_y
 _atom_site_fract_z
 _atom_site_occupancy
  Er  Er0  1  0.640648  0.359352  0.500000  1
  Tm  Tm1  1  0.359033  0.640967  0.500000  1
  Co  Co2  1  0.793009  0.206991  0.000000  1
  Co  Co3  1  0.207798  0.792202  0.000000  1
  Pb  Pb4  1  0.999511  0.000489  0.000000  1
