# generated using pymatgen
data_Lu6Zn23Se
_symmetry_space_group_name_H-M   'P 1'
_cell_length_a   8.99520521
_cell_length_b   8.99520514
_cell_length_c   8.99520500
_cell_angle_alpha   59.99999684
_cell_angle_beta   59.99999711
_cell_angle_gamma   59.99999781
_symmetry_Int_Tables_number   1
_chemical_formula_structural   Lu6Zn23Se
_chemical_formula_sum   'Lu6 Zn23 Se1'
_cell_volume   514.65736045
_cell_formula_units_Z   1
loop_
 _symmetry_equiv_pos_site_id
 _symmetry_equiv_pos_as_xyz
  1  'x, y, z'
loop_
 _atom_site_type_symbol
 _atom_site_label
 _atom_site_symmetry_multiplicity
 _atom_site_fract_x
 _atom_site_fract_y
 _atom_site_fract_z
 _atom_site_occupancy
  Lu  Lu0  1  0.716577  0.283423  0.283423  1
  Lu  Lu1  1  0.716577  0.283423  0.716577  1
  Lu  Lu2  1  0.716577  0.716577  0.283423  1
  Lu  Lu3  1  0.283423  0.716577  0.716577  1
  Lu  Lu4  1  0.283423  0.716577  0.283423  1
  Lu  Lu5  1  0.283423  0.283423  0.716577  1
  Zn  Zn6  1  0.624988  0.125004  0.125004  1
  Zn  Zn7  1  0.125004  0.624988  0.125004  1
  Zn  Zn8  1  0.125004  0.125004  0.624988  1
  Zn  Zn9  1  0.125004  0.125004  0.125004  1
  Zn  Zn10  1  0.375012  0.874996  0.874996  1
  Zn  Zn11  1  0.874996  0.375012  0.874996  1
  Zn  Zn12  1  0.874996  0.874996  0.375012  1
  Zn  Zn13  1  0.874996  0.874996  0.874996  1
  Zn  Zn14  1  0.500000  0.000000  0.000000  1
  Zn  Zn15  1  0.500000  0.000000  0.500000  1
  Zn  Zn16  1  0.500000  0.500000  0.000000  1
  Zn  Zn17  1  0.000000  0.500000  0.500000  1
  Zn  Zn18  1  0.000000  0.500000  0.000000  1
  Zn  Zn19  1  0.000000  0.000000  0.500000  1
  Zn  Zn20  1  0.000000  0.000000  0.000000  1
  Zn  Zn21  1  0.007991  0.330670  0.330670  1
  Zn  Zn22  1  0.330670  0.007991  0.330670  1
  Zn  Zn23  1  0.330670  0.330670  0.007991  1
  Zn  Zn24  1  0.330670  0.330670  0.330670  1
  Zn  Zn25  1  0.992009  0.669330  0.669330  1
  Zn  Zn26  1  0.669330  0.992009  0.669330  1
  Zn  Zn27  1  0.669330  0.669330  0.992009  1
  Zn  Zn28  1  0.669330  0.669330  0.669330  1
  Se  Se29  1  0.500000  0.500000  0.500000  1
