# generated using pymatgen
data_LaSm2Al7Cu2
_symmetry_space_group_name_H-M   'P 1'
_cell_length_a   9.23931051
_cell_length_b   9.23931154
_cell_length_c   9.23931000
_cell_angle_alpha   35.13536570
_cell_angle_beta   35.13537132
_cell_angle_gamma   35.13536179
_symmetry_Int_Tables_number   1
_chemical_formula_structural   LaSm2Al7Cu2
_chemical_formula_sum   'La1 Sm2 Al7 Cu2'
_cell_volume   233.30214879
_cell_formula_units_Z   1
loop_
 _symmetry_equiv_pos_site_id
 _symmetry_equiv_pos_as_xyz
  1  'x, y, z'
loop_
 _atom_site_type_symbol
 _atom_site_label
 _atom_site_symmetry_multiplicity
 _atom_site_fract_x
 _atom_site_fract_y
 _atom_site_fract_z
 _atom_site_occupancy
  La  La0  1  0.000000  0.000000  0.000000  1
  Sm  Sm1  1  0.857828  0.857828  0.857828  1
  Sm  Sm2  1  0.142172  0.142172  0.142172  1
  Al  Al3  1  0.418104  0.418104  0.927339  1
  Al  Al4  1  0.927339  0.418104  0.418104  1
  Al  Al5  1  0.418104  0.927339  0.418104  1
  Al  Al6  1  0.500000  0.500000  0.500000  1
  Al  Al7  1  0.581896  0.072661  0.581896  1
  Al  Al8  1  0.072661  0.581896  0.581896  1
  Al  Al9  1  0.581896  0.581896  0.072661  1
  Cu  Cu10  1  0.664270  0.664270  0.664270  1
  Cu  Cu11  1  0.335730  0.335730  0.335730  1
