# generated using pymatgen
data_NaPr(AgO2)4
_symmetry_space_group_name_H-M   'P 1'
_cell_length_a   6.73354961
_cell_length_b   6.73354964
_cell_length_c   6.73354900
_cell_angle_alpha   125.61220388
_cell_angle_beta   125.61219354
_cell_angle_gamma   80.52645104
_symmetry_Int_Tables_number   1
_chemical_formula_structural   NaPr(AgO2)4
_chemical_formula_sum   'Na1 Pr1 Ag4 O8'
_cell_volume   194.62680887
_cell_formula_units_Z   1
loop_
 _symmetry_equiv_pos_site_id
 _symmetry_equiv_pos_as_xyz
  1  'x, y, z'
loop_
 _atom_site_type_symbol
 _atom_site_label
 _atom_site_symmetry_multiplicity
 _atom_site_fract_x
 _atom_site_fract_y
 _atom_site_fract_z
 _atom_site_occupancy
  Na  Na0  1  0.000000  0.000000  0.000000  1
  Pr  Pr1  1  0.750000  0.250000  0.500000  1
  Ag  Ag2  1  0.875211  0.632486  0.259088  1
  Ag  Ag3  1  0.383877  0.124789  0.757275  1
  Ag  Ag4  1  0.367514  0.626602  0.242725  1
  Ag  Ag5  1  0.373398  0.616123  0.740912  1
  O  O6  1  0.357192  0.984578  0.942254  1
  O  O7  1  0.689710  0.848046  0.430510  1
  O  O8  1  0.740800  0.310290  0.158335  1
  O  O9  1  0.585063  0.642808  0.627387  1
  O  O10  1  0.151954  0.582465  0.841665  1
  O  O11  1  0.015422  0.957677  0.372613  1
  O  O12  1  0.042323  0.414937  0.057746  1
  O  O13  1  0.417535  0.259200  0.569490  1
