# generated using pymatgen
data_Y6Er10Cd3InPd4
_symmetry_space_group_name_H-M   'P 1'
_cell_length_a   9.65606446
_cell_length_b   9.65606392
_cell_length_c   9.65606335
_cell_angle_alpha   60.07081965
_cell_angle_beta   60.07082154
_cell_angle_gamma   60.07082222
_symmetry_Int_Tables_number   1
_chemical_formula_structural   Y6Er10Cd3InPd4
_chemical_formula_sum   'Y6 Er10 Cd3 In1 Pd4'
_cell_volume   637.64927368
_cell_formula_units_Z   1
loop_
 _symmetry_equiv_pos_site_id
 _symmetry_equiv_pos_as_xyz
  1  'x, y, z'
loop_
 _atom_site_type_symbol
 _atom_site_label
 _atom_site_symmetry_multiplicity
 _atom_site_fract_x
 _atom_site_fract_y
 _atom_site_fract_z
 _atom_site_occupancy
  Y  Y0  1  0.936252  0.565796  0.565796  1
  Y  Y1  1  0.564135  0.936248  0.936248  1
  Y  Y2  1  0.565796  0.936252  0.565796  1
  Y  Y3  1  0.936248  0.564135  0.936248  1
  Y  Y4  1  0.565796  0.565796  0.936252  1
  Y  Y5  1  0.936248  0.936248  0.564135  1
  Er  Er6  1  0.351809  0.351809  0.351809  1
  Er  Er7  1  0.355572  0.355572  0.937174  1
  Er  Er8  1  0.355572  0.937174  0.355572  1
  Er  Er9  1  0.937174  0.355572  0.355572  1
  Er  Er10  1  0.811291  0.188907  0.188907  1
  Er  Er11  1  0.189749  0.810298  0.810298  1
  Er  Er12  1  0.188907  0.811291  0.188907  1
  Er  Er13  1  0.810298  0.189749  0.810298  1
  Er  Er14  1  0.188907  0.188907  0.811291  1
  Er  Er15  1  0.810298  0.810298  0.189749  1
  Cd  Cd16  1  0.581105  0.581105  0.252185  1
  Cd  Cd17  1  0.581105  0.252185  0.581105  1
  Cd  Cd18  1  0.252185  0.581105  0.581105  1
  In  In19  1  0.582643  0.582643  0.582643  1
  Pd  Pd20  1  0.145383  0.145383  0.145383  1
  Pd  Pd21  1  0.143031  0.143031  0.567464  1
  Pd  Pd22  1  0.143031  0.567464  0.143031  1
  Pd  Pd23  1  0.567464  0.143031  0.143031  1
