# generated using pymatgen
data_Ho2TmHg5
_symmetry_space_group_name_H-M   'P 1'
_cell_length_a   6.35415425
_cell_length_b   6.35415368
_cell_length_c   10.09882600
_cell_angle_alpha   90.00000000
_cell_angle_beta   90.00000000
_cell_angle_gamma   105.38518448
_symmetry_Int_Tables_number   1
_chemical_formula_structural   Ho2TmHg5
_chemical_formula_sum   'Ho4 Tm2 Hg10'
_cell_volume   393.13099587
_cell_formula_units_Z   2
loop_
 _symmetry_equiv_pos_site_id
 _symmetry_equiv_pos_as_xyz
  1  'x, y, z'
loop_
 _atom_site_type_symbol
 _atom_site_label
 _atom_site_symmetry_multiplicity
 _atom_site_fract_x
 _atom_site_fract_y
 _atom_site_fract_z
 _atom_site_occupancy
  Ho  Ho0  1  0.214448  0.785552  0.500000  1
  Ho  Ho1  1  0.214448  0.785552  0.000000  1
  Ho  Ho2  1  0.785552  0.214448  0.500000  1
  Ho  Ho3  1  0.785552  0.214448  0.000000  1
  Tm  Tm4  1  0.571008  0.571008  0.250000  1
  Tm  Tm5  1  0.428992  0.428992  0.750000  1
  Hg  Hg6  1  0.973192  0.973192  0.250000  1
  Hg  Hg7  1  0.026808  0.026808  0.750000  1
  Hg  Hg8  1  0.294143  0.294143  0.029610  1
  Hg  Hg9  1  0.705857  0.705857  0.970390  1
  Hg  Hg10  1  0.294143  0.294143  0.470390  1
  Hg  Hg11  1  0.705857  0.705857  0.529610  1
  Hg  Hg12  1  0.481861  0.038889  0.250000  1
  Hg  Hg13  1  0.961111  0.518139  0.750000  1
  Hg  Hg14  1  0.518139  0.961111  0.750000  1
  Hg  Hg15  1  0.038889  0.481861  0.250000  1
