# generated using pymatgen
data_TbYb12Tm7Si16
_symmetry_space_group_name_H-M   'P 1'
_cell_length_a   7.35492977
_cell_length_b   7.78059153
_cell_length_c   15.02952397
_cell_angle_alpha   89.98072474
_cell_angle_beta   90.03637786
_cell_angle_gamma   90.03764791
_symmetry_Int_Tables_number   1
_chemical_formula_structural   TbYb12Tm7Si16
_chemical_formula_sum   'Tb1 Yb12 Tm7 Si16'
_cell_volume   860.07468615
_cell_formula_units_Z   1
loop_
 _symmetry_equiv_pos_site_id
 _symmetry_equiv_pos_as_xyz
  1  'x, y, z'
loop_
 _atom_site_type_symbol
 _atom_site_label
 _atom_site_symmetry_multiplicity
 _atom_site_fract_x
 _atom_site_fract_y
 _atom_site_fract_z
 _atom_site_occupancy
  Tb  Tb0  1  0.314357  0.177303  0.120968  1
  Yb  Yb1  1  0.973465  0.816267  0.404293  1
  Yb  Yb2  1  0.474174  0.683351  0.095929  1
  Yb  Yb3  1  0.526206  0.316567  0.595946  1
  Yb  Yb4  1  0.025976  0.183578  0.903815  1
  Yb  Yb5  1  0.026324  0.183479  0.595967  1
  Yb  Yb6  1  0.526684  0.316564  0.903723  1
  Yb  Yb7  1  0.473722  0.683488  0.404212  1
  Yb  Yb8  1  0.973183  0.816149  0.095947  1
  Yb  Yb9  1  0.352280  0.019925  0.749906  1
  Yb  Yb10  1  0.852145  0.479990  0.750019  1
  Yb  Yb11  1  0.147649  0.520365  0.250349  1
  Yb  Yb12  1  0.647943  0.979722  0.250210  1
  Tm  Tm13  1  0.814990  0.323771  0.379095  1
  Tm  Tm14  1  0.185298  0.676360  0.878435  1
  Tm  Tm15  1  0.685273  0.823560  0.621233  1
  Tm  Tm16  1  0.314600  0.176149  0.379211  1
  Tm  Tm17  1  0.814549  0.324325  0.121114  1
  Tm  Tm18  1  0.185269  0.676385  0.621251  1
  Tm  Tm19  1  0.685807  0.823335  0.878272  1
  Si  Si20  1  0.856829  0.533876  0.538355  1
  Si  Si21  1  0.358247  0.964902  0.960542  1
  Si  Si22  1  0.643080  0.033735  0.461683  1
  Si  Si23  1  0.140991  0.467609  0.037633  1
  Si  Si24  1  0.143316  0.466062  0.461777  1
  Si  Si25  1  0.645395  0.032805  0.037537  1
  Si  Si26  1  0.356743  0.966136  0.538391  1
  Si  Si27  1  0.855944  0.534500  0.961403  1
  Si  Si28  1  0.977330  0.879639  0.749936  1
  Si  Si29  1  0.477257  0.620275  0.749911  1
  Si  Si30  1  0.523805  0.381175  0.250561  1
  Si  Si31  1  0.021596  0.119390  0.251101  1
  Si  Si32  1  0.248868  0.396457  0.749959  1
  Si  Si33  1  0.749092  0.103358  0.749926  1
  Si  Si34  1  0.249792  0.895418  0.251123  1
  Si  Si35  1  0.751822  0.604030  0.250266  1
