# generated using pymatgen
data_LaPr15Cd4IrRu3
_symmetry_space_group_name_H-M   'P 1'
_cell_length_a   10.04712865
_cell_length_b   10.05700654
_cell_length_c   10.05700643
_cell_angle_alpha   59.68474229
_cell_angle_beta   59.68558202
_cell_angle_gamma   59.68558206
_symmetry_Int_Tables_number   1
_chemical_formula_structural   LaPr15Cd4IrRu3
_chemical_formula_sum   'La1 Pr15 Cd4 Ir1 Ru3'
_cell_volume   713.42531170
_cell_formula_units_Z   1
loop_
 _symmetry_equiv_pos_site_id
 _symmetry_equiv_pos_as_xyz
  1  'x, y, z'
loop_
 _atom_site_type_symbol
 _atom_site_label
 _atom_site_symmetry_multiplicity
 _atom_site_fract_x
 _atom_site_fract_y
 _atom_site_fract_z
 _atom_site_occupancy
  La  La0  1  0.343049  0.346143  0.346143  1
  Pr  Pr1  1  0.344634  0.346918  0.959152  1
  Pr  Pr2  1  0.344634  0.959152  0.346918  1
  Pr  Pr3  1  0.960318  0.345390  0.345390  1
  Pr  Pr4  1  0.811371  0.190617  0.190617  1
  Pr  Pr5  1  0.190322  0.810277  0.810277  1
  Pr  Pr6  1  0.190943  0.809842  0.189819  1
  Pr  Pr7  1  0.811623  0.190657  0.808027  1
  Pr  Pr8  1  0.190943  0.189819  0.809842  1
  Pr  Pr9  1  0.811623  0.808027  0.190657  1
  Pr  Pr10  1  0.938227  0.562280  0.562280  1
  Pr  Pr11  1  0.559844  0.939576  0.939576  1
  Pr  Pr12  1  0.561133  0.938148  0.562792  1
  Pr  Pr13  1  0.939314  0.560968  0.939454  1
  Pr  Pr14  1  0.561133  0.562792  0.938148  1
  Pr  Pr15  1  0.939314  0.939454  0.560968  1
  Cd  Cd16  1  0.579540  0.579390  0.579390  1
  Cd  Cd17  1  0.579945  0.580078  0.260674  1
  Cd  Cd18  1  0.579945  0.260674  0.580078  1
  Cd  Cd19  1  0.260929  0.579897  0.579897  1
  Ir  Ir20  1  0.578457  0.140840  0.140840  1
  Ru  Ru21  1  0.140081  0.137144  0.137144  1
  Ru  Ru22  1  0.141338  0.139367  0.582550  1
  Ru  Ru23  1  0.141338  0.582550  0.139367  1
