# generated using pymatgen
data_Pa5GaTe3
_symmetry_space_group_name_H-M   'P 1'
_cell_length_a   9.18348300
_cell_length_b   9.18348312
_cell_length_c   6.19302100
_cell_angle_alpha   90.00000000
_cell_angle_beta   90.00000000
_cell_angle_gamma   119.99999597
_symmetry_Int_Tables_number   1
_chemical_formula_structural   Pa5GaTe3
_chemical_formula_sum   'Pa10 Ga2 Te6'
_cell_volume   452.32236349
_cell_formula_units_Z   2
loop_
 _symmetry_equiv_pos_site_id
 _symmetry_equiv_pos_as_xyz
  1  'x, y, z'
loop_
 _atom_site_type_symbol
 _atom_site_label
 _atom_site_symmetry_multiplicity
 _atom_site_fract_x
 _atom_site_fract_y
 _atom_site_fract_z
 _atom_site_occupancy
  Pa  Pa0  1  0.666667  0.333333  0.000000  1
  Pa  Pa1  1  0.333333  0.666667  0.000000  1
  Pa  Pa2  1  0.333333  0.666667  0.500000  1
  Pa  Pa3  1  0.666667  0.333333  0.500000  1
  Pa  Pa4  1  0.723520  0.723520  0.750000  1
  Pa  Pa5  1  0.276480  0.000000  0.750000  1
  Pa  Pa6  1  0.000000  0.276480  0.750000  1
  Pa  Pa7  1  0.276480  0.276480  0.250000  1
  Pa  Pa8  1  0.723520  0.000000  0.250000  1
  Pa  Pa9  1  0.000000  0.723520  0.250000  1
  Ga  Ga10  1  0.000000  0.000000  0.000000  1
  Ga  Ga11  1  0.000000  0.000000  0.500000  1
  Te  Te12  1  0.380085  0.380085  0.750000  1
  Te  Te13  1  0.619915  0.000000  0.750000  1
  Te  Te14  1  0.000000  0.619915  0.750000  1
  Te  Te15  1  0.619915  0.619915  0.250000  1
  Te  Te16  1  0.380085  0.000000  0.250000  1
  Te  Te17  1  0.000000  0.380085  0.250000  1
