# generated using pymatgen
data_Er4Al5Ni9
_symmetry_space_group_name_H-M   'P 1'
_cell_length_a   5.16973378
_cell_length_b   5.16973303
_cell_length_c   12.15667887
_cell_angle_alpha   77.72351490
_cell_angle_beta   77.72351500
_cell_angle_gamma   59.99999875
_symmetry_Int_Tables_number   1
_chemical_formula_structural   Er4Al5Ni9
_chemical_formula_sum   'Er4 Al5 Ni9'
_cell_volume   272.76002154
_cell_formula_units_Z   1
loop_
 _symmetry_equiv_pos_site_id
 _symmetry_equiv_pos_as_xyz
  1  'x, y, z'
loop_
 _atom_site_type_symbol
 _atom_site_label
 _atom_site_symmetry_multiplicity
 _atom_site_fract_x
 _atom_site_fract_y
 _atom_site_fract_z
 _atom_site_occupancy
  Er  Er0  1  0.952623  0.952623  0.142131  1
  Er  Er1  1  0.047377  0.047377  0.857869  1
  Er  Er2  1  0.855623  0.855623  0.433131  1
  Er  Er3  1  0.144377  0.144377  0.566869  1
  Al  Al4  1  0.500000  0.500000  0.500000  1
  Al  Al5  1  0.722457  0.722457  0.832629  1
  Al  Al6  1  0.277543  0.277543  0.167371  1
  Al  Al7  1  0.610255  0.610255  0.169233  1
  Al  Al8  1  0.389745  0.389745  0.830767  1
  Ni  Ni9  1  0.000000  0.500000  0.000000  1
  Ni  Ni10  1  0.500000  0.000000  0.000000  1
  Ni  Ni11  1  0.500000  0.500000  0.000000  1
  Ni  Ni12  1  0.386203  0.386203  0.333446  1
  Ni  Ni13  1  0.894147  0.386203  0.333446  1
  Ni  Ni14  1  0.386203  0.894147  0.333446  1
  Ni  Ni15  1  0.613797  0.613797  0.666554  1
  Ni  Ni16  1  0.105853  0.613797  0.666554  1
  Ni  Ni17  1  0.613797  0.105853  0.666554  1
