# generated using pymatgen
data_Ho2Fe10Co2P7
_symmetry_space_group_name_H-M   'P 1'
_cell_length_a   8.95317421
_cell_length_b   8.95925767
_cell_length_c   3.62301900
_cell_angle_alpha   90.00000000
_cell_angle_beta   90.00000000
_cell_angle_gamma   120.05810638
_symmetry_Int_Tables_number   1
_chemical_formula_structural   Ho2Fe10Co2P7
_chemical_formula_sum   'Ho2 Fe10 Co2 P7'
_cell_volume   251.53343421
_cell_formula_units_Z   1
loop_
 _symmetry_equiv_pos_site_id
 _symmetry_equiv_pos_as_xyz
  1  'x, y, z'
loop_
 _atom_site_type_symbol
 _atom_site_label
 _atom_site_symmetry_multiplicity
 _atom_site_fract_x
 _atom_site_fract_y
 _atom_site_fract_z
 _atom_site_occupancy
  Ho  Ho0  1  0.000070  0.999249  0.000000  1
  Ho  Ho1  1  0.333299  0.666688  0.500000  1
  Fe  Fe2  1  0.094618  0.391102  0.000000  1
  Fe  Fe3  1  0.786752  0.180114  0.000000  1
  Fe  Fe4  1  0.393580  0.214153  0.000000  1
  Fe  Fe5  1  0.821301  0.607380  0.000000  1
  Fe  Fe6  1  0.715545  0.947260  0.500000  1
  Fe  Fe7  1  0.232349  0.284713  0.500000  1
  Fe  Fe8  1  0.054007  0.768339  0.500000  1
  Fe  Fe9  1  0.544507  0.112121  0.500000  1
  Fe  Fe10  1  0.567792  0.456823  0.500000  1
  Fe  Fe11  1  0.883554  0.430714  0.500000  1
  Co  Co12  1  0.297438  0.903913  0.000000  1
  Co  Co13  1  0.606607  0.703149  0.000000  1
  P  P14  1  0.556590  0.925174  0.000000  1
  P  P15  1  0.367798  0.443489  0.000000  1
  P  P16  1  0.074961  0.629879  0.000000  1
  P  P17  1  0.955185  0.219910  0.500000  1
  P  P18  1  0.265411  0.046858  0.500000  1
  P  P19  1  0.782009  0.735220  0.500000  1
  P  P20  1  0.666630  0.333752  0.000000  1
