# generated using pymatgen
data_Dy3ErGa12Ru
_symmetry_space_group_name_H-M   'P 1'
_cell_length_a   7.48001917
_cell_length_b   7.48001799
_cell_length_c   7.48604500
_cell_angle_alpha   109.48754902
_cell_angle_beta   109.48754580
_cell_angle_gamma   109.45488227
_symmetry_Int_Tables_number   1
_chemical_formula_structural   Dy3ErGa12Ru
_chemical_formula_sum   'Dy3 Er1 Ga12 Ru1'
_cell_volume   322.36537176
_cell_formula_units_Z   1
loop_
 _symmetry_equiv_pos_site_id
 _symmetry_equiv_pos_as_xyz
  1  'x, y, z'
loop_
 _atom_site_type_symbol
 _atom_site_label
 _atom_site_symmetry_multiplicity
 _atom_site_fract_x
 _atom_site_fract_y
 _atom_site_fract_z
 _atom_site_occupancy
  Dy  Dy0  1  0.000000  0.500000  0.000000  1
  Dy  Dy1  1  0.500000  0.000000  0.000000  1
  Dy  Dy2  1  0.500000  0.500000  0.500000  1
  Er  Er3  1  0.000000  0.000000  0.500000  1
  Ga  Ga4  1  0.750108  0.249892  0.500000  1
  Ga  Ga5  1  0.750108  0.500216  0.250108  1
  Ga  Ga6  1  0.499784  0.249892  0.749892  1
  Ga  Ga7  1  0.249892  0.499784  0.749892  1
  Ga  Ga8  1  0.249892  0.750108  0.500000  1
  Ga  Ga9  1  0.500216  0.750108  0.250108  1
  Ga  Ga10  1  0.710245  0.710245  0.000158  1
  Ga  Ga11  1  0.289755  0.000000  0.289913  1
  Ga  Ga12  1  0.000000  0.289755  0.289913  1
  Ga  Ga13  1  0.289755  0.289755  0.999842  1
  Ga  Ga14  1  0.710245  0.000000  0.710087  1
  Ga  Ga15  1  0.000000  0.710245  0.710087  1
  Ru  Ru16  1  0.000000  0.000000  0.000000  1
