# generated using pymatgen
data_Tb14Dy2Cd4IrRu3
_symmetry_space_group_name_H-M   'P 1'
_cell_length_a   9.65428020
_cell_length_b   9.66652805
_cell_length_c   9.68028700
_cell_angle_alpha   59.95290786
_cell_angle_beta   59.91085282
_cell_angle_gamma   59.84882906
_symmetry_Int_Tables_number   1
_chemical_formula_structural   Tb14Dy2Cd4IrRu3
_chemical_formula_sum   'Tb14 Dy2 Cd4 Ir1 Ru3'
_cell_volume   637.40871403
_cell_formula_units_Z   1
loop_
 _symmetry_equiv_pos_site_id
 _symmetry_equiv_pos_as_xyz
  1  'x, y, z'
loop_
 _atom_site_type_symbol
 _atom_site_label
 _atom_site_symmetry_multiplicity
 _atom_site_fract_x
 _atom_site_fract_y
 _atom_site_fract_z
 _atom_site_occupancy
  Tb  Tb0  1  0.595350  0.209590  0.597530  1
  Tb  Tb1  1  0.212771  0.595592  0.595819  1
  Tb  Tb2  1  0.061735  0.439294  0.439487  1
  Tb  Tb3  1  0.438454  0.060471  0.061440  1
  Tb  Tb4  1  0.438454  0.060471  0.439635  1
  Tb  Tb5  1  0.061735  0.439294  0.059485  1
  Tb  Tb6  1  0.438795  0.438975  0.061115  1
  Tb  Tb7  1  0.061873  0.059021  0.439553  1
  Tb  Tb8  1  0.188205  0.811669  0.811382  1
  Tb  Tb9  1  0.810495  0.188672  0.188466  1
  Tb  Tb10  1  0.810495  0.188672  0.812367  1
  Tb  Tb11  1  0.188205  0.811669  0.188745  1
  Tb  Tb12  1  0.810766  0.812935  0.188150  1
  Tb  Tb13  1  0.188501  0.189462  0.811019  1
  Dy  Dy14  1  0.595798  0.597636  0.597793  1
  Dy  Dy15  1  0.595798  0.597636  0.208774  1
  Cd  Cd16  1  0.830292  0.829861  0.830765  1
  Cd  Cd17  1  0.830292  0.829861  0.509083  1
  Cd  Cd18  1  0.830222  0.508470  0.830654  1
  Cd  Cd19  1  0.507974  0.830093  0.830967  1
  Ir  Ir20  1  0.826407  0.392614  0.390490  1
  Ru  Ru21  1  0.392090  0.389098  0.387382  1
  Ru  Ru22  1  0.392090  0.389098  0.831431  1
  Ru  Ru23  1  0.393202  0.829853  0.388473  1
