# generated using pymatgen
data_Tb2Nb3P7Ru2Rh7
_symmetry_space_group_name_H-M   'P 1'
_cell_length_a   3.90926500
_cell_length_b   9.64897531
_cell_length_c   9.65541326
_cell_angle_alpha   119.74677987
_cell_angle_beta   90.00342532
_cell_angle_gamma   89.99832863
_symmetry_Int_Tables_number   1
_chemical_formula_structural   Tb2Nb3P7Ru2Rh7
_chemical_formula_sum   'Tb2 Nb3 P7 Ru2 Rh7'
_cell_volume   316.21342956
_cell_formula_units_Z   1
loop_
 _symmetry_equiv_pos_site_id
 _symmetry_equiv_pos_as_xyz
  1  'x, y, z'
loop_
 _atom_site_type_symbol
 _atom_site_label
 _atom_site_symmetry_multiplicity
 _atom_site_fract_x
 _atom_site_fract_y
 _atom_site_fract_z
 _atom_site_occupancy
  Tb  Tb0  1  0.261854  0.667418  0.333254  1
  Tb  Tb1  1  0.761905  0.333122  0.666419  1
  Nb  Nb2  1  0.761938  0.097921  0.875924  1
  Nb  Nb3  1  0.761914  0.124005  0.222089  1
  Nb  Nb4  1  0.761930  0.778219  0.901309  1
  P  P5  1  0.262043  0.997152  0.998565  1
  P  P6  1  0.761877  0.875039  0.592122  1
  P  P7  1  0.761846  0.410244  0.286305  1
  P  P8  1  0.761802  0.717507  0.127476  1
  P  P9  1  0.261939  0.114683  0.413817  1
  P  P10  1  0.261909  0.584965  0.699237  1
  P  P11  1  0.261959  0.300758  0.883443  1
  Ru  Ru12  1  0.261756  0.883065  0.160924  1
  Ru  Ru13  1  0.261826  0.838687  0.722639  1
  Rh  Rh14  1  0.261902  0.276874  0.115749  1
  Rh  Rh15  1  0.761902  0.607912  0.555614  1
  Rh  Rh16  1  0.761937  0.445138  0.054111  1
  Rh  Rh17  1  0.761921  0.945722  0.392099  1
  Rh  Rh18  1  0.261918  0.367382  0.437776  1
  Rh  Rh19  1  0.261969  0.561492  0.927916  1
  Rh  Rh20  1  0.261953  0.072696  0.633207  1
