# generated using pymatgen
data_Ce5Nb3P12Ru9Rh7
_symmetry_space_group_name_H-M   'P 1'
_cell_length_a   12.84362347
_cell_length_b   12.86172582
_cell_length_c   3.94157300
_cell_angle_alpha   89.99997773
_cell_angle_beta   89.99994647
_cell_angle_gamma   120.14003695
_symmetry_Int_Tables_number   1
_chemical_formula_structural   Ce5Nb3P12Ru9Rh7
_chemical_formula_sum   'Ce5 Nb3 P12 Ru9 Rh7'
_cell_volume   563.08304681
_cell_formula_units_Z   1
loop_
 _symmetry_equiv_pos_site_id
 _symmetry_equiv_pos_as_xyz
  1  'x, y, z'
loop_
 _atom_site_type_symbol
 _atom_site_label
 _atom_site_symmetry_multiplicity
 _atom_site_fract_x
 _atom_site_fract_y
 _atom_site_fract_z
 _atom_site_occupancy
  Ce  Ce0  1  0.185699  0.184054  0.500000  1
  Ce  Ce1  1  0.813862  0.000472  0.500000  1
  Ce  Ce2  1  0.999244  0.812944  0.500000  1
  Ce  Ce3  1  0.333721  0.667510  0.000002  1
  Ce  Ce4  1  0.667310  0.333763  0.999999  1
  Nb  Nb5  1  0.558231  0.559027  0.000000  1
  Nb  Nb6  1  0.440960  0.000245  0.000000  1
  Nb  Nb7  1  0.001373  0.441633  0.000000  1
  P  P8  1  0.818423  0.818692  0.000000  1
  P  P9  1  0.180600  0.998649  0.000000  1
  P  P10  1  0.997248  0.177789  0.000000  1
  P  P11  1  0.166920  0.480475  0.500000  1
  P  P12  1  0.523217  0.692016  0.500000  1
  P  P13  1  0.309534  0.832798  0.500000  1
  P  P14  1  0.686709  0.519845  0.500000  1
  P  P15  1  0.832846  0.312906  0.500000  1
  P  P16  1  0.480709  0.167781  0.500000  1
  P  P17  1  0.369022  0.359390  0.000000  1
  P  P18  1  0.639271  0.005704  0.000000  1
  P  P19  1  0.994014  0.632669  0.000000  1
  Ru  Ru20  1  0.624489  0.807009  0.999999  1
  Ru  Ru21  1  0.192968  0.817889  0.000000  1
  Ru  Ru22  1  0.802641  0.625181  0.000000  1
  Ru  Ru23  1  0.823791  0.197459  0.999999  1
  Ru  Ru24  1  0.374875  0.177095  0.999999  1
  Ru  Ru25  1  0.871897  0.514280  0.500001  1
  Ru  Ru26  1  0.643140  0.127802  0.500000  1
  Ru  Ru27  1  0.483250  0.357470  0.499999  1
  Ru  Ru28  1  0.000288  0.999720  0.000000  1
  Rh  Rh29  1  0.719432  0.721214  0.500000  1
  Rh  Rh30  1  0.278875  0.998354  0.500000  1
  Rh  Rh31  1  0.003887  0.281380  0.500000  1
  Rh  Rh32  1  0.183305  0.372750  0.000001  1
  Rh  Rh33  1  0.359874  0.492967  0.500000  1
  Rh  Rh34  1  0.509040  0.870137  0.500000  1
  Rh  Rh35  1  0.129337  0.640935  0.500000  1
