# generated using pymatgen
data_Ho4Tm4Tc3OsC8
_symmetry_space_group_name_H-M   'P 1'
_cell_length_a   5.04786800
_cell_length_b   6.52577190
_cell_length_c   9.74542607
_cell_angle_alpha   89.85527050
_cell_angle_beta   90.00000000
_cell_angle_gamma   90.00000000
_symmetry_Int_Tables_number   1
_chemical_formula_structural   Ho4Tm4Tc3OsC8
_chemical_formula_sum   'Ho4 Tm4 Tc3 Os1 C8'
_cell_volume   321.02534759
_cell_formula_units_Z   1
loop_
 _symmetry_equiv_pos_site_id
 _symmetry_equiv_pos_as_xyz
  1  'x, y, z'
loop_
 _atom_site_type_symbol
 _atom_site_label
 _atom_site_symmetry_multiplicity
 _atom_site_fract_x
 _atom_site_fract_y
 _atom_site_fract_z
 _atom_site_occupancy
  Ho  Ho0  1  0.250000  0.531988  0.215003  1
  Ho  Ho1  1  0.750000  0.466327  0.785371  1
  Ho  Ho2  1  0.750000  0.968783  0.712697  1
  Ho  Ho3  1  0.250000  0.031694  0.285328  1
  Tm  Tm4  1  0.250000  0.673733  0.558195  1
  Tm  Tm5  1  0.750000  0.324514  0.442139  1
  Tm  Tm6  1  0.750000  0.825555  0.058026  1
  Tm  Tm7  1  0.250000  0.173512  0.941836  1
  Tc  Tc8  1  0.250000  0.719114  0.866574  1
  Tc  Tc9  1  0.750000  0.280751  0.132475  1
  Tc  Tc10  1  0.750000  0.779945  0.367508  1
  Os  Os11  1  0.250000  0.219468  0.633514  1
  C  C12  1  0.250000  0.451498  0.758899  1
  C  C13  1  0.750000  0.548944  0.240840  1
  C  C14  1  0.750000  0.049130  0.259845  1
  C  C15  1  0.250000  0.952731  0.740899  1
  C  C16  1  0.250000  0.826991  0.051340  1
  C  C17  1  0.750000  0.173866  0.948021  1
  C  C18  1  0.750000  0.673710  0.552561  1
  C  C19  1  0.250000  0.327744  0.448930  1
