# generated using pymatgen
data_Tm2B4Ir4Os
_symmetry_space_group_name_H-M   'P 1'
_cell_length_a   7.48955461
_cell_length_b   6.36866780
_cell_length_c   5.53763154
_cell_angle_alpha   77.61198695
_cell_angle_beta   56.15441821
_cell_angle_gamma   46.23358936
_symmetry_Int_Tables_number   1
_chemical_formula_structural   Tm2B4Ir4Os
_chemical_formula_sum   'Tm2 B4 Ir4 Os1'
_cell_volume   151.87258284
_cell_formula_units_Z   1
loop_
 _symmetry_equiv_pos_site_id
 _symmetry_equiv_pos_as_xyz
  1  'x, y, z'
loop_
 _atom_site_type_symbol
 _atom_site_label
 _atom_site_symmetry_multiplicity
 _atom_site_fract_x
 _atom_site_fract_y
 _atom_site_fract_z
 _atom_site_occupancy
  Tm  Tm0  1  0.639123  0.639124  0.360877  1
  Tm  Tm1  1  0.360877  0.360877  0.639123  1
  B  B2  1  0.283089  0.985815  0.027035  1
  B  B3  1  0.027034  0.704063  0.283089  1
  B  B4  1  0.985814  0.283089  0.704062  1
  B  B5  1  0.704062  0.027035  0.985815  1
  Ir  Ir6  1  0.000000  0.000000  0.000000  1
  Ir  Ir7  1  0.500139  0.500137  0.999862  1
  Ir  Ir8  1  0.999862  0.999862  0.500137  1
  Ir  Ir9  1  0.750001  0.750000  0.749999  1
  Os  Os10  1  0.250001  0.249999  0.249999  1
