# generated using pymatgen
data_YbGd3(CrB4)4
_symmetry_space_group_name_H-M   'P 1'
_cell_length_a   3.44567700
_cell_length_b   5.96059908
_cell_length_c   11.53496110
_cell_angle_alpha   89.93092940
_cell_angle_beta   90.00000000
_cell_angle_gamma   90.00000000
_symmetry_Int_Tables_number   1
_chemical_formula_structural   YbGd3(CrB4)4
_chemical_formula_sum   'Yb1 Gd3 Cr4 B16'
_cell_volume   236.90830970
_cell_formula_units_Z   1
loop_
 _symmetry_equiv_pos_site_id
 _symmetry_equiv_pos_as_xyz
  1  'x, y, z'
loop_
 _atom_site_type_symbol
 _atom_site_label
 _atom_site_symmetry_multiplicity
 _atom_site_fract_x
 _atom_site_fract_y
 _atom_site_fract_z
 _atom_site_occupancy
  Yb  Yb0  1  0.500000  0.876580  0.348321  1
  Gd  Gd1  1  0.500000  0.375659  0.151875  1
  Gd  Gd2  1  0.500000  0.623848  0.848944  1
  Gd  Gd3  1  0.500000  0.123976  0.650741  1
  Cr  Cr4  1  0.500000  0.377908  0.419950  1
  Cr  Cr5  1  0.500000  0.624410  0.579824  1
  Cr  Cr6  1  0.500000  0.123059  0.919086  1
  Cr  Cr7  1  0.500000  0.876337  0.081051  1
  B  B8  1  0.000000  0.112736  0.046845  1
  B  B9  1  0.000000  0.887210  0.953543  1
  B  B10  1  0.000000  0.386322  0.546488  1
  B  B11  1  0.000000  0.614157  0.452935  1
  B  B12  1  0.000000  0.137720  0.466629  1
  B  B13  1  0.000000  0.862254  0.532522  1
  B  B14  1  0.000000  0.361510  0.967401  1
  B  B15  1  0.000000  0.638574  0.032897  1
  B  B16  1  0.000000  0.023146  0.191223  1
  B  B17  1  0.000000  0.976146  0.809406  1
  B  B18  1  0.000000  0.475990  0.690775  1
  B  B19  1  0.000000  0.522973  0.309283  1
  B  B20  1  0.000000  0.217620  0.316313  1
  B  B21  1  0.000000  0.780883  0.683588  1
  B  B22  1  0.000000  0.280945  0.816280  1
  B  B23  1  0.000000  0.720037  0.184079  1
