# generated using pymatgen
data_Tb6Mn6Al10Os7
_symmetry_space_group_name_H-M   'P 1'
_cell_length_a   8.83946622
_cell_length_b   8.83946719
_cell_length_c   8.85815400
_cell_angle_alpha   59.93004411
_cell_angle_beta   59.93004048
_cell_angle_gamma   59.69776557
_symmetry_Int_Tables_number   1
_chemical_formula_structural   Tb6Mn6Al10Os7
_chemical_formula_sum   'Tb6 Mn6 Al10 Os7'
_cell_volume   487.77618772
_cell_formula_units_Z   1
loop_
 _symmetry_equiv_pos_site_id
 _symmetry_equiv_pos_as_xyz
  1  'x, y, z'
loop_
 _atom_site_type_symbol
 _atom_site_label
 _atom_site_symmetry_multiplicity
 _atom_site_fract_x
 _atom_site_fract_y
 _atom_site_fract_z
 _atom_site_occupancy
  Tb  Tb0  1  0.702095  0.298992  0.293210  1
  Tb  Tb1  1  0.298991  0.702097  0.705702  1
  Tb  Tb2  1  0.298992  0.702095  0.293210  1
  Tb  Tb3  1  0.293510  0.293510  0.706488  1
  Tb  Tb4  1  0.702097  0.298991  0.705702  1
  Tb  Tb5  1  0.703265  0.703265  0.296734  1
  Mn  Mn6  1  0.320061  0.320061  0.319041  1
  Mn  Mn7  1  0.320061  0.320061  0.040839  1
  Mn  Mn8  1  0.045715  0.320655  0.316815  1
  Mn  Mn9  1  0.320655  0.045715  0.316815  1
  Mn  Mn10  1  0.678913  0.678913  0.676541  1
  Mn  Mn11  1  0.678913  0.678913  0.965634  1
  Al  Al12  1  0.674833  0.979518  0.672824  1
  Al  Al13  1  0.979518  0.674833  0.672824  1
  Al  Al14  1  0.120320  0.120320  0.120033  1
  Al  Al15  1  0.120320  0.120320  0.639329  1
  Al  Al16  1  0.638706  0.120698  0.120299  1
  Al  Al17  1  0.120698  0.638706  0.120299  1
  Al  Al18  1  0.879674  0.879674  0.881490  1
  Al  Al19  1  0.879674  0.879674  0.359161  1
  Al  Al20  1  0.875911  0.362695  0.880698  1
  Al  Al21  1  0.362695  0.875911  0.880698  1
  Os  Os22  1  0.000473  0.000473  0.999527  1
  Os  Os23  1  0.499268  0.988191  0.013273  1
  Os  Os24  1  0.988191  0.499268  0.499266  1
  Os  Os25  1  0.988191  0.499268  0.013273  1
  Os  Os26  1  0.007407  0.007407  0.492592  1
  Os  Os27  1  0.499268  0.988191  0.499266  1
  Os  Os28  1  0.501585  0.501585  0.998414  1
