# generated using pymatgen
data_Al9VGePb3O20
_symmetry_space_group_name_H-M   'P 1'
_cell_length_a   9.69217905
_cell_length_b   9.69218040
_cell_length_c   5.06282389
_cell_angle_alpha   75.03603730
_cell_angle_beta   75.03602604
_cell_angle_gamma   72.95705271
_symmetry_Int_Tables_number   1
_chemical_formula_structural   Al9VGePb3O20
_chemical_formula_sum   'Al9 V1 Ge1 Pb3 O20'
_cell_volume   430.62474147
_cell_formula_units_Z   1
loop_
 _symmetry_equiv_pos_site_id
 _symmetry_equiv_pos_as_xyz
  1  'x, y, z'
loop_
 _atom_site_type_symbol
 _atom_site_label
 _atom_site_symmetry_multiplicity
 _atom_site_fract_x
 _atom_site_fract_y
 _atom_site_fract_z
 _atom_site_occupancy
  Al  Al0  1  0.362445  0.637555  0.500000  1
  Al  Al1  1  0.282530  0.005148  0.372503  1
  Al  Al2  1  0.994852  0.717470  0.627497  1
  Al  Al3  1  0.716852  0.987548  0.632786  1
  Al  Al4  1  0.012452  0.283148  0.367214  1
  Al  Al5  1  0.576396  0.146846  0.107990  1
  Al  Al6  1  0.853154  0.423604  0.892010  1
  Al  Al7  1  0.420792  0.847503  0.897715  1
  Al  Al8  1  0.152497  0.579208  0.102285  1
  V  V9  1  0.634379  0.365621  0.500000  1
  Ge  Ge10  1  0.497171  0.502829  0.000000  1
  Pb  Pb11  1  0.000581  0.999419  0.000000  1
  Pb  Pb12  1  0.726217  0.724995  0.216174  1
  Pb  Pb13  1  0.275005  0.273783  0.783826  1
  O  O14  1  0.559871  0.572129  0.259204  1
  O  O15  1  0.427871  0.440129  0.740796  1
  O  O16  1  0.104278  0.102832  0.310951  1
  O  O17  1  0.897168  0.895722  0.689049  1
  O  O18  1  0.400914  0.114416  0.151318  1
  O  O19  1  0.885584  0.599086  0.848682  1
  O  O20  1  0.598583  0.877002  0.851438  1
  O  O21  1  0.122998  0.401417  0.148562  1
  O  O22  1  0.338683  0.829793  0.266527  1
  O  O23  1  0.170207  0.661317  0.733473  1
  O  O24  1  0.657845  0.160597  0.743647  1
  O  O25  1  0.839403  0.342155  0.256353  1
  O  O26  1  0.987625  0.289770  0.721412  1
  O  O27  1  0.710230  0.012375  0.278588  1
  O  O28  1  0.015558  0.712510  0.272578  1
  O  O29  1  0.287490  0.984442  0.727422  1
  O  O30  1  0.688720  0.454924  0.769987  1
  O  O31  1  0.545076  0.311280  0.230013  1
  O  O32  1  0.309950  0.553376  0.245488  1
  O  O33  1  0.446624  0.690050  0.754512  1
