# generated using pymatgen
data_Ho4AgRh
_symmetry_space_group_name_H-M   'P 1'
_cell_length_a   9.49737610
_cell_length_b   9.49737589
_cell_length_c   9.49737700
_cell_angle_alpha   59.99999961
_cell_angle_beta   60.00000035
_cell_angle_gamma   60.00000151
_symmetry_Int_Tables_number   1
_chemical_formula_structural   Ho4AgRh
_chemical_formula_sum   'Ho16 Ag4 Rh4'
_cell_volume   605.75352241
_cell_formula_units_Z   4
loop_
 _symmetry_equiv_pos_site_id
 _symmetry_equiv_pos_as_xyz
  1  'x, y, z'
loop_
 _atom_site_type_symbol
 _atom_site_label
 _atom_site_symmetry_multiplicity
 _atom_site_fract_x
 _atom_site_fract_y
 _atom_site_fract_z
 _atom_site_occupancy
  Ho  Ho0  1  0.185455  0.185455  0.814545  1
  Ho  Ho1  1  0.601690  0.601690  0.194929  1
  Ho  Ho2  1  0.438949  0.061051  0.438949  1
  Ho  Ho3  1  0.438949  0.438949  0.061051  1
  Ho  Ho4  1  0.814545  0.185455  0.814545  1
  Ho  Ho5  1  0.185455  0.814545  0.185455  1
  Ho  Ho6  1  0.438949  0.061051  0.061051  1
  Ho  Ho7  1  0.185455  0.814545  0.814545  1
  Ho  Ho8  1  0.061051  0.438949  0.061051  1
  Ho  Ho9  1  0.814545  0.814545  0.185455  1
  Ho  Ho10  1  0.194929  0.601690  0.601690  1
  Ho  Ho11  1  0.061051  0.438949  0.438949  1
  Ho  Ho12  1  0.061051  0.061051  0.438949  1
  Ho  Ho13  1  0.814545  0.185455  0.185455  1
  Ho  Ho14  1  0.601690  0.194929  0.601690  1
  Ho  Ho15  1  0.601690  0.601690  0.601690  1
  Ag  Ag16  1  0.832076  0.832076  0.832076  1
  Ag  Ag17  1  0.832076  0.832076  0.503773  1
  Ag  Ag18  1  0.503773  0.832076  0.832076  1
  Ag  Ag19  1  0.832076  0.503773  0.832076  1
  Rh  Rh20  1  0.392874  0.821378  0.392874  1
  Rh  Rh21  1  0.392874  0.392874  0.392874  1
  Rh  Rh22  1  0.821378  0.392874  0.392874  1
  Rh  Rh23  1  0.392874  0.392874  0.821378  1
