# generated using pymatgen
data_Cs2Mn3ZnF12
_symmetry_space_group_name_H-M   'P 1'
_cell_length_a   7.37193459
_cell_length_b   7.77381794
_cell_length_c   10.43788081
_cell_angle_alpha   89.58525318
_cell_angle_beta   91.14974811
_cell_angle_gamma   90.59777213
_symmetry_Int_Tables_number   1
_chemical_formula_structural   Cs2Mn3ZnF12
_chemical_formula_sum   'Cs4 Mn6 Zn2 F24'
_cell_volume   598.00711731
_cell_formula_units_Z   2
loop_
 _symmetry_equiv_pos_site_id
 _symmetry_equiv_pos_as_xyz
  1  'x, y, z'
loop_
 _atom_site_type_symbol
 _atom_site_label
 _atom_site_symmetry_multiplicity
 _atom_site_fract_x
 _atom_site_fract_y
 _atom_site_fract_z
 _atom_site_occupancy
  Cs  Cs0  1  0.004179  0.242696  0.872109  1
  Cs  Cs1  1  0.995821  0.757304  0.127891  1
  Cs  Cs2  1  0.499433  0.250951  0.621266  1
  Cs  Cs3  1  0.500567  0.749049  0.378734  1
  Mn  Mn4  1  0.000000  0.000000  0.500000  1
  Mn  Mn5  1  0.500000  0.000000  0.000000  1
  Mn  Mn6  1  0.211953  0.252241  0.233443  1
  Mn  Mn7  1  0.788047  0.747759  0.766557  1
  Mn  Mn8  1  0.500000  0.500000  0.000000  1
  Mn  Mn9  1  0.000000  0.500000  0.500000  1
  Zn  Zn10  1  0.713243  0.248414  0.263015  1
  Zn  Zn11  1  0.286757  0.751586  0.736985  1
  F  F12  1  0.783623  0.067913  0.404879  1
  F  F13  1  0.216377  0.932087  0.595121  1
  F  F14  1  0.143241  0.035041  0.353409  1
  F  F15  1  0.856759  0.964959  0.646591  1
  F  F16  1  0.148759  0.469405  0.350728  1
  F  F17  1  0.851241  0.530595  0.649272  1
  F  F18  1  0.939914  0.257932  0.169524  1
  F  F19  1  0.060086  0.742068  0.830476  1
  F  F20  1  0.282941  0.439830  0.087020  1
  F  F21  1  0.717059  0.560170  0.912980  1
  F  F22  1  0.555979  0.237221  0.955396  1
  F  F23  1  0.444021  0.762779  0.044604  1
  F  F24  1  0.634713  0.480029  0.155846  1
  F  F25  1  0.365287  0.519971  0.844154  1
  F  F26  1  0.365413  0.978314  0.844866  1
  F  F27  1  0.634587  0.021686  0.155134  1
  F  F28  1  0.261197  0.070769  0.091210  1
  F  F29  1  0.738803  0.929231  0.908790  1
  F  F30  1  0.211479  0.571388  0.593315  1
  F  F31  1  0.788521  0.428612  0.406685  1
  F  F32  1  0.464532  0.249662  0.326942  1
  F  F33  1  0.535468  0.750338  0.673058  1
  F  F34  1  0.057125  0.249794  0.563555  1
  F  F35  1  0.942875  0.750206  0.436445  1
