# generated using pymatgen
data_Sc8Ti2VSi16Mo9
_symmetry_space_group_name_H-M   'P 1'
_cell_length_a   6.74201459
_cell_length_b   6.75162727
_cell_length_c   12.45787748
_cell_angle_alpha   89.98440365
_cell_angle_beta   90.02614162
_cell_angle_gamma   90.52609149
_symmetry_Int_Tables_number   1
_chemical_formula_structural   Sc8Ti2VSi16Mo9
_chemical_formula_sum   'Sc8 Ti2 V1 Si16 Mo9'
_cell_volume   567.05323711
_cell_formula_units_Z   1
loop_
 _symmetry_equiv_pos_site_id
 _symmetry_equiv_pos_as_xyz
  1  'x, y, z'
loop_
 _atom_site_type_symbol
 _atom_site_label
 _atom_site_symmetry_multiplicity
 _atom_site_fract_x
 _atom_site_fract_y
 _atom_site_fract_z
 _atom_site_occupancy
  Sc  Sc0  1  0.999658  0.661757  0.031160  1
  Sc  Sc1  1  0.841362  0.500804  0.281627  1
  Sc  Sc2  1  0.157922  0.499123  0.780094  1
  Sc  Sc3  1  0.502353  0.841020  0.718642  1
  Sc  Sc4  1  0.498389  0.157788  0.219864  1
  Sc  Sc5  1  0.998679  0.338761  0.531647  1
  Sc  Sc6  1  0.662302  0.000671  0.968872  1
  Sc  Sc7  1  0.338149  0.999018  0.468629  1
  Ti  Ti8  1  0.329881  0.329949  0.000001  1
  Ti  Ti9  1  0.844390  0.995557  0.374190  1
  V  V10  1  0.668436  0.669568  0.500191  1
  Si  Si11  1  0.296666  0.958040  0.066103  1
  Si  Si12  1  0.541321  0.794861  0.314944  1
  Si  Si13  1  0.462301  0.204754  0.812379  1
  Si  Si14  1  0.793756  0.539469  0.685326  1
  Si  Si15  1  0.204647  0.461074  0.187923  1
  Si  Si16  1  0.703859  0.039278  0.563977  1
  Si  Si17  1  0.957735  0.296680  0.933536  1
  Si  Si18  1  0.039583  0.701230  0.435631  1
  Si  Si19  1  0.704295  0.365354  0.069940  1
  Si  Si20  1  0.133241  0.203921  0.320547  1
  Si  Si21  1  0.866692  0.799284  0.819472  1
  Si  Si22  1  0.201245  0.132836  0.679841  1
  Si  Si23  1  0.797642  0.867675  0.180063  1
  Si  Si24  1  0.298277  0.635645  0.569542  1
  Si  Si25  1  0.364344  0.704227  0.930076  1
  Si  Si26  1  0.636173  0.297607  0.430594  1
  Mo  Mo27  1  0.167290  0.830275  0.252118  1
  Mo  Mo28  1  0.829810  0.168215  0.748894  1
  Mo  Mo29  1  0.003221  0.162621  0.124004  1
  Mo  Mo30  1  0.347281  0.502337  0.378317  1
  Mo  Mo31  1  0.652385  0.500240  0.877007  1
  Mo  Mo32  1  0.499644  0.347347  0.622697  1
  Mo  Mo33  1  0.497176  0.652040  0.122541  1
  Mo  Mo34  1  0.997932  0.838725  0.624950  1
  Mo  Mo35  1  0.161962  0.002251  0.874660  1
