# generated using pymatgen
data_Lu2Th3Ir2Os
_symmetry_space_group_name_H-M   'P 1'
_cell_length_a   6.34024200
_cell_length_b   8.37189278
_cell_length_c   8.37323201
_cell_angle_alpha   120.00569790
_cell_angle_beta   90.00010896
_cell_angle_gamma   89.99997485
_symmetry_Int_Tables_number   1
_chemical_formula_structural   Lu2Th3Ir2Os
_chemical_formula_sum   'Lu4 Th6 Ir4 Os2'
_cell_volume   384.88262905
_cell_formula_units_Z   2
loop_
 _symmetry_equiv_pos_site_id
 _symmetry_equiv_pos_as_xyz
  1  'x, y, z'
loop_
 _atom_site_type_symbol
 _atom_site_label
 _atom_site_symmetry_multiplicity
 _atom_site_fract_x
 _atom_site_fract_y
 _atom_site_fract_z
 _atom_site_occupancy
  Lu  Lu0  1  0.501875  0.334006  0.666817  1
  Lu  Lu1  1  0.501874  0.665991  0.332786  1
  Lu  Lu2  1  0.998141  0.665998  0.332795  1
  Lu  Lu3  1  0.998141  0.334010  0.666814  1
  Th  Th4  1  0.750001  0.258969  0.004129  1
  Th  Th5  1  0.749989  0.741018  0.745153  1
  Th  Th6  1  0.749998  0.999999  0.254161  1
  Th  Th7  1  0.249999  0.744420  0.000477  1
  Th  Th8  1  0.250006  0.255583  0.256069  1
  Th  Th9  1  0.249999  0.999999  0.743575  1
  Ir  Ir10  1  0.750008  0.000004  0.614931  1
  Ir  Ir11  1  0.249992  0.388819  0.998338  1
  Ir  Ir12  1  0.249993  0.611179  0.609519  1
  Ir  Ir13  1  0.249991  0.999996  0.389465  1
  Os  Os14  1  0.749995  0.616102  0.000533  1
  Os  Os15  1  0.750001  0.383909  0.384438  1
