# generated using pymatgen
data_TbDy2Tm7Cd3Ru
_symmetry_space_group_name_H-M   'P 1'
_cell_length_a   9.51200900
_cell_length_b   9.51200945
_cell_length_c   9.74188800
_cell_angle_alpha   90.00000000
_cell_angle_beta   90.00000000
_cell_angle_gamma   120.03005363
_symmetry_Int_Tables_number   1
_chemical_formula_structural   TbDy2Tm7Cd3Ru
_chemical_formula_sum   'Tb2 Dy4 Tm14 Cd6 Ru2'
_cell_volume   763.10919743
_cell_formula_units_Z   2
loop_
 _symmetry_equiv_pos_site_id
 _symmetry_equiv_pos_as_xyz
  1  'x, y, z'
loop_
 _atom_site_type_symbol
 _atom_site_label
 _atom_site_symmetry_multiplicity
 _atom_site_fract_x
 _atom_site_fract_y
 _atom_site_fract_z
 _atom_site_occupancy
  Tb  Tb0  1  0.459646  0.919203  0.750000  1
  Tb  Tb1  1  0.080797  0.540354  0.750000  1
  Dy  Dy2  1  0.540397  0.459603  0.250000  1
  Dy  Dy3  1  0.540412  0.080831  0.250000  1
  Dy  Dy4  1  0.919169  0.459588  0.250000  1
  Dy  Dy5  1  0.459794  0.540206  0.750000  1
  Tm  Tm6  1  0.999981  0.000019  0.500081  1
  Tm  Tm7  1  0.999981  0.000019  0.999919  1
  Tm  Tm8  1  0.209994  0.790006  0.439855  1
  Tm  Tm9  1  0.210152  0.420100  0.440018  1
  Tm  Tm10  1  0.579900  0.789848  0.440018  1
  Tm  Tm11  1  0.789934  0.210066  0.559846  1
  Tm  Tm12  1  0.789767  0.579859  0.559926  1
  Tm  Tm13  1  0.420141  0.210233  0.559926  1
  Tm  Tm14  1  0.789934  0.210066  0.940154  1
  Tm  Tm15  1  0.789767  0.579859  0.940074  1
  Tm  Tm16  1  0.420141  0.210233  0.940074  1
  Tm  Tm17  1  0.209994  0.790006  0.060145  1
  Tm  Tm18  1  0.210152  0.420100  0.059982  1
  Tm  Tm19  1  0.579900  0.789848  0.059982  1
  Cd  Cd20  1  0.886012  0.113988  0.250000  1
  Cd  Cd21  1  0.886039  0.771990  0.250000  1
  Cd  Cd22  1  0.228010  0.113961  0.250000  1
  Cd  Cd23  1  0.113918  0.886082  0.750000  1
  Cd  Cd24  1  0.114051  0.227948  0.750000  1
  Cd  Cd25  1  0.772052  0.885949  0.750000  1
  Ru  Ru26  1  0.333381  0.666619  0.250000  1
  Ru  Ru27  1  0.666584  0.333416  0.750000  1
