# generated using pymatgen
data_Cs4V2NiS8
_symmetry_space_group_name_H-M   'P 1'
_cell_length_a   7.08039411
_cell_length_b   7.39285557
_cell_length_c   9.68995730
_cell_angle_alpha   83.02772421
_cell_angle_beta   76.28765435
_cell_angle_gamma   85.23844716
_symmetry_Int_Tables_number   1
_chemical_formula_structural   Cs4V2NiS8
_chemical_formula_sum   'Cs4 V2 Ni1 S8'
_cell_volume   488.33963735
_cell_formula_units_Z   1
loop_
 _symmetry_equiv_pos_site_id
 _symmetry_equiv_pos_as_xyz
  1  'x, y, z'
loop_
 _atom_site_type_symbol
 _atom_site_label
 _atom_site_symmetry_multiplicity
 _atom_site_fract_x
 _atom_site_fract_y
 _atom_site_fract_z
 _atom_site_occupancy
  Cs  Cs0  1  0.291047  0.316188  0.143770  1
  Cs  Cs1  1  0.722852  0.239561  0.510983  1
  Cs  Cs2  1  0.277148  0.760439  0.489017  1
  Cs  Cs3  1  0.708953  0.683812  0.856230  1
  V  V4  1  0.848311  0.755867  0.238858  1
  V  V5  1  0.151689  0.244133  0.761142  1
  Ni  Ni6  1  0.000000  0.000000  0.000000  1
  S  S7  1  0.698206  0.978237  0.132659  1
  S  S8  1  0.774861  0.500017  0.190716  1
  S  S9  1  0.151895  0.810349  0.140735  1
  S  S10  1  0.785345  0.758511  0.467152  1
  S  S11  1  0.214655  0.241489  0.532848  1
  S  S12  1  0.848105  0.189651  0.859265  1
  S  S13  1  0.225139  0.499983  0.809284  1
  S  S14  1  0.301794  0.021763  0.867341  1
