# generated using pymatgen
data_Pr20Si15Ag
_symmetry_space_group_name_H-M   'P 1'
_cell_length_a   7.95520032
_cell_length_b   7.94917728
_cell_length_c   15.38360589
_cell_angle_alpha   89.95628538
_cell_angle_beta   90.36871536
_cell_angle_gamma   89.88979146
_symmetry_Int_Tables_number   1
_chemical_formula_structural   Pr20Si15Ag
_chemical_formula_sum   'Pr20 Si15 Ag1'
_cell_volume   972.79542799
_cell_formula_units_Z   1
loop_
 _symmetry_equiv_pos_site_id
 _symmetry_equiv_pos_as_xyz
  1  'x, y, z'
loop_
 _atom_site_type_symbol
 _atom_site_label
 _atom_site_symmetry_multiplicity
 _atom_site_fract_x
 _atom_site_fract_y
 _atom_site_fract_z
 _atom_site_occupancy
  Pr  Pr0  1  0.300790  0.312949  0.998177  1
  Pr  Pr1  1  0.992595  0.629546  0.051866  1
  Pr  Pr2  1  0.983475  0.126401  0.123321  1
  Pr  Pr3  1  0.513762  0.634091  0.128475  1
  Pr  Pr4  1  0.501647  0.117297  0.201640  1
  Pr  Pr5  1  0.192961  0.810007  0.251415  1
  Pr  Pr6  1  0.876285  0.488461  0.302948  1
  Pr  Pr7  1  0.372790  0.479915  0.373928  1
  Pr  Pr8  1  0.873110  0.018242  0.377113  1
  Pr  Pr9  1  0.378457  0.011170  0.448238  1
  Pr  Pr10  1  0.691832  0.692005  0.500282  1
  Pr  Pr11  1  0.010411  0.377853  0.553226  1
  Pr  Pr12  1  0.018726  0.870978  0.623583  1
  Pr  Pr13  1  0.481726  0.373372  0.625969  1
  Pr  Pr14  1  0.488883  0.876481  0.697051  1
  Pr  Pr15  1  0.806894  0.192937  0.750361  1
  Pr  Pr16  1  0.125036  0.511996  0.800874  1
  Pr  Pr17  1  0.630518  0.517371  0.870727  1
  Pr  Pr18  1  0.128388  0.979785  0.874776  1
  Pr  Pr19  1  0.618762  0.980249  0.946353  1
  Si  Si20  1  0.287098  0.921277  0.059261  1
  Si  Si21  1  0.209440  0.421489  0.191021  1
  Si  Si22  1  0.806446  0.830118  0.203599  1
  Si  Si23  1  0.165295  0.195507  0.297757  1
  Si  Si24  1  0.580393  0.786504  0.310220  1
  Si  Si25  1  0.079621  0.713260  0.440202  1
  Si  Si26  1  0.668820  0.304178  0.452445  1
  Si  Si27  1  0.305790  0.668524  0.546641  1
  Si  Si28  1  0.712408  0.078502  0.559591  1
  Si  Si29  1  0.787767  0.579479  0.689718  1
  Si  Si30  1  0.196833  0.166803  0.701789  1
  Si  Si31  1  0.831873  0.805583  0.797176  1
  Si  Si32  1  0.421983  0.211422  0.809280  1
  Si  Si33  1  0.930993  0.289829  0.935202  1
  Si  Si34  1  0.334072  0.694617  0.952781  1
  Ag  Ag35  1  0.694121  0.331806  0.052993  1
