# generated using pymatgen
data_La8Ni4Cl7
_symmetry_space_group_name_H-M   'P 1'
_cell_length_a   14.59444484
_cell_length_b   14.59444481
_cell_length_c   8.57204300
_cell_angle_alpha   85.79592116
_cell_angle_beta   85.79592117
_cell_angle_gamma   15.48216776
_symmetry_Int_Tables_number   1
_chemical_formula_structural   La8Ni4Cl7
_chemical_formula_sum   'La8 Ni4 Cl7'
_cell_volume   486.04760234
_cell_formula_units_Z   1
loop_
 _symmetry_equiv_pos_site_id
 _symmetry_equiv_pos_as_xyz
  1  'x, y, z'
loop_
 _atom_site_type_symbol
 _atom_site_label
 _atom_site_symmetry_multiplicity
 _atom_site_fract_x
 _atom_site_fract_y
 _atom_site_fract_z
 _atom_site_occupancy
  La  La0  1  0.213618  0.213618  0.768246  1
  La  La1  1  0.014040  0.014040  0.193529  1
  La  La2  1  0.597833  0.597833  0.639310  1
  La  La3  1  0.402167  0.402167  0.360690  1
  La  La4  1  0.369667  0.369667  0.930288  1
  La  La5  1  0.786382  0.786382  0.231754  1
  La  La6  1  0.985960  0.985960  0.806471  1
  La  La7  1  0.630333  0.630333  0.069712  1
  Ni  Ni8  1  0.455317  0.455317  0.055610  1
  Ni  Ni9  1  0.896109  0.896109  0.136860  1
  Ni  Ni10  1  0.103891  0.103891  0.863140  1
  Ni  Ni11  1  0.544683  0.544683  0.944390  1
  Cl  Cl12  1  0.786291  0.786291  0.878537  1
  Cl  Cl13  1  0.213709  0.213709  0.121463  1
  Cl  Cl14  1  0.301918  0.301918  0.483494  1
  Cl  Cl15  1  0.698082  0.698082  0.516506  1
  Cl  Cl16  1  0.500000  0.500000  0.500000  1
  Cl  Cl17  1  0.103920  0.103920  0.350547  1
  Cl  Cl18  1  0.896080  0.896080  0.649453  1
