# generated using pymatgen
data_Sc4Zn2B4PtRh9
_symmetry_space_group_name_H-M   'P 1'
_cell_length_a   9.32972091
_cell_length_b   3.09835500
_cell_length_c   9.35273592
_cell_angle_alpha   90.00000000
_cell_angle_beta   89.94917062
_cell_angle_gamma   90.00000000
_symmetry_Int_Tables_number   1
_chemical_formula_structural   Sc4Zn2B4PtRh9
_chemical_formula_sum   'Sc4 Zn2 B4 Pt1 Rh9'
_cell_volume   270.35744297
_cell_formula_units_Z   1
loop_
 _symmetry_equiv_pos_site_id
 _symmetry_equiv_pos_as_xyz
  1  'x, y, z'
loop_
 _atom_site_type_symbol
 _atom_site_label
 _atom_site_symmetry_multiplicity
 _atom_site_fract_x
 _atom_site_fract_y
 _atom_site_fract_z
 _atom_site_occupancy
  Sc  Sc0  1  0.676191  0.000000  0.174125  1
  Sc  Sc1  1  0.173838  0.000000  0.330608  1
  Sc  Sc2  1  0.825191  0.000000  0.675143  1
  Sc  Sc3  1  0.328084  0.000000  0.819796  1
  Zn  Zn4  1  0.996007  0.000000  0.998994  1
  Zn  Zn5  1  0.500273  0.000000  0.500154  1
  B  B6  1  0.379278  0.000000  0.127462  1
  B  B7  1  0.873971  0.000000  0.375034  1
  B  B8  1  0.125299  0.000000  0.625895  1
  B  B9  1  0.625772  0.000000  0.873220  1
  Pt  Pt10  1  0.215031  0.500001  0.070412  1
  Rh  Rh11  1  0.498709  0.500001  0.999394  1
  Rh  Rh12  1  0.931027  0.500001  0.218010  1
  Rh  Rh13  1  0.427850  0.500001  0.283013  1
  Rh  Rh14  1  0.717091  0.500001  0.428289  1
  Rh  Rh15  1  0.999394  0.500001  0.501243  1
  Rh  Rh16  1  0.282691  0.500001  0.569966  1
  Rh  Rh17  1  0.570971  0.500001  0.716777  1
  Rh  Rh18  1  0.071709  0.500001  0.783296  1
  Rh  Rh19  1  0.781622  0.500001  0.929168  1
