# generated using pymatgen
data_Y2Ho4TcIr
_symmetry_space_group_name_H-M   'P 1'
_cell_length_a   6.31699700
_cell_length_b   7.36018600
_cell_length_c   9.12836700
_cell_angle_alpha   90.00000000
_cell_angle_beta   90.00000000
_cell_angle_gamma   90.00000000
_symmetry_Int_Tables_number   1
_chemical_formula_structural   Y2Ho4TcIr
_chemical_formula_sum   'Y4 Ho8 Tc2 Ir2'
_cell_volume   424.41678626
_cell_formula_units_Z   2
loop_
 _symmetry_equiv_pos_site_id
 _symmetry_equiv_pos_as_xyz
  1  'x, y, z'
loop_
 _atom_site_type_symbol
 _atom_site_label
 _atom_site_symmetry_multiplicity
 _atom_site_fract_x
 _atom_site_fract_y
 _atom_site_fract_z
 _atom_site_occupancy
  Y  Y0  1  0.874207  0.538330  0.250000  1
  Y  Y1  1  0.625793  0.038330  0.250000  1
  Y  Y2  1  0.131851  0.459801  0.750000  1
  Y  Y3  1  0.368149  0.959801  0.750000  1
  Ho  Ho4  1  0.329908  0.676222  0.065701  1
  Ho  Ho5  1  0.170092  0.176222  0.434299  1
  Ho  Ho6  1  0.667468  0.324480  0.561210  1
  Ho  Ho7  1  0.832532  0.824480  0.938790  1
  Ho  Ho8  1  0.667468  0.324480  0.938790  1
  Ho  Ho9  1  0.832532  0.824480  0.561210  1
  Ho  Ho10  1  0.329908  0.676222  0.434299  1
  Ho  Ho11  1  0.170092  0.176222  0.065701  1
  Tc  Tc12  1  0.039489  0.886167  0.250000  1
  Tc  Tc13  1  0.460511  0.386167  0.250000  1
  Ir  Ir14  1  0.952139  0.114299  0.750000  1
  Ir  Ir15  1  0.547861  0.614299  0.750000  1
