# generated using pymatgen
data_Zr8Al14Ir7Se
_symmetry_space_group_name_H-M   'P 1'
_cell_length_a   8.87999835
_cell_length_b   8.87999743
_cell_length_c   8.87999700
_cell_angle_alpha   120.00434580
_cell_angle_beta   119.93629592
_cell_angle_gamma   90.05142144
_symmetry_Int_Tables_number   1
_chemical_formula_structural   Zr8Al14Ir7Se
_chemical_formula_sum   'Zr8 Al14 Ir7 Se1'
_cell_volume   495.35660100
_cell_formula_units_Z   1
loop_
 _symmetry_equiv_pos_site_id
 _symmetry_equiv_pos_as_xyz
  1  'x, y, z'
loop_
 _atom_site_type_symbol
 _atom_site_label
 _atom_site_symmetry_multiplicity
 _atom_site_fract_x
 _atom_site_fract_y
 _atom_site_fract_z
 _atom_site_occupancy
  Zr  Zr0  1  0.801848  0.296744  0.086609  1
  Zr  Zr1  1  0.210135  0.296744  0.494897  1
  Zr  Zr2  1  0.200064  0.700064  0.500000  1
  Zr  Zr3  1  0.210135  0.715239  0.913391  1
  Zr  Zr4  1  0.801848  0.715239  0.505103  1
  Zr  Zr5  1  0.786859  0.286859  0.500000  1
  Zr  Zr6  1  0.380043  0.121166  0.741122  1
  Zr  Zr7  1  0.380043  0.638922  0.258878  1
  Al  Al8  1  0.164074  0.328116  0.164039  1
  Al  Al9  1  0.164074  0.000035  0.835961  1
  Al  Al10  1  0.156649  0.333455  0.823194  1
  Al  Al11  1  0.510261  0.333455  0.176806  1
  Al  Al12  1  0.833431  0.664684  0.831255  1
  Al  Al13  1  0.833431  0.002177  0.168745  1
  Al  Al14  1  0.832509  0.666311  0.166199  1
  Al  Al15  1  0.500111  0.666311  0.833801  1
  Al  Al16  1  0.381205  0.119979  0.261227  1
  Al  Al17  1  0.858753  0.119979  0.738773  1
  Al  Al18  1  0.621545  0.879752  0.258206  1
  Al  Al19  1  0.621545  0.363339  0.741794  1
  Al  Al20  1  0.623539  0.880170  0.743369  1
  Al  Al21  1  0.136799  0.880170  0.256631  1
  Ir  Ir22  1  0.996331  0.998083  0.498634  1
  Ir  Ir23  1  0.499449  0.998083  0.001751  1
  Ir  Ir24  1  0.500510  0.500510  0.000000  1
  Ir  Ir25  1  0.499449  0.497697  0.501366  1
  Ir  Ir26  1  0.996331  0.497697  0.998249  1
  Ir  Ir27  1  0.999174  0.999174  0.000000  1
  Ir  Ir28  1  0.505708  0.005708  0.500000  1
  Se  Se29  1  0.994141  0.494141  0.500000  1
