# generated using pymatgen
data_Tm2Lu6Re3TcB24
_symmetry_space_group_name_H-M   'P 1'
_cell_length_a   3.62473700
_cell_length_b   9.07267985
_cell_length_c   11.42810801
_cell_angle_alpha   90.02299210
_cell_angle_beta   90.00000000
_cell_angle_gamma   90.00000000
_symmetry_Int_Tables_number   1
_chemical_formula_structural   Tm2Lu6Re3TcB24
_chemical_formula_sum   'Tm2 Lu6 Re3 Tc1 B24'
_cell_volume   375.82562479
_cell_formula_units_Z   1
loop_
 _symmetry_equiv_pos_site_id
 _symmetry_equiv_pos_as_xyz
  1  'x, y, z'
loop_
 _atom_site_type_symbol
 _atom_site_label
 _atom_site_symmetry_multiplicity
 _atom_site_fract_x
 _atom_site_fract_y
 _atom_site_fract_z
 _atom_site_occupancy
  Tm  Tm0  1  0.000000  0.323398  0.413723  1
  Tm  Tm1  1  0.000000  0.676995  0.585959  1
  Lu  Lu2  1  0.000000  0.823185  0.086132  1
  Lu  Lu3  1  0.000000  0.176971  0.913985  1
  Lu  Lu4  1  0.000000  0.942459  0.369948  1
  Lu  Lu5  1  0.000000  0.056415  0.629535  1
  Lu  Lu6  1  0.000000  0.444042  0.130070  1
  Lu  Lu7  1  0.000000  0.556506  0.870817  1
  Re  Re8  1  0.000000  0.360651  0.679775  1
  Re  Re9  1  0.000000  0.138952  0.179268  1
  Re  Re10  1  0.000000  0.861118  0.820855  1
  Tc  Tc11  1  0.000000  0.639500  0.319913  1
  B  B12  1  0.500000  0.553417  0.433065  1
  B  B13  1  0.500000  0.446829  0.566584  1
  B  B14  1  0.500000  0.053123  0.066282  1
  B  B15  1  0.500000  0.947116  0.933704  1
  B  B16  1  0.500000  0.750317  0.418993  1
  B  B17  1  0.500000  0.249199  0.580741  1
  B  B18  1  0.500000  0.250703  0.080364  1
  B  B19  1  0.500000  0.749558  0.919765  1
  B  B20  1  0.500000  0.793121  0.264547  1
  B  B21  1  0.500000  0.206513  0.735288  1
  B  B22  1  0.500000  0.293273  0.235002  1
  B  B23  1  0.500000  0.706767  0.765226  1
  B  B24  1  0.500000  0.630782  0.184284  1
  B  B25  1  0.500000  0.369427  0.815892  1
  B  B26  1  0.500000  0.130085  0.315442  1
  B  B27  1  0.500000  0.869662  0.684572  1
  B  B28  1  0.500000  0.980690  0.211820  1
  B  B29  1  0.500000  0.019171  0.788039  1
  B  B30  1  0.500000  0.481477  0.287763  1
  B  B31  1  0.500000  0.518880  0.712457  1
  B  B32  1  0.500000  0.599518  0.027827  1
  B  B33  1  0.500000  0.400781  0.972600  1
  B  B34  1  0.500000  0.098550  0.472295  1
  B  B35  1  0.500000  0.900849  0.527471  1
