# generated using pymatgen
data_Tm11LuIrOs3
_symmetry_space_group_name_H-M   'P 1'
_cell_length_a   7.29811292
_cell_length_b   8.90781600
_cell_length_c   6.26427017
_cell_angle_alpha   90.00000000
_cell_angle_beta   89.98452457
_cell_angle_gamma   90.00000000
_symmetry_Int_Tables_number   1
_chemical_formula_structural   Tm11LuIrOs3
_chemical_formula_sum   'Tm11 Lu1 Ir1 Os3'
_cell_volume   407.24173630
_cell_formula_units_Z   1
loop_
 _symmetry_equiv_pos_site_id
 _symmetry_equiv_pos_as_xyz
  1  'x, y, z'
loop_
 _atom_site_type_symbol
 _atom_site_label
 _atom_site_symmetry_multiplicity
 _atom_site_fract_x
 _atom_site_fract_y
 _atom_site_fract_z
 _atom_site_occupancy
  Tm  Tm0  1  0.674313  0.060940  0.332973  1
  Tm  Tm1  1  0.176948  0.439445  0.169276  1
  Tm  Tm2  1  0.324379  0.562609  0.668448  1
  Tm  Tm3  1  0.823929  0.935066  0.828185  1
  Tm  Tm4  1  0.324379  0.937391  0.668448  1
  Tm  Tm5  1  0.823929  0.564934  0.828185  1
  Tm  Tm6  1  0.674313  0.439060  0.332973  1
  Tm  Tm7  1  0.176948  0.060555  0.169276  1
  Tm  Tm8  1  0.537874  0.250000  0.873233  1
  Tm  Tm9  1  0.038890  0.250000  0.627852  1
  Tm  Tm10  1  0.461687  0.750000  0.126866  1
  Lu  Lu11  1  0.961572  0.750000  0.371794  1
  Ir  Ir12  1  0.884339  0.250000  0.039663  1
  Os  Os13  1  0.383869  0.250000  0.462359  1
  Os  Os14  1  0.115491  0.750000  0.965398  1
  Os  Os15  1  0.617143  0.750000  0.535071  1
