# generated using pymatgen
data_Ho3Tm5(C2Br3)2
_symmetry_space_group_name_H-M   'P 1'
_cell_length_a   3.64507500
_cell_length_b   10.58131106
_cell_length_c   20.23372700
_cell_angle_alpha   90.00597253
_cell_angle_beta   90.00000000
_cell_angle_gamma   90.00000000
_symmetry_Int_Tables_number   1
_chemical_formula_structural   Ho3Tm5(C2Br3)2
_chemical_formula_sum   'Ho6 Tm10 C8 Br12'
_cell_volume   780.40821764
_cell_formula_units_Z   2
loop_
 _symmetry_equiv_pos_site_id
 _symmetry_equiv_pos_as_xyz
  1  'x, y, z'
loop_
 _atom_site_type_symbol
 _atom_site_label
 _atom_site_symmetry_multiplicity
 _atom_site_fract_x
 _atom_site_fract_y
 _atom_site_fract_z
 _atom_site_occupancy
  Ho  Ho0  1  0.250000  0.866571  0.580550  1
  Ho  Ho1  1  0.750000  0.133429  0.419450  1
  Ho  Ho2  1  0.750000  0.633376  0.080890  1
  Ho  Ho3  1  0.250000  0.366624  0.919110  1
  Ho  Ho4  1  0.250000  0.866122  0.744650  1
  Ho  Ho5  1  0.750000  0.133878  0.255350  1
  Tm  Tm6  1  0.750000  0.633938  0.244036  1
  Tm  Tm7  1  0.250000  0.366062  0.755964  1
  Tm  Tm8  1  0.250000  0.866550  0.169973  1
  Tm  Tm9  1  0.750000  0.133450  0.830027  1
  Tm  Tm10  1  0.750000  0.633133  0.669789  1
  Tm  Tm11  1  0.250000  0.366867  0.330211  1
  Tm  Tm12  1  0.250000  0.900477  0.327514  1
  Tm  Tm13  1  0.750000  0.099523  0.672486  1
  Tm  Tm14  1  0.750000  0.599136  0.827314  1
  Tm  Tm15  1  0.250000  0.400864  0.172686  1
  C  C16  1  0.250000  0.613920  0.750321  1
  C  C17  1  0.750000  0.386080  0.249679  1
  C  C18  1  0.750000  0.883276  0.250291  1
  C  C19  1  0.250000  0.116724  0.749709  1
  C  C20  1  0.250000  0.632538  0.157450  1
  C  C21  1  0.750000  0.367462  0.842550  1
  C  C22  1  0.750000  0.867495  0.656807  1
  C  C23  1  0.250000  0.132505  0.343193  1
  Br  Br24  1  0.250000  0.611019  0.556352  1
  Br  Br25  1  0.750000  0.388981  0.443648  1
  Br  Br26  1  0.750000  0.888623  0.056354  1
  Br  Br27  1  0.250000  0.111377  0.943646  1
  Br  Br28  1  0.250000  0.628824  0.952783  1
  Br  Br29  1  0.750000  0.371176  0.047217  1
  Br  Br30  1  0.750000  0.871068  0.452740  1
  Br  Br31  1  0.250000  0.128932  0.547260  1
  Br  Br32  1  0.250000  0.635967  0.356030  1
  Br  Br33  1  0.750000  0.364033  0.643970  1
  Br  Br34  1  0.750000  0.864002  0.857264  1
  Br  Br35  1  0.250000  0.135998  0.142736  1
