# generated using pymatgen
data_Lu8Sc4Ru3Rh
_symmetry_space_group_name_H-M   'P 1'
_cell_length_a   6.09031573
_cell_length_b   7.04099115
_cell_length_c   8.87180600
_cell_angle_alpha   90.00000000
_cell_angle_beta   90.00000000
_cell_angle_gamma   90.01631137
_symmetry_Int_Tables_number   1
_chemical_formula_structural   Lu8Sc4Ru3Rh
_chemical_formula_sum   'Lu8 Sc4 Ru3 Rh1'
_cell_volume   380.43951982
_cell_formula_units_Z   1
loop_
 _symmetry_equiv_pos_site_id
 _symmetry_equiv_pos_as_xyz
  1  'x, y, z'
loop_
 _atom_site_type_symbol
 _atom_site_label
 _atom_site_symmetry_multiplicity
 _atom_site_fract_x
 _atom_site_fract_y
 _atom_site_fract_z
 _atom_site_occupancy
  Lu  Lu0  1  0.330875  0.676107  0.060076  1
  Lu  Lu1  1  0.170991  0.180368  0.439861  1
  Lu  Lu2  1  0.670897  0.322052  0.561635  1
  Lu  Lu3  1  0.827252  0.821338  0.936291  1
  Lu  Lu4  1  0.670897  0.322052  0.938365  1
  Lu  Lu5  1  0.827252  0.821338  0.563709  1
  Lu  Lu6  1  0.330875  0.676107  0.439924  1
  Lu  Lu7  1  0.170991  0.180368  0.060139  1
  Sc  Sc8  1  0.872322  0.538686  0.250000  1
  Sc  Sc9  1  0.627135  0.041134  0.250000  1
  Sc  Sc10  1  0.125932  0.459509  0.750000  1
  Sc  Sc11  1  0.371328  0.959820  0.750000  1
  Ru  Ru12  1  0.473994  0.382828  0.250000  1
  Ru  Ru13  1  0.973701  0.116362  0.750000  1
  Ru  Ru14  1  0.523462  0.617229  0.750000  1
  Rh  Rh15  1  0.032097  0.884703  0.250000  1
