# generated using pymatgen
data_Na4Co13Ni7As12
_symmetry_space_group_name_H-M   'P 1'
_cell_length_a   3.72008000
_cell_length_b   10.68073790
_cell_length_c   12.27629664
_cell_angle_alpha   89.89015249
_cell_angle_beta   90.00000000
_cell_angle_gamma   90.00000000
_symmetry_Int_Tables_number   1
_chemical_formula_structural   Na4Co13Ni7As12
_chemical_formula_sum   'Na4 Co13 Ni7 As12'
_cell_volume   487.77564677
_cell_formula_units_Z   1
loop_
 _symmetry_equiv_pos_site_id
 _symmetry_equiv_pos_as_xyz
  1  'x, y, z'
loop_
 _atom_site_type_symbol
 _atom_site_label
 _atom_site_symmetry_multiplicity
 _atom_site_fract_x
 _atom_site_fract_y
 _atom_site_fract_z
 _atom_site_occupancy
  Na  Na0  1  0.250000  0.580848  0.704598  1
  Na  Na1  1  0.250000  0.919027  0.205457  1
  Na  Na2  1  0.750000  0.419395  0.295214  1
  Na  Na3  1  0.750000  0.080792  0.795049  1
  Co  Co4  1  0.750000  0.907486  0.011204  1
  Co  Co5  1  0.250000  0.213515  0.175410  1
  Co  Co6  1  0.250000  0.286126  0.676029  1
  Co  Co7  1  0.750000  0.785664  0.824429  1
  Co  Co8  1  0.750000  0.714128  0.323266  1
  Co  Co9  1  0.250000  0.880114  0.695725  1
  Co  Co10  1  0.250000  0.620609  0.194522  1
  Co  Co11  1  0.750000  0.120216  0.305086  1
  Co  Co12  1  0.750000  0.380132  0.805123  1
  Co  Co13  1  0.250000  0.464983  0.933874  1
  Co  Co14  1  0.250000  0.035174  0.433700  1
  Co  Co15  1  0.750000  0.535585  0.066494  1
  Co  Co16  1  0.750000  0.964789  0.566332  1
  Ni  Ni17  1  0.250000  0.710417  0.987187  1
  Ni  Ni18  1  0.250000  0.790583  0.486445  1
  Ni  Ni19  1  0.750000  0.289428  0.014283  1
  Ni  Ni20  1  0.750000  0.209136  0.513944  1
  Ni  Ni21  1  0.250000  0.407448  0.486634  1
  Ni  Ni22  1  0.250000  0.092236  0.987129  1
  Ni  Ni23  1  0.750000  0.592850  0.512925  1
  As  As24  1  0.250000  0.417587  0.116232  1
  As  As25  1  0.250000  0.082508  0.616197  1
  As  As26  1  0.750000  0.582465  0.883835  1
  As  As27  1  0.750000  0.917392  0.383906  1
  As  As28  1  0.250000  0.265405  0.866606  1
  As  As29  1  0.250000  0.234921  0.365941  1
  As  As30  1  0.750000  0.736628  0.132212  1
  As  As31  1  0.750000  0.765302  0.633886  1
  As  As32  1  0.250000  0.599685  0.385779  1
  As  As33  1  0.250000  0.900512  0.888270  1
  As  As34  1  0.750000  0.400527  0.613547  1
  As  As35  1  0.750000  0.096387  0.113532  1
