# generated using pymatgen
data_Dy7HoEr12(CoBi2)4
_symmetry_space_group_name_H-M   'P 1'
_cell_length_a   7.93169757
_cell_length_b   8.86202600
_cell_length_c   12.36636588
_cell_angle_alpha   90.00000000
_cell_angle_beta   89.95669722
_cell_angle_gamma   90.00000000
_symmetry_Int_Tables_number   1
_chemical_formula_structural   Dy7HoEr12(CoBi2)4
_chemical_formula_sum   'Dy7 Ho1 Er12 Co4 Bi8'
_cell_volume   869.24286375
_cell_formula_units_Z   1
loop_
 _symmetry_equiv_pos_site_id
 _symmetry_equiv_pos_as_xyz
  1  'x, y, z'
loop_
 _atom_site_type_symbol
 _atom_site_label
 _atom_site_symmetry_multiplicity
 _atom_site_fract_x
 _atom_site_fract_y
 _atom_site_fract_z
 _atom_site_occupancy
  Dy  Dy0  1  0.884749  0.750000  0.811207  1
  Dy  Dy1  1  0.115287  0.250000  0.188777  1
  Dy  Dy2  1  0.384609  0.250000  0.688839  1
  Dy  Dy3  1  0.615277  0.750000  0.311164  1
  Dy  Dy4  1  0.053702  0.750000  0.497989  1
  Dy  Dy5  1  0.946317  0.250000  0.502017  1
  Dy  Dy6  1  0.553770  0.250000  0.002058  1
  Ho  Ho7  1  0.445948  0.750000  0.997967  1
  Er  Er8  1  0.347730  0.750000  0.699823  1
  Er  Er9  1  0.652318  0.250000  0.300415  1
  Er  Er10  1  0.847849  0.250000  0.800501  1
  Er  Er11  1  0.152567  0.750000  0.199492  1
  Er  Er12  1  0.673621  0.537948  0.563102  1
  Er  Er13  1  0.326399  0.461925  0.436810  1
  Er  Er14  1  0.173928  0.462071  0.936918  1
  Er  Er15  1  0.326399  0.038075  0.436810  1
  Er  Er16  1  0.826095  0.538056  0.063155  1
  Er  Er17  1  0.673621  0.962052  0.563102  1
  Er  Er18  1  0.826095  0.961944  0.063155  1
  Er  Er19  1  0.173928  0.037929  0.936918  1
  Co  Co20  1  0.065812  0.750000  0.992800  1
  Co  Co21  1  0.934470  0.250000  0.007162  1
  Co  Co22  1  0.565475  0.250000  0.507169  1
  Co  Co23  1  0.434546  0.750000  0.492794  1
  Bi  Bi24  1  0.571276  0.509899  0.826432  1
  Bi  Bi25  1  0.428462  0.490969  0.173514  1
  Bi  Bi26  1  0.071541  0.490564  0.673891  1
  Bi  Bi27  1  0.428462  0.009031  0.173514  1
  Bi  Bi28  1  0.928465  0.509521  0.326091  1
  Bi  Bi29  1  0.571276  0.990101  0.826432  1
  Bi  Bi30  1  0.928465  0.990479  0.326091  1
  Bi  Bi31  1  0.071541  0.009436  0.673891  1
