# generated using pymatgen
data_Y2Lu2CdPd
_symmetry_space_group_name_H-M   'P 1'
_cell_length_a   9.60299253
_cell_length_b   9.60299338
_cell_length_c   9.62779000
_cell_angle_alpha   59.91454548
_cell_angle_beta   59.91454252
_cell_angle_gamma   60.17090958
_symmetry_Int_Tables_number   1
_chemical_formula_structural   Y2Lu2CdPd
_chemical_formula_sum   'Y8 Lu8 Cd4 Pd4'
_cell_volume   627.79668335
_cell_formula_units_Z   4
loop_
 _symmetry_equiv_pos_site_id
 _symmetry_equiv_pos_as_xyz
  1  'x, y, z'
loop_
 _atom_site_type_symbol
 _atom_site_label
 _atom_site_symmetry_multiplicity
 _atom_site_fract_x
 _atom_site_fract_y
 _atom_site_fract_z
 _atom_site_occupancy
  Y  Y0  1  0.188613  0.188613  0.811387  1
  Y  Y1  1  0.811387  0.811387  0.188613  1
  Y  Y2  1  0.935507  0.564493  0.564493  1
  Y  Y3  1  0.564493  0.935507  0.935507  1
  Y  Y4  1  0.564493  0.935507  0.564493  1
  Y  Y5  1  0.935507  0.564493  0.935507  1
  Y  Y6  1  0.564135  0.564135  0.935865  1
  Y  Y7  1  0.935865  0.935865  0.564135  1
  Lu  Lu8  1  0.353738  0.353738  0.353009  1
  Lu  Lu9  1  0.353738  0.353738  0.939515  1
  Lu  Lu10  1  0.353009  0.939515  0.353738  1
  Lu  Lu11  1  0.939515  0.353009  0.353738  1
  Lu  Lu12  1  0.810632  0.189368  0.189368  1
  Lu  Lu13  1  0.189368  0.810632  0.810632  1
  Lu  Lu14  1  0.189368  0.810632  0.189368  1
  Lu  Lu15  1  0.810632  0.189368  0.810632  1
  Cd  Cd16  1  0.581923  0.581923  0.582044  1
  Cd  Cd17  1  0.581923  0.581923  0.254110  1
  Cd  Cd18  1  0.582044  0.254110  0.581923  1
  Cd  Cd19  1  0.254110  0.582044  0.581923  1
  Pd  Pd20  1  0.143755  0.143755  0.147935  1
  Pd  Pd21  1  0.143755  0.143755  0.564554  1
  Pd  Pd22  1  0.147935  0.564554  0.143755  1
  Pd  Pd23  1  0.564554  0.147935  0.143755  1
