# generated using pymatgen
data_ErTmPbAu2
_symmetry_space_group_name_H-M   'P 1'
_cell_length_a   8.09961600
_cell_length_b   8.09884900
_cell_length_c   3.63829900
_cell_angle_alpha   90.00000000
_cell_angle_beta   90.00000000
_cell_angle_gamma   90.00000000
_symmetry_Int_Tables_number   1
_chemical_formula_structural   ErTmPbAu2
_chemical_formula_sum   'Er2 Tm2 Pb2 Au4'
_cell_volume   238.66356221
_cell_formula_units_Z   2
loop_
 _symmetry_equiv_pos_site_id
 _symmetry_equiv_pos_as_xyz
  1  'x, y, z'
loop_
 _atom_site_type_symbol
 _atom_site_label
 _atom_site_symmetry_multiplicity
 _atom_site_fract_x
 _atom_site_fract_y
 _atom_site_fract_z
 _atom_site_occupancy
  Er  Er0  1  0.668282  0.169033  0.500000  1
  Er  Er1  1  0.168282  0.330967  0.500000  1
  Tm  Tm2  1  0.831227  0.668264  0.500000  1
  Tm  Tm3  1  0.331227  0.831736  0.500000  1
  Pb  Pb4  1  0.000796  0.997911  0.000000  1
  Pb  Pb5  1  0.500796  0.502089  0.000000  1
  Au  Au6  1  0.125792  0.626277  0.000000  1
  Au  Au7  1  0.625792  0.873723  0.000000  1
  Au  Au8  1  0.373903  0.125556  0.000000  1
  Au  Au9  1  0.873903  0.374444  0.000000  1
