# generated using pymatgen
data_Ba6Mg(RuO6)2
_symmetry_space_group_name_H-M   'P 1'
_cell_length_a   9.05569891
_cell_length_b   9.05569899
_cell_length_c   7.37305041
_cell_angle_alpha   68.40377538
_cell_angle_beta   68.40377235
_cell_angle_gamma   36.88451331
_symmetry_Int_Tables_number   1
_chemical_formula_structural   Ba6Mg(RuO6)2
_chemical_formula_sum   'Ba6 Mg1 Ru2 O12'
_cell_volume   334.47421825
_cell_formula_units_Z   1
loop_
 _symmetry_equiv_pos_site_id
 _symmetry_equiv_pos_as_xyz
  1  'x, y, z'
loop_
 _atom_site_type_symbol
 _atom_site_label
 _atom_site_symmetry_multiplicity
 _atom_site_fract_x
 _atom_site_fract_y
 _atom_site_fract_z
 _atom_site_occupancy
  Ba  Ba0  1  0.210052  0.210052  0.706902  1
  Ba  Ba1  1  0.886463  0.886463  0.707337  1
  Ba  Ba2  1  0.547692  0.547692  0.714799  1
  Ba  Ba3  1  0.789948  0.789948  0.293098  1
  Ba  Ba4  1  0.452308  0.452308  0.285201  1
  Ba  Ba5  1  0.113537  0.113537  0.292663  1
  Mg  Mg6  1  0.000000  0.000000  0.000000  1
  Ru  Ru7  1  0.670439  0.670439  0.000894  1
  Ru  Ru8  1  0.329561  0.329561  0.999106  1
  O  O9  1  0.281694  0.281694  0.303418  1
  O  O10  1  0.946918  0.946918  0.315448  1
  O  O11  1  0.617530  0.617530  0.302013  1
  O  O12  1  0.718306  0.718306  0.696582  1
  O  O13  1  0.382470  0.382470  0.697987  1
  O  O14  1  0.053082  0.053082  0.684552  1
  O  O15  1  0.000000  0.500000  0.000000  1
  O  O16  1  0.647556  0.174187  0.000614  1
  O  O17  1  0.352444  0.825813  0.999386  1
  O  O18  1  0.500000  0.000000  0.000000  1
  O  O19  1  0.174187  0.647556  0.000614  1
  O  O20  1  0.825813  0.352444  0.999386  1
