# generated using pymatgen
data_La8Lu2InSn5
_symmetry_space_group_name_H-M   'P 1'
_cell_length_a   9.42093264
_cell_length_b   9.42093267
_cell_length_c   9.42093163
_cell_angle_alpha   96.40090895
_cell_angle_beta   96.40091165
_cell_angle_gamma   140.98948936
_symmetry_Int_Tables_number   1
_chemical_formula_structural   La8Lu2InSn5
_chemical_formula_sum   'La8 Lu2 In1 Sn5'
_cell_volume   496.11719156
_cell_formula_units_Z   1
loop_
 _symmetry_equiv_pos_site_id
 _symmetry_equiv_pos_as_xyz
  1  'x, y, z'
loop_
 _atom_site_type_symbol
 _atom_site_label
 _atom_site_symmetry_multiplicity
 _atom_site_fract_x
 _atom_site_fract_y
 _atom_site_fract_z
 _atom_site_occupancy
  La  La0  1  0.910424  0.224063  0.135307  1
  La  La1  1  0.224063  0.088755  0.313638  1
  La  La2  1  0.775117  0.910424  0.686362  1
  La  La3  1  0.088755  0.775117  0.864693  1
  La  La4  1  0.724883  0.411245  0.135307  1
  La  La5  1  0.275937  0.589576  0.864693  1
  La  La6  1  0.589576  0.724883  0.313638  1
  La  La7  1  0.411245  0.275937  0.686362  1
  Lu  Lu8  1  0.750000  0.250000  0.500000  1
  Lu  Lu9  1  0.250000  0.750000  0.500000  1
  In  In10  1  0.750000  0.750000  0.000000  1
  Sn  Sn11  1  0.250000  0.250000  0.000000  1
  Sn  Sn12  1  0.847103  0.652897  0.500000  1
  Sn  Sn13  1  0.652897  0.152897  0.805795  1
  Sn  Sn14  1  0.347103  0.847103  0.194205  1
  Sn  Sn15  1  0.152897  0.347103  0.500000  1
