# generated using pymatgen
data_Tm10Lu2Fe3HgPd
_symmetry_space_group_name_H-M   'P 1'
_cell_length_a   8.10544951
_cell_length_b   8.10634651
_cell_length_c   8.10545036
_cell_angle_alpha   110.35760404
_cell_angle_beta   106.86416330
_cell_angle_gamma   111.21935415
_symmetry_Int_Tables_number   1
_chemical_formula_structural   Tm10Lu2Fe3HgPd
_chemical_formula_sum   'Tm10 Lu2 Fe3 Hg1 Pd1'
_cell_volume   409.34274957
_cell_formula_units_Z   1
loop_
 _symmetry_equiv_pos_site_id
 _symmetry_equiv_pos_as_xyz
  1  'x, y, z'
loop_
 _atom_site_type_symbol
 _atom_site_label
 _atom_site_symmetry_multiplicity
 _atom_site_fract_x
 _atom_site_fract_y
 _atom_site_fract_z
 _atom_site_occupancy
  Tm  Tm0  1  0.185820  0.930674  0.744854  1
  Tm  Tm1  1  0.956476  0.189254  0.767786  1
  Tm  Tm2  1  0.814180  0.069326  0.255146  1
  Tm  Tm3  1  0.043524  0.810746  0.232214  1
  Tm  Tm4  1  0.421468  0.189254  0.232778  1
  Tm  Tm5  1  0.578532  0.810746  0.767222  1
  Tm  Tm6  1  0.312205  0.308755  0.619832  1
  Tm  Tm7  1  0.687795  0.691245  0.380168  1
  Tm  Tm8  1  0.688924  0.308755  0.996550  1
  Tm  Tm9  1  0.311076  0.691245  0.003450  1
  Lu  Lu10  1  0.186520  0.441176  0.254657  1
  Lu  Lu11  1  0.813480  0.558824  0.745343  1
  Fe  Fe12  1  0.380564  0.381211  0.000647  1
  Fe  Fe13  1  0.619436  0.618789  0.999353  1
  Fe  Fe14  1  0.000000  0.000000  0.000000  1
  Hg  Hg15  1  0.500000  0.000000  0.500000  1
  Pd  Pd16  1  0.000000  0.500000  0.500000  1
