# generated using pymatgen
data_Dy10Bi5Pb
_symmetry_space_group_name_H-M   'P 1'
_cell_length_a   9.15766400
_cell_length_b   9.17723909
_cell_length_c   6.42274400
_cell_angle_alpha   90.00000000
_cell_angle_beta   90.00000000
_cell_angle_gamma   119.92946584
_symmetry_Int_Tables_number   1
_chemical_formula_structural   Dy10Bi5Pb
_chemical_formula_sum   'Dy10 Bi5 Pb1'
_cell_volume   467.79570583
_cell_formula_units_Z   1
loop_
 _symmetry_equiv_pos_site_id
 _symmetry_equiv_pos_as_xyz
  1  'x, y, z'
loop_
 _atom_site_type_symbol
 _atom_site_label
 _atom_site_symmetry_multiplicity
 _atom_site_fract_x
 _atom_site_fract_y
 _atom_site_fract_z
 _atom_site_occupancy
  Dy  Dy0  1  0.003893  0.760260  0.750000  1
  Dy  Dy1  1  0.998013  0.241577  0.250000  1
  Dy  Dy2  1  0.756436  0.758423  0.250000  1
  Dy  Dy3  1  0.756869  0.000000  0.750000  1
  Dy  Dy4  1  0.243632  0.239740  0.750000  1
  Dy  Dy5  1  0.241374  0.000000  0.250000  1
  Dy  Dy6  1  0.665467  0.331862  0.999548  1
  Dy  Dy7  1  0.333604  0.668138  0.500452  1
  Dy  Dy8  1  0.333604  0.668138  0.999548  1
  Dy  Dy9  1  0.665467  0.331862  0.500452  1
  Bi  Bi10  1  0.388120  0.389306  0.250000  1
  Bi  Bi11  1  0.998814  0.610694  0.250000  1
  Bi  Bi12  1  0.000921  0.388894  0.750000  1
  Bi  Bi13  1  0.612027  0.611106  0.750000  1
  Bi  Bi14  1  0.608916  0.000000  0.250000  1
  Pb  Pb15  1  0.392843  0.000000  0.750000  1
