# generated using pymatgen
data_Sr4Ca2NbOsO12
_symmetry_space_group_name_H-M   'P 1'
_cell_length_a   5.99261701
_cell_length_b   5.84742439
_cell_length_c   10.16999824
_cell_angle_alpha   54.49863808
_cell_angle_beta   90.08577419
_cell_angle_gamma   90.12797202
_symmetry_Int_Tables_number   1
_chemical_formula_structural   Sr4Ca2NbOsO12
_chemical_formula_sum   'Sr4 Ca2 Nb1 Os1 O12'
_cell_volume   290.12128286
_cell_formula_units_Z   1
loop_
 _symmetry_equiv_pos_site_id
 _symmetry_equiv_pos_as_xyz
  1  'x, y, z'
loop_
 _atom_site_type_symbol
 _atom_site_label
 _atom_site_symmetry_multiplicity
 _atom_site_fract_x
 _atom_site_fract_y
 _atom_site_fract_z
 _atom_site_occupancy
  Sr  Sr0  1  0.043001  0.730118  0.761700  1
  Sr  Sr1  1  0.956999  0.269882  0.238300  1
  Sr  Sr2  1  0.549215  0.258036  0.758155  1
  Sr  Sr3  1  0.450785  0.741964  0.241845  1
  Ca  Ca4  1  0.500000  0.500000  0.000000  1
  Ca  Ca5  1  0.000000  0.500000  0.500000  1
  Nb  Nb6  1  0.000000  0.000000  0.000000  1
  Os  Os7  1  0.500000  0.000000  0.500000  1
  O  O8  1  0.472849  0.866788  0.719120  1
  O  O9  1  0.527151  0.133212  0.280880  1
  O  O10  1  0.962695  0.143079  0.765441  1
  O  O11  1  0.037305  0.856921  0.234559  1
  O  O12  1  0.761887  0.767484  0.552203  1
  O  O13  1  0.238113  0.232516  0.447797  1
  O  O14  1  0.275062  0.245351  0.944943  1
  O  O15  1  0.724938  0.754649  0.055057  1
  O  O16  1  0.315873  0.694265  0.543654  1
  O  O17  1  0.684127  0.305735  0.456346  1
  O  O18  1  0.806353  0.319528  0.957754  1
  O  O19  1  0.193647  0.680472  0.042246  1
