# generated using pymatgen
data_Yb12Al3Ge5Pd8
_symmetry_space_group_name_H-M   'P 1'
_cell_length_a   5.67740800
_cell_length_b   7.96989196
_cell_length_c   13.65300091
_cell_angle_alpha   90.19710625
_cell_angle_beta   90.00000000
_cell_angle_gamma   90.00000000
_symmetry_Int_Tables_number   1
_chemical_formula_structural   Yb12Al3Ge5Pd8
_chemical_formula_sum   'Yb12 Al3 Ge5 Pd8'
_cell_volume   617.77181280
_cell_formula_units_Z   1
loop_
 _symmetry_equiv_pos_site_id
 _symmetry_equiv_pos_as_xyz
  1  'x, y, z'
loop_
 _atom_site_type_symbol
 _atom_site_label
 _atom_site_symmetry_multiplicity
 _atom_site_fract_x
 _atom_site_fract_y
 _atom_site_fract_z
 _atom_site_occupancy
  Yb  Yb0  1  0.646955  0.251984  0.252579  1
  Yb  Yb1  1  0.350689  0.748207  0.750412  1
  Yb  Yb2  1  0.350689  0.751793  0.249588  1
  Yb  Yb3  1  0.646955  0.248016  0.747421  1
  Yb  Yb4  1  0.141901  0.394390  0.104011  1
  Yb  Yb5  1  0.857438  0.605672  0.896516  1
  Yb  Yb6  1  0.855443  0.601046  0.603566  1
  Yb  Yb7  1  0.855443  0.898954  0.396434  1
  Yb  Yb8  1  0.139030  0.389350  0.397762  1
  Yb  Yb9  1  0.139030  0.110650  0.602238  1
  Yb  Yb10  1  0.141901  0.105610  0.895989  1
  Yb  Yb11  1  0.857438  0.894328  0.103484  1
  Al  Al12  1  0.633778  0.250000  0.000000  1
  Al  Al13  1  0.365776  0.750000  0.000000  1
  Al  Al14  1  0.365601  0.750000  0.500000  1
  Ge  Ge15  1  0.149784  0.104726  0.250541  1
  Ge  Ge16  1  0.849436  0.893121  0.748519  1
  Ge  Ge17  1  0.849436  0.606879  0.251481  1
  Ge  Ge18  1  0.149784  0.395274  0.749459  1
  Ge  Ge19  1  0.658914  0.250000  0.500000  1
  Pd  Pd20  1  0.375539  0.033486  0.090592  1
  Pd  Pd21  1  0.625745  0.966957  0.909076  1
  Pd  Pd22  1  0.620241  0.963016  0.591360  1
  Pd  Pd23  1  0.620241  0.536984  0.408640  1
  Pd  Pd24  1  0.375764  0.034225  0.410743  1
  Pd  Pd25  1  0.375764  0.465775  0.589257  1
  Pd  Pd26  1  0.375539  0.466514  0.909408  1
  Pd  Pd27  1  0.625745  0.533043  0.090924  1
