# generated using pymatgen
data_Ba2(RhO3)3
_symmetry_space_group_name_H-M   'P 1'
_cell_length_a   8.25511170
_cell_length_b   8.25483029
_cell_length_c   8.25514203
_cell_angle_alpha   109.47866881
_cell_angle_beta   109.46110641
_cell_angle_gamma   109.47399569
_symmetry_Int_Tables_number   1
_chemical_formula_structural   Ba2(RhO3)3
_chemical_formula_sum   'Ba4 Rh6 O18'
_cell_volume   433.04514102
_cell_formula_units_Z   2
loop_
 _symmetry_equiv_pos_site_id
 _symmetry_equiv_pos_as_xyz
  1  'x, y, z'
loop_
 _atom_site_type_symbol
 _atom_site_label
 _atom_site_symmetry_multiplicity
 _atom_site_fract_x
 _atom_site_fract_y
 _atom_site_fract_z
 _atom_site_occupancy
  Ba  Ba0  1  0.000061  0.999877  0.386096  1
  Ba  Ba1  1  0.999892  0.385945  0.999737  1
  Ba  Ba2  1  0.613931  0.613963  0.614013  1
  Ba  Ba3  1  0.386162  0.000216  0.000084  1
  Rh  Rh4  1  0.344144  0.499958  0.844287  1
  Rh  Rh5  1  0.844346  0.344512  0.500130  1
  Rh  Rh6  1  0.499989  0.155563  0.655711  1
  Rh  Rh7  1  0.155747  0.655793  0.500218  1
  Rh  Rh8  1  0.500049  0.844374  0.344533  1
  Rh  Rh9  1  0.655602  0.499919  0.155751  1
  O  O10  1  0.359631  0.999962  0.359620  1
  O  O11  1  0.359904  0.359939  0.999984  1
  O  O12  1  0.000051  0.639991  0.639984  1
  O  O13  1  0.640135  0.640200  0.999987  1
  O  O14  1  0.000055  0.359798  0.359798  1
  O  O15  1  0.640241  0.999985  0.640211  1
  O  O16  1  0.358483  0.310088  0.633686  1
  O  O17  1  0.048595  0.323776  0.689939  1
  O  O18  1  0.724795  0.366102  0.676036  1
  O  O19  1  0.366136  0.676216  0.724699  1
  O  O20  1  0.275222  0.951173  0.641279  1
  O  O21  1  0.633879  0.358637  0.310129  1
  O  O22  1  0.309922  0.633884  0.358563  1
  O  O23  1  0.690004  0.048588  0.323903  1
  O  O24  1  0.951584  0.641439  0.275283  1
  O  O25  1  0.676286  0.724911  0.366343  1
  O  O26  1  0.641492  0.275178  0.951516  1
  O  O27  1  0.323662  0.690014  0.048479  1
