# generated using pymatgen
data_Pr2Dy3Y(RuO7)2
_symmetry_space_group_name_H-M   'P 1'
_cell_length_a   6.46420217
_cell_length_b   6.46884848
_cell_length_c   7.53064400
_cell_angle_alpha   90.00000000
_cell_angle_beta   90.00000000
_cell_angle_gamma   110.19849177
_symmetry_Int_Tables_number   1
_chemical_formula_structural   Pr2Dy3Y(RuO7)2
_chemical_formula_sum   'Pr2 Dy3 Y1 Ru2 O14'
_cell_volume   295.53524466
_cell_formula_units_Z   1
loop_
 _symmetry_equiv_pos_site_id
 _symmetry_equiv_pos_as_xyz
  1  'x, y, z'
loop_
 _atom_site_type_symbol
 _atom_site_label
 _atom_site_symmetry_multiplicity
 _atom_site_fract_x
 _atom_site_fract_y
 _atom_site_fract_z
 _atom_site_occupancy
  Pr  Pr0  1  0.999878  0.999985  0.499846  1
  Pr  Pr1  1  0.999878  0.999985  0.000154  1
  Dy  Dy2  1  0.518731  0.070954  0.250000  1
  Dy  Dy3  1  0.928894  0.481214  0.750000  1
  Dy  Dy4  1  0.071058  0.518714  0.250000  1
  Y  Y5  1  0.481159  0.929199  0.750000  1
  Ru  Ru6  1  0.500052  0.500224  0.499874  1
  Ru  Ru7  1  0.500052  0.500224  0.000126  1
  O  O8  1  0.589173  0.588576  0.750000  1
  O  O9  1  0.410931  0.411002  0.250000  1
  O  O10  1  0.837040  0.117432  0.750000  1
  O  O11  1  0.163467  0.882598  0.250000  1
  O  O12  1  0.117254  0.836379  0.750000  1
  O  O13  1  0.882651  0.163490  0.250000  1
  O  O14  1  0.440736  0.182687  0.963543  1
  O  O15  1  0.559146  0.817363  0.462592  1
  O  O16  1  0.182407  0.440949  0.963036  1
  O  O17  1  0.817603  0.559012  0.463041  1
  O  O18  1  0.440736  0.182687  0.536457  1
  O  O19  1  0.559146  0.817363  0.037408  1
  O  O20  1  0.817603  0.559012  0.036959  1
  O  O21  1  0.182407  0.440949  0.536964  1
