# generated using pymatgen
data_Ba4Gd(ReO6)2
_symmetry_space_group_name_H-M   'P 1'
_cell_length_a   10.17054027
_cell_length_b   10.17054075
_cell_length_c   10.17054090
_cell_angle_alpha   33.81494003
_cell_angle_beta   33.81493763
_cell_angle_gamma   33.81493686
_symmetry_Int_Tables_number   1
_chemical_formula_structural   Ba4Gd(ReO6)2
_chemical_formula_sum   'Ba4 Gd1 Re2 O12'
_cell_volume   290.34152279
_cell_formula_units_Z   1
loop_
 _symmetry_equiv_pos_site_id
 _symmetry_equiv_pos_as_xyz
  1  'x, y, z'
loop_
 _atom_site_type_symbol
 _atom_site_label
 _atom_site_symmetry_multiplicity
 _atom_site_fract_x
 _atom_site_fract_y
 _atom_site_fract_z
 _atom_site_occupancy
  Ba  Ba0  1  0.711954  0.711954  0.711954  1
  Ba  Ba1  1  0.288046  0.288046  0.288046  1
  Ba  Ba2  1  0.865849  0.865849  0.865849  1
  Ba  Ba3  1  0.134151  0.134151  0.134151  1
  Gd  Gd4  1  0.000000  0.000000  0.000000  1
  Re  Re5  1  0.578379  0.578379  0.578379  1
  Re  Re6  1  0.421621  0.421621  0.421621  1
  O  O7  1  0.226046  0.684516  0.226046  1
  O  O8  1  0.226046  0.226046  0.684516  1
  O  O9  1  0.684516  0.226046  0.226046  1
  O  O10  1  0.773954  0.315484  0.773954  1
  O  O11  1  0.773954  0.773954  0.315484  1
  O  O12  1  0.315484  0.773954  0.773954  1
  O  O13  1  0.388707  0.858084  0.388707  1
  O  O14  1  0.388707  0.388707  0.858084  1
  O  O15  1  0.858084  0.388707  0.388707  1
  O  O16  1  0.611293  0.141916  0.611293  1
  O  O17  1  0.611293  0.611293  0.141916  1
  O  O18  1  0.141916  0.611293  0.611293  1
