# generated using pymatgen
data_Pa3MnCo7TcP6
_symmetry_space_group_name_H-M   'P 1'
_cell_length_a   3.75222700
_cell_length_b   10.60385500
_cell_length_c   12.17998000
_cell_angle_alpha   90.00000000
_cell_angle_beta   90.00000000
_cell_angle_gamma   90.00000000
_symmetry_Int_Tables_number   1
_chemical_formula_structural   Pa3MnCo7TcP6
_chemical_formula_sum   'Pa6 Mn2 Co14 Tc2 P12'
_cell_volume   484.61790945
_cell_formula_units_Z   2
loop_
 _symmetry_equiv_pos_site_id
 _symmetry_equiv_pos_as_xyz
  1  'x, y, z'
loop_
 _atom_site_type_symbol
 _atom_site_label
 _atom_site_symmetry_multiplicity
 _atom_site_fract_x
 _atom_site_fract_y
 _atom_site_fract_z
 _atom_site_occupancy
  Pa  Pa0  1  0.000000  0.500000  0.525850  1
  Pa  Pa1  1  0.500000  0.000000  0.474150  1
  Pa  Pa2  1  0.500000  0.820444  0.205837  1
  Pa  Pa3  1  0.500000  0.179556  0.205837  1
  Pa  Pa4  1  0.000000  0.679556  0.794163  1
  Pa  Pa5  1  0.000000  0.320444  0.794163  1
  Mn  Mn6  1  0.000000  0.500000  0.983975  1
  Mn  Mn7  1  0.500000  0.000000  0.016025  1
  Co  Co8  1  0.500000  0.500000  0.698974  1
  Co  Co9  1  0.000000  0.000000  0.301026  1
  Co  Co10  1  0.500000  0.331080  0.989032  1
  Co  Co11  1  0.500000  0.668920  0.989032  1
  Co  Co12  1  0.000000  0.168920  0.010968  1
  Co  Co13  1  0.000000  0.831080  0.010968  1
  Co  Co14  1  0.500000  0.303862  0.429021  1
  Co  Co15  1  0.500000  0.696138  0.429021  1
  Co  Co16  1  0.000000  0.196138  0.570979  1
  Co  Co17  1  0.000000  0.803862  0.570979  1
  Co  Co18  1  0.500000  0.878229  0.712269  1
  Co  Co19  1  0.500000  0.121771  0.712269  1
  Co  Co20  1  0.000000  0.621771  0.287731  1
  Co  Co21  1  0.000000  0.378229  0.287731  1
  Tc  Tc22  1  0.500000  0.500000  0.152552  1
  Tc  Tc23  1  0.000000  0.000000  0.847448  1
  P  P24  1  0.500000  0.500000  0.882241  1
  P  P25  1  0.000000  0.000000  0.117759  1
  P  P26  1  0.500000  0.500000  0.344116  1
  P  P27  1  0.000000  0.000000  0.655884  1
  P  P28  1  0.500000  0.308051  0.613247  1
  P  P29  1  0.500000  0.691949  0.613247  1
  P  P30  1  0.000000  0.191949  0.386753  1
  P  P31  1  0.000000  0.808051  0.386753  1
  P  P32  1  0.500000  0.848516  0.896210  1
  P  P33  1  0.500000  0.151484  0.896210  1
  P  P34  1  0.000000  0.651484  0.103790  1
  P  P35  1  0.000000  0.348516  0.103790  1
