# generated using pymatgen
data_KRb3SmUTe6
_symmetry_space_group_name_H-M   'P 1'
_cell_length_a   8.14698920
_cell_length_b   8.14699005
_cell_length_c   8.94007372
_cell_angle_alpha   81.18622359
_cell_angle_beta   81.18622259
_cell_angle_gamma   120.03796773
_symmetry_Int_Tables_number   1
_chemical_formula_structural   KRb3SmUTe6
_chemical_formula_sum   'K1 Rb3 Sm1 U1 Te6'
_cell_volume   488.94460283
_cell_formula_units_Z   1
loop_
 _symmetry_equiv_pos_site_id
 _symmetry_equiv_pos_as_xyz
  1  'x, y, z'
loop_
 _atom_site_type_symbol
 _atom_site_label
 _atom_site_symmetry_multiplicity
 _atom_site_fract_x
 _atom_site_fract_y
 _atom_site_fract_z
 _atom_site_occupancy
  K  K0  1  0.499933  0.500067  0.000000  1
  Rb  Rb1  1  0.345210  0.654790  0.500000  1
  Rb  Rb2  1  0.653132  0.346868  0.500000  1
  Rb  Rb3  1  0.001482  0.998518  0.500000  1
  Sm  Sm4  1  0.167960  0.832040  0.000000  1
  U  U5  1  0.832151  0.167849  0.000000  1
  Te  Te6  1  0.795615  0.809145  0.199458  1
  Te  Te7  1  0.444899  0.067001  0.204791  1
  Te  Te8  1  0.051635  0.415869  0.204317  1
  Te  Te9  1  0.584131  0.948365  0.795683  1
  Te  Te10  1  0.932999  0.555101  0.795209  1
  Te  Te11  1  0.190855  0.204385  0.800542  1
