# generated using pymatgen
data_Nd19TmSi15Ru
_symmetry_space_group_name_H-M   'P 1'
_cell_length_a   7.77351718
_cell_length_b   7.91265556
_cell_length_c   15.10854146
_cell_angle_alpha   89.73857551
_cell_angle_beta   89.51374094
_cell_angle_gamma   89.88061773
_symmetry_Int_Tables_number   1
_chemical_formula_structural   Nd19TmSi15Ru
_chemical_formula_sum   'Nd19 Tm1 Si15 Ru1'
_cell_volume   929.26866956
_cell_formula_units_Z   1
loop_
 _symmetry_equiv_pos_site_id
 _symmetry_equiv_pos_as_xyz
  1  'x, y, z'
loop_
 _atom_site_type_symbol
 _atom_site_label
 _atom_site_symmetry_multiplicity
 _atom_site_fract_x
 _atom_site_fract_y
 _atom_site_fract_z
 _atom_site_occupancy
  Nd  Nd0  1  0.811680  0.334867  0.614308  1
  Nd  Nd1  1  0.457025  0.686240  0.897556  1
  Nd  Nd2  1  0.957298  0.815930  0.897547  1
  Nd  Nd3  1  0.185814  0.680907  0.120127  1
  Nd  Nd4  1  0.691334  0.818612  0.120673  1
  Nd  Nd5  1  0.305602  0.177602  0.877562  1
  Nd  Nd6  1  0.185923  0.678210  0.380986  1
  Nd  Nd7  1  0.044924  0.189691  0.103226  1
  Nd  Nd8  1  0.311591  0.180058  0.622933  1
  Nd  Nd9  1  0.859645  0.492200  0.261209  1
  Nd  Nd10  1  0.365425  0.006440  0.255190  1
  Nd  Nd11  1  0.537469  0.316282  0.398827  1
  Nd  Nd12  1  0.809379  0.317598  0.877307  1
  Nd  Nd13  1  0.964406  0.813076  0.599154  1
  Nd  Nd14  1  0.461866  0.685443  0.602405  1
  Nd  Nd15  1  0.038496  0.190027  0.402198  1
  Nd  Nd16  1  0.696434  0.810069  0.385234  1
  Nd  Nd17  1  0.638809  0.994411  0.747307  1
  Nd  Nd18  1  0.546580  0.310882  0.103165  1
  Tm  Tm19  1  0.138081  0.509270  0.747772  1
  Si  Si20  1  0.479059  0.602965  0.245591  1
  Si  Si21  1  0.253407  0.378252  0.247462  1
  Si  Si22  1  0.512704  0.403888  0.751441  1
  Si  Si23  1  0.630087  0.025321  0.957794  1
  Si  Si24  1  0.015288  0.102588  0.748293  1
  Si  Si25  1  0.752753  0.621668  0.750268  1
  Si  Si26  1  0.751472  0.119697  0.247997  1
  Si  Si27  1  0.364909  0.969474  0.462407  1
  Si  Si28  1  0.982945  0.902531  0.248245  1
  Si  Si29  1  0.364625  0.974206  0.041200  1
  Si  Si30  1  0.634076  0.024170  0.542514  1
  Si  Si31  1  0.132044  0.477292  0.954176  1
  Si  Si32  1  0.144183  0.477079  0.544574  1
  Si  Si33  1  0.865655  0.526143  0.037794  1
  Si  Si34  1  0.244434  0.870947  0.750315  1
  Ru  Ru35  1  0.864582  0.515964  0.455246  1
