# generated using pymatgen
data_HgRhF7
_symmetry_space_group_name_H-M   'P 1'
_cell_length_a   10.33926300
_cell_length_b   7.25153981
_cell_length_c   8.13523594
_cell_angle_alpha   78.20033568
_cell_angle_beta   90.00000000
_cell_angle_gamma   90.00000000
_symmetry_Int_Tables_number   1
_chemical_formula_structural   HgRhF7
_chemical_formula_sum   'Hg4 Rh4 F28'
_cell_volume   597.05503170
_cell_formula_units_Z   4
loop_
 _symmetry_equiv_pos_site_id
 _symmetry_equiv_pos_as_xyz
  1  'x, y, z'
loop_
 _atom_site_type_symbol
 _atom_site_label
 _atom_site_symmetry_multiplicity
 _atom_site_fract_x
 _atom_site_fract_y
 _atom_site_fract_z
 _atom_site_occupancy
  Hg  Hg0  1  0.245494  0.282109  0.901903  1
  Hg  Hg1  1  0.745494  0.717891  0.598097  1
  Hg  Hg2  1  0.754506  0.717891  0.098097  1
  Hg  Hg3  1  0.254506  0.282109  0.401903  1
  Rh  Rh4  1  0.561494  0.196957  0.201691  1
  Rh  Rh5  1  0.061494  0.803043  0.298309  1
  Rh  Rh6  1  0.438506  0.803043  0.798309  1
  Rh  Rh7  1  0.938506  0.196957  0.701691  1
  F  F8  1  0.709011  0.357943  0.144348  1
  F  F9  1  0.209011  0.642057  0.355652  1
  F  F10  1  0.290989  0.642057  0.855652  1
  F  F11  1  0.790989  0.357943  0.644348  1
  F  F12  1  0.640782  0.076000  0.402175  1
  F  F13  1  0.140782  0.924000  0.097825  1
  F  F14  1  0.359218  0.924000  0.597825  1
  F  F15  1  0.859218  0.076000  0.902175  1
  F  F16  1  0.479292  0.315260  0.997577  1
  F  F17  1  0.979292  0.684740  0.502423  1
  F  F18  1  0.520708  0.684740  0.002423  1
  F  F19  1  0.020708  0.315260  0.497577  1
  F  F20  1  0.410688  0.046140  0.257002  1
  F  F21  1  0.910688  0.953860  0.242998  1
  F  F22  1  0.589312  0.953860  0.742998  1
  F  F23  1  0.089312  0.046140  0.757002  1
  F  F24  1  0.635697  0.019663  0.083723  1
  F  F25  1  0.135697  0.980337  0.416277  1
  F  F26  1  0.364303  0.980337  0.916277  1
  F  F27  1  0.864303  0.019663  0.583723  1
  F  F28  1  0.481757  0.374622  0.316522  1
  F  F29  1  0.981757  0.625378  0.183478  1
  F  F30  1  0.518243  0.625378  0.683478  1
  F  F31  1  0.018243  0.374622  0.816522  1
  F  F32  1  0.189204  0.317505  0.146001  1
  F  F33  1  0.689204  0.682495  0.353999  1
  F  F34  1  0.810796  0.682495  0.853999  1
  F  F35  1  0.310796  0.317505  0.646001  1
