# generated using pymatgen
data_Nd2GeP(Ru2C)2
_symmetry_space_group_name_H-M   'P 1'
_cell_length_a   5.88366305
_cell_length_b   5.88366324
_cell_length_c   7.28028600
_cell_angle_alpha   90.00000000
_cell_angle_beta   90.00000000
_cell_angle_gamma   140.81801685
_symmetry_Int_Tables_number   1
_chemical_formula_structural   Nd2GeP(Ru2C)2
_chemical_formula_sum   'Nd2 Ge1 P1 Ru4 C2'
_cell_volume   159.22591568
_cell_formula_units_Z   1
loop_
 _symmetry_equiv_pos_site_id
 _symmetry_equiv_pos_as_xyz
  1  'x, y, z'
loop_
 _atom_site_type_symbol
 _atom_site_label
 _atom_site_symmetry_multiplicity
 _atom_site_fract_x
 _atom_site_fract_y
 _atom_site_fract_z
 _atom_site_occupancy
  Nd  Nd0  1  0.548099  0.451901  0.250000  1
  Nd  Nd1  1  0.452688  0.547312  0.750000  1
  Ge  Ge2  1  0.270215  0.729785  0.250000  1
  P  P3  1  0.730197  0.269803  0.750000  1
  Ru  Ru4  1  0.834183  0.165817  0.046981  1
  Ru  Ru5  1  0.164429  0.835571  0.935784  1
  Ru  Ru6  1  0.164429  0.835571  0.564216  1
  Ru  Ru7  1  0.834183  0.165817  0.453019  1
  C  C8  1  0.000788  0.999212  0.000545  1
  C  C9  1  0.000788  0.999212  0.499455  1
