# generated using pymatgen
data_Dy4AlZn8Cd3
_symmetry_space_group_name_H-M   'P 1'
_cell_length_a   4.44044300
_cell_length_b   7.13000414
_cell_length_c   10.05598804
_cell_angle_alpha   89.85700363
_cell_angle_beta   90.00000000
_cell_angle_gamma   90.00000000
_symmetry_Int_Tables_number   1
_chemical_formula_structural   Dy4AlZn8Cd3
_chemical_formula_sum   'Dy4 Al1 Zn8 Cd3'
_cell_volume   318.37538068
_cell_formula_units_Z   1
loop_
 _symmetry_equiv_pos_site_id
 _symmetry_equiv_pos_as_xyz
  1  'x, y, z'
loop_
 _atom_site_type_symbol
 _atom_site_label
 _atom_site_symmetry_multiplicity
 _atom_site_fract_x
 _atom_site_fract_y
 _atom_site_fract_z
 _atom_site_occupancy
  Dy  Dy0  1  0.250000  0.301653  0.672255  1
  Dy  Dy1  1  0.750000  0.697717  0.328129  1
  Dy  Dy2  1  0.250000  0.805797  0.824284  1
  Dy  Dy3  1  0.750000  0.196705  0.171522  1
  Al  Al4  1  0.750000  0.966465  0.599096  1
  Zn  Zn5  1  0.750000  0.301072  0.466130  1
  Zn  Zn6  1  0.250000  0.693835  0.537922  1
  Zn  Zn7  1  0.750000  0.812719  0.037214  1
  Zn  Zn8  1  0.250000  0.186263  0.961819  1
  Zn  Zn9  1  0.750000  0.592281  0.643736  1
  Zn  Zn10  1  0.250000  0.415295  0.358019  1
  Zn  Zn11  1  0.750000  0.085826  0.846723  1
  Zn  Zn12  1  0.250000  0.913029  0.147547  1
  Cd  Cd13  1  0.250000  0.530741  0.098842  1
  Cd  Cd14  1  0.750000  0.467888  0.899791  1
  Cd  Cd15  1  0.250000  0.032717  0.406972  1
