# generated using pymatgen
data_NdY7(Si4Mo3)4
_symmetry_space_group_name_H-M   'P 1'
_cell_length_a   6.80188264
_cell_length_b   6.98021208
_cell_length_c   12.97078305
_cell_angle_alpha   89.97360153
_cell_angle_beta   89.99140696
_cell_angle_gamma   90.05740528
_symmetry_Int_Tables_number   1
_chemical_formula_structural   NdY7(Si4Mo3)4
_chemical_formula_sum   'Nd1 Y7 Si16 Mo12'
_cell_volume   615.83402370
_cell_formula_units_Z   1
loop_
 _symmetry_equiv_pos_site_id
 _symmetry_equiv_pos_as_xyz
  1  'x, y, z'
loop_
 _atom_site_type_symbol
 _atom_site_label
 _atom_site_symmetry_multiplicity
 _atom_site_fract_x
 _atom_site_fract_y
 _atom_site_fract_z
 _atom_site_occupancy
  Nd  Nd0  1  0.998164  0.165392  0.093264  1
  Y  Y1  1  0.497451  0.333384  0.094264  1
  Y  Y2  1  0.997656  0.166849  0.405704  1
  Y  Y3  1  0.502648  0.667003  0.594378  1
  Y  Y4  1  0.002696  0.833663  0.904986  1
  Y  Y5  1  0.502909  0.666315  0.905067  1
  Y  Y6  1  0.002304  0.832934  0.594355  1
  Y  Y7  1  0.497426  0.333448  0.406620  1
  Si  Si8  1  0.658333  0.042523  0.547855  1
  Si  Si9  1  0.158614  0.459364  0.951033  1
  Si  Si10  1  0.345466  0.955391  0.047407  1
  Si  Si11  1  0.841994  0.542056  0.452374  1
  Si  Si12  1  0.341543  0.957556  0.452598  1
  Si  Si13  1  0.840711  0.545507  0.047299  1
  Si  Si14  1  0.656452  0.042384  0.950811  1
  Si  Si15  1  0.158240  0.457642  0.547964  1
  Si  Si16  1  0.534695  0.364520  0.749584  1
  Si  Si17  1  0.034994  0.135743  0.749880  1
  Si  Si18  1  0.464723  0.635239  0.250431  1
  Si  Si19  1  0.964591  0.862385  0.251292  1
  Si  Si20  1  0.803174  0.627660  0.749666  1
  Si  Si21  1  0.303374  0.872511  0.749795  1
  Si  Si22  1  0.198258  0.374555  0.251120  1
  Si  Si23  1  0.694323  0.126844  0.251183  1
  Mo  Mo24  1  0.830881  0.335298  0.625256  1
  Mo  Mo25  1  0.331063  0.165097  0.874056  1
  Mo  Mo26  1  0.169420  0.664813  0.125518  1
  Mo  Mo27  1  0.668784  0.834621  0.375311  1
  Mo  Mo28  1  0.169623  0.664678  0.375460  1
  Mo  Mo29  1  0.668557  0.834212  0.126001  1
  Mo  Mo30  1  0.830167  0.336204  0.873719  1
  Mo  Mo31  1  0.330510  0.164877  0.625307  1
  Mo  Mo32  1  0.665878  0.000173  0.749521  1
  Mo  Mo33  1  0.165884  0.500137  0.749730  1
  Mo  Mo34  1  0.334619  0.998385  0.250803  1
  Mo  Mo35  1  0.833874  0.500633  0.250389  1
