# generated using pymatgen
data_Y7FeBr12
_symmetry_space_group_name_H-M   'P 1'
_cell_length_a   9.22521438
_cell_length_b   9.22521434
_cell_length_c   9.22521470
_cell_angle_alpha   106.94127390
_cell_angle_beta   106.94128438
_cell_angle_gamma   106.94127546
_symmetry_Int_Tables_number   1
_chemical_formula_structural   Y7FeBr12
_chemical_formula_sum   'Y7 Fe1 Br12'
_cell_volume   654.89002927
_cell_formula_units_Z   1
loop_
 _symmetry_equiv_pos_site_id
 _symmetry_equiv_pos_as_xyz
  1  'x, y, z'
loop_
 _atom_site_type_symbol
 _atom_site_label
 _atom_site_symmetry_multiplicity
 _atom_site_fract_x
 _atom_site_fract_y
 _atom_site_fract_z
 _atom_site_occupancy
  Y  Y0  1  0.000000  0.000000  0.000000  1
  Y  Y1  1  0.596349  0.520305  0.801679  1
  Y  Y2  1  0.520305  0.801679  0.596349  1
  Y  Y3  1  0.801679  0.596349  0.520305  1
  Y  Y4  1  0.403651  0.479695  0.198321  1
  Y  Y5  1  0.479695  0.198321  0.403651  1
  Y  Y6  1  0.198321  0.403651  0.479695  1
  Fe  Fe7  1  0.500000  0.500000  0.500000  1
  Br  Br8  1  0.569364  0.178280  0.721872  1
  Br  Br9  1  0.178280  0.721872  0.569364  1
  Br  Br10  1  0.721872  0.569364  0.178280  1
  Br  Br11  1  0.430636  0.821720  0.278128  1
  Br  Br12  1  0.821720  0.278128  0.430636  1
  Br  Br13  1  0.278128  0.430636  0.821720  1
  Br  Br14  1  0.665830  0.884383  0.961450  1
  Br  Br15  1  0.884383  0.961450  0.665830  1
  Br  Br16  1  0.961450  0.665830  0.884383  1
  Br  Br17  1  0.334170  0.115617  0.038550  1
  Br  Br18  1  0.115617  0.038550  0.334170  1
  Br  Br19  1  0.038550  0.334170  0.115617  1
