# generated using pymatgen
data_Y2Er8Cd7InPd4
_symmetry_space_group_name_H-M   'P 1'
_cell_length_a   3.62182200
_cell_length_b   7.96096658
_cell_length_c   18.30682760
_cell_angle_alpha   89.76001574
_cell_angle_beta   90.00000000
_cell_angle_gamma   90.00000000
_symmetry_Int_Tables_number   1
_chemical_formula_structural   Y2Er8Cd7InPd4
_chemical_formula_sum   'Y2 Er8 Cd7 In1 Pd4'
_cell_volume   527.83986260
_cell_formula_units_Z   1
loop_
 _symmetry_equiv_pos_site_id
 _symmetry_equiv_pos_as_xyz
  1  'x, y, z'
loop_
 _atom_site_type_symbol
 _atom_site_label
 _atom_site_symmetry_multiplicity
 _atom_site_fract_x
 _atom_site_fract_y
 _atom_site_fract_z
 _atom_site_occupancy
  Y  Y0  1  0.000000  0.497893  0.500334  1
  Y  Y1  1  0.000000  0.001555  0.999617  1
  Er  Er2  1  0.000000  0.739377  0.281040  1
  Er  Er3  1  0.000000  0.260572  0.718639  1
  Er  Er4  1  0.000000  0.757880  0.780710  1
  Er  Er5  1  0.000000  0.241492  0.219455  1
  Er  Er6  1  0.000000  0.613093  0.084068  1
  Er  Er7  1  0.000000  0.388062  0.915931  1
  Er  Er8  1  0.000000  0.886861  0.583761  1
  Er  Er9  1  0.000000  0.112928  0.415844  1
  Cd  Cd10  1  0.500000  0.712953  0.932085  1
  Cd  Cd11  1  0.500000  0.288040  0.068460  1
  Cd  Cd12  1  0.500000  0.785853  0.431827  1
  Cd  Cd13  1  0.500000  0.211800  0.568791  1
  Cd  Cd14  1  0.500000  0.577229  0.648302  1
  Cd  Cd15  1  0.500000  0.424117  0.351478  1
  Cd  Cd16  1  0.500000  0.924255  0.148425  1
  In  In17  1  0.500000  0.076233  0.850733  1
  Pd  Pd18  1  0.500000  0.525543  0.195549  1
  Pd  Pd19  1  0.500000  0.474316  0.804458  1
  Pd  Pd20  1  0.500000  0.974520  0.695979  1
  Pd  Pd21  1  0.500000  0.025431  0.304517  1
