# generated using pymatgen
data_Ce2Fe6P7Rh6
_symmetry_space_group_name_H-M   'P 1'
_cell_length_a   9.38932100
_cell_length_b   9.38932140
_cell_length_c   3.78518000
_cell_angle_alpha   90.00000000
_cell_angle_beta   90.00000000
_cell_angle_gamma   120.00000434
_symmetry_Int_Tables_number   1
_chemical_formula_structural   Ce2Fe6P7Rh6
_chemical_formula_sum   'Ce2 Fe6 P7 Rh6'
_cell_volume   288.99181438
_cell_formula_units_Z   1
loop_
 _symmetry_equiv_pos_site_id
 _symmetry_equiv_pos_as_xyz
  1  'x, y, z'
loop_
 _atom_site_type_symbol
 _atom_site_label
 _atom_site_symmetry_multiplicity
 _atom_site_fract_x
 _atom_site_fract_y
 _atom_site_fract_z
 _atom_site_occupancy
  Ce  Ce0  1  0.000000  0.000000  0.000000  1
  Ce  Ce1  1  0.333333  0.666667  0.500000  1
  Fe  Fe2  1  0.820683  0.597613  0.000000  1
  Fe  Fe3  1  0.776932  0.179317  0.000000  1
  Fe  Fe4  1  0.402387  0.223068  0.000000  1
  Fe  Fe5  1  0.875632  0.424382  0.500000  1
  Fe  Fe6  1  0.548750  0.124368  0.500000  1
  Fe  Fe7  1  0.575618  0.451250  0.500000  1
  P  P8  1  0.064650  0.623968  0.000000  1
  P  P9  1  0.559318  0.935350  0.000000  1
  P  P10  1  0.376032  0.440682  0.000000  1
  P  P11  1  0.776216  0.717431  0.500000  1
  P  P12  1  0.941215  0.223784  0.500000  1
  P  P13  1  0.282569  0.058785  0.500000  1
  P  P14  1  0.666667  0.333333  0.000000  1
  Rh  Rh15  1  0.096845  0.396074  0.000000  1
  Rh  Rh16  1  0.299229  0.903155  0.000000  1
  Rh  Rh17  1  0.603926  0.700771  0.000000  1
  Rh  Rh18  1  0.049045  0.769321  0.500000  1
  Rh  Rh19  1  0.720275  0.950955  0.500000  1
  Rh  Rh20  1  0.230679  0.279725  0.500000  1
