# generated using pymatgen
data_Sm6Al13Mo3Os7
_symmetry_space_group_name_H-M   'P 1'
_cell_length_a   9.09242142
_cell_length_b   9.09242193
_cell_length_c   9.09242219
_cell_angle_alpha   59.22867715
_cell_angle_beta   59.22867308
_cell_angle_gamma   59.22867107
_symmetry_Int_Tables_number   1
_chemical_formula_structural   Sm6Al13Mo3Os7
_chemical_formula_sum   'Sm6 Al13 Mo3 Os7'
_cell_volume   522.18581449
_cell_formula_units_Z   1
loop_
 _symmetry_equiv_pos_site_id
 _symmetry_equiv_pos_as_xyz
  1  'x, y, z'
loop_
 _atom_site_type_symbol
 _atom_site_label
 _atom_site_symmetry_multiplicity
 _atom_site_fract_x
 _atom_site_fract_y
 _atom_site_fract_z
 _atom_site_occupancy
  Sm  Sm0  1  0.707762  0.707762  0.285115  1
  Sm  Sm1  1  0.294989  0.706905  0.294989  1
  Sm  Sm2  1  0.706905  0.294989  0.294989  1
  Sm  Sm3  1  0.294989  0.294989  0.706905  1
  Sm  Sm4  1  0.707762  0.285115  0.707762  1
  Sm  Sm5  1  0.285115  0.707762  0.707762  1
  Al  Al6  1  0.880156  0.880156  0.880156  1
  Al  Al7  1  0.121794  0.121794  0.640055  1
  Al  Al8  1  0.121794  0.640055  0.121794  1
  Al  Al9  1  0.640055  0.121794  0.121794  1
  Al  Al10  1  0.121620  0.121620  0.121620  1
  Al  Al11  1  0.670147  0.670147  0.989724  1
  Al  Al12  1  0.670147  0.989724  0.670147  1
  Al  Al13  1  0.989724  0.670147  0.670147  1
  Al  Al14  1  0.666861  0.666861  0.666861  1
  Al  Al15  1  0.329917  0.329917  0.013209  1
  Al  Al16  1  0.329917  0.013209  0.329917  1
  Al  Al17  1  0.013209  0.329917  0.329917  1
  Al  Al18  1  0.330404  0.330404  0.330404  1
  Mo  Mo19  1  0.877015  0.877015  0.362355  1
  Mo  Mo20  1  0.877015  0.362355  0.877015  1
  Mo  Mo21  1  0.362355  0.877015  0.877015  1
  Os  Os22  1  0.004966  0.004966  0.004966  1
  Os  Os23  1  0.997921  0.997921  0.496934  1
  Os  Os24  1  0.503814  0.994978  0.503814  1
  Os  Os25  1  0.994978  0.503814  0.503814  1
  Os  Os26  1  0.503814  0.503814  0.994978  1
  Os  Os27  1  0.997921  0.496934  0.997921  1
  Os  Os28  1  0.496934  0.997921  0.997921  1
