# generated using pymatgen
data_Nd2HoSc7(Si5Ir2)4
_symmetry_space_group_name_H-M   'P 1'
_cell_length_a   12.49873302
_cell_length_b   12.49729637
_cell_length_c   4.16576100
_cell_angle_alpha   90.00000000
_cell_angle_beta   90.00000000
_cell_angle_gamma   90.06517053
_symmetry_Int_Tables_number   1
_chemical_formula_structural   Nd2HoSc7(Si5Ir2)4
_chemical_formula_sum   'Nd2 Ho1 Sc7 Si20 Ir8'
_cell_volume   650.69299152
_cell_formula_units_Z   1
loop_
 _symmetry_equiv_pos_site_id
 _symmetry_equiv_pos_as_xyz
  1  'x, y, z'
loop_
 _atom_site_type_symbol
 _atom_site_label
 _atom_site_symmetry_multiplicity
 _atom_site_fract_x
 _atom_site_fract_y
 _atom_site_fract_z
 _atom_site_occupancy
  Nd  Nd0  1  0.115660  0.615482  0.500000  1
  Nd  Nd1  1  0.615229  0.884838  0.500000  1
  Ho  Ho2  1  0.884026  0.383914  0.500000  1
  Sc  Sc3  1  0.384123  0.115904  0.500000  1
  Sc  Sc4  1  0.673135  0.174815  0.500000  1
  Sc  Sc5  1  0.325879  0.827607  0.500000  1
  Sc  Sc6  1  0.174765  0.324524  0.500000  1
  Sc  Sc7  1  0.826006  0.673274  0.500000  1
  Sc  Sc8  1  0.000870  0.000625  0.000000  1
  Sc  Sc9  1  0.500512  0.499011  0.000000  1
  Si  Si10  1  0.566176  0.069030  0.000000  1
  Si  Si11  1  0.431115  0.933990  0.000000  1
  Si  Si12  1  0.067876  0.430713  0.000000  1
  Si  Si13  1  0.931167  0.567361  0.000000  1
  Si  Si14  1  0.200771  0.165477  0.000000  1
  Si  Si15  1  0.800917  0.834762  0.000000  1
  Si  Si16  1  0.166028  0.802627  0.000000  1
  Si  Si17  1  0.698681  0.333780  0.000000  1
  Si  Si18  1  0.834204  0.200435  0.000000  1
  Si  Si19  1  0.300951  0.665543  0.000000  1
  Si  Si20  1  0.665577  0.698189  0.000000  1
  Si  Si21  1  0.334858  0.298227  0.000000  1
  Si  Si22  1  0.007784  0.150945  0.500000  1
  Si  Si23  1  0.992284  0.850219  0.500000  1
  Si  Si24  1  0.152516  0.994107  0.500000  1
  Si  Si25  1  0.506245  0.347459  0.500000  1
  Si  Si26  1  0.849808  0.008736  0.500000  1
  Si  Si27  1  0.491492  0.650134  0.500000  1
  Si  Si28  1  0.650837  0.507086  0.500000  1
  Si  Si29  1  0.350080  0.491690  0.500000  1
  Ir  Ir30  1  0.020511  0.243456  0.000000  1
  Ir  Ir31  1  0.978787  0.757579  0.000000  1
  Ir  Ir32  1  0.245589  0.981695  0.000000  1
  Ir  Ir33  1  0.518976  0.254501  0.000000  1
  Ir  Ir34  1  0.756537  0.022151  0.000000  1
  Ir  Ir35  1  0.478612  0.743505  0.000000  1
  Ir  Ir36  1  0.743648  0.519258  0.000000  1
  Ir  Ir37  1  0.257767  0.477351  0.000000  1
