# generated using pymatgen
data_Tb5TaRuO12
_symmetry_space_group_name_H-M   'P 1'
_cell_length_a   6.87323567
_cell_length_b   6.87323571
_cell_length_c   7.50363801
_cell_angle_alpha   74.12191359
_cell_angle_beta   74.12190958
_cell_angle_gamma   50.52444186
_symmetry_Int_Tables_number   1
_chemical_formula_structural   Tb5TaRuO12
_chemical_formula_sum   'Tb5 Ta1 Ru1 O12'
_cell_volume   260.80182882
_cell_formula_units_Z   1
loop_
 _symmetry_equiv_pos_site_id
 _symmetry_equiv_pos_as_xyz
  1  'x, y, z'
loop_
 _atom_site_type_symbol
 _atom_site_label
 _atom_site_symmetry_multiplicity
 _atom_site_fract_x
 _atom_site_fract_y
 _atom_site_fract_z
 _atom_site_occupancy
  Tb  Tb0  1  0.695236  0.683806  0.673295  1
  Tb  Tb1  1  0.700233  0.692177  0.139298  1
  Tb  Tb2  1  0.999268  0.000732  0.000000  1
  Tb  Tb3  1  0.307823  0.299767  0.860702  1
  Tb  Tb4  1  0.316194  0.304764  0.326705  1
  Ta  Ta5  1  0.215930  0.784070  0.500000  1
  Ru  Ru6  1  0.753003  0.246997  0.500000  1
  O  O7  1  0.408359  0.900506  0.923760  1
  O  O8  1  0.580504  0.092016  0.583608  1
  O  O9  1  0.907984  0.419496  0.416392  1
  O  O10  1  0.099494  0.591641  0.076240  1
  O  O11  1  0.998307  0.001575  0.302295  1
  O  O12  1  0.492668  0.507790  0.683277  1
  O  O13  1  0.906342  0.403074  0.925114  1
  O  O14  1  0.100872  0.569779  0.582836  1
  O  O15  1  0.430221  0.899128  0.417164  1
  O  O16  1  0.596926  0.093658  0.074886  1
  O  O17  1  0.492210  0.507332  0.316723  1
  O  O18  1  0.998425  0.001693  0.697705  1
