# generated using pymatgen
data_Y5(OsO6)2
_symmetry_space_group_name_H-M   'P 1'
_cell_length_a   6.90385949
_cell_length_b   6.90385982
_cell_length_c   7.52112405
_cell_angle_alpha   74.00154969
_cell_angle_beta   74.00154924
_cell_angle_gamma   48.51120600
_symmetry_Int_Tables_number   1
_chemical_formula_structural   Y5(OsO6)2
_chemical_formula_sum   'Y5 Os2 O12'
_cell_volume   255.96946505
_cell_formula_units_Z   1
loop_
 _symmetry_equiv_pos_site_id
 _symmetry_equiv_pos_as_xyz
  1  'x, y, z'
loop_
 _atom_site_type_symbol
 _atom_site_label
 _atom_site_symmetry_multiplicity
 _atom_site_fract_x
 _atom_site_fract_y
 _atom_site_fract_z
 _atom_site_occupancy
  Y  Y0  1  0.500000  0.500000  0.500000  1
  Y  Y1  1  0.188129  0.188129  0.171345  1
  Y  Y2  1  0.811871  0.811871  0.828655  1
  Y  Y3  1  0.801661  0.801661  0.358127  1
  Y  Y4  1  0.198339  0.198339  0.641873  1
  Os  Os5  1  0.719581  0.280419  0.000000  1
  Os  Os6  1  0.280419  0.719581  0.000000  1
  O  O7  1  0.999143  0.999143  0.174101  1
  O  O8  1  0.000857  0.000857  0.825899  1
  O  O9  1  0.499057  0.499057  0.797697  1
  O  O10  1  0.500943  0.500943  0.202303  1
  O  O11  1  0.598586  0.095869  0.572714  1
  O  O12  1  0.904131  0.401414  0.427286  1
  O  O13  1  0.401414  0.904131  0.427286  1
  O  O14  1  0.412634  0.918875  0.914842  1
  O  O15  1  0.081125  0.587366  0.085158  1
  O  O16  1  0.587366  0.081125  0.085158  1
  O  O17  1  0.918875  0.412634  0.914842  1
  O  O18  1  0.095869  0.598586  0.572714  1
