# generated using pymatgen
data_Y16Cd4Ir3Pt
_symmetry_space_group_name_H-M   'P 1'
_cell_length_a   9.67678177
_cell_length_b   9.67678184
_cell_length_c   9.67678137
_cell_angle_alpha   60.09857940
_cell_angle_beta   60.09858125
_cell_angle_gamma   60.09857817
_symmetry_Int_Tables_number   1
_chemical_formula_structural   Y16Cd4Ir3Pt
_chemical_formula_sum   'Y16 Cd4 Ir3 Pt1'
_cell_volume   642.16526383
_cell_formula_units_Z   1
loop_
 _symmetry_equiv_pos_site_id
 _symmetry_equiv_pos_as_xyz
  1  'x, y, z'
loop_
 _atom_site_type_symbol
 _atom_site_label
 _atom_site_symmetry_multiplicity
 _atom_site_fract_x
 _atom_site_fract_y
 _atom_site_fract_z
 _atom_site_occupancy
  Y  Y0  1  0.348248  0.348248  0.348248  1
  Y  Y1  1  0.352531  0.352531  0.948937  1
  Y  Y2  1  0.352531  0.948937  0.352531  1
  Y  Y3  1  0.948937  0.352531  0.352531  1
  Y  Y4  1  0.805014  0.191224  0.191224  1
  Y  Y5  1  0.187962  0.809875  0.809875  1
  Y  Y6  1  0.191224  0.805014  0.191224  1
  Y  Y7  1  0.809875  0.187962  0.809875  1
  Y  Y8  1  0.191224  0.191224  0.805014  1
  Y  Y9  1  0.809875  0.809875  0.187962  1
  Y  Y10  1  0.938989  0.562319  0.562319  1
  Y  Y11  1  0.563516  0.937525  0.937525  1
  Y  Y12  1  0.562319  0.938989  0.562319  1
  Y  Y13  1  0.937525  0.563516  0.937525  1
  Y  Y14  1  0.562319  0.562319  0.938989  1
  Y  Y15  1  0.937525  0.937525  0.563516  1
  Cd  Cd16  1  0.580485  0.580485  0.580485  1
  Cd  Cd17  1  0.581067  0.581067  0.256302  1
  Cd  Cd18  1  0.581067  0.256302  0.581067  1
  Cd  Cd19  1  0.256302  0.581067  0.581067  1
  Ir  Ir20  1  0.142048  0.142048  0.574770  1
  Ir  Ir21  1  0.142048  0.574770  0.142048  1
  Ir  Ir22  1  0.574770  0.142048  0.142048  1
  Pt  Pt23  1  0.142598  0.142598  0.142598  1
