# generated using pymatgen
data_La5Sc2PaSb10
_symmetry_space_group_name_H-M   'P 1'
_cell_length_a   9.59475744
_cell_length_b   9.61230534
_cell_length_c   6.39699200
_cell_angle_alpha   90.00000000
_cell_angle_beta   90.00000000
_cell_angle_gamma   120.06051290
_symmetry_Int_Tables_number   1
_chemical_formula_structural   La5Sc2PaSb10
_chemical_formula_sum   'La5 Sc2 Pa1 Sb10'
_cell_volume   510.62591858
_cell_formula_units_Z   1
loop_
 _symmetry_equiv_pos_site_id
 _symmetry_equiv_pos_as_xyz
  1  'x, y, z'
loop_
 _atom_site_type_symbol
 _atom_site_label
 _atom_site_symmetry_multiplicity
 _atom_site_fract_x
 _atom_site_fract_y
 _atom_site_fract_z
 _atom_site_occupancy
  La  La0  1  0.380497  0.378845  0.250000  1
  La  La1  1  0.386927  0.004070  0.750000  1
  La  La2  1  0.613073  0.617141  0.750000  1
  La  La3  1  0.619503  0.998349  0.250000  1
  La  La4  1  0.000000  0.380437  0.750000  1
  Sc  Sc5  1  0.000000  0.001952  0.999068  1
  Sc  Sc6  1  0.000000  0.001952  0.500932  1
  Pa  Pa7  1  0.000000  0.618456  0.250000  1
  Sb  Sb8  1  0.000000  0.266303  0.250000  1
  Sb  Sb9  1  0.324774  0.666273  0.492301  1
  Sb  Sb10  1  0.675226  0.341498  0.007699  1
  Sb  Sb11  1  0.324774  0.666273  0.007699  1
  Sb  Sb12  1  0.261306  0.259733  0.750000  1
  Sb  Sb13  1  0.738694  0.998428  0.750000  1
  Sb  Sb14  1  0.000000  0.732670  0.750000  1
  Sb  Sb15  1  0.746645  0.736383  0.250000  1
  Sb  Sb16  1  0.253355  0.989739  0.250000  1
  Sb  Sb17  1  0.675226  0.341498  0.492301  1
