# generated using pymatgen
data_LiTm3FeP6Rh7
_symmetry_space_group_name_H-M   'P 1'
_cell_length_a   3.84249100
_cell_length_b   11.12395500
_cell_length_c   12.71350400
_cell_angle_alpha   90.00000000
_cell_angle_beta   90.00000000
_cell_angle_gamma   90.00000000
_symmetry_Int_Tables_number   1
_chemical_formula_structural   LiTm3FeP6Rh7
_chemical_formula_sum   'Li2 Tm6 Fe2 P12 Rh14'
_cell_volume   543.42216243
_cell_formula_units_Z   2
loop_
 _symmetry_equiv_pos_site_id
 _symmetry_equiv_pos_as_xyz
  1  'x, y, z'
loop_
 _atom_site_type_symbol
 _atom_site_label
 _atom_site_symmetry_multiplicity
 _atom_site_fract_x
 _atom_site_fract_y
 _atom_site_fract_z
 _atom_site_occupancy
  Li  Li0  1  0.500000  0.500000  0.156740  1
  Li  Li1  1  0.000000  0.000000  0.843260  1
  Tm  Tm2  1  0.000000  0.500000  0.517298  1
  Tm  Tm3  1  0.500000  0.000000  0.482702  1
  Tm  Tm4  1  0.500000  0.820573  0.201603  1
  Tm  Tm5  1  0.500000  0.179427  0.201603  1
  Tm  Tm6  1  0.000000  0.679427  0.798397  1
  Tm  Tm7  1  0.000000  0.320573  0.798397  1
  Fe  Fe8  1  0.000000  0.500000  0.986138  1
  Fe  Fe9  1  0.500000  0.000000  0.013862  1
  P  P10  1  0.500000  0.500000  0.886453  1
  P  P11  1  0.000000  0.000000  0.113547  1
  P  P12  1  0.500000  0.500000  0.346989  1
  P  P13  1  0.000000  0.000000  0.653011  1
  P  P14  1  0.500000  0.314408  0.620752  1
  P  P15  1  0.500000  0.685592  0.620752  1
  P  P16  1  0.000000  0.185592  0.379248  1
  P  P17  1  0.000000  0.814408  0.379248  1
  P  P18  1  0.500000  0.848619  0.895706  1
  P  P19  1  0.500000  0.151381  0.895706  1
  P  P20  1  0.000000  0.651381  0.104294  1
  P  P21  1  0.000000  0.348619  0.104294  1
  Rh  Rh22  1  0.500000  0.500000  0.703544  1
  Rh  Rh23  1  0.000000  0.000000  0.296456  1
  Rh  Rh24  1  0.500000  0.334867  0.996660  1
  Rh  Rh25  1  0.500000  0.665133  0.996660  1
  Rh  Rh26  1  0.000000  0.165133  0.003340  1
  Rh  Rh27  1  0.000000  0.834867  0.003340  1
  Rh  Rh28  1  0.500000  0.292032  0.430559  1
  Rh  Rh29  1  0.500000  0.707968  0.430559  1
  Rh  Rh30  1  0.000000  0.207968  0.569441  1
  Rh  Rh31  1  0.000000  0.792032  0.569441  1
  Rh  Rh32  1  0.500000  0.874429  0.712199  1
  Rh  Rh33  1  0.500000  0.125571  0.712199  1
  Rh  Rh34  1  0.000000  0.625571  0.287801  1
  Rh  Rh35  1  0.000000  0.374429  0.287801  1
