# generated using pymatgen
data_Ca3Er(Ga2Ag)4
_symmetry_space_group_name_H-M   'P 1'
_cell_length_a   4.34247800
_cell_length_b   7.04574210
_cell_length_c   10.52621617
_cell_angle_alpha   90.91703572
_cell_angle_beta   90.00000000
_cell_angle_gamma   90.00000000
_symmetry_Int_Tables_number   1
_chemical_formula_structural   Ca3Er(Ga2Ag)4
_chemical_formula_sum   'Ca3 Er1 Ga8 Ag4'
_cell_volume   322.01864999
_cell_formula_units_Z   1
loop_
 _symmetry_equiv_pos_site_id
 _symmetry_equiv_pos_as_xyz
  1  'x, y, z'
loop_
 _atom_site_type_symbol
 _atom_site_label
 _atom_site_symmetry_multiplicity
 _atom_site_fract_x
 _atom_site_fract_y
 _atom_site_fract_z
 _atom_site_occupancy
  Ca  Ca0  1  0.750000  0.225485  0.173450  1
  Ca  Ca1  1  0.750000  0.726915  0.324442  1
  Ca  Ca2  1  0.250000  0.273841  0.674862  1
  Er  Er3  1  0.250000  0.779203  0.829405  1
  Ga  Ga4  1  0.250000  0.704448  0.536132  1
  Ga  Ga5  1  0.750000  0.300177  0.467958  1
  Ga  Ga6  1  0.750000  0.795863  0.031890  1
  Ga  Ga7  1  0.250000  0.198874  0.965252  1
  Ga  Ga8  1  0.250000  0.923759  0.146827  1
  Ga  Ga9  1  0.750000  0.070643  0.848994  1
  Ga  Ga10  1  0.750000  0.574850  0.653806  1
  Ga  Ga11  1  0.250000  0.428309  0.349725  1
  Ag  Ag12  1  0.250000  0.540388  0.097864  1
  Ag  Ag13  1  0.750000  0.457614  0.899267  1
  Ag  Ag14  1  0.750000  0.956166  0.599749  1
  Ag  Ag15  1  0.250000  0.043464  0.400379  1
