# generated using pymatgen
data_YbCe(BIr)8
_symmetry_space_group_name_H-M   'P 1'
_cell_length_a   3.98141500
_cell_length_b   7.65101100
_cell_length_c   7.65101100
_cell_angle_alpha   90.00000000
_cell_angle_beta   90.00000000
_cell_angle_gamma   90.00000000
_symmetry_Int_Tables_number   1
_chemical_formula_structural   YbCe(BIr)8
_chemical_formula_sum   'Yb1 Ce1 B8 Ir8'
_cell_volume   233.06394913
_cell_formula_units_Z   1
loop_
 _symmetry_equiv_pos_site_id
 _symmetry_equiv_pos_as_xyz
  1  'x, y, z'
loop_
 _atom_site_type_symbol
 _atom_site_label
 _atom_site_symmetry_multiplicity
 _atom_site_fract_x
 _atom_site_fract_y
 _atom_site_fract_z
 _atom_site_occupancy
  Yb  Yb0  1  0.250000  0.250000  0.250000  1
  Ce  Ce1  1  0.750000  0.750000  0.750000  1
  B  B2  1  0.357369  0.907986  0.031466  1
  B  B3  1  0.357369  0.592014  0.468534  1
  B  B4  1  0.862668  0.524536  0.093314  1
  B  B5  1  0.862668  0.975464  0.406686  1
  B  B6  1  0.637332  0.093314  0.975464  1
  B  B7  1  0.637332  0.406686  0.524536  1
  B  B8  1  0.142631  0.468534  0.907986  1
  B  B9  1  0.142631  0.031466  0.592014  1
  Ir  Ir10  1  0.137189  0.410167  0.638439  1
  Ir  Ir11  1  0.137189  0.089833  0.861561  1
  Ir  Ir12  1  0.642180  0.140564  0.593431  1
  Ir  Ir13  1  0.642180  0.359436  0.906569  1
  Ir  Ir14  1  0.857820  0.593431  0.359436  1
  Ir  Ir15  1  0.857820  0.906569  0.140564  1
  Ir  Ir16  1  0.362811  0.861561  0.410167  1
  Ir  Ir17  1  0.362811  0.638439  0.089833  1
