# generated using pymatgen
data_Ho2Er6In3Ir
_symmetry_space_group_name_H-M   'P 1'
_cell_length_a   10.34789100
_cell_length_b   10.34842555
_cell_length_c   7.01181301
_cell_angle_alpha   89.99426595
_cell_angle_beta   90.00000000
_cell_angle_gamma   119.99828806
_symmetry_Int_Tables_number   1
_chemical_formula_structural   Ho2Er6In3Ir
_chemical_formula_sum   'Ho4 Er12 In6 Ir2'
_cell_volume   650.27127730
_cell_formula_units_Z   2
loop_
 _symmetry_equiv_pos_site_id
 _symmetry_equiv_pos_as_xyz
  1  'x, y, z'
loop_
 _atom_site_type_symbol
 _atom_site_label
 _atom_site_symmetry_multiplicity
 _atom_site_fract_x
 _atom_site_fract_y
 _atom_site_fract_z
 _atom_site_occupancy
  Ho  Ho0  1  0.533052  0.066104  0.792959  1
  Ho  Ho1  1  0.933956  0.466975  0.792964  1
  Ho  Ho2  1  0.533019  0.466975  0.792964  1
  Ho  Ho3  1  0.466910  0.933821  0.292920  1
  Er  Er4  1  0.066380  0.533174  0.292909  1
  Er  Er5  1  0.466794  0.533174  0.292909  1
  Er  Er6  1  0.823387  0.646774  0.499615  1
  Er  Er7  1  0.353193  0.176647  0.499610  1
  Er  Er8  1  0.823454  0.176647  0.499610  1
  Er  Er9  1  0.176651  0.353301  0.999845  1
  Er  Er10  1  0.646802  0.823349  0.999763  1
  Er  Er11  1  0.176547  0.823349  0.999763  1
  Er  Er12  1  0.666704  0.333407  0.174298  1
  Er  Er13  1  0.333293  0.666586  0.674193  1
  Er  Er14  1  0.999984  0.999968  0.778531  1
  Er  Er15  1  0.000010  0.000020  0.278574  1
  In  In16  1  0.837265  0.674532  0.039341  1
  In  In17  1  0.325471  0.162740  0.039327  1
  In  In18  1  0.837267  0.162740  0.039327  1
  In  In19  1  0.162808  0.325614  0.539169  1
  In  In20  1  0.674471  0.837168  0.539268  1
  In  In21  1  0.162700  0.837168  0.539268  1
  Ir  Ir22  1  0.666666  0.333331  0.569238  1
  Ir  Ir23  1  0.333217  0.666435  0.069538  1
