# generated using pymatgen
data_Er2ZnGa3Ag2
_symmetry_space_group_name_H-M   'P 1'
_cell_length_a   4.34098900
_cell_length_b   6.96131936
_cell_length_c   10.22270890
_cell_angle_alpha   89.92875507
_cell_angle_beta   90.00000000
_cell_angle_gamma   90.00000000
_symmetry_Int_Tables_number   1
_chemical_formula_structural   Er2ZnGa3Ag2
_chemical_formula_sum   'Er4 Zn2 Ga6 Ag4'
_cell_volume   308.91991151
_cell_formula_units_Z   2
loop_
 _symmetry_equiv_pos_site_id
 _symmetry_equiv_pos_as_xyz
  1  'x, y, z'
loop_
 _atom_site_type_symbol
 _atom_site_label
 _atom_site_symmetry_multiplicity
 _atom_site_fract_x
 _atom_site_fract_y
 _atom_site_fract_z
 _atom_site_occupancy
  Er  Er0  1  0.250000  0.784188  0.828913  1
  Er  Er1  1  0.750000  0.215812  0.171087  1
  Er  Er2  1  0.750000  0.719870  0.328281  1
  Er  Er3  1  0.250000  0.280130  0.671719  1
  Zn  Zn4  1  0.250000  0.923271  0.149802  1
  Zn  Zn5  1  0.750000  0.076729  0.850198  1
  Ga  Ga6  1  0.750000  0.575646  0.653546  1
  Ga  Ga7  1  0.250000  0.424354  0.346454  1
  Ga  Ga8  1  0.250000  0.704366  0.535969  1
  Ga  Ga9  1  0.750000  0.295634  0.464031  1
  Ga  Ga10  1  0.750000  0.799498  0.037763  1
  Ga  Ga11  1  0.250000  0.200502  0.962237  1
  Ag  Ag12  1  0.250000  0.541640  0.097425  1
  Ag  Ag13  1  0.750000  0.458360  0.902575  1
  Ag  Ag14  1  0.750000  0.958345  0.600601  1
  Ag  Ag15  1  0.250000  0.041655  0.399399  1
