# generated using pymatgen
data_Yb3Zr(Al8Pt3)3
_symmetry_space_group_name_H-M   'P 1'
_cell_length_a   7.45726874
_cell_length_b   7.49494397
_cell_length_c   13.29298463
_cell_angle_alpha   84.72493385
_cell_angle_beta   100.75793476
_cell_angle_gamma   119.55248397
_symmetry_Int_Tables_number   1
_chemical_formula_structural   Yb3Zr(Al8Pt3)3
_chemical_formula_sum   'Yb3 Zr1 Al24 Pt9'
_cell_volume   634.95266537
_cell_formula_units_Z   1
loop_
 _symmetry_equiv_pos_site_id
 _symmetry_equiv_pos_as_xyz
  1  'x, y, z'
loop_
 _atom_site_type_symbol
 _atom_site_label
 _atom_site_symmetry_multiplicity
 _atom_site_fract_x
 _atom_site_fract_y
 _atom_site_fract_z
 _atom_site_occupancy
  Yb  Yb0  1  0.563833  0.170261  0.191576  1
  Yb  Yb1  1  0.766885  0.501144  0.808001  1
  Yb  Yb2  1  0.232213  0.497769  0.191370  1
  Zr  Zr3  1  0.436737  0.829874  0.811307  1
  Al  Al4  1  0.480961  0.164521  0.942328  1
  Al  Al5  1  0.518508  0.833839  0.051601  1
  Al  Al6  1  0.022105  0.168912  0.561262  1
  Al  Al7  1  0.979423  0.831687  0.441855  1
  Al  Al8  1  0.356390  0.834138  0.560365  1
  Al  Al9  1  0.644605  0.164837  0.442992  1
  Al  Al10  1  0.619491  0.835103  0.329581  1
  Al  Al11  1  0.384313  0.162675  0.676174  1
  Al  Al12  1  0.060090  0.496145  0.675712  1
  Al  Al13  1  0.944317  0.507524  0.329321  1
  Al  Al14  1  0.729872  0.840168  0.674000  1
  Al  Al15  1  0.269195  0.159194  0.330603  1
  Al  Al16  1  0.147817  0.502389  0.942900  1
  Al  Al17  1  0.852033  0.502035  0.051486  1
  Al  Al18  1  0.811292  0.831205  0.948583  1
  Al  Al19  1  0.180410  0.165565  0.042895  1
  Al  Al20  1  0.313412  0.500490  0.442771  1
  Al  Al21  1  0.686266  0.499327  0.558935  1
  Al  Al22  1  0.102627  0.835193  0.182242  1
  Al  Al23  1  0.888893  0.155569  0.816791  1
  Al  Al24  1  0.306166  0.376841  0.815431  1
  Al  Al25  1  0.692815  0.631856  0.182660  1
  Al  Al26  1  0.112023  0.960500  0.815834  1
  Al  Al27  1  0.896746  0.040290  0.182469  1
  Pt  Pt28  1  0.388742  0.507494  0.638534  1
  Pt  Pt29  1  0.612954  0.492678  0.362718  1
  Pt  Pt30  1  0.170888  0.829212  0.997885  1
  Pt  Pt31  1  0.827908  0.171930  0.998786  1
  Pt  Pt32  1  0.295286  0.832597  0.362816  1
  Pt  Pt33  1  0.705624  0.168427  0.638675  1
  Pt  Pt34  1  0.046461  0.825307  0.637255  1
  Pt  Pt35  1  0.953864  0.174156  0.364082  1
  Pt  Pt36  1  0.498833  0.499148  0.998202  1
