# generated using pymatgen
data_Nd11Zn(In3Rh)3
_symmetry_space_group_name_H-M   'P 1'
_cell_length_a   13.49660864
_cell_length_b   13.48621330
_cell_length_c   3.82002900
_cell_angle_alpha   90.00000000
_cell_angle_beta   90.00000000
_cell_angle_gamma   111.32814114
_symmetry_Int_Tables_number   1
_chemical_formula_structural   Nd11Zn(In3Rh)3
_chemical_formula_sum   'Nd11 Zn1 In9 Rh3'
_cell_volume   647.69436787
_cell_formula_units_Z   1
loop_
 _symmetry_equiv_pos_site_id
 _symmetry_equiv_pos_as_xyz
  1  'x, y, z'
loop_
 _atom_site_type_symbol
 _atom_site_label
 _atom_site_symmetry_multiplicity
 _atom_site_fract_x
 _atom_site_fract_y
 _atom_site_fract_z
 _atom_site_occupancy
  Nd  Nd0  1  0.065575  0.414688  0.000000  1
  Nd  Nd1  1  0.920682  0.579309  0.000000  1
  Nd  Nd2  1  0.419049  0.076280  0.000000  1
  Nd  Nd3  1  0.582700  0.923159  0.000000  1
  Nd  Nd4  1  0.626604  0.375501  0.000000  1
  Nd  Nd5  1  0.383007  0.639662  0.000000  1
  Nd  Nd6  1  0.841492  0.158924  0.000000  1
  Nd  Nd7  1  0.159035  0.841183  0.000000  1
  Nd  Nd8  1  0.000383  0.001530  0.000000  1
  Nd  Nd9  1  0.316991  0.302711  0.000000  1
  Nd  Nd10  1  0.689390  0.686889  0.000000  1
  Zn  Zn11  1  0.250711  0.452905  0.500000  1
  In  In12  1  0.834895  0.364234  0.500000  1
  In  In13  1  0.158258  0.631125  0.500000  1
  In  In14  1  0.364973  0.839041  0.500000  1
  In  In15  1  0.634013  0.162598  0.500000  1
  In  In16  1  0.075964  0.220114  0.500000  1
  In  In17  1  0.922149  0.780879  0.500000  1
  In  In18  1  0.219742  0.077461  0.500000  1
  In  In19  1  0.780247  0.921074  0.500000  1
  In  In20  1  0.500268  0.501491  0.500000  1
  Rh  Rh21  1  0.755170  0.551017  0.500000  1
  Rh  Rh22  1  0.449757  0.243962  0.500000  1
  Rh  Rh23  1  0.548943  0.754264  0.500000  1
