# generated using pymatgen
data_LiTh2(As3Pd10)2
_symmetry_space_group_name_H-M   'P 1'
_cell_length_a   8.90408765
_cell_length_b   8.90408772
_cell_length_c   8.90408800
_cell_angle_alpha   59.99999897
_cell_angle_beta   59.99999870
_cell_angle_gamma   59.99999726
_symmetry_Int_Tables_number   1
_chemical_formula_structural   LiTh2(As3Pd10)2
_chemical_formula_sum   'Li1 Th2 As6 Pd20'
_cell_volume   499.17552746
_cell_formula_units_Z   1
loop_
 _symmetry_equiv_pos_site_id
 _symmetry_equiv_pos_as_xyz
  1  'x, y, z'
loop_
 _atom_site_type_symbol
 _atom_site_label
 _atom_site_symmetry_multiplicity
 _atom_site_fract_x
 _atom_site_fract_y
 _atom_site_fract_z
 _atom_site_occupancy
  Li  Li0  1  0.000000  0.000000  0.000000  1
  Th  Th1  1  0.250000  0.250000  0.250000  1
  Th  Th2  1  0.750000  0.750000  0.750000  1
  As  As3  1  0.738560  0.261440  0.261440  1
  As  As4  1  0.261440  0.738560  0.738560  1
  As  As5  1  0.261440  0.738560  0.261440  1
  As  As6  1  0.738560  0.261440  0.738560  1
  As  As7  1  0.261440  0.261440  0.738560  1
  As  As8  1  0.738560  0.738560  0.261440  1
  Pd  Pd9  1  0.382269  0.382269  0.382269  1
  Pd  Pd10  1  0.617731  0.617731  0.617731  1
  Pd  Pd11  1  0.382269  0.382269  0.853194  1
  Pd  Pd12  1  0.382269  0.853194  0.382269  1
  Pd  Pd13  1  0.617731  0.617731  0.146806  1
  Pd  Pd14  1  0.617731  0.146806  0.617731  1
  Pd  Pd15  1  0.853194  0.382269  0.382269  1
  Pd  Pd16  1  0.146806  0.617731  0.617731  1
  Pd  Pd17  1  0.349133  0.000000  0.000000  1
  Pd  Pd18  1  0.650867  0.000000  0.000000  1
  Pd  Pd19  1  0.000000  0.349133  0.650867  1
  Pd  Pd20  1  0.000000  0.650867  0.349133  1
  Pd  Pd21  1  0.000000  0.349133  0.000000  1
  Pd  Pd22  1  0.650867  0.000000  0.349133  1
  Pd  Pd23  1  0.000000  0.650867  0.000000  1
  Pd  Pd24  1  0.349133  0.000000  0.650867  1
  Pd  Pd25  1  0.000000  0.000000  0.349133  1
  Pd  Pd26  1  0.000000  0.000000  0.650867  1
  Pd  Pd27  1  0.650867  0.349133  0.000000  1
  Pd  Pd28  1  0.349133  0.650867  0.000000  1
