# generated using pymatgen
data_La5Nd5(Zn2Ru3)2
_symmetry_space_group_name_H-M   'P 1'
_cell_length_a   8.54013860
_cell_length_b   8.54013947
_cell_length_c   8.62234500
_cell_angle_alpha   109.32419902
_cell_angle_beta   109.46185723
_cell_angle_gamma   109.23936587
_symmetry_Int_Tables_number   1
_chemical_formula_structural   La5Nd5(Zn2Ru3)2
_chemical_formula_sum   'La5 Nd5 Zn4 Ru6'
_cell_volume   486.40238693
_cell_formula_units_Z   1
loop_
 _symmetry_equiv_pos_site_id
 _symmetry_equiv_pos_as_xyz
  1  'x, y, z'
loop_
 _atom_site_type_symbol
 _atom_site_label
 _atom_site_symmetry_multiplicity
 _atom_site_fract_x
 _atom_site_fract_y
 _atom_site_fract_z
 _atom_site_occupancy
  La  La0  1  0.251160  0.691048  0.439856  1
  La  La1  1  0.751193  0.811305  0.060144  1
  La  La2  1  0.441327  0.249898  0.688588  1
  La  La3  1  0.689389  0.439389  0.250000  1
  La  La4  1  0.061312  0.752739  0.811412  1
  Nd  Nd5  1  0.815923  0.065923  0.750000  1
  Nd  Nd6  1  0.219153  0.221596  0.220895  1
  Nd  Nd7  1  0.500701  0.998257  0.279105  1
  Nd  Nd8  1  0.278667  0.498826  0.997501  1
  Nd  Nd9  1  0.001324  0.281165  0.502499  1
  Zn  Zn10  1  0.585987  0.586050  0.584308  1
  Zn  Zn11  1  0.501743  0.001680  0.915692  1
  Zn  Zn12  1  0.917431  0.498616  0.000873  1
  Zn  Zn13  1  0.997744  0.916558  0.499127  1
  Ru  Ru14  1  0.242801  0.119630  0.870066  1
  Ru  Ru15  1  0.749563  0.372734  0.629934  1
  Ru  Ru16  1  0.871934  0.254885  0.133392  1
  Ru  Ru17  1  0.123427  0.873426  0.250000  1
  Ru  Ru18  1  0.621491  0.738542  0.366608  1
  Ru  Ru19  1  0.377732  0.627732  0.750000  1
