# generated using pymatgen
data_Zr6Zn16Cu6SiNi
_symmetry_space_group_name_H-M   'P 1'
_cell_length_a   8.67265341
_cell_length_b   8.65150077
_cell_length_c   8.65150070
_cell_angle_alpha   59.85501449
_cell_angle_beta   59.91908742
_cell_angle_gamma   59.91908861
_symmetry_Int_Tables_number   1
_chemical_formula_structural   Zr6Zn16Cu6SiNi
_chemical_formula_sum   'Zr6 Zn16 Cu6 Si1 Ni1'
_cell_volume   457.94224273
_cell_formula_units_Z   1
loop_
 _symmetry_equiv_pos_site_id
 _symmetry_equiv_pos_as_xyz
  1  'x, y, z'
loop_
 _atom_site_type_symbol
 _atom_site_label
 _atom_site_symmetry_multiplicity
 _atom_site_fract_x
 _atom_site_fract_y
 _atom_site_fract_z
 _atom_site_occupancy
  Zr  Zr0  1  0.712883  0.287117  0.287117  1
  Zr  Zr1  1  0.287117  0.712883  0.712883  1
  Zr  Zr2  1  0.285932  0.710530  0.289470  1
  Zr  Zr3  1  0.714068  0.289470  0.710530  1
  Zr  Zr4  1  0.285932  0.289470  0.710530  1
  Zr  Zr5  1  0.714068  0.710530  0.289470  1
  Zn  Zn6  1  0.121816  0.122010  0.122010  1
  Zn  Zn7  1  0.878184  0.877990  0.877990  1
  Zn  Zn8  1  0.121044  0.125082  0.632831  1
  Zn  Zn9  1  0.121044  0.632831  0.125082  1
  Zn  Zn10  1  0.878956  0.874918  0.367169  1
  Zn  Zn11  1  0.878956  0.367169  0.874918  1
  Zn  Zn12  1  0.634163  0.122010  0.122010  1
  Zn  Zn13  1  0.365837  0.877990  0.877990  1
  Zn  Zn14  1  0.332759  0.337107  0.337107  1
  Zn  Zn15  1  0.667241  0.662893  0.662893  1
  Zn  Zn16  1  0.335985  0.335788  0.992242  1
  Zn  Zn17  1  0.335985  0.992242  0.335788  1
  Zn  Zn18  1  0.664015  0.664212  0.007758  1
  Zn  Zn19  1  0.664015  0.007758  0.664212  1
  Zn  Zn20  1  0.993027  0.337107  0.337107  1
  Zn  Zn21  1  0.006973  0.662893  0.662893  1
  Cu  Cu22  1  0.500000  0.000000  0.000000  1
  Cu  Cu23  1  0.000000  0.500000  0.000000  1
  Cu  Cu24  1  0.500000  0.000000  0.500000  1
  Cu  Cu25  1  0.000000  0.000000  0.500000  1
  Cu  Cu26  1  0.500000  0.500000  0.000000  1
  Cu  Cu27  1  0.000000  0.000000  0.000000  1
  Si  Si28  1  0.500000  0.500000  0.500000  1
  Ni  Ni29  1  0.000000  0.500000  0.500000  1
