# generated using pymatgen
data_RbFeSn3O8
_symmetry_space_group_name_H-M   'P 1'
_cell_length_a   7.63267887
_cell_length_b   7.63267910
_cell_length_c   10.61529726
_cell_angle_alpha   46.69346069
_cell_angle_beta   46.69345779
_cell_angle_gamma   24.33115573
_symmetry_Int_Tables_number   1
_chemical_formula_structural   RbFeSn3O8
_chemical_formula_sum   'Rb1 Fe1 Sn3 O8'
_cell_volume   181.54598619
_cell_formula_units_Z   1
loop_
 _symmetry_equiv_pos_site_id
 _symmetry_equiv_pos_as_xyz
  1  'x, y, z'
loop_
 _atom_site_type_symbol
 _atom_site_label
 _atom_site_symmetry_multiplicity
 _atom_site_fract_x
 _atom_site_fract_y
 _atom_site_fract_z
 _atom_site_occupancy
  Rb  Rb0  1  0.498501  0.498501  0.997897  1
  Fe  Fe1  1  0.349829  0.349829  0.814719  1
  Sn  Sn2  1  0.657020  0.657020  0.170574  1
  Sn  Sn3  1  0.159640  0.159640  0.491771  1
  Sn  Sn4  1  0.836439  0.836439  0.520661  1
  O  O5  1  0.153204  0.153204  0.046603  1
  O  O6  1  0.847800  0.847800  0.946065  1
  O  O7  1  0.202335  0.202335  0.646145  1
  O  O8  1  0.794805  0.794805  0.363001  1
  O  O9  1  0.538770  0.538770  0.626966  1
  O  O10  1  0.460194  0.460194  0.373413  1
  O  O11  1  0.165519  0.165519  0.291646  1
  O  O12  1  0.835944  0.835944  0.710540  1
