# generated using pymatgen
data_Tb2YBi2Rh3Pb
_symmetry_space_group_name_H-M   'P 1'
_cell_length_a   7.64994200
_cell_length_b   7.69176460
_cell_length_c   3.98286000
_cell_angle_alpha   90.00000000
_cell_angle_beta   90.00000000
_cell_angle_gamma   119.82029726
_symmetry_Int_Tables_number   1
_chemical_formula_structural   Tb2YBi2Rh3Pb
_chemical_formula_sum   'Tb2 Y1 Bi2 Rh3 Pb1'
_cell_volume   203.32621538
_cell_formula_units_Z   1
loop_
 _symmetry_equiv_pos_site_id
 _symmetry_equiv_pos_as_xyz
  1  'x, y, z'
loop_
 _atom_site_type_symbol
 _atom_site_label
 _atom_site_symmetry_multiplicity
 _atom_site_fract_x
 _atom_site_fract_y
 _atom_site_fract_z
 _atom_site_occupancy
  Tb  Tb0  1  0.003081  0.600649  0.000000  1
  Tb  Tb1  1  0.402432  0.399351  0.000000  1
  Y  Y2  1  0.594084  0.000000  0.000000  1
  Bi  Bi3  1  0.001063  0.263964  0.500000  1
  Bi  Bi4  1  0.737101  0.736036  0.500000  1
  Rh  Rh5  1  0.331954  0.663899  0.500000  1
  Rh  Rh6  1  0.668056  0.336101  0.500000  1
  Rh  Rh7  1  0.996241  0.000000  0.000000  1
  Pb  Pb8  1  0.265989  0.000000  0.500000  1
