# generated using pymatgen
data_Sm(SiTc2)2
_symmetry_space_group_name_H-M   'P 1'
_cell_length_a   7.40377600
_cell_length_b   7.40377600
_cell_length_c   4.14680100
_cell_angle_alpha   90.00000000
_cell_angle_beta   90.00000000
_cell_angle_gamma   90.00000000
_symmetry_Int_Tables_number   1
_chemical_formula_structural   Sm(SiTc2)2
_chemical_formula_sum   'Sm2 Si4 Tc8'
_cell_volume   227.31062503
_cell_formula_units_Z   2
loop_
 _symmetry_equiv_pos_site_id
 _symmetry_equiv_pos_as_xyz
  1  'x, y, z'
loop_
 _atom_site_type_symbol
 _atom_site_label
 _atom_site_symmetry_multiplicity
 _atom_site_fract_x
 _atom_site_fract_y
 _atom_site_fract_z
 _atom_site_occupancy
  Sm  Sm0  1  0.500000  0.500000  0.000000  1
  Sm  Sm1  1  0.000000  0.000000  0.500000  1
  Si  Si2  1  0.709266  0.709266  0.500000  1
  Si  Si3  1  0.290734  0.290734  0.500000  1
  Si  Si4  1  0.209266  0.790734  0.000000  1
  Si  Si5  1  0.790734  0.209266  0.000000  1
  Tc  Tc6  1  0.591962  0.155842  0.500000  1
  Tc  Tc7  1  0.408038  0.844158  0.500000  1
  Tc  Tc8  1  0.091962  0.344158  0.000000  1
  Tc  Tc9  1  0.908038  0.655842  0.000000  1
  Tc  Tc10  1  0.155842  0.591962  0.500000  1
  Tc  Tc11  1  0.844158  0.408038  0.500000  1
  Tc  Tc12  1  0.344158  0.091962  0.000000  1
  Tc  Tc13  1  0.655842  0.908038  0.000000  1
