# generated using pymatgen
data_YbCeSb4
_symmetry_space_group_name_H-M   'P 1'
_cell_length_a   4.46960900
_cell_length_b   4.47661382
_cell_length_c   8.87534700
_cell_angle_alpha   75.39263892
_cell_angle_beta   90.00000000
_cell_angle_gamma   90.00000000
_symmetry_Int_Tables_number   1
_chemical_formula_structural   YbCeSb4
_chemical_formula_sum   'Yb1 Ce1 Sb4'
_cell_volume   171.84417860
_cell_formula_units_Z   1
loop_
 _symmetry_equiv_pos_site_id
 _symmetry_equiv_pos_as_xyz
  1  'x, y, z'
loop_
 _atom_site_type_symbol
 _atom_site_label
 _atom_site_symmetry_multiplicity
 _atom_site_fract_x
 _atom_site_fract_y
 _atom_site_fract_z
 _atom_site_occupancy
  Yb  Yb0  1  0.750001  0.106852  0.786293  1
  Ce  Ce1  1  0.250000  0.898493  0.203017  1
  Sb  Sb2  1  0.750001  0.433888  0.132222  1
  Sb  Sb3  1  0.250000  0.253456  0.493087  1
  Sb  Sb4  1  0.750001  0.752391  0.495219  1
  Sb  Sb5  1  0.250000  0.554920  0.890161  1
