# generated using pymatgen
data_Sm2Co9TcAs6
_symmetry_space_group_name_H-M   'P 1'
_cell_length_a   3.84750300
_cell_length_b   10.78972900
_cell_length_c   12.25514600
_cell_angle_alpha   90.00000000
_cell_angle_beta   90.00000000
_cell_angle_gamma   90.00000000
_symmetry_Int_Tables_number   1
_chemical_formula_structural   Sm2Co9TcAs6
_chemical_formula_sum   'Sm4 Co18 Tc2 As12'
_cell_volume   508.75418358
_cell_formula_units_Z   2
loop_
 _symmetry_equiv_pos_site_id
 _symmetry_equiv_pos_as_xyz
  1  'x, y, z'
loop_
 _atom_site_type_symbol
 _atom_site_label
 _atom_site_symmetry_multiplicity
 _atom_site_fract_x
 _atom_site_fract_y
 _atom_site_fract_z
 _atom_site_occupancy
  Sm  Sm0  1  0.250000  0.581605  0.701157  1
  Sm  Sm1  1  0.250000  0.918395  0.201157  1
  Sm  Sm2  1  0.750000  0.416314  0.296717  1
  Sm  Sm3  1  0.750000  0.083686  0.796717  1
  Co  Co4  1  0.750000  0.290695  0.009603  1
  Co  Co5  1  0.750000  0.209305  0.509603  1
  Co  Co6  1  0.250000  0.405363  0.489386  1
  Co  Co7  1  0.250000  0.094637  0.989386  1
  Co  Co8  1  0.750000  0.594806  0.510132  1
  Co  Co9  1  0.750000  0.905194  0.010132  1
  Co  Co10  1  0.250000  0.216340  0.176288  1
  Co  Co11  1  0.250000  0.283660  0.676288  1
  Co  Co12  1  0.750000  0.782185  0.824492  1
  Co  Co13  1  0.750000  0.717815  0.324492  1
  Co  Co14  1  0.250000  0.886193  0.699389  1
  Co  Co15  1  0.250000  0.613807  0.199389  1
  Co  Co16  1  0.750000  0.116593  0.302622  1
  Co  Co17  1  0.750000  0.383407  0.802622  1
  Co  Co18  1  0.250000  0.467569  0.932629  1
  Co  Co19  1  0.250000  0.032431  0.432629  1
  Co  Co20  1  0.750000  0.531412  0.067876  1
  Co  Co21  1  0.750000  0.968588  0.567876  1
  Tc  Tc22  1  0.250000  0.706156  0.989972  1
  Tc  Tc23  1  0.250000  0.793844  0.489972  1
  As  As24  1  0.250000  0.415139  0.112747  1
  As  As25  1  0.250000  0.084861  0.612747  1
  As  As26  1  0.750000  0.581036  0.885550  1
  As  As27  1  0.750000  0.918964  0.385550  1
  As  As28  1  0.250000  0.270759  0.868912  1
  As  As29  1  0.250000  0.229241  0.368912  1
  As  As30  1  0.750000  0.728755  0.133213  1
  As  As31  1  0.750000  0.771245  0.633213  1
  As  As32  1  0.250000  0.597187  0.391757  1
  As  As33  1  0.250000  0.902813  0.891757  1
  As  As34  1  0.750000  0.396857  0.607557  1
  As  As35  1  0.750000  0.103143  0.107557  1
