# generated using pymatgen
data_TbDyBiTe
_symmetry_space_group_name_H-M   'P 1'
_cell_length_a   4.43072200
_cell_length_b   4.43072200
_cell_length_c   6.25280900
_cell_angle_alpha   90.00000000
_cell_angle_beta   90.00000000
_cell_angle_gamma   90.00000000
_symmetry_Int_Tables_number   1
_chemical_formula_structural   TbDyBiTe
_chemical_formula_sum   'Tb1 Dy1 Bi1 Te1'
_cell_volume   122.75075332
_cell_formula_units_Z   1
loop_
 _symmetry_equiv_pos_site_id
 _symmetry_equiv_pos_as_xyz
  1  'x, y, z'
loop_
 _atom_site_type_symbol
 _atom_site_label
 _atom_site_symmetry_multiplicity
 _atom_site_fract_x
 _atom_site_fract_y
 _atom_site_fract_z
 _atom_site_occupancy
  Tb  Tb0  1  0.500000  0.500000  0.500000  1
  Dy  Dy1  1  0.000000  0.000000  0.000000  1
  Bi  Bi2  1  0.500000  0.500000  0.000000  1
  Te  Te3  1  0.000000  0.000000  0.500000  1
