# generated using pymatgen
data_Nd7Tm(SiI6)2
_symmetry_space_group_name_H-M   'P 1'
_cell_length_a   4.32164600
_cell_length_b   14.42763466
_cell_length_c   15.19334304
_cell_angle_alpha   90.38771420
_cell_angle_beta   90.00000000
_cell_angle_gamma   90.00000000
_symmetry_Int_Tables_number   1
_chemical_formula_structural   Nd7Tm(SiI6)2
_chemical_formula_sum   'Nd7 Tm1 Si2 I12'
_cell_volume   947.30041194
_cell_formula_units_Z   1
loop_
 _symmetry_equiv_pos_site_id
 _symmetry_equiv_pos_as_xyz
  1  'x, y, z'
loop_
 _atom_site_type_symbol
 _atom_site_label
 _atom_site_symmetry_multiplicity
 _atom_site_fract_x
 _atom_site_fract_y
 _atom_site_fract_z
 _atom_site_occupancy
  Nd  Nd0  1  0.500000  0.115302  0.346389  1
  Nd  Nd1  1  0.500000  0.885497  0.654244  1
  Nd  Nd2  1  0.500000  0.613533  0.152067  1
  Nd  Nd3  1  0.000000  0.115513  0.577849  1
  Nd  Nd4  1  0.000000  0.886418  0.423951  1
  Nd  Nd5  1  0.000000  0.612641  0.923732  1
  Nd  Nd6  1  0.000000  0.386239  0.074753  1
  Tm  Tm7  1  0.500000  0.387160  0.848555  1
  Si  Si8  1  0.500000  0.001123  0.500776  1
  Si  Si9  1  0.500000  0.497599  0.996696  1
  I  I10  1  0.500000  0.243041  0.160138  1
  I  I11  1  0.500000  0.755602  0.837940  1
  I  I12  1  0.500000  0.743067  0.338328  1
  I  I13  1  0.500000  0.259252  0.667536  1
  I  I14  1  0.000000  0.260202  0.415195  1
  I  I15  1  0.000000  0.740396  0.585772  1
  I  I16  1  0.000000  0.758786  0.086048  1
  I  I17  1  0.000000  0.248800  0.905509  1
  I  I18  1  0.000000  0.997901  0.239592  1
  I  I19  1  0.000000  0.002517  0.761404  1
  I  I20  1  0.000000  0.498359  0.259654  1
  I  I21  1  0.000000  0.491048  0.743875  1
