# generated using pymatgen
data_Y3Nb2Sn(B2Ru5)2
_symmetry_space_group_name_H-M   'P 1'
_cell_length_a   9.63425492
_cell_length_b   9.69285946
_cell_length_c   3.11607100
_cell_angle_alpha   90.00000000
_cell_angle_beta   90.00000000
_cell_angle_gamma   90.73591539
_symmetry_Int_Tables_number   1
_chemical_formula_structural   Y3Nb2Sn(B2Ru5)2
_chemical_formula_sum   'Y3 Nb2 Sn1 B4 Ru10'
_cell_volume   290.96554836
_cell_formula_units_Z   1
loop_
 _symmetry_equiv_pos_site_id
 _symmetry_equiv_pos_as_xyz
  1  'x, y, z'
loop_
 _atom_site_type_symbol
 _atom_site_label
 _atom_site_symmetry_multiplicity
 _atom_site_fract_x
 _atom_site_fract_y
 _atom_site_fract_z
 _atom_site_occupancy
  Y  Y0  1  0.821058  0.672811  0.000000  1
  Y  Y1  1  0.176876  0.326901  0.000000  1
  Y  Y2  1  0.323586  0.827283  0.000000  1
  Nb  Nb3  1  0.681233  0.168321  0.000000  1
  Nb  Nb4  1  0.004682  0.998295  0.000000  1
  Sn  Sn5  1  0.498113  0.506223  0.000000  1
  B  B6  1  0.624008  0.884220  0.000000  1
  B  B7  1  0.382103  0.125247  0.000000  1
  B  B8  1  0.115086  0.620340  0.000000  1
  B  B9  1  0.877126  0.373990  0.000000  1
  Ru  Ru10  1  0.570488  0.729521  0.500000  1
  Ru  Ru11  1  0.445696  0.276457  0.500000  1
  Ru  Ru12  1  0.065057  0.780090  0.500000  1
  Ru  Ru13  1  0.918968  0.211918  0.500000  1
  Ru  Ru14  1  0.273245  0.574902  0.500000  1
  Ru  Ru15  1  0.714429  0.404304  0.500000  1
  Ru  Ru16  1  0.223436  0.072291  0.500000  1
  Ru  Ru17  1  0.781201  0.941016  0.500000  1
  Ru  Ru18  1  0.510342  0.010122  0.500000  1
  Ru  Ru19  1  0.993267  0.495748  0.500000  1
