# generated using pymatgen
data_PrEu2Mg3Si2Ag
_symmetry_space_group_name_H-M   'P 1'
_cell_length_a   7.54782140
_cell_length_b   7.49291684
_cell_length_c   4.55134100
_cell_angle_alpha   90.00000000
_cell_angle_beta   90.00000000
_cell_angle_gamma   119.75966463
_symmetry_Int_Tables_number   1
_chemical_formula_structural   PrEu2Mg3Si2Ag
_chemical_formula_sum   'Pr1 Eu2 Mg3 Si2 Ag1'
_cell_volume   223.45455616
_cell_formula_units_Z   1
loop_
 _symmetry_equiv_pos_site_id
 _symmetry_equiv_pos_as_xyz
  1  'x, y, z'
loop_
 _atom_site_type_symbol
 _atom_site_label
 _atom_site_symmetry_multiplicity
 _atom_site_fract_x
 _atom_site_fract_y
 _atom_site_fract_z
 _atom_site_occupancy
  Pr  Pr0  1  0.000000  0.576655  0.500000  1
  Eu  Eu1  1  0.424036  0.424750  0.500000  1
  Eu  Eu2  1  0.575964  0.000714  0.500000  1
  Mg  Mg3  1  0.753787  0.754737  0.000000  1
  Mg  Mg4  1  0.246213  0.000951  0.000000  1
  Mg  Mg5  1  0.000000  0.244423  0.000000  1
  Si  Si6  1  0.672926  0.336480  0.000000  1
  Si  Si7  1  0.327074  0.663555  0.000000  1
  Ag  Ag8  1  0.000000  0.997736  0.500000  1
