# generated using pymatgen
data_Tb13Dy7Si15Se
_symmetry_space_group_name_H-M   'P 1'
_cell_length_a   7.54984939
_cell_length_b   7.68480140
_cell_length_c   14.69008198
_cell_angle_alpha   90.30784892
_cell_angle_beta   94.20320700
_cell_angle_gamma   89.85394822
_symmetry_Int_Tables_number   1
_chemical_formula_structural   Tb13Dy7Si15Se
_chemical_formula_sum   'Tb13 Dy7 Si15 Se1'
_cell_volume   849.99859993
_cell_formula_units_Z   1
loop_
 _symmetry_equiv_pos_site_id
 _symmetry_equiv_pos_as_xyz
  1  'x, y, z'
loop_
 _atom_site_type_symbol
 _atom_site_label
 _atom_site_symmetry_multiplicity
 _atom_site_fract_x
 _atom_site_fract_y
 _atom_site_fract_z
 _atom_site_occupancy
  Tb  Tb0  1  0.139115  0.333035  0.619103  1
  Tb  Tb1  1  0.486730  0.669472  0.604289  1
  Tb  Tb2  1  0.026913  0.813982  0.897646  1
  Tb  Tb3  1  0.473230  0.316021  0.102260  1
  Tb  Tb4  1  0.013340  0.185524  0.397138  1
  Tb  Tb5  1  0.504361  0.327051  0.398327  1
  Tb  Tb6  1  0.973184  0.186687  0.102035  1
  Tb  Tb7  1  0.527455  0.685913  0.897885  1
  Tb  Tb8  1  0.998801  0.813044  0.603300  1
  Tb  Tb9  1  0.828670  0.504466  0.745955  1
  Tb  Tb10  1  0.330468  0.992822  0.745457  1
  Tb  Tb11  1  0.172064  0.495328  0.252953  1
  Tb  Tb12  1  0.669514  0.007847  0.248677  1
  Dy  Dy13  1  0.639372  0.164326  0.618905  1
  Dy  Dy14  1  0.174559  0.321405  0.878287  1
  Dy  Dy15  1  0.324475  0.823893  0.122563  1
  Dy  Dy16  1  0.861386  0.661713  0.380334  1
  Dy  Dy17  1  0.357490  0.834814  0.381900  1
  Dy  Dy18  1  0.825136  0.679085  0.122536  1
  Dy  Dy19  1  0.674893  0.176782  0.878107  1
  Si  Si20  1  0.143009  0.530273  0.041711  1
  Si  Si21  1  0.355341  0.029229  0.958752  1
  Si  Si22  1  0.787250  0.465965  0.541387  1
  Si  Si23  1  0.288744  0.029974  0.543295  1
  Si  Si24  1  0.855209  0.471343  0.958334  1
  Si  Si25  1  0.643182  0.972631  0.042221  1
  Si  Si26  1  0.205760  0.535438  0.456885  1
  Si  Si27  1  0.454105  0.388039  0.752626  1
  Si  Si28  1  0.953469  0.107637  0.751057  1
  Si  Si29  1  0.546564  0.612480  0.249702  1
  Si  Si30  1  0.045219  0.891779  0.250710  1
  Si  Si31  1  0.714654  0.871926  0.751273  1
  Si  Si32  1  0.214360  0.625773  0.752672  1
  Si  Si33  1  0.287346  0.128838  0.249379  1
  Si  Si34  1  0.787010  0.373103  0.248730  1
  Se  Se35  1  0.717621  0.972365  0.453611  1
