# generated using pymatgen
data_Ca5HgPd2
_symmetry_space_group_name_H-M   'P 1'
_cell_length_a   9.16312575
_cell_length_b   9.16312646
_cell_length_c   9.16312611
_cell_angle_alpha   129.05064995
_cell_angle_beta   129.05064688
_cell_angle_gamma   74.92909396
_symmetry_Int_Tables_number   1
_chemical_formula_structural   Ca5HgPd2
_chemical_formula_sum   'Ca10 Hg2 Pd4'
_cell_volume   451.88410926
_cell_formula_units_Z   2
loop_
 _symmetry_equiv_pos_site_id
 _symmetry_equiv_pos_as_xyz
  1  'x, y, z'
loop_
 _atom_site_type_symbol
 _atom_site_label
 _atom_site_symmetry_multiplicity
 _atom_site_fract_x
 _atom_site_fract_y
 _atom_site_fract_z
 _atom_site_occupancy
  Ca  Ca0  1  0.470065  0.970065  0.167117  1
  Ca  Ca1  1  0.197053  0.697053  0.167117  1
  Ca  Ca2  1  0.529935  0.029935  0.832883  1
  Ca  Ca3  1  0.029935  0.197053  0.500000  1
  Ca  Ca4  1  0.697053  0.529935  0.500000  1
  Ca  Ca5  1  0.970065  0.802947  0.500000  1
  Ca  Ca6  1  0.000000  0.000000  0.000000  1
  Ca  Ca7  1  0.500000  0.500000  0.000000  1
  Ca  Ca8  1  0.802947  0.302947  0.832883  1
  Ca  Ca9  1  0.302947  0.470065  0.500000  1
  Hg  Hg10  1  0.750000  0.750000  0.000000  1
  Hg  Hg11  1  0.250000  0.250000  0.000000  1
  Pd  Pd12  1  0.129058  0.629058  0.758113  1
  Pd  Pd13  1  0.629058  0.870942  0.500000  1
  Pd  Pd14  1  0.370942  0.129058  0.500000  1
  Pd  Pd15  1  0.870942  0.370942  0.241887  1
