# generated using pymatgen
data_RbHg2H11
_symmetry_space_group_name_H-M   'P 1'
_cell_length_a   5.06682462
_cell_length_b   9.20177691
_cell_length_c   11.63079269
_cell_angle_alpha   69.33880633
_cell_angle_beta   73.32426678
_cell_angle_gamma   56.13992245
_symmetry_Int_Tables_number   1
_chemical_formula_structural   RbHg2H11
_chemical_formula_sum   'Rb1 Hg2 H11'
_cell_volume   418.48160875
_cell_formula_units_Z   1
loop_
 _symmetry_equiv_pos_site_id
 _symmetry_equiv_pos_as_xyz
  1  'x, y, z'
loop_
 _atom_site_type_symbol
 _atom_site_label
 _atom_site_symmetry_multiplicity
 _atom_site_fract_x
 _atom_site_fract_y
 _atom_site_fract_z
 _atom_site_occupancy
  Rb  Rb0  1  0.834916  0.606646  0.707203  1
  Hg  Hg1  1  0.777924  0.244376  0.634962  1
  Hg  Hg2  1  0.006184  0.869659  0.870887  1
  H  H3  1  0.139028  0.186282  0.864764  1
  H  H4  1  0.870104  0.958757  0.524332  1
  H  H5  1  0.781490  0.579581  0.184729  1
  H  H6  1  0.712630  0.221351  0.294803  1
  H  H7  1  0.244237  0.222343  0.860664  1
  H  H8  1  0.749220  0.625860  0.233127  1
  H  H9  1  0.440265  0.488439  0.729523  1
  H  H10  1  0.505295  0.816972  0.422557  1
  H  H11  1  0.883271  0.903479  0.485819  1
  H  H12  1  0.651583  0.320206  0.282530  1
  H  H13  1  0.655634  0.807704  0.381529  1
