# generated using pymatgen
data_Ho4Ni13Ir
_symmetry_space_group_name_H-M   'P 1'
_cell_length_a   4.93462224
_cell_length_b   4.93462389
_cell_length_c   12.50708629
_cell_angle_alpha   78.62246681
_cell_angle_beta   78.62246247
_cell_angle_gamma   60.00000273
_symmetry_Int_Tables_number   1
_chemical_formula_structural   Ho4Ni13Ir
_chemical_formula_sum   'Ho4 Ni13 Ir1'
_cell_volume   256.81736651
_cell_formula_units_Z   1
loop_
 _symmetry_equiv_pos_site_id
 _symmetry_equiv_pos_as_xyz
  1  'x, y, z'
loop_
 _atom_site_type_symbol
 _atom_site_label
 _atom_site_symmetry_multiplicity
 _atom_site_fract_x
 _atom_site_fract_y
 _atom_site_fract_z
 _atom_site_occupancy
  Ho  Ho0  1  0.949849  0.949849  0.150452  1
  Ho  Ho1  1  0.050151  0.050151  0.849548  1
  Ho  Ho2  1  0.853500  0.853500  0.439500  1
  Ho  Ho3  1  0.146500  0.146500  0.560500  1
  Ni  Ni4  1  0.720775  0.720775  0.837675  1
  Ni  Ni5  1  0.279225  0.279225  0.162325  1
  Ni  Ni6  1  0.612677  0.612677  0.161969  1
  Ni  Ni7  1  0.387323  0.387323  0.838031  1
  Ni  Ni8  1  0.000000  0.500000  0.000000  1
  Ni  Ni9  1  0.500000  0.000000  0.000000  1
  Ni  Ni10  1  0.500000  0.500000  0.000000  1
  Ni  Ni11  1  0.390790  0.390790  0.323713  1
  Ni  Ni12  1  0.894708  0.390790  0.323713  1
  Ni  Ni13  1  0.390790  0.894708  0.323713  1
  Ni  Ni14  1  0.609210  0.609210  0.676287  1
  Ni  Ni15  1  0.105292  0.609210  0.676287  1
  Ni  Ni16  1  0.609210  0.105292  0.676287  1
  Ir  Ir17  1  0.500000  0.500000  0.500000  1
