# generated using pymatgen
data_Er9Tm(Pb3Cl)2
_symmetry_space_group_name_H-M   'P 1'
_cell_length_a   9.12729800
_cell_length_b   9.12729819
_cell_length_c   6.54581800
_cell_angle_alpha   90.00000000
_cell_angle_beta   90.00000000
_cell_angle_gamma   120.00001381
_symmetry_Int_Tables_number   1
_chemical_formula_structural   Er9Tm(Pb3Cl)2
_chemical_formula_sum   'Er9 Tm1 Pb6 Cl2'
_cell_volume   472.25761188
_cell_formula_units_Z   1
loop_
 _symmetry_equiv_pos_site_id
 _symmetry_equiv_pos_as_xyz
  1  'x, y, z'
loop_
 _atom_site_type_symbol
 _atom_site_label
 _atom_site_symmetry_multiplicity
 _atom_site_fract_x
 _atom_site_fract_y
 _atom_site_fract_z
 _atom_site_occupancy
  Er  Er0  1  0.261570  0.999976  0.249891  1
  Er  Er1  1  0.738405  0.999976  0.750109  1
  Er  Er2  1  0.000024  0.261595  0.249891  1
  Er  Er3  1  0.000024  0.738430  0.750109  1
  Er  Er4  1  0.738405  0.738430  0.249891  1
  Er  Er5  1  0.261570  0.261595  0.750109  1
  Er  Er6  1  0.666667  0.333333  0.000000  1
  Er  Er7  1  0.666667  0.333333  0.500000  1
  Er  Er8  1  0.333333  0.666667  0.500000  1
  Tm  Tm9  1  0.333333  0.666667  0.000000  1
  Pb  Pb10  1  0.610814  0.999661  0.249734  1
  Pb  Pb11  1  0.388846  0.999661  0.750266  1
  Pb  Pb12  1  0.000339  0.611154  0.249734  1
  Pb  Pb13  1  0.000339  0.389186  0.750266  1
  Pb  Pb14  1  0.388846  0.389186  0.249734  1
  Pb  Pb15  1  0.610814  0.611154  0.750266  1
  Cl  Cl16  1  0.000000  0.000000  0.000000  1
  Cl  Cl17  1  0.000000  0.000000  0.500000  1
