# generated using pymatgen
data_Dy7Er8LuTlCd3Pt4
_symmetry_space_group_name_H-M   'P 1'
_cell_length_a   9.64264250
_cell_length_b   9.64264301
_cell_length_c   9.62305300
_cell_angle_alpha   60.06718553
_cell_angle_beta   60.06718380
_cell_angle_gamma   60.14210492
_symmetry_Int_Tables_number   1
_chemical_formula_structural   Dy7Er8LuTlCd3Pt4
_chemical_formula_sum   'Dy7 Er8 Lu1 Tl1 Cd3 Pt4'
_cell_volume   634.00911872
_cell_formula_units_Z   1
loop_
 _symmetry_equiv_pos_site_id
 _symmetry_equiv_pos_as_xyz
  1  'x, y, z'
loop_
 _atom_site_type_symbol
 _atom_site_label
 _atom_site_symmetry_multiplicity
 _atom_site_fract_x
 _atom_site_fract_y
 _atom_site_fract_z
 _atom_site_occupancy
  Dy  Dy0  1  0.810625  0.810625  0.188895  1
  Dy  Dy1  1  0.939360  0.562905  0.564486  1
  Dy  Dy2  1  0.563750  0.937273  0.935085  1
  Dy  Dy3  1  0.562905  0.939360  0.564486  1
  Dy  Dy4  1  0.937273  0.563749  0.935085  1
  Dy  Dy5  1  0.565028  0.565028  0.937371  1
  Dy  Dy6  1  0.937446  0.937446  0.562922  1
  Er  Er7  1  0.351307  0.351307  0.351455  1
  Er  Er8  1  0.351276  0.351276  0.946273  1
  Er  Er9  1  0.353360  0.941590  0.352280  1
  Er  Er10  1  0.941590  0.353360  0.352280  1
  Er  Er11  1  0.811591  0.189868  0.187669  1
  Er  Er12  1  0.190431  0.811023  0.809460  1
  Er  Er13  1  0.189868  0.811591  0.187669  1
  Er  Er14  1  0.811023  0.190431  0.809460  1
  Lu  Lu15  1  0.189271  0.189271  0.810464  1
  Tl  Tl16  1  0.583063  0.583063  0.584964  1
  Cd  Cd17  1  0.580251  0.580251  0.254151  1
  Cd  Cd18  1  0.579770  0.252985  0.581968  1
  Cd  Cd19  1  0.252985  0.579770  0.581968  1
  Pt  Pt20  1  0.142634  0.142634  0.143817  1
  Pt  Pt21  1  0.142776  0.142776  0.570708  1
  Pt  Pt22  1  0.142326  0.570098  0.143541  1
  Pt  Pt23  1  0.570098  0.142326  0.143541  1
