# generated using pymatgen
data_Er4Re3PN12
_symmetry_space_group_name_H-M   'P 1'
_cell_length_a   7.27923218
_cell_length_b   7.25918200
_cell_length_c   6.07985236
_cell_angle_alpha   73.71943378
_cell_angle_beta   73.77139546
_cell_angle_gamma   82.70582758
_symmetry_Int_Tables_number   1
_chemical_formula_structural   Er4Re3PN12
_chemical_formula_sum   'Er4 Re3 P1 N12'
_cell_volume   295.68442308
_cell_formula_units_Z   1
loop_
 _symmetry_equiv_pos_site_id
 _symmetry_equiv_pos_as_xyz
  1  'x, y, z'
loop_
 _atom_site_type_symbol
 _atom_site_label
 _atom_site_symmetry_multiplicity
 _atom_site_fract_x
 _atom_site_fract_y
 _atom_site_fract_z
 _atom_site_occupancy
  Er  Er0  1  0.902179  0.086148  0.762796  1
  Er  Er1  1  0.105700  0.903042  0.250206  1
  Er  Er2  1  0.703597  0.276527  0.259205  1
  Er  Er3  1  0.301755  0.709473  0.736186  1
  Re  Re4  1  0.198462  0.379936  0.221222  1
  Re  Re5  1  0.379394  0.199235  0.722189  1
  Re  Re6  1  0.784687  0.629447  0.786687  1
  P  P7  1  0.616356  0.810316  0.279671  1
  N  N8  1  0.668646  0.650923  0.096184  1
  N  N9  1  0.389914  0.863027  0.334071  1
  N  N10  1  0.363841  0.340550  0.421322  1
  N  N11  1  0.125736  0.628955  0.149079  1
  N  N12  1  0.002530  0.215013  0.337921  1
  N  N13  1  0.770337  0.978091  0.165336  1
  N  N14  1  0.217693  0.000643  0.839112  1
  N  N15  1  0.632376  0.122936  0.658160  1
  N  N16  1  0.343984  0.366622  0.915885  1
  N  N17  1  0.859808  0.380828  0.843560  1
  N  N18  1  0.640583  0.682216  0.557744  1
  N  N19  1  0.992421  0.776072  0.663463  1
