# generated using pymatgen
data_YHo6Sn22HgRh6
_symmetry_space_group_name_H-M   'P 1'
_cell_length_a   9.83115700
_cell_length_b   9.83115477
_cell_length_c   10.13197700
_cell_angle_alpha   90.00000000
_cell_angle_beta   90.00000000
_cell_angle_gamma   119.99999741
_symmetry_Int_Tables_number   1
_chemical_formula_structural   YHo6Sn22HgRh6
_chemical_formula_sum   'Y1 Ho6 Sn22 Hg1 Rh6'
_cell_volume   848.07449623
_cell_formula_units_Z   1
loop_
 _symmetry_equiv_pos_site_id
 _symmetry_equiv_pos_as_xyz
  1  'x, y, z'
loop_
 _atom_site_type_symbol
 _atom_site_label
 _atom_site_symmetry_multiplicity
 _atom_site_fract_x
 _atom_site_fract_y
 _atom_site_fract_z
 _atom_site_occupancy
  Y  Y0  1  0.000000  0.000000  0.000000  1
  Ho  Ho1  1  0.519350  0.480650  0.692010  1
  Ho  Ho2  1  0.519350  0.038698  0.692010  1
  Ho  Ho3  1  0.961302  0.480650  0.692010  1
  Ho  Ho4  1  0.038698  0.519350  0.307990  1
  Ho  Ho5  1  0.480650  0.961302  0.307990  1
  Ho  Ho6  1  0.480650  0.519350  0.307990  1
  Sn  Sn7  1  0.666667  0.333333  0.179013  1
  Sn  Sn8  1  0.666667  0.333333  0.875463  1
  Sn  Sn9  1  0.333333  0.666667  0.124537  1
  Sn  Sn10  1  0.351677  0.351677  0.000000  1
  Sn  Sn11  1  0.000000  0.648323  0.000000  1
  Sn  Sn12  1  0.648323  0.000000  0.000000  1
  Sn  Sn13  1  0.648323  0.648323  0.000000  1
  Sn  Sn14  1  0.333333  0.666667  0.820987  1
  Sn  Sn15  1  0.440799  0.220400  0.458908  1
  Sn  Sn16  1  0.220400  0.779600  0.541092  1
  Sn  Sn17  1  0.220400  0.440799  0.541092  1
  Sn  Sn18  1  0.559201  0.779600  0.541092  1
  Sn  Sn19  1  0.118580  0.881420  0.275263  1
  Sn  Sn20  1  0.779600  0.559201  0.458908  1
  Sn  Sn21  1  0.779600  0.220400  0.458908  1
  Sn  Sn22  1  0.351677  0.000000  0.000000  1
  Sn  Sn23  1  0.118580  0.237160  0.275263  1
  Sn  Sn24  1  0.762840  0.881420  0.275263  1
  Sn  Sn25  1  0.237160  0.118580  0.724737  1
  Sn  Sn26  1  0.881420  0.762840  0.724737  1
  Sn  Sn27  1  0.881420  0.118580  0.724737  1
  Sn  Sn28  1  0.000000  0.351677  0.000000  1
  Hg  Hg29  1  0.000000  0.000000  0.500000  1
  Rh  Rh30  1  0.170019  0.829981  0.801118  1
  Rh  Rh31  1  0.170019  0.340040  0.801118  1
  Rh  Rh32  1  0.659960  0.829981  0.801118  1
  Rh  Rh33  1  0.340040  0.170019  0.198882  1
  Rh  Rh34  1  0.829981  0.659960  0.198882  1
  Rh  Rh35  1  0.829981  0.170019  0.198882  1
