# generated using pymatgen
data_YGaCu3Au
_symmetry_space_group_name_H-M   'P 1'
_cell_length_a   5.12507187
_cell_length_b   5.12507280
_cell_length_c   5.07254231
_cell_angle_alpha   59.65683092
_cell_angle_beta   59.65682776
_cell_angle_gamma   60.00001025
_symmetry_Int_Tables_number   1
_chemical_formula_structural   YGaCu3Au
_chemical_formula_sum   'Y1 Ga1 Cu3 Au1'
_cell_volume   93.72132801
_cell_formula_units_Z   1
loop_
 _symmetry_equiv_pos_site_id
 _symmetry_equiv_pos_as_xyz
  1  'x, y, z'
loop_
 _atom_site_type_symbol
 _atom_site_label
 _atom_site_symmetry_multiplicity
 _atom_site_fract_x
 _atom_site_fract_y
 _atom_site_fract_z
 _atom_site_occupancy
  Y  Y0  1  0.001778  0.001778  0.994667  1
  Ga  Ga1  1  0.622405  0.622405  0.132784  1
  Cu  Cu2  1  0.623717  0.126331  0.626235  1
  Cu  Cu3  1  0.126331  0.623717  0.626235  1
  Cu  Cu4  1  0.623717  0.623717  0.626235  1
  Au  Au5  1  0.252052  0.252052  0.243844  1
