# generated using pymatgen
data_Ca6Nd2Si12Ag3Pd
_symmetry_space_group_name_H-M   'P 1'
_cell_length_a   8.36441500
_cell_length_b   8.36441572
_cell_length_c   8.48079000
_cell_angle_alpha   90.00000000
_cell_angle_beta   90.00000000
_cell_angle_gamma   119.99999319
_symmetry_Int_Tables_number   1
_chemical_formula_structural   Ca6Nd2Si12Ag3Pd
_chemical_formula_sum   'Ca6 Nd2 Si12 Ag3 Pd1'
_cell_volume   513.85212012
_cell_formula_units_Z   1
loop_
 _symmetry_equiv_pos_site_id
 _symmetry_equiv_pos_as_xyz
  1  'x, y, z'
loop_
 _atom_site_type_symbol
 _atom_site_label
 _atom_site_symmetry_multiplicity
 _atom_site_fract_x
 _atom_site_fract_y
 _atom_site_fract_z
 _atom_site_occupancy
  Ca  Ca0  1  0.501627  0.498373  0.746433  1
  Ca  Ca1  1  0.501814  0.498186  0.253548  1
  Ca  Ca2  1  0.996747  0.498373  0.746433  1
  Ca  Ca3  1  0.996371  0.498186  0.253548  1
  Ca  Ca4  1  0.501627  0.003253  0.746433  1
  Ca  Ca5  1  0.501814  0.003629  0.253548  1
  Nd  Nd6  1  0.000000  0.000000  0.748103  1
  Nd  Nd7  1  0.000000  0.000000  0.251952  1
  Si  Si8  1  0.838283  0.161717  0.000076  1
  Si  Si9  1  0.162203  0.837797  0.999958  1
  Si  Si10  1  0.323434  0.161717  0.000076  1
  Si  Si11  1  0.160612  0.839388  0.500016  1
  Si  Si12  1  0.675595  0.837797  0.999958  1
  Si  Si13  1  0.833684  0.166316  0.499998  1
  Si  Si14  1  0.838283  0.676566  0.000076  1
  Si  Si15  1  0.678774  0.839388  0.500016  1
  Si  Si16  1  0.162203  0.324405  0.999958  1
  Si  Si17  1  0.332632  0.166316  0.499998  1
  Si  Si18  1  0.160612  0.321226  0.500016  1
  Si  Si19  1  0.833684  0.667368  0.499998  1
  Ag  Ag20  1  0.666667  0.333333  0.999659  1
  Ag  Ag21  1  0.333333  0.666667  0.000528  1
  Ag  Ag22  1  0.333333  0.666667  0.499445  1
  Pd  Pd23  1  0.666667  0.333333  0.500220  1
