# generated using pymatgen
data_Ba2Mg(Si3Pd10)2
_symmetry_space_group_name_H-M   'P 1'
_cell_length_a   8.79314616
_cell_length_b   8.79314640
_cell_length_c   8.79314600
_cell_angle_alpha   60.00000152
_cell_angle_beta   60.00000060
_cell_angle_gamma   59.99999915
_symmetry_Int_Tables_number   1
_chemical_formula_structural   Ba2Mg(Si3Pd10)2
_chemical_formula_sum   'Ba2 Mg1 Si6 Pd20'
_cell_volume   480.74844341
_cell_formula_units_Z   1
loop_
 _symmetry_equiv_pos_site_id
 _symmetry_equiv_pos_as_xyz
  1  'x, y, z'
loop_
 _atom_site_type_symbol
 _atom_site_label
 _atom_site_symmetry_multiplicity
 _atom_site_fract_x
 _atom_site_fract_y
 _atom_site_fract_z
 _atom_site_occupancy
  Ba  Ba0  1  0.250000  0.250000  0.250000  1
  Ba  Ba1  1  0.750000  0.750000  0.750000  1
  Mg  Mg2  1  0.000000  0.000000  0.000000  1
  Si  Si3  1  0.733524  0.266476  0.266476  1
  Si  Si4  1  0.266476  0.733524  0.733524  1
  Si  Si5  1  0.266476  0.733524  0.266476  1
  Si  Si6  1  0.733524  0.266476  0.733524  1
  Si  Si7  1  0.266476  0.266476  0.733524  1
  Si  Si8  1  0.733524  0.733524  0.266476  1
  Pd  Pd9  1  0.387634  0.387634  0.387634  1
  Pd  Pd10  1  0.612366  0.612366  0.612366  1
  Pd  Pd11  1  0.387634  0.387634  0.837100  1
  Pd  Pd12  1  0.387634  0.837100  0.387634  1
  Pd  Pd13  1  0.612366  0.612366  0.162900  1
  Pd  Pd14  1  0.612366  0.162900  0.612366  1
  Pd  Pd15  1  0.837100  0.387634  0.387634  1
  Pd  Pd16  1  0.162900  0.612366  0.612366  1
  Pd  Pd17  1  0.341415  0.000000  0.000000  1
  Pd  Pd18  1  0.658585  0.000000  0.000000  1
  Pd  Pd19  1  0.000000  0.341415  0.658585  1
  Pd  Pd20  1  0.000000  0.658585  0.341415  1
  Pd  Pd21  1  0.000000  0.341415  0.000000  1
  Pd  Pd22  1  0.658585  0.000000  0.341415  1
  Pd  Pd23  1  0.000000  0.658585  0.000000  1
  Pd  Pd24  1  0.341415  0.000000  0.658585  1
  Pd  Pd25  1  0.000000  0.000000  0.341415  1
  Pd  Pd26  1  0.000000  0.000000  0.658585  1
  Pd  Pd27  1  0.658585  0.341415  0.000000  1
  Pd  Pd28  1  0.341415  0.658585  0.000000  1
