# generated using pymatgen
data_Ho11Tm9Fe3CoBi8
_symmetry_space_group_name_H-M   'P 1'
_cell_length_a   7.86014900
_cell_length_b   8.87484300
_cell_length_c   12.33084543
_cell_angle_alpha   90.00000000
_cell_angle_beta   90.12267433
_cell_angle_gamma   90.00000000
_symmetry_Int_Tables_number   1
_chemical_formula_structural   Ho11Tm9Fe3CoBi8
_chemical_formula_sum   'Ho11 Tm9 Fe3 Co1 Bi8'
_cell_volume   860.16806782
_cell_formula_units_Z   1
loop_
 _symmetry_equiv_pos_site_id
 _symmetry_equiv_pos_as_xyz
  1  'x, y, z'
loop_
 _atom_site_type_symbol
 _atom_site_label
 _atom_site_symmetry_multiplicity
 _atom_site_fract_x
 _atom_site_fract_y
 _atom_site_fract_z
 _atom_site_occupancy
  Ho  Ho0  1  0.651705  0.250000  0.299139  1
  Ho  Ho1  1  0.849210  0.250000  0.800806  1
  Ho  Ho2  1  0.151644  0.750000  0.201493  1
  Ho  Ho3  1  0.885691  0.750000  0.814015  1
  Ho  Ho4  1  0.115416  0.250000  0.185849  1
  Ho  Ho5  1  0.384336  0.250000  0.685262  1
  Ho  Ho6  1  0.615976  0.750000  0.313382  1
  Ho  Ho7  1  0.055600  0.750000  0.495527  1
  Ho  Ho8  1  0.943300  0.250000  0.504868  1
  Ho  Ho9  1  0.555581  0.250000  0.004438  1
  Ho  Ho10  1  0.441976  0.750000  0.994891  1
  Tm  Tm11  1  0.348284  0.750000  0.700038  1
  Tm  Tm12  1  0.674330  0.541123  0.564119  1
  Tm  Tm13  1  0.328189  0.465744  0.437195  1
  Tm  Tm14  1  0.172725  0.463217  0.937334  1
  Tm  Tm15  1  0.328189  0.034256  0.437195  1
  Tm  Tm16  1  0.827412  0.537083  0.062798  1
  Tm  Tm17  1  0.674330  0.958877  0.564119  1
  Tm  Tm18  1  0.827412  0.962917  0.062798  1
  Tm  Tm19  1  0.172725  0.036783  0.937334  1
  Fe  Fe20  1  0.068025  0.750000  0.992822  1
  Fe  Fe21  1  0.931761  0.250000  0.007985  1
  Fe  Fe22  1  0.431757  0.750000  0.492314  1
  Co  Co23  1  0.565085  0.250000  0.506430  1
  Bi  Bi24  1  0.569392  0.507617  0.826168  1
  Bi  Bi25  1  0.430146  0.492850  0.172687  1
  Bi  Bi26  1  0.070310  0.492859  0.673169  1
  Bi  Bi27  1  0.430146  0.007150  0.172687  1
  Bi  Bi28  1  0.929824  0.506522  0.326900  1
  Bi  Bi29  1  0.569392  0.992383  0.826168  1
  Bi  Bi30  1  0.929824  0.993478  0.326900  1
  Bi  Bi31  1  0.070310  0.007141  0.673169  1
