# generated using pymatgen
data_CaYb3(GePd3)6
_symmetry_space_group_name_H-M   'P 1'
_cell_length_a   7.73487806
_cell_length_b   7.73632147
_cell_length_c   10.12715486
_cell_angle_alpha   67.98427389
_cell_angle_beta   67.97917889
_cell_angle_gamma   60.23997938
_symmetry_Int_Tables_number   1
_chemical_formula_structural   CaYb3(GePd3)6
_chemical_formula_sum   'Ca1 Yb3 Ge6 Pd18'
_cell_volume   474.09722929
_cell_formula_units_Z   1
loop_
 _symmetry_equiv_pos_site_id
 _symmetry_equiv_pos_as_xyz
  1  'x, y, z'
loop_
 _atom_site_type_symbol
 _atom_site_label
 _atom_site_symmetry_multiplicity
 _atom_site_fract_x
 _atom_site_fract_y
 _atom_site_fract_z
 _atom_site_occupancy
  Ca  Ca0  1  0.417114  0.244405  0.749939  1
  Yb  Yb1  1  0.582628  0.755462  0.250392  1
  Yb  Yb2  1  0.755608  0.582687  0.750324  1
  Yb  Yb3  1  0.244279  0.417540  0.249672  1
  Ge  Ge4  1  0.499968  0.000024  0.500118  1
  Ge  Ge5  1  0.999905  0.500116  0.999894  1
  Ge  Ge6  1  0.654394  0.174177  0.997549  1
  Ge  Ge7  1  0.345761  0.826085  0.002194  1
  Ge  Ge8  1  0.825874  0.345666  0.502369  1
  Ge  Ge9  1  0.173805  0.654331  0.497805  1
  Pd  Pd10  1  0.293786  0.919098  0.752872  1
  Pd  Pd11  1  0.705069  0.079663  0.246912  1
  Pd  Pd12  1  0.079033  0.706840  0.746865  1
  Pd  Pd13  1  0.920026  0.294937  0.252932  1
  Pd  Pd14  1  0.483631  0.636809  0.573355  1
  Pd  Pd15  1  0.516708  0.366520  0.422634  1
  Pd  Pd16  1  0.364539  0.517539  0.926627  1
  Pd  Pd17  1  0.634584  0.483248  0.075646  1
  Pd  Pd18  1  0.872794  0.128079  0.750155  1
  Pd  Pd19  1  0.128771  0.870856  0.250096  1
  Pd  Pd20  1  0.813187  0.986089  0.544023  1
  Pd  Pd21  1  0.189588  0.013789  0.452634  1
  Pd  Pd22  1  0.011972  0.187985  0.955830  1
  Pd  Pd23  1  0.986630  0.810492  0.046943  1
  Pd  Pd24  1  0.684633  0.856487  0.926798  1
  Pd  Pd25  1  0.316537  0.140547  0.077768  1
  Pd  Pd26  1  0.140538  0.316994  0.573313  1
  Pd  Pd27  1  0.858640  0.683534  0.424344  1
