# generated using pymatgen
data_Ac2Yb(SnPd)3
_symmetry_space_group_name_H-M   'P 1'
_cell_length_a   7.70598200
_cell_length_b   7.78167354
_cell_length_c   4.32505800
_cell_angle_alpha   90.00000000
_cell_angle_beta   90.00000000
_cell_angle_gamma   119.67875509
_symmetry_Int_Tables_number   1
_chemical_formula_structural   Ac2Yb(SnPd)3
_chemical_formula_sum   'Ac2 Yb1 Sn3 Pd3'
_cell_volume   225.33067999
_cell_formula_units_Z   1
loop_
 _symmetry_equiv_pos_site_id
 _symmetry_equiv_pos_as_xyz
  1  'x, y, z'
loop_
 _atom_site_type_symbol
 _atom_site_label
 _atom_site_symmetry_multiplicity
 _atom_site_fract_x
 _atom_site_fract_y
 _atom_site_fract_z
 _atom_site_occupancy
  Ac  Ac0  1  0.001865  0.584057  0.000000  1
  Ac  Ac1  1  0.417808  0.415943  0.000000  1
  Yb  Yb2  1  0.591216  0.000000  0.000000  1
  Sn  Sn3  1  0.754348  0.766359  0.500000  1
  Sn  Sn4  1  0.987989  0.233641  0.500000  1
  Sn  Sn5  1  0.251900  0.000000  0.500000  1
  Pd  Pd6  1  0.339082  0.676950  0.500000  1
  Pd  Pd7  1  0.993660  0.000000  0.000000  1
  Pd  Pd8  1  0.662132  0.323050  0.500000  1
