# generated using pymatgen
data_SmZr8(In2Ru)7
_symmetry_space_group_name_H-M   'P 1'
_cell_length_a   9.76538848
_cell_length_b   9.76080439
_cell_length_c   9.76752565
_cell_angle_alpha   59.46930872
_cell_angle_beta   59.46271611
_cell_angle_gamma   59.48093268
_symmetry_Int_Tables_number   1
_chemical_formula_structural   SmZr8(In2Ru)7
_chemical_formula_sum   'Sm1 Zr8 In14 Ru7'
_cell_volume   650.40964522
_cell_formula_units_Z   1
loop_
 _symmetry_equiv_pos_site_id
 _symmetry_equiv_pos_as_xyz
  1  'x, y, z'
loop_
 _atom_site_type_symbol
 _atom_site_label
 _atom_site_symmetry_multiplicity
 _atom_site_fract_x
 _atom_site_fract_y
 _atom_site_fract_z
 _atom_site_occupancy
  Sm  Sm0  1  0.500000  0.500000  0.500000  1
  Zr  Zr1  1  0.121728  0.637130  0.121685  1
  Zr  Zr2  1  0.362673  0.878178  0.878704  1
  Zr  Zr3  1  0.878887  0.878641  0.879051  1
  Zr  Zr4  1  0.637327  0.121822  0.121296  1
  Zr  Zr5  1  0.878675  0.878191  0.362629  1
  Zr  Zr6  1  0.121113  0.121359  0.120949  1
  Zr  Zr7  1  0.878272  0.362870  0.878315  1
  Zr  Zr8  1  0.121325  0.121809  0.637371  1
  In  In9  1  0.500164  0.845253  0.154601  1
  In  In10  1  0.500327  0.845679  0.500341  1
  In  In11  1  0.499673  0.154321  0.499659  1
  In  In12  1  0.500224  0.500370  0.845983  1
  In  In13  1  0.154084  0.499630  0.499761  1
  In  In14  1  0.845519  0.154602  0.499866  1
  In  In15  1  0.154481  0.845398  0.500134  1
  In  In16  1  0.499836  0.154747  0.845399  1
  In  In17  1  0.155101  0.499958  0.844946  1
  In  In18  1  0.499776  0.499630  0.154017  1
  In  In19  1  0.845916  0.500370  0.500239  1
  In  In20  1  0.844899  0.500042  0.155054  1
  In  In21  1  0.250221  0.249941  0.250290  1
  In  In22  1  0.749779  0.750059  0.749710  1
  Ru  Ru23  1  0.777627  0.777613  0.221252  1
  Ru  Ru24  1  0.000000  0.000000  0.000000  1
  Ru  Ru25  1  0.222398  0.778955  0.222386  1
  Ru  Ru26  1  0.221104  0.777695  0.777711  1
  Ru  Ru27  1  0.222373  0.222387  0.778748  1
  Ru  Ru28  1  0.777602  0.221045  0.777614  1
  Ru  Ru29  1  0.778896  0.222305  0.222289  1
