# generated using pymatgen
data_Tb2Y5BeI12
_symmetry_space_group_name_H-M   'P 1'
_cell_length_a   9.71285079
_cell_length_b   9.71384136
_cell_length_c   9.70876798
_cell_angle_alpha   107.70141721
_cell_angle_beta   107.70539797
_cell_angle_gamma   107.71760300
_symmetry_Int_Tables_number   1
_chemical_formula_structural   Tb2Y5BeI12
_chemical_formula_sum   'Tb2 Y5 Be1 I12'
_cell_volume   747.63892112
_cell_formula_units_Z   1
loop_
 _symmetry_equiv_pos_site_id
 _symmetry_equiv_pos_as_xyz
  1  'x, y, z'
loop_
 _atom_site_type_symbol
 _atom_site_label
 _atom_site_symmetry_multiplicity
 _atom_site_fract_x
 _atom_site_fract_y
 _atom_site_fract_z
 _atom_site_occupancy
  Tb  Tb0  1  0.901158  0.699727  0.971012  1
  Tb  Tb1  1  0.699555  0.970863  0.901036  1
  Y  Y2  1  0.501645  0.501568  0.501507  1
  Y  Y3  1  0.028751  0.098568  0.299827  1
  Y  Y4  1  0.098557  0.300027  0.028512  1
  Y  Y5  1  0.300064  0.028624  0.098393  1
  Y  Y6  1  0.970730  0.901214  0.700148  1
  Be  Be7  1  0.999784  0.999875  0.000088  1
  I  I8  1  0.155580  0.467520  0.387546  1
  I  I9  1  0.467431  0.387444  0.155227  1
  I  I10  1  0.387658  0.155542  0.467478  1
  I  I11  1  0.845533  0.532043  0.611911  1
  I  I12  1  0.531326  0.611780  0.845119  1
  I  I13  1  0.612101  0.845136  0.531289  1
  I  I14  1  0.681003  0.074745  0.228543  1
  I  I15  1  0.074452  0.227780  0.680806  1
  I  I16  1  0.228524  0.680988  0.074667  1
  I  I17  1  0.318285  0.925416  0.771819  1
  I  I18  1  0.925787  0.772338  0.319575  1
  I  I19  1  0.772076  0.318803  0.925497  1
