# generated using pymatgen
data_Y5Ho3Cr2(OsC4)2
_symmetry_space_group_name_H-M   'P 1'
_cell_length_a   5.05937600
_cell_length_b   6.50016510
_cell_length_c   9.78919373
_cell_angle_alpha   90.28131687
_cell_angle_beta   90.00000000
_cell_angle_gamma   90.00000000
_symmetry_Int_Tables_number   1
_chemical_formula_structural   Y5Ho3Cr2(OsC4)2
_chemical_formula_sum   'Y5 Ho3 Cr2 Os2 C8'
_cell_volume   321.93117367
_cell_formula_units_Z   1
loop_
 _symmetry_equiv_pos_site_id
 _symmetry_equiv_pos_as_xyz
  1  'x, y, z'
loop_
 _atom_site_type_symbol
 _atom_site_label
 _atom_site_symmetry_multiplicity
 _atom_site_fract_x
 _atom_site_fract_y
 _atom_site_fract_z
 _atom_site_occupancy
  Y  Y0  1  0.250000  0.178025  0.945904  1
  Y  Y1  1  0.250000  0.531775  0.215168  1
  Y  Y2  1  0.750000  0.468546  0.785098  1
  Y  Y3  1  0.750000  0.971562  0.715170  1
  Y  Y4  1  0.250000  0.028267  0.285278  1
  Ho  Ho5  1  0.250000  0.681146  0.558365  1
  Ho  Ho6  1  0.750000  0.319004  0.441437  1
  Ho  Ho7  1  0.750000  0.823088  0.054812  1
  Cr  Cr8  1  0.250000  0.725623  0.860953  1
  Cr  Cr9  1  0.750000  0.274184  0.139072  1
  Os  Os10  1  0.750000  0.775608  0.362287  1
  Os  Os11  1  0.250000  0.224490  0.637533  1
  C  C12  1  0.250000  0.463937  0.762908  1
  C  C13  1  0.750000  0.536796  0.236409  1
  C  C14  1  0.750000  0.046547  0.256468  1
  C  C15  1  0.250000  0.952895  0.742922  1
  C  C16  1  0.250000  0.812761  0.038265  1
  C  C17  1  0.750000  0.185768  0.962044  1
  C  C18  1  0.750000  0.677438  0.547009  1
  C  C19  1  0.250000  0.322538  0.452898  1
