# generated using pymatgen
data_Mg4Zr6Ti4Al8Pt7
_symmetry_space_group_name_H-M   'P 1'
_cell_length_a   8.93693411
_cell_length_b   8.93693488
_cell_length_c   8.93693400
_cell_angle_alpha   60.00000326
_cell_angle_beta   60.00000040
_cell_angle_gamma   60.00000099
_symmetry_Int_Tables_number   1
_chemical_formula_structural   Mg4Zr6Ti4Al8Pt7
_chemical_formula_sum   'Mg4 Zr6 Ti4 Al8 Pt7'
_cell_volume   504.72023582
_cell_formula_units_Z   1
loop_
 _symmetry_equiv_pos_site_id
 _symmetry_equiv_pos_as_xyz
  1  'x, y, z'
loop_
 _atom_site_type_symbol
 _atom_site_label
 _atom_site_symmetry_multiplicity
 _atom_site_fract_x
 _atom_site_fract_y
 _atom_site_fract_z
 _atom_site_occupancy
  Mg  Mg0  1  0.880079  0.880079  0.359762  1
  Mg  Mg1  1  0.880079  0.359762  0.880079  1
  Mg  Mg2  1  0.359762  0.880079  0.880079  1
  Mg  Mg3  1  0.880079  0.880079  0.880079  1
  Zr  Zr4  1  0.685829  0.685829  0.314171  1
  Zr  Zr5  1  0.314171  0.685829  0.314171  1
  Zr  Zr6  1  0.685829  0.314171  0.314171  1
  Zr  Zr7  1  0.314171  0.314171  0.685829  1
  Zr  Zr8  1  0.685829  0.314171  0.685829  1
  Zr  Zr9  1  0.314171  0.685829  0.685829  1
  Ti  Ti10  1  0.119704  0.119704  0.640889  1
  Ti  Ti11  1  0.119704  0.640889  0.119704  1
  Ti  Ti12  1  0.640889  0.119704  0.119704  1
  Ti  Ti13  1  0.119704  0.119704  0.119704  1
  Al  Al14  1  0.664686  0.664686  0.005943  1
  Al  Al15  1  0.664686  0.005943  0.664686  1
  Al  Al16  1  0.005943  0.664686  0.664686  1
  Al  Al17  1  0.664686  0.664686  0.664686  1
  Al  Al18  1  0.336537  0.336537  0.990386  1
  Al  Al19  1  0.336537  0.990386  0.336537  1
  Al  Al20  1  0.990386  0.336537  0.336537  1
  Al  Al21  1  0.336537  0.336537  0.336537  1
  Pt  Pt22  1  0.000000  0.000000  0.000000  1
  Pt  Pt23  1  0.004531  0.004531  0.495469  1
  Pt  Pt24  1  0.495469  0.004531  0.495469  1
  Pt  Pt25  1  0.004531  0.495469  0.495469  1
  Pt  Pt26  1  0.495469  0.495469  0.004531  1
  Pt  Pt27  1  0.004531  0.495469  0.004531  1
  Pt  Pt28  1  0.495469  0.004531  0.004531  1
