# generated using pymatgen
data_Ta3Nb(ReB2)2
_symmetry_space_group_name_H-M   'P 1'
_cell_length_a   6.05200441
_cell_length_b   6.05200453
_cell_length_c   3.31200800
_cell_angle_alpha   90.00000000
_cell_angle_beta   90.00000000
_cell_angle_gamma   90.01680442
_symmetry_Int_Tables_number   1
_chemical_formula_structural   Ta3Nb(ReB2)2
_chemical_formula_sum   'Ta3 Nb1 Re2 B4'
_cell_volume   121.30811074
_cell_formula_units_Z   1
loop_
 _symmetry_equiv_pos_site_id
 _symmetry_equiv_pos_as_xyz
  1  'x, y, z'
loop_
 _atom_site_type_symbol
 _atom_site_label
 _atom_site_symmetry_multiplicity
 _atom_site_fract_x
 _atom_site_fract_y
 _atom_site_fract_z
 _atom_site_occupancy
  Ta  Ta0  1  0.824791  0.675027  0.500000  1
  Ta  Ta1  1  0.325087  0.825087  0.500000  1
  Ta  Ta2  1  0.175027  0.324791  0.500000  1
  Nb  Nb3  1  0.674197  0.174197  0.500000  1
  Re  Re4  1  0.499518  0.501090  0.000000  1
  Re  Re5  1  0.001090  0.999518  0.000000  1
  B  B6  1  0.112264  0.612264  0.000000  1
  B  B7  1  0.612147  0.887337  0.000000  1
  B  B8  1  0.387337  0.112147  0.000000  1
  B  B9  1  0.888542  0.388542  0.000000  1
