# generated using pymatgen
data_NdHoSi6PRh12
_symmetry_space_group_name_H-M   'P 1'
_cell_length_a   9.76884985
_cell_length_b   9.74110878
_cell_length_c   3.87635741
_cell_angle_alpha   89.99147662
_cell_angle_beta   90.02336161
_cell_angle_gamma   120.15332832
_symmetry_Int_Tables_number   1
_chemical_formula_structural   NdHoSi6PRh12
_chemical_formula_sum   'Nd1 Ho1 Si6 P1 Rh12'
_cell_volume   318.95775020
_cell_formula_units_Z   1
loop_
 _symmetry_equiv_pos_site_id
 _symmetry_equiv_pos_as_xyz
  1  'x, y, z'
loop_
 _atom_site_type_symbol
 _atom_site_label
 _atom_site_symmetry_multiplicity
 _atom_site_fract_x
 _atom_site_fract_y
 _atom_site_fract_z
 _atom_site_occupancy
  Nd  Nd0  1  0.332423  0.665793  0.748563  1
  Ho  Ho1  1  0.665115  0.332423  0.250520  1
  Si  Si2  1  0.000341  0.999645  0.504027  1
  Si  Si3  1  0.400484  0.288809  0.750216  1
  Si  Si4  1  0.709454  0.110829  0.751474  1
  Si  Si5  1  0.886915  0.597774  0.751446  1
  Si  Si6  1  0.602659  0.711281  0.249250  1
  Si  Si7  1  0.290091  0.891356  0.248644  1
  P  P8  1  0.110438  0.399287  0.246556  1
  Rh  Rh9  1  0.443834  0.064410  0.751629  1
  Rh  Rh10  1  0.934182  0.379582  0.751589  1
  Rh  Rh11  1  0.618434  0.555618  0.750857  1
  Rh  Rh12  1  0.560189  0.941110  0.248661  1
  Rh  Rh13  1  0.060194  0.614325  0.248839  1
  Rh  Rh14  1  0.378742  0.441828  0.248071  1
  Rh  Rh15  1  0.144615  0.265268  0.744785  1
  Rh  Rh16  1  0.740589  0.882893  0.745788  1
  Rh  Rh17  1  0.118529  0.854858  0.744952  1
  Rh  Rh18  1  0.857614  0.736315  0.255141  1
  Rh  Rh19  1  0.260019  0.118810  0.253686  1
  Rh  Rh20  1  0.885139  0.147787  0.255308  1
