# generated using pymatgen
data_Sc2H2N
_symmetry_space_group_name_H-M   'P 1'
_cell_length_a   3.26153200
_cell_length_b   3.26153287
_cell_length_c   5.38460700
_cell_angle_alpha   90.00000000
_cell_angle_beta   90.00000000
_cell_angle_gamma   120.00001141
_symmetry_Int_Tables_number   1
_chemical_formula_structural   Sc2H2N
_chemical_formula_sum   'Sc2 H2 N1'
_cell_volume   49.60529052
_cell_formula_units_Z   1
loop_
 _symmetry_equiv_pos_site_id
 _symmetry_equiv_pos_as_xyz
  1  'x, y, z'
loop_
 _atom_site_type_symbol
 _atom_site_label
 _atom_site_symmetry_multiplicity
 _atom_site_fract_x
 _atom_site_fract_y
 _atom_site_fract_z
 _atom_site_occupancy
  Sc  Sc0  1  0.333333  0.666666  0.230772  1
  Sc  Sc1  1  0.666667  0.333334  0.769229  1
  H  H2  1  0.666667  0.333334  0.387327  1
  H  H3  1  0.333333  0.666666  0.612673  1
  N  N4  1  0.000000  0.000000  0.000000  1
