# generated using pymatgen
data_AgMoF5
_symmetry_space_group_name_H-M   'P 1'
_cell_length_a   4.15606605
_cell_length_b   10.73828700
_cell_length_c   6.12327770
_cell_angle_alpha   90.00000000
_cell_angle_beta   111.57200748
_cell_angle_gamma   90.00000000
_symmetry_Int_Tables_number   1
_chemical_formula_structural   AgMoF5
_chemical_formula_sum   'Ag2 Mo2 F10'
_cell_volume   254.13466572
_cell_formula_units_Z   2
loop_
 _symmetry_equiv_pos_site_id
 _symmetry_equiv_pos_as_xyz
  1  'x, y, z'
loop_
 _atom_site_type_symbol
 _atom_site_label
 _atom_site_symmetry_multiplicity
 _atom_site_fract_x
 _atom_site_fract_y
 _atom_site_fract_z
 _atom_site_occupancy
  Ag  Ag0  1  0.000000  0.000000  0.000000  1
  Ag  Ag1  1  0.000000  0.500000  0.000000  1
  Mo  Mo2  1  0.734446  0.250000  0.406228  1
  Mo  Mo3  1  0.265555  0.750000  0.593772  1
  F  F4  1  0.601553  0.121191  0.157043  1
  F  F5  1  0.601553  0.378809  0.157043  1
  F  F6  1  0.398445  0.621191  0.842957  1
  F  F7  1  0.398445  0.878809  0.842957  1
  F  F8  1  0.137970  0.620307  0.352037  1
  F  F9  1  0.137970  0.879692  0.352037  1
  F  F10  1  0.227970  0.250000  0.393575  1
  F  F11  1  0.772029  0.750000  0.606425  1
  F  F12  1  0.862031  0.120308  0.647963  1
  F  F13  1  0.862031  0.379692  0.647963  1
