# generated using pymatgen
data_LiHo5(Co3P2)6
_symmetry_space_group_name_H-M   'P 1'
_cell_length_a   12.03120704
_cell_length_b   12.03120861
_cell_length_c   3.69255600
_cell_angle_alpha   90.00000000
_cell_angle_beta   90.00000000
_cell_angle_gamma   120.08140774
_symmetry_Int_Tables_number   1
_chemical_formula_structural   LiHo5(Co3P2)6
_chemical_formula_sum   'Li1 Ho5 Co18 P12'
_cell_volume   462.50809155
_cell_formula_units_Z   1
loop_
 _symmetry_equiv_pos_site_id
 _symmetry_equiv_pos_as_xyz
  1  'x, y, z'
loop_
 _atom_site_type_symbol
 _atom_site_label
 _atom_site_symmetry_multiplicity
 _atom_site_fract_x
 _atom_site_fract_y
 _atom_site_fract_z
 _atom_site_occupancy
  Li  Li0  1  0.438896  0.438896  0.000000  1
  Ho  Ho1  1  0.667343  0.333294  0.000000  1
  Ho  Ho2  1  0.333294  0.667343  0.000000  1
  Ho  Ho3  1  0.813150  0.813150  0.500000  1
  Ho  Ho4  1  0.187805  0.999545  0.500000  1
  Ho  Ho5  1  0.999545  0.187805  0.500000  1
  Co  Co6  1  0.873856  0.359027  0.500000  1
  Co  Co7  1  0.644487  0.517561  0.500000  1
  Co  Co8  1  0.483538  0.122994  0.500000  1
  Co  Co9  1  0.359027  0.873856  0.500000  1
  Co  Co10  1  0.517561  0.644487  0.500000  1
  Co  Co11  1  0.122994  0.483538  0.500000  1
  Co  Co12  1  0.552851  0.999094  0.000000  1
  Co  Co13  1  0.999094  0.552851  0.000000  1
  Co  Co14  1  0.799956  0.178164  0.000000  1
  Co  Co15  1  0.823923  0.624075  0.000000  1
  Co  Co16  1  0.378064  0.197396  0.000000  1
  Co  Co17  1  0.178164  0.799956  0.000000  1
  Co  Co18  1  0.624075  0.823923  0.000000  1
  Co  Co19  1  0.197396  0.378064  0.000000  1
  Co  Co20  1  0.283268  0.283268  0.500000  1
  Co  Co21  1  0.716170  0.001383  0.500000  1
  Co  Co22  1  0.001383  0.716170  0.500000  1
  Co  Co23  1  0.001527  0.001527  0.000000  1
  P  P24  1  0.685999  0.166118  0.500000  1
  P  P25  1  0.834040  0.521530  0.500000  1
  P  P26  1  0.481118  0.310887  0.500000  1
  P  P27  1  0.166118  0.685999  0.500000  1
  P  P28  1  0.521530  0.834040  0.500000  1
  P  P29  1  0.310887  0.481118  0.500000  1
  P  P30  1  0.182219  0.182219  0.000000  1
  P  P31  1  0.820219  0.001014  0.000000  1
  P  P32  1  0.001014  0.820219  0.000000  1
  P  P33  1  0.632488  0.632488  0.000000  1
  P  P34  1  0.368326  0.998674  0.000000  1
  P  P35  1  0.998674  0.368326  0.000000  1
