# generated using pymatgen
data_CaYb5N3
_symmetry_space_group_name_H-M   'P 1'
_cell_length_a   3.54375703
_cell_length_b   3.54381178
_cell_length_c   19.32601602
_cell_angle_alpha   89.99999945
_cell_angle_beta   90.00564324
_cell_angle_gamma   120.00050179
_symmetry_Int_Tables_number   1
_chemical_formula_structural   CaYb5N3
_chemical_formula_sum   'Ca1 Yb5 N3'
_cell_volume   210.18675889
_cell_formula_units_Z   1
loop_
 _symmetry_equiv_pos_site_id
 _symmetry_equiv_pos_as_xyz
  1  'x, y, z'
loop_
 _atom_site_type_symbol
 _atom_site_label
 _atom_site_symmetry_multiplicity
 _atom_site_fract_x
 _atom_site_fract_y
 _atom_site_fract_z
 _atom_site_occupancy
  Ca  Ca0  1  0.333239  0.666620  0.933757  1
  Yb  Yb1  1  0.666807  0.333404  0.064655  1
  Yb  Yb2  1  0.999813  0.999908  0.268472  1
  Yb  Yb3  1  0.333431  0.666715  0.398703  1
  Yb  Yb4  1  0.666619  0.333310  0.601656  1
  Yb  Yb5  1  0.000126  0.000063  0.731775  1
  N  N6  1  0.999946  0.999973  0.001250  1
  N  N7  1  0.666679  0.333340  0.333389  1
  N  N8  1  0.333403  0.666701  0.666373  1
