# generated using pymatgen
data_Er3In3Ag2Rh
_symmetry_space_group_name_H-M   'P 1'
_cell_length_a   7.74812400
_cell_length_b   7.74812468
_cell_length_c   3.91794200
_cell_angle_alpha   90.00000000
_cell_angle_beta   90.00000000
_cell_angle_gamma   119.99999710
_symmetry_Int_Tables_number   1
_chemical_formula_structural   Er3In3Ag2Rh
_chemical_formula_sum   'Er3 In3 Ag2 Rh1'
_cell_volume   203.69567600
_cell_formula_units_Z   1
loop_
 _symmetry_equiv_pos_site_id
 _symmetry_equiv_pos_as_xyz
  1  'x, y, z'
loop_
 _atom_site_type_symbol
 _atom_site_label
 _atom_site_symmetry_multiplicity
 _atom_site_fract_x
 _atom_site_fract_y
 _atom_site_fract_z
 _atom_site_occupancy
  Er  Er0  1  0.026458  0.603394  0.500000  1
  Er  Er1  1  0.396606  0.423065  0.500000  1
  Er  Er2  1  0.576935  0.973542  0.500000  1
  In  In3  1  0.261957  0.997692  0.000000  1
  In  In4  1  0.735735  0.738043  0.000000  1
  In  In5  1  0.002308  0.264265  0.000000  1
  Ag  Ag6  1  0.666667  0.333333  0.000000  1
  Ag  Ag7  1  0.000000  0.000000  0.500000  1
  Rh  Rh8  1  0.333333  0.666667  0.000000  1
