# generated using pymatgen
data_Dy16TlZn(InRh2)2
_symmetry_space_group_name_H-M   'P 1'
_cell_length_a   9.64330802
_cell_length_b   9.63859569
_cell_length_c   9.63111702
_cell_angle_alpha   59.97431089
_cell_angle_beta   60.00758577
_cell_angle_gamma   60.01615939
_symmetry_Int_Tables_number   1
_chemical_formula_structural   Dy16TlZn(InRh2)2
_chemical_formula_sum   'Dy16 Tl1 Zn1 In2 Rh4'
_cell_volume   632.98723827
_cell_formula_units_Z   1
loop_
 _symmetry_equiv_pos_site_id
 _symmetry_equiv_pos_as_xyz
  1  'x, y, z'
loop_
 _atom_site_type_symbol
 _atom_site_label
 _atom_site_symmetry_multiplicity
 _atom_site_fract_x
 _atom_site_fract_y
 _atom_site_fract_z
 _atom_site_occupancy
  Dy  Dy0  1  0.689474  0.309307  0.311999  1
  Dy  Dy1  1  0.689474  0.689219  0.311999  1
  Dy  Dy2  1  0.310166  0.689054  0.311726  1
  Dy  Dy3  1  0.936682  0.937020  0.557193  1
  Dy  Dy4  1  0.147726  0.150855  0.550563  1
  Dy  Dy5  1  0.567288  0.938849  0.555012  1
  Dy  Dy6  1  0.149094  0.152186  0.150076  1
  Dy  Dy7  1  0.310579  0.309689  0.690138  1
  Dy  Dy8  1  0.936682  0.569104  0.557193  1
  Dy  Dy9  1  0.563664  0.562722  0.935295  1
  Dy  Dy10  1  0.563664  0.938318  0.935295  1
  Dy  Dy11  1  0.936428  0.565047  0.933478  1
  Dy  Dy12  1  0.149094  0.548642  0.150076  1
  Dy  Dy13  1  0.310579  0.689593  0.690138  1
  Dy  Dy14  1  0.690254  0.309633  0.690480  1
  Dy  Dy15  1  0.551971  0.149946  0.148135  1
  Tl  Tl16  1  0.250072  0.914265  0.921397  1
  Zn  Zn17  1  0.915013  0.915898  0.253192  1
  In  In18  1  0.916588  0.244043  0.922781  1
  In  In19  1  0.916588  0.916587  0.922781  1
  Rh  Rh20  1  0.357261  0.356520  0.358074  1
  Rh  Rh21  1  0.925800  0.357644  0.358914  1
  Rh  Rh22  1  0.358594  0.357708  0.925991  1
  Rh  Rh23  1  0.357261  0.928147  0.358074  1
