# generated using pymatgen
data_Lu4ZnAs5Rh7
_symmetry_space_group_name_H-M   'P 1'
_cell_length_a   7.20853491
_cell_length_b   7.20853543
_cell_length_c   7.20853552
_cell_angle_alpha   109.86559305
_cell_angle_beta   108.68533338
_cell_angle_gamma   109.86559197
_symmetry_Int_Tables_number   1
_chemical_formula_structural   Lu4ZnAs5Rh7
_chemical_formula_sum   'Lu4 Zn1 As5 Rh7'
_cell_volume   288.30884082
_cell_formula_units_Z   1
loop_
 _symmetry_equiv_pos_site_id
 _symmetry_equiv_pos_as_xyz
  1  'x, y, z'
loop_
 _atom_site_type_symbol
 _atom_site_label
 _atom_site_symmetry_multiplicity
 _atom_site_fract_x
 _atom_site_fract_y
 _atom_site_fract_z
 _atom_site_occupancy
  Lu  Lu0  1  0.490556  0.493922  0.490556  1
  Lu  Lu1  1  0.996634  0.506078  0.996634  1
  Lu  Lu2  1  0.490556  0.000000  0.996634  1
  Lu  Lu3  1  0.996634  0.000000  0.490556  1
  Zn  Zn4  1  0.697942  0.000000  0.697942  1
  As  As5  1  0.679956  0.686027  0.993930  1
  As  As6  1  0.307903  0.313973  0.993930  1
  As  As7  1  0.993930  0.686027  0.679956  1
  As  As8  1  0.993930  0.313973  0.307903  1
  As  As9  1  0.333522  0.000000  0.333522  1
  Rh  Rh10  1  0.746874  0.500000  0.246874  1
  Rh  Rh11  1  0.501080  0.251713  0.752793  1
  Rh  Rh12  1  0.752793  0.251713  0.501080  1
  Rh  Rh13  1  0.249367  0.748287  0.501080  1
  Rh  Rh14  1  0.246874  0.500000  0.746874  1
  Rh  Rh15  1  0.501080  0.748287  0.249367  1
  Rh  Rh16  1  0.020368  0.000000  0.020368  1
