# generated using pymatgen
data_Tb3HoReRuC4
_symmetry_space_group_name_H-M   'P 1'
_cell_length_a   5.13119300
_cell_length_b   6.54472400
_cell_length_c   9.85446900
_cell_angle_alpha   90.00000000
_cell_angle_beta   90.00000000
_cell_angle_gamma   90.00000000
_symmetry_Int_Tables_number   1
_chemical_formula_structural   Tb3HoReRuC4
_chemical_formula_sum   'Tb6 Ho2 Re2 Ru2 C8'
_cell_volume   330.93516250
_cell_formula_units_Z   2
loop_
 _symmetry_equiv_pos_site_id
 _symmetry_equiv_pos_as_xyz
  1  'x, y, z'
loop_
 _atom_site_type_symbol
 _atom_site_label
 _atom_site_symmetry_multiplicity
 _atom_site_fract_x
 _atom_site_fract_y
 _atom_site_fract_z
 _atom_site_occupancy
  Tb  Tb0  1  0.250000  0.467231  0.784854  1
  Tb  Tb1  1  0.750000  0.032769  0.284854  1
  Tb  Tb2  1  0.250000  0.970489  0.714106  1
  Tb  Tb3  1  0.750000  0.529511  0.214106  1
  Tb  Tb4  1  0.250000  0.823842  0.054363  1
  Tb  Tb5  1  0.750000  0.676158  0.554363  1
  Ho  Ho6  1  0.250000  0.320298  0.442689  1
  Ho  Ho7  1  0.750000  0.179702  0.942689  1
  Re  Re8  1  0.250000  0.779165  0.364872  1
  Re  Re9  1  0.750000  0.720835  0.864872  1
  Ru  Ru10  1  0.250000  0.278448  0.134561  1
  Ru  Ru11  1  0.750000  0.221552  0.634561  1
  C  C12  1  0.250000  0.176431  0.950429  1
  C  C13  1  0.750000  0.823511  0.050024  1
  C  C14  1  0.250000  0.676489  0.550024  1
  C  C15  1  0.750000  0.323569  0.450429  1
  C  C16  1  0.250000  0.044846  0.260719  1
  C  C17  1  0.750000  0.455154  0.760719  1
  C  C18  1  0.250000  0.545506  0.243383  1
  C  C19  1  0.750000  0.954494  0.743383  1
