# generated using pymatgen
data_BaCe2S5
_symmetry_space_group_name_H-M   'P 1'
_cell_length_a   7.61949500
_cell_length_b   8.55357071
_cell_length_c   11.93320067
_cell_angle_alpha   89.62459714
_cell_angle_beta   90.00000000
_cell_angle_gamma   90.00000000
_symmetry_Int_Tables_number   1
_chemical_formula_structural   BaCe2S5
_chemical_formula_sum   'Ba4 Ce8 S20'
_cell_volume   777.71640582
_cell_formula_units_Z   4
loop_
 _symmetry_equiv_pos_site_id
 _symmetry_equiv_pos_as_xyz
  1  'x, y, z'
loop_
 _atom_site_type_symbol
 _atom_site_label
 _atom_site_symmetry_multiplicity
 _atom_site_fract_x
 _atom_site_fract_y
 _atom_site_fract_z
 _atom_site_occupancy
  Ba  Ba0  1  0.054668  0.490325  0.331754  1
  Ba  Ba1  1  0.554668  0.509675  0.168246  1
  Ba  Ba2  1  0.945332  0.509675  0.668246  1
  Ba  Ba3  1  0.445332  0.490325  0.831754  1
  Ce  Ce4  1  0.021011  0.998736  0.319504  1
  Ce  Ce5  1  0.521011  0.001264  0.180496  1
  Ce  Ce6  1  0.978989  0.001264  0.680496  1
  Ce  Ce7  1  0.478989  0.998736  0.819504  1
  Ce  Ce8  1  0.067564  0.755241  0.008502  1
  Ce  Ce9  1  0.567564  0.244759  0.491498  1
  Ce  Ce10  1  0.932436  0.244759  0.991498  1
  Ce  Ce11  1  0.432436  0.755241  0.508502  1
  S  S12  1  0.661154  0.957423  0.400292  1
  S  S13  1  0.161154  0.042577  0.099708  1
  S  S14  1  0.338846  0.042577  0.599708  1
  S  S15  1  0.838846  0.957423  0.900292  1
  S  S16  1  0.449774  0.794974  0.002324  1
  S  S17  1  0.949774  0.205026  0.497676  1
  S  S18  1  0.550226  0.205026  0.997676  1
  S  S19  1  0.050226  0.794974  0.502324  1
  S  S20  1  0.839609  0.784830  0.188774  1
  S  S21  1  0.339609  0.215170  0.311226  1
  S  S22  1  0.160391  0.215170  0.811226  1
  S  S23  1  0.660391  0.784830  0.688774  1
  S  S24  1  0.311513  0.776663  0.285125  1
  S  S25  1  0.811513  0.223337  0.214875  1
  S  S26  1  0.688487  0.223337  0.714875  1
  S  S27  1  0.188487  0.776663  0.785125  1
  S  S28  1  0.176739  0.464532  0.071375  1
  S  S29  1  0.676739  0.535468  0.428625  1
  S  S30  1  0.823261  0.535468  0.928625  1
  S  S31  1  0.323261  0.464532  0.571375  1
