# generated using pymatgen
data_Cs4Np2Si8O23
_symmetry_space_group_name_H-M   'P 1'
_cell_length_a   7.09601823
_cell_length_b   8.09954795
_cell_length_c   11.69333455
_cell_angle_alpha   103.45224096
_cell_angle_beta   90.19422946
_cell_angle_gamma   105.93728674
_symmetry_Int_Tables_number   1
_chemical_formula_structural   Cs4Np2Si8O23
_chemical_formula_sum   'Cs4 Np2 Si8 O23'
_cell_volume   626.87850015
_cell_formula_units_Z   1
loop_
 _symmetry_equiv_pos_site_id
 _symmetry_equiv_pos_as_xyz
  1  'x, y, z'
loop_
 _atom_site_type_symbol
 _atom_site_label
 _atom_site_symmetry_multiplicity
 _atom_site_fract_x
 _atom_site_fract_y
 _atom_site_fract_z
 _atom_site_occupancy
  Cs  Cs0  1  0.796502  0.217271  0.989611  1
  Cs  Cs1  1  0.172396  0.719135  0.364496  1
  Cs  Cs2  1  0.827604  0.280865  0.635504  1
  Cs  Cs3  1  0.203498  0.782729  0.010389  1
  Np  Np4  1  0.701722  0.751804  0.188005  1
  Np  Np5  1  0.298278  0.248196  0.811995  1
  Si  Si6  1  0.334521  0.326569  0.134624  1
  Si  Si7  1  0.568818  0.148819  0.289146  1
  Si  Si8  1  0.645893  0.697470  0.504902  1
  Si  Si9  1  0.986034  0.808608  0.702896  1
  Si  Si10  1  0.431182  0.851181  0.710854  1
  Si  Si11  1  0.013966  0.191392  0.297104  1
  Si  Si12  1  0.354107  0.302530  0.495098  1
  Si  Si13  1  0.665479  0.673431  0.865376  1
  O  O14  1  0.460639  0.161584  0.413766  1
  O  O15  1  0.517219  0.751792  0.795830  1
  O  O16  1  0.859847  0.597902  0.149819  1
  O  O17  1  0.294965  0.212063  0.999013  1
  O  O18  1  0.874211  0.700793  0.797730  1
  O  O19  1  0.468784  0.060368  0.775305  1
  O  O20  1  0.422125  0.538116  0.149011  1
  O  O21  1  0.680580  0.735647  0.377698  1
  O  O22  1  0.577875  0.461884  0.850989  1
  O  O23  1  0.141218  0.278423  0.425888  1
  O  O24  1  0.531216  0.939632  0.224695  1
  O  O25  1  0.705035  0.787937  0.000987  1
  O  O26  1  0.125789  0.299207  0.202270  1
  O  O27  1  0.194086  0.754408  0.680761  1
  O  O28  1  0.977523  0.980999  0.249857  1
  O  O29  1  0.858782  0.721577  0.574112  1
  O  O30  1  0.500000  0.500000  0.500000  1
  O  O31  1  0.482781  0.248208  0.204170  1
  O  O32  1  0.140153  0.402098  0.850181  1
  O  O33  1  0.022477  0.019001  0.750143  1
  O  O34  1  0.805914  0.245592  0.319239  1
  O  O35  1  0.319420  0.264353  0.622302  1
  O  O36  1  0.539361  0.838416  0.586234  1
