# generated using pymatgen
data_Ac7Dy13Si15Ge
_symmetry_space_group_name_H-M   'P 1'
_cell_length_a   7.77671992
_cell_length_b   8.04507737
_cell_length_c   15.29131500
_cell_angle_alpha   89.79325244
_cell_angle_beta   89.77886087
_cell_angle_gamma   89.72669283
_symmetry_Int_Tables_number   1
_chemical_formula_structural   Ac7Dy13Si15Ge
_chemical_formula_sum   'Ac7 Dy13 Si15 Ge1'
_cell_volume   956.66645038
_cell_formula_units_Z   1
loop_
 _symmetry_equiv_pos_site_id
 _symmetry_equiv_pos_as_xyz
  1  'x, y, z'
loop_
 _atom_site_type_symbol
 _atom_site_label
 _atom_site_symmetry_multiplicity
 _atom_site_fract_x
 _atom_site_fract_y
 _atom_site_fract_z
 _atom_site_occupancy
  Ac  Ac0  1  0.977881  0.828082  0.097303  1
  Ac  Ac1  1  0.474916  0.675916  0.401287  1
  Ac  Ac2  1  0.524440  0.324745  0.901525  1
  Ac  Ac3  1  0.023722  0.175478  0.594217  1
  Ac  Ac4  1  0.024068  0.175725  0.901439  1
  Ac  Ac5  1  0.528262  0.325548  0.597653  1
  Ac  Ac6  1  0.476014  0.674205  0.101749  1
  Dy  Dy7  1  0.644541  0.997759  0.252278  1
  Dy  Dy8  1  0.149595  0.504007  0.252100  1
  Dy  Dy9  1  0.853851  0.497475  0.749191  1
  Dy  Dy10  1  0.354339  0.003579  0.749301  1
  Dy  Dy11  1  0.968847  0.815437  0.394976  1
  Dy  Dy12  1  0.682030  0.823877  0.876198  1
  Dy  Dy13  1  0.181156  0.681423  0.621117  1
  Dy  Dy14  1  0.818073  0.322566  0.127412  1
  Dy  Dy15  1  0.311518  0.169787  0.378856  1
  Dy  Dy16  1  0.313967  0.172775  0.125684  1
  Dy  Dy17  1  0.817322  0.321273  0.374970  1
  Dy  Dy18  1  0.181838  0.676372  0.875865  1
  Dy  Dy19  1  0.686219  0.824925  0.622709  1
  Si  Si20  1  0.263750  0.879761  0.254791  1
  Si  Si21  1  0.729900  0.115819  0.749293  1
  Si  Si22  1  0.227657  0.386962  0.748593  1
  Si  Si23  1  0.019177  0.116621  0.253649  1
  Si  Si24  1  0.514411  0.361734  0.252285  1
  Si  Si25  1  0.477044  0.628004  0.749106  1
  Si  Si26  1  0.977681  0.874478  0.749048  1
  Si  Si27  1  0.860945  0.532962  0.960961  1
  Si  Si28  1  0.369794  0.969783  0.542534  1
  Si  Si29  1  0.637040  0.032307  0.042107  1
  Si  Si30  1  0.133053  0.477334  0.455421  1
  Si  Si31  1  0.138644  0.466412  0.041525  1
  Si  Si32  1  0.649640  0.027478  0.457459  1
  Si  Si33  1  0.361545  0.966026  0.959653  1
  Si  Si34  1  0.861957  0.543446  0.534674  1
  Ge  Ge35  1  0.785161  0.629919  0.253067  1
