# generated using pymatgen
data_Th4Cu3SiRh9
_symmetry_space_group_name_H-M   'P 1'
_cell_length_a   7.24656187
_cell_length_b   7.24656124
_cell_length_c   7.34733300
_cell_angle_alpha   109.75316553
_cell_angle_beta   109.75316374
_cell_angle_gamma   109.18780974
_symmetry_Int_Tables_number   1
_chemical_formula_structural   Th4Cu3SiRh9
_chemical_formula_sum   'Th4 Cu3 Si1 Rh9'
_cell_volume   295.97076104
_cell_formula_units_Z   1
loop_
 _symmetry_equiv_pos_site_id
 _symmetry_equiv_pos_as_xyz
  1  'x, y, z'
loop_
 _atom_site_type_symbol
 _atom_site_label
 _atom_site_symmetry_multiplicity
 _atom_site_fract_x
 _atom_site_fract_y
 _atom_site_fract_z
 _atom_site_occupancy
  Th  Th0  1  0.000000  0.000000  0.500000  1
  Th  Th1  1  0.025981  0.512991  0.012991  1
  Th  Th2  1  0.487009  0.974019  0.987009  1
  Th  Th3  1  0.487009  0.512991  0.500000  1
  Cu  Cu4  1  0.746755  0.253245  0.500000  1
  Cu  Cu5  1  0.746755  0.493511  0.246755  1
  Cu  Cu6  1  0.506489  0.253245  0.753245  1
  Si  Si7  1  0.000000  0.000000  0.000000  1
  Rh  Rh8  1  0.242218  0.484437  0.742218  1
  Rh  Rh9  1  0.242218  0.757782  0.500000  1
  Rh  Rh10  1  0.515563  0.757782  0.257782  1
  Rh  Rh11  1  0.731096  0.707345  0.998381  1
  Rh  Rh12  1  0.292655  0.023752  0.291036  1
  Rh  Rh13  1  0.976248  0.268904  0.267284  1
  Rh  Rh14  1  0.292655  0.268904  0.001619  1
  Rh  Rh15  1  0.731096  0.023752  0.732716  1
  Rh  Rh16  1  0.976248  0.707345  0.708964  1
