# generated using pymatgen
data_HfZr3Al7Zn
_symmetry_space_group_name_H-M   'P 1'
_cell_length_a   5.29175102
_cell_length_b   5.27127680
_cell_length_c   8.72389013
_cell_angle_alpha   89.98269454
_cell_angle_beta   90.00086566
_cell_angle_gamma   120.11795375
_symmetry_Int_Tables_number   1
_chemical_formula_structural   HfZr3Al7Zn
_chemical_formula_sum   'Hf1 Zr3 Al7 Zn1'
_cell_volume   210.49345473
_cell_formula_units_Z   1
loop_
 _symmetry_equiv_pos_site_id
 _symmetry_equiv_pos_as_xyz
  1  'x, y, z'
loop_
 _atom_site_type_symbol
 _atom_site_label
 _atom_site_symmetry_multiplicity
 _atom_site_fract_x
 _atom_site_fract_y
 _atom_site_fract_z
 _atom_site_occupancy
  Hf  Hf0  1  0.334630  0.669557  0.066471  1
  Zr  Zr1  1  0.334700  0.669554  0.433110  1
  Zr  Zr2  1  0.666561  0.332640  0.936198  1
  Zr  Zr3  1  0.666411  0.332582  0.564265  1
  Al  Al4  1  0.829686  0.171655  0.249677  1
  Al  Al5  1  0.341970  0.171647  0.249702  1
  Al  Al6  1  0.652772  0.821632  0.750246  1
  Al  Al7  1  0.002663  0.005425  0.996283  1
  Al  Al8  1  0.002688  0.005410  0.503899  1
  Al  Al9  1  0.829793  0.659729  0.249702  1
  Al  Al10  1  0.168784  0.821559  0.750248  1
  Zn  Zn11  1  0.169343  0.338611  0.750199  1
