# generated using pymatgen
data_Ta12Al3Ga(AuN)4
_symmetry_space_group_name_H-M   'P 1'
_cell_length_a   7.08319160
_cell_length_b   7.08319222
_cell_length_c   7.08319200
_cell_angle_alpha   90.09077220
_cell_angle_beta   89.90922549
_cell_angle_gamma   89.90922717
_symmetry_Int_Tables_number   1
_chemical_formula_structural   Ta12Al3Ga(AuN)4
_chemical_formula_sum   'Ta12 Al3 Ga1 Au4 N4'
_cell_volume   355.37379096
_cell_formula_units_Z   1
loop_
 _symmetry_equiv_pos_site_id
 _symmetry_equiv_pos_as_xyz
  1  'x, y, z'
loop_
 _atom_site_type_symbol
 _atom_site_label
 _atom_site_symmetry_multiplicity
 _atom_site_fract_x
 _atom_site_fract_y
 _atom_site_fract_z
 _atom_site_occupancy
  Ta  Ta0  1  0.785497  0.955861  0.376297  1
  Ta  Ta1  1  0.713648  0.044356  0.876769  1
  Ta  Ta2  1  0.214034  0.455820  0.124297  1
  Ta  Ta3  1  0.286128  0.544002  0.623098  1
  Ta  Ta4  1  0.955644  0.376769  0.786352  1
  Ta  Ta5  1  0.044139  0.876297  0.714503  1
  Ta  Ta6  1  0.455998  0.123098  0.213872  1
  Ta  Ta7  1  0.544180  0.624297  0.285966  1
  Ta  Ta8  1  0.375703  0.785966  0.955820  1
  Ta  Ta9  1  0.876902  0.713872  0.044002  1
  Ta  Ta10  1  0.123703  0.214503  0.455861  1
  Ta  Ta11  1  0.623231  0.286352  0.544356  1
  Al  Al12  1  0.427812  0.927871  0.571655  1
  Al  Al13  1  0.928345  0.572188  0.427871  1
  Al  Al14  1  0.072129  0.071655  0.072188  1
  Ga  Ga15  1  0.571010  0.428990  0.928990  1
  Au  Au16  1  0.179221  0.820779  0.320779  1
  Au  Au17  1  0.318245  0.177181  0.819641  1
  Au  Au18  1  0.822819  0.319641  0.181755  1
  Au  Au19  1  0.680359  0.681755  0.677181  1
  N  N20  1  0.876767  0.123233  0.623233  1
  N  N21  1  0.622948  0.876345  0.122113  1
  N  N22  1  0.123655  0.622113  0.877052  1
  N  N23  1  0.377887  0.377052  0.376345  1
