# generated using pymatgen
data_Yb4AgH12Rh
_symmetry_space_group_name_H-M   'P 1'
_cell_length_a   7.13933417
_cell_length_b   7.13933276
_cell_length_c   5.18931700
_cell_angle_alpha   90.01232697
_cell_angle_beta   90.01232696
_cell_angle_gamma   137.42514771
_symmetry_Int_Tables_number   1
_chemical_formula_structural   Yb4AgH12Rh
_chemical_formula_sum   'Yb4 Ag1 H12 Rh1'
_cell_volume   178.94813255
_cell_formula_units_Z   1
loop_
 _symmetry_equiv_pos_site_id
 _symmetry_equiv_pos_as_xyz
  1  'x, y, z'
loop_
 _atom_site_type_symbol
 _atom_site_label
 _atom_site_symmetry_multiplicity
 _atom_site_fract_x
 _atom_site_fract_y
 _atom_site_fract_z
 _atom_site_occupancy
  Yb  Yb0  1  0.151999  0.848001  0.500000  1
  Yb  Yb1  1  0.652867  0.347133  0.000000  1
  Yb  Yb2  1  0.848001  0.151999  0.500000  1
  Yb  Yb3  1  0.347133  0.652867  0.000000  1
  Ag  Ag4  1  0.000000  0.000000  0.000000  1
  H  H5  1  0.999951  0.500034  0.749592  1
  H  H6  1  0.499966  0.000049  0.250408  1
  H  H7  1  0.000049  0.499966  0.250408  1
  H  H8  1  0.500034  0.999951  0.749592  1
  H  H9  1  0.373661  0.626339  0.500000  1
  H  H10  1  0.865540  0.134460  0.000000  1
  H  H11  1  0.626339  0.373661  0.500000  1
  H  H12  1  0.134460  0.865540  0.000000  1
  H  H13  1  0.271662  0.271662  0.728447  1
  H  H14  1  0.728338  0.728338  0.271553  1
  H  H15  1  0.271424  0.271424  0.271613  1
  H  H16  1  0.728576  0.728576  0.728387  1
  Rh  Rh17  1  0.500000  0.500000  0.500000  1
