# generated using pymatgen
data_Ho2TmCd3Sn2Au
_symmetry_space_group_name_H-M   'P 1'
_cell_length_a   7.44726400
_cell_length_b   7.44229583
_cell_length_c   4.52234900
_cell_angle_alpha   90.00000000
_cell_angle_beta   90.00000000
_cell_angle_gamma   120.02207625
_symmetry_Int_Tables_number   1
_chemical_formula_structural   Ho2TmCd3Sn2Au
_chemical_formula_sum   'Ho2 Tm1 Cd3 Sn2 Au1'
_cell_volume   217.02098539
_cell_formula_units_Z   1
loop_
 _symmetry_equiv_pos_site_id
 _symmetry_equiv_pos_as_xyz
  1  'x, y, z'
loop_
 _atom_site_type_symbol
 _atom_site_label
 _atom_site_symmetry_multiplicity
 _atom_site_fract_x
 _atom_site_fract_y
 _atom_site_fract_z
 _atom_site_occupancy
  Ho  Ho0  1  0.000046  0.593808  0.000000  1
  Ho  Ho1  1  0.406238  0.406192  0.000000  1
  Tm  Tm2  1  0.594127  0.000000  0.000000  1
  Cd  Cd3  1  0.240449  0.000000  0.500000  1
  Cd  Cd4  1  0.999890  0.240293  0.500000  1
  Cd  Cd5  1  0.759597  0.759707  0.500000  1
  Sn  Sn6  1  0.333648  0.667134  0.500000  1
  Sn  Sn7  1  0.666515  0.332866  0.500000  1
  Au  Au8  1  0.999491  0.000000  0.000000  1
