# generated using pymatgen
data_NdInSn5Rh4
_symmetry_space_group_name_H-M   'P 1'
_cell_length_a   6.95452700
_cell_length_b   7.03617171
_cell_length_c   6.96819644
_cell_angle_alpha   119.98328099
_cell_angle_beta   119.59253425
_cell_angle_gamma   90.58906042
_symmetry_Int_Tables_number   1
_chemical_formula_structural   NdInSn5Rh4
_chemical_formula_sum   'Nd1 In1 Sn5 Rh4'
_cell_volume   241.39735040
_cell_formula_units_Z   1
loop_
 _symmetry_equiv_pos_site_id
 _symmetry_equiv_pos_as_xyz
  1  'x, y, z'
loop_
 _atom_site_type_symbol
 _atom_site_label
 _atom_site_symmetry_multiplicity
 _atom_site_fract_x
 _atom_site_fract_y
 _atom_site_fract_z
 _atom_site_occupancy
  Nd  Nd0  1  0.000137  0.000220  0.000000  1
  In  In1  1  0.467864  0.123704  0.000000  1
  Sn  Sn2  1  0.129614  0.465245  0.000000  1
  Sn  Sn3  1  0.871790  0.872174  0.338921  1
  Sn  Sn4  1  0.500475  0.002226  0.501786  1
  Sn  Sn5  1  0.998689  0.500440  0.498214  1
  Sn  Sn6  1  0.532870  0.533253  0.661080  1
  Rh  Rh7  1  0.760583  0.400972  0.000000  1
  Rh  Rh8  1  0.395578  0.753085  0.000000  1
  Rh  Rh9  1  0.604017  0.607158  0.365634  1
  Rh  Rh10  1  0.238384  0.241525  0.634367  1
