# generated using pymatgen
data_K2Cu3SnF12
_symmetry_space_group_name_H-M   'P 1'
_cell_length_a   6.86393900
_cell_length_b   8.06673018
_cell_length_c   10.60693010
_cell_angle_alpha   100.63857900
_cell_angle_beta   90.00000000
_cell_angle_gamma   90.00000000
_symmetry_Int_Tables_number   1
_chemical_formula_structural   K2Cu3SnF12
_chemical_formula_sum   'K4 Cu6 Sn2 F24'
_cell_volume   577.20592331
_cell_formula_units_Z   2
loop_
 _symmetry_equiv_pos_site_id
 _symmetry_equiv_pos_as_xyz
  1  'x, y, z'
loop_
 _atom_site_type_symbol
 _atom_site_label
 _atom_site_symmetry_multiplicity
 _atom_site_fract_x
 _atom_site_fract_y
 _atom_site_fract_z
 _atom_site_occupancy
  K  K0  1  0.492700  0.703416  0.405413  1
  K  K1  1  0.007300  0.203416  0.905413  1
  K  K2  1  0.507300  0.296584  0.594587  1
  K  K3  1  0.992700  0.796584  0.094587  1
  Cu  Cu4  1  0.500000  0.000000  0.000000  1
  Cu  Cu5  1  0.000000  0.500000  0.500000  1
  Cu  Cu6  1  0.211650  0.740453  0.763685  1
  Cu  Cu7  1  0.288350  0.240453  0.263685  1
  Cu  Cu8  1  0.788350  0.259547  0.236315  1
  Cu  Cu9  1  0.711650  0.759547  0.736315  1
  Sn  Sn10  1  0.500000  0.500000  0.000000  1
  Sn  Sn11  1  0.000000  0.000000  0.500000  1
  F  F12  1  0.265412  0.923166  0.904821  1
  F  F13  1  0.234588  0.423166  0.404821  1
  F  F14  1  0.734588  0.076834  0.095179  1
  F  F15  1  0.765412  0.576834  0.595179  1
  F  F16  1  0.836887  0.470772  0.349318  1
  F  F17  1  0.663113  0.970772  0.849318  1
  F  F18  1  0.163113  0.529228  0.650682  1
  F  F19  1  0.336887  0.029228  0.150682  1
  F  F20  1  0.448380  0.755008  0.671638  1
  F  F21  1  0.051620  0.255008  0.171638  1
  F  F22  1  0.551620  0.244992  0.328362  1
  F  F23  1  0.948380  0.744992  0.828362  1
  F  F24  1  0.738671  0.920365  0.549614  1
  F  F25  1  0.761329  0.420365  0.049614  1
  F  F26  1  0.261330  0.079635  0.450386  1
  F  F27  1  0.238670  0.579635  0.950386  1
  F  F28  1  0.404599  0.505690  0.178873  1
  F  F29  1  0.095401  0.005690  0.678873  1
  F  F30  1  0.595401  0.494310  0.821127  1
  F  F31  1  0.904599  0.994310  0.321127  1
  F  F32  1  0.400922  0.262525  0.949333  1
  F  F33  1  0.099078  0.762525  0.449333  1
  F  F34  1  0.599078  0.737475  0.050667  1
  F  F35  1  0.900922  0.237475  0.550667  1
