# generated using pymatgen
data_Pu3Th4ZrN12
_symmetry_space_group_name_H-M   'P 1'
_cell_length_a   5.84702495
_cell_length_b   5.98817668
_cell_length_c   8.43622828
_cell_angle_alpha   89.94040620
_cell_angle_beta   90.15885544
_cell_angle_gamma   89.38914529
_symmetry_Int_Tables_number   1
_chemical_formula_structural   Pu3Th4ZrN12
_chemical_formula_sum   'Pu3 Th4 Zr1 N12'
_cell_volume   295.35972500
_cell_formula_units_Z   1
loop_
 _symmetry_equiv_pos_site_id
 _symmetry_equiv_pos_as_xyz
  1  'x, y, z'
loop_
 _atom_site_type_symbol
 _atom_site_label
 _atom_site_symmetry_multiplicity
 _atom_site_fract_x
 _atom_site_fract_y
 _atom_site_fract_z
 _atom_site_occupancy
  Pu  Pu0  1  0.500000  0.000000  0.500000  1
  Pu  Pu1  1  0.000000  0.500000  0.500000  1
  Pu  Pu2  1  0.500000  0.000000  0.000000  1
  Th  Th3  1  0.506872  0.547097  0.242461  1
  Th  Th4  1  0.988002  0.055975  0.245372  1
  Th  Th5  1  0.493128  0.452903  0.757539  1
  Th  Th6  1  0.011998  0.944025  0.754628  1
  Zr  Zr7  1  0.000000  0.500000  0.000000  1
  N  N8  1  0.377768  0.954373  0.250687  1
  N  N9  1  0.118213  0.453402  0.249156  1
  N  N10  1  0.622232  0.045627  0.749313  1
  N  N11  1  0.881787  0.546598  0.750844  1
  N  N12  1  0.793027  0.812077  0.057263  1
  N  N13  1  0.713711  0.312815  0.434181  1
  N  N14  1  0.213309  0.184610  0.561799  1
  N  N15  1  0.302081  0.697544  0.939013  1
  N  N16  1  0.206973  0.187923  0.942737  1
  N  N17  1  0.286289  0.687185  0.565819  1
  N  N18  1  0.786691  0.815390  0.438201  1
  N  N19  1  0.697919  0.302456  0.060987  1
