# generated using pymatgen
data_Li2BeGeO4
_symmetry_space_group_name_H-M   'P 1'
_cell_length_a   5.11191700
_cell_length_b   4.83916288
_cell_length_c   7.87887117
_cell_angle_alpha   52.32420561
_cell_angle_beta   90.00000000
_cell_angle_gamma   90.00000000
_symmetry_Int_Tables_number   1
_chemical_formula_structural   Li2BeGeO4
_chemical_formula_sum   'Li4 Be2 Ge2 O8'
_cell_volume   154.26200529
_cell_formula_units_Z   2
loop_
 _symmetry_equiv_pos_site_id
 _symmetry_equiv_pos_as_xyz
  1  'x, y, z'
loop_
 _atom_site_type_symbol
 _atom_site_label
 _atom_site_symmetry_multiplicity
 _atom_site_fract_x
 _atom_site_fract_y
 _atom_site_fract_z
 _atom_site_occupancy
  Li  Li0  1  0.178912  0.499091  0.500276  1
  Li  Li1  1  0.821088  0.499091  0.000276  1
  Li  Li2  1  0.340543  0.249052  0.251878  1
  Li  Li3  1  0.659457  0.249052  0.751878  1
  Be  Be4  1  0.322136  0.739540  0.751872  1
  Be  Be5  1  0.677864  0.739540  0.251872  1
  Ge  Ge6  1  0.177091  0.988926  0.003397  1
  Ge  Ge7  1  0.822909  0.988926  0.503397  1
  O  O8  1  0.194473  0.652455  0.973253  1
  O  O9  1  0.693655  0.380261  0.270087  1
  O  O10  1  0.842937  0.057173  0.032479  1
  O  O11  1  0.805527  0.652455  0.473253  1
  O  O12  1  0.157063  0.057173  0.532479  1
  O  O13  1  0.365985  0.858504  0.231759  1
  O  O14  1  0.634015  0.858504  0.731759  1
  O  O15  1  0.306345  0.380261  0.770087  1
