# generated using pymatgen
data_CsAc3CBr6
_symmetry_space_group_name_H-M   'P 1'
_cell_length_a   9.46765094
_cell_length_b   9.43213946
_cell_length_c   10.21722603
_cell_angle_alpha   67.78997765
_cell_angle_beta   86.73029867
_cell_angle_gamma   88.89163377
_symmetry_Int_Tables_number   1
_chemical_formula_structural   CsAc3CBr6
_chemical_formula_sum   'Cs2 Ac6 C2 Br12'
_cell_volume   843.32684258
_cell_formula_units_Z   2
loop_
 _symmetry_equiv_pos_site_id
 _symmetry_equiv_pos_as_xyz
  1  'x, y, z'
loop_
 _atom_site_type_symbol
 _atom_site_label
 _atom_site_symmetry_multiplicity
 _atom_site_fract_x
 _atom_site_fract_y
 _atom_site_fract_z
 _atom_site_occupancy
  Cs  Cs0  1  0.479268  0.345544  0.333799  1
  Cs  Cs1  1  0.520733  0.654456  0.666201  1
  Ac  Ac2  1  0.916113  0.726309  0.007120  1
  Ac  Ac3  1  0.083887  0.273691  0.992879  1
  Ac  Ac4  1  0.728057  0.085437  0.002363  1
  Ac  Ac5  1  0.271942  0.914563  0.997638  1
  Ac  Ac6  1  0.985731  0.866137  0.334123  1
  Ac  Ac7  1  0.014268  0.133863  0.665878  1
  C  C8  1  0.002822  0.029922  0.924603  1
  C  C9  1  0.997177  0.970078  0.075397  1
  Br  Br10  1  0.089480  0.188201  0.324645  1
  Br  Br11  1  0.910520  0.811799  0.675355  1
  Br  Br12  1  0.218724  0.588511  0.003569  1
  Br  Br13  1  0.781277  0.411489  0.996431  1
  Br  Br14  1  0.405630  0.212601  0.006697  1
  Br  Br15  1  0.594369  0.787400  0.993302  1
  Br  Br16  1  0.675074  0.991327  0.331914  1
  Br  Br17  1  0.324926  0.008673  0.668086  1
  Br  Br18  1  0.298630  0.755829  0.325737  1
  Br  Br19  1  0.701370  0.244171  0.674263  1
  Br  Br20  1  0.846570  0.571594  0.333010  1
  Br  Br21  1  0.153429  0.428406  0.666990  1
