# generated using pymatgen
data_Ac(InAu)3
_symmetry_space_group_name_H-M   'P 1'
_cell_length_a   4.72250600
_cell_length_b   7.80162900
_cell_length_c   9.25845100
_cell_angle_alpha   90.00000000
_cell_angle_beta   90.00000000
_cell_angle_gamma   90.00000000
_symmetry_Int_Tables_number   1
_chemical_formula_structural   Ac(InAu)3
_chemical_formula_sum   'Ac2 In6 Au6'
_cell_volume   341.11133002
_cell_formula_units_Z   2
loop_
 _symmetry_equiv_pos_site_id
 _symmetry_equiv_pos_as_xyz
  1  'x, y, z'
loop_
 _atom_site_type_symbol
 _atom_site_label
 _atom_site_symmetry_multiplicity
 _atom_site_fract_x
 _atom_site_fract_y
 _atom_site_fract_z
 _atom_site_occupancy
  Ac  Ac0  1  0.000000  0.500000  0.274865  1
  Ac  Ac1  1  0.500000  0.000000  0.725135  1
  In  In2  1  0.500000  0.500000  0.635286  1
  In  In3  1  0.000000  0.303008  0.885585  1
  In  In4  1  0.000000  0.696992  0.885585  1
  In  In5  1  0.500000  0.803008  0.114415  1
  In  In6  1  0.000000  0.000000  0.364714  1
  In  In7  1  0.500000  0.196992  0.114415  1
  Au  Au8  1  0.000000  0.736285  0.590240  1
  Au  Au9  1  0.500000  0.500000  0.948336  1
  Au  Au10  1  0.000000  0.263715  0.590240  1
  Au  Au11  1  0.500000  0.763715  0.409760  1
  Au  Au12  1  0.000000  0.000000  0.051664  1
  Au  Au13  1  0.500000  0.236285  0.409760  1
