# generated using pymatgen
data_K2As2IrRu
_symmetry_space_group_name_H-M   'P 1'
_cell_length_a   4.14010800
_cell_length_b   4.14010800
_cell_length_c   10.50626800
_cell_angle_alpha   90.00000000
_cell_angle_beta   90.00000000
_cell_angle_gamma   90.00000000
_symmetry_Int_Tables_number   1
_chemical_formula_structural   K2As2IrRu
_chemical_formula_sum   'K2 As2 Ir1 Ru1'
_cell_volume   180.08262626
_cell_formula_units_Z   1
loop_
 _symmetry_equiv_pos_site_id
 _symmetry_equiv_pos_as_xyz
  1  'x, y, z'
loop_
 _atom_site_type_symbol
 _atom_site_label
 _atom_site_symmetry_multiplicity
 _atom_site_fract_x
 _atom_site_fract_y
 _atom_site_fract_z
 _atom_site_occupancy
  K  K0  1  0.000000  0.500000  0.287847  1
  K  K1  1  0.500000  0.000000  0.712153  1
  As  As2  1  0.500000  0.000000  0.126701  1
  As  As3  1  0.000000  0.500000  0.873299  1
  Ir  Ir4  1  0.500000  0.500000  0.000000  1
  Ru  Ru5  1  0.000000  0.000000  0.000000  1
