# generated using pymatgen
data_Ho7Er3Tl5In3Pd4
_symmetry_space_group_name_H-M   'P 1'
_cell_length_a   3.62798700
_cell_length_b   8.17752601
_cell_length_c   18.26188895
_cell_angle_alpha   89.95202332
_cell_angle_beta   90.00000000
_cell_angle_gamma   90.00000000
_symmetry_Int_Tables_number   1
_chemical_formula_structural   Ho7Er3Tl5In3Pd4
_chemical_formula_sum   'Ho7 Er3 Tl5 In3 Pd4'
_cell_volume   541.79276525
_cell_formula_units_Z   1
loop_
 _symmetry_equiv_pos_site_id
 _symmetry_equiv_pos_as_xyz
  1  'x, y, z'
loop_
 _atom_site_type_symbol
 _atom_site_label
 _atom_site_symmetry_multiplicity
 _atom_site_fract_x
 _atom_site_fract_y
 _atom_site_fract_z
 _atom_site_occupancy
  Ho  Ho0  1  0.000000  0.499000  0.499047  1
  Ho  Ho1  1  0.000000  0.999792  0.000036  1
  Ho  Ho2  1  0.000000  0.740714  0.282444  1
  Ho  Ho3  1  0.000000  0.259853  0.717617  1
  Ho  Ho4  1  0.000000  0.759053  0.782548  1
  Ho  Ho5  1  0.000000  0.240971  0.217949  1
  Ho  Ho6  1  0.000000  0.616549  0.085507  1
  Er  Er7  1  0.000000  0.383500  0.914714  1
  Er  Er8  1  0.000000  0.884479  0.585989  1
  Er  Er9  1  0.000000  0.115995  0.414044  1
  Tl  Tl10  1  0.500000  0.707817  0.934311  1
  Tl  Tl11  1  0.500000  0.292137  0.065666  1
  Tl  Tl12  1  0.500000  0.793004  0.434757  1
  Tl  Tl13  1  0.500000  0.204649  0.564126  1
  Tl  Tl14  1  0.500000  0.584540  0.649425  1
  In  In15  1  0.500000  0.415355  0.349441  1
  In  In16  1  0.500000  0.915689  0.150946  1
  In  In17  1  0.500000  0.085051  0.849281  1
  Pd  Pd18  1  0.500000  0.529177  0.197862  1
  Pd  Pd19  1  0.500000  0.469758  0.803709  1
  Pd  Pd20  1  0.500000  0.974430  0.697994  1
  Pd  Pd21  1  0.500000  0.028489  0.302589  1
