# generated using pymatgen
data_HoLu3Ga7Ag5
_symmetry_space_group_name_H-M   'P 1'
_cell_length_a   4.28041500
_cell_length_b   6.96395096
_cell_length_c   10.30862704
_cell_angle_alpha   89.95222926
_cell_angle_beta   90.00000000
_cell_angle_gamma   90.00000000
_symmetry_Int_Tables_number   1
_chemical_formula_structural   HoLu3Ga7Ag5
_chemical_formula_sum   'Ho1 Lu3 Ga7 Ag5'
_cell_volume   307.28563474
_cell_formula_units_Z   1
loop_
 _symmetry_equiv_pos_site_id
 _symmetry_equiv_pos_as_xyz
  1  'x, y, z'
loop_
 _atom_site_type_symbol
 _atom_site_label
 _atom_site_symmetry_multiplicity
 _atom_site_fract_x
 _atom_site_fract_y
 _atom_site_fract_z
 _atom_site_occupancy
  Ho  Ho0  1  0.000000  0.222168  0.826124  1
  Lu  Lu1  1  0.500000  0.776352  0.176477  1
  Lu  Lu2  1  0.500000  0.269132  0.323801  1
  Lu  Lu3  1  0.000000  0.731133  0.672967  1
  Ga  Ga4  1  0.500000  0.928698  0.844428  1
  Ga  Ga5  1  0.500000  0.433017  0.659245  1
  Ga  Ga6  1  0.000000  0.070121  0.153742  1
  Ga  Ga7  1  0.000000  0.567450  0.342225  1
  Ga  Ga8  1  0.500000  0.198923  0.034175  1
  Ga  Ga9  1  0.000000  0.304463  0.533133  1
  Ga  Ga10  1  0.000000  0.797014  0.965473  1
  Ag  Ag11  1  0.500000  0.546548  0.906219  1
  Ag  Ag12  1  0.500000  0.051499  0.598548  1
  Ag  Ag13  1  0.000000  0.453056  0.096364  1
  Ag  Ag14  1  0.000000  0.957667  0.401734  1
  Ag  Ag15  1  0.500000  0.692760  0.465345  1
