# generated using pymatgen
data_Y2Co9Tc3As6P
_symmetry_space_group_name_H-M   'P 1'
_cell_length_a   3.79920800
_cell_length_b   9.30688489
_cell_length_c   9.30688600
_cell_angle_alpha   120.00000300
_cell_angle_beta   90.00000000
_cell_angle_gamma   90.00000000
_symmetry_Int_Tables_number   1
_chemical_formula_structural   Y2Co9Tc3As6P
_chemical_formula_sum   'Y2 Co9 Tc3 As6 P1'
_cell_volume   284.99184068
_cell_formula_units_Z   1
loop_
 _symmetry_equiv_pos_site_id
 _symmetry_equiv_pos_as_xyz
  1  'x, y, z'
loop_
 _atom_site_type_symbol
 _atom_site_label
 _atom_site_symmetry_multiplicity
 _atom_site_fract_x
 _atom_site_fract_y
 _atom_site_fract_z
 _atom_site_occupancy
  Y  Y0  1  0.000000  0.666667  0.333333  1
  Y  Y1  1  0.500000  0.333333  0.666667  1
  Co  Co2  1  0.000000  0.570811  0.941847  1
  Co  Co3  1  0.000000  0.371037  0.429189  1
  Co  Co4  1  0.000000  0.058153  0.628963  1
  Co  Co5  1  0.000000  0.880263  0.151148  1
  Co  Co6  1  0.000000  0.270884  0.119737  1
  Co  Co7  1  0.000000  0.848852  0.729116  1
  Co  Co8  1  0.500000  0.946681  0.379027  1
  Co  Co9  1  0.500000  0.432345  0.053319  1
  Co  Co10  1  0.500000  0.620973  0.567655  1
  Tc  Tc11  1  0.500000  0.791422  0.904458  1
  Tc  Tc12  1  0.500000  0.113036  0.208578  1
  Tc  Tc13  1  0.500000  0.095542  0.886964  1
  As  As14  1  0.500000  0.706970  0.116010  1
  As  As15  1  0.500000  0.409041  0.293030  1
  As  As16  1  0.500000  0.883990  0.590959  1
  As  As17  1  0.000000  0.588624  0.702076  1
  As  As18  1  0.000000  0.113452  0.411376  1
  As  As19  1  0.000000  0.297924  0.886548  1
  P  P20  1  0.000000  0.000000  0.000000  1
