# generated using pymatgen
data_Tb4Nd2Ir17Rh
_symmetry_space_group_name_H-M   'P 1'
_cell_length_a   5.34894800
_cell_length_b   5.34894863
_cell_length_c   17.49889400
_cell_angle_alpha   90.00000000
_cell_angle_beta   90.00000000
_cell_angle_gamma   120.00000848
_symmetry_Int_Tables_number   1
_chemical_formula_structural   Tb4Nd2Ir17Rh
_chemical_formula_sum   'Tb4 Nd2 Ir17 Rh1'
_cell_volume   433.58874248
_cell_formula_units_Z   1
loop_
 _symmetry_equiv_pos_site_id
 _symmetry_equiv_pos_as_xyz
  1  'x, y, z'
loop_
 _atom_site_type_symbol
 _atom_site_label
 _atom_site_symmetry_multiplicity
 _atom_site_fract_x
 _atom_site_fract_y
 _atom_site_fract_z
 _atom_site_occupancy
  Tb  Tb0  1  0.333333  0.666667  0.539786  1
  Tb  Tb1  1  0.666667  0.333333  0.041229  1
  Tb  Tb2  1  0.666667  0.333333  0.458771  1
  Tb  Tb3  1  0.333333  0.666667  0.960214  1
  Nd  Nd4  1  0.333333  0.666667  0.750000  1
  Nd  Nd5  1  0.666667  0.333333  0.250000  1
  Ir  Ir6  1  0.167077  0.334153  0.126514  1
  Ir  Ir7  1  0.832445  0.664891  0.625483  1
  Ir  Ir8  1  0.665847  0.832923  0.126514  1
  Ir  Ir9  1  0.167077  0.832923  0.126514  1
  Ir  Ir10  1  0.832445  0.167555  0.625483  1
  Ir  Ir11  1  0.335109  0.167555  0.625483  1
  Ir  Ir12  1  0.832445  0.664891  0.874517  1
  Ir  Ir13  1  0.832445  0.167555  0.874517  1
  Ir  Ir14  1  0.335109  0.167555  0.874517  1
  Ir  Ir15  1  0.665847  0.832923  0.373486  1
  Ir  Ir16  1  0.167077  0.832923  0.373486  1
  Ir  Ir17  1  0.167077  0.334153  0.373486  1
  Ir  Ir18  1  0.000000  0.000000  0.250000  1
  Ir  Ir19  1  0.000000  0.000000  0.750000  1
  Ir  Ir20  1  0.333333  0.666667  0.250000  1
  Ir  Ir21  1  0.000000  0.000000  0.000176  1
  Ir  Ir22  1  0.000000  0.000000  0.499824  1
  Rh  Rh23  1  0.666667  0.333333  0.750000  1
