# generated using pymatgen
data_Ho3Mg3TlAgRu
_symmetry_space_group_name_H-M   'P 1'
_cell_length_a   7.98658700
_cell_length_b   7.98658568
_cell_length_c   3.82930900
_cell_angle_alpha   90.00000000
_cell_angle_beta   90.00000000
_cell_angle_gamma   120.00000131
_symmetry_Int_Tables_number   1
_chemical_formula_structural   Ho3Mg3TlAgRu
_chemical_formula_sum   'Ho3 Mg3 Tl1 Ag1 Ru1'
_cell_volume   211.53070685
_cell_formula_units_Z   1
loop_
 _symmetry_equiv_pos_site_id
 _symmetry_equiv_pos_as_xyz
  1  'x, y, z'
loop_
 _atom_site_type_symbol
 _atom_site_label
 _atom_site_symmetry_multiplicity
 _atom_site_fract_x
 _atom_site_fract_y
 _atom_site_fract_z
 _atom_site_occupancy
  Ho  Ho0  1  0.564352  0.955414  0.000000  1
  Ho  Ho1  1  0.044586  0.608938  0.000000  1
  Ho  Ho2  1  0.391062  0.435648  0.000000  1
  Mg  Mg3  1  0.252677  0.998929  0.500000  1
  Mg  Mg4  1  0.001071  0.253748  0.500000  1
  Mg  Mg5  1  0.746252  0.747323  0.500000  1
  Tl  Tl6  1  0.666667  0.333333  0.500000  1
  Ag  Ag7  1  0.000000  0.000000  0.000000  1
  Ru  Ru8  1  0.333333  0.666667  0.500000  1
