# generated using pymatgen
data_LuZr2RhF15
_symmetry_space_group_name_H-M   'P 1'
_cell_length_a   8.05039214
_cell_length_b   8.05039218
_cell_length_c   8.09831502
_cell_angle_alpha   79.76688983
_cell_angle_beta   79.76688967
_cell_angle_gamma   99.74827469
_symmetry_Int_Tables_number   1
_chemical_formula_structural   LuZr2RhF15
_chemical_formula_sum   'Lu2 Zr4 Rh2 F30'
_cell_volume   497.22297524
_cell_formula_units_Z   2
loop_
 _symmetry_equiv_pos_site_id
 _symmetry_equiv_pos_as_xyz
  1  'x, y, z'
loop_
 _atom_site_type_symbol
 _atom_site_label
 _atom_site_symmetry_multiplicity
 _atom_site_fract_x
 _atom_site_fract_y
 _atom_site_fract_z
 _atom_site_occupancy
  Lu  Lu0  1  0.676169  0.323831  0.750000  1
  Lu  Lu1  1  0.323831  0.676169  0.250000  1
  Zr  Zr2  1  0.822572  0.749792  0.325877  1
  Zr  Zr3  1  0.250208  0.177428  0.174123  1
  Zr  Zr4  1  0.177428  0.250208  0.674123  1
  Zr  Zr5  1  0.749792  0.822572  0.825877  1
  Rh  Rh6  1  0.249480  0.750520  0.750000  1
  Rh  Rh7  1  0.750520  0.249480  0.250000  1
  F  F8  1  0.149608  0.185816  0.946445  1
  F  F9  1  0.687584  0.560067  0.847456  1
  F  F10  1  0.045963  0.654656  0.312898  1
  F  F11  1  0.654656  0.045963  0.812898  1
  F  F12  1  0.560067  0.687584  0.347456  1
  F  F13  1  0.185816  0.149608  0.446445  1
  F  F14  1  0.850392  0.814184  0.053555  1
  F  F15  1  0.312416  0.439933  0.152544  1
  F  F16  1  0.954037  0.345344  0.687102  1
  F  F17  1  0.345344  0.954037  0.187102  1
  F  F18  1  0.439933  0.312416  0.652544  1
  F  F19  1  0.814184  0.850392  0.553555  1
  F  F20  1  0.968388  0.031612  0.750000  1
  F  F21  1  0.540323  0.752595  0.029760  1
  F  F22  1  0.247405  0.459677  0.470240  1
  F  F23  1  0.459677  0.247405  0.970240  1
  F  F24  1  0.752595  0.540323  0.529760  1
  F  F25  1  0.031612  0.968388  0.250000  1
  F  F26  1  0.217378  0.728266  0.995553  1
  F  F27  1  0.226577  0.499085  0.785518  1
  F  F28  1  0.997072  0.714840  0.775004  1
  F  F29  1  0.714840  0.997072  0.275004  1
  F  F30  1  0.499085  0.226577  0.285518  1
  F  F31  1  0.728266  0.217378  0.495553  1
  F  F32  1  0.782622  0.271734  0.004447  1
  F  F33  1  0.773423  0.500915  0.214482  1
  F  F34  1  0.002928  0.285160  0.224996  1
  F  F35  1  0.285160  0.002928  0.724996  1
  F  F36  1  0.500915  0.773423  0.714482  1
  F  F37  1  0.271734  0.782622  0.504447  1
