# generated using pymatgen
data_Rh4(OF3)3
_symmetry_space_group_name_H-M   'P 1'
_cell_length_a   4.97521739
_cell_length_b   5.39069135
_cell_length_c   8.80341567
_cell_angle_alpha   73.02290088
_cell_angle_beta   89.48299010
_cell_angle_gamma   63.13900502
_symmetry_Int_Tables_number   1
_chemical_formula_structural   Rh4(OF3)3
_chemical_formula_sum   'Rh4 O3 F9'
_cell_volume   199.35176148
_cell_formula_units_Z   1
loop_
 _symmetry_equiv_pos_site_id
 _symmetry_equiv_pos_as_xyz
  1  'x, y, z'
loop_
 _atom_site_type_symbol
 _atom_site_label
 _atom_site_symmetry_multiplicity
 _atom_site_fract_x
 _atom_site_fract_y
 _atom_site_fract_z
 _atom_site_occupancy
  Rh  Rh0  1  0.742730  0.503543  0.249576  1
  Rh  Rh1  1  0.518387  0.015601  0.492212  1
  Rh  Rh2  1  0.277330  0.484419  0.756812  1
  Rh  Rh3  1  0.958595  0.998550  0.999317  1
  O  O4  1  0.792111  0.737990  0.053062  1
  O  O5  1  0.699899  0.246596  0.803985  1
  O  O6  1  0.700504  0.262984  0.444706  1
  F  F7  1  0.810375  0.753168  0.694721  1
  F  F8  1  0.792107  0.750648  0.373132  1
  F  F9  1  0.692618  0.255039  0.126255  1
  F  F10  1  0.316593  0.745609  0.551423  1
  F  F11  1  0.288623  0.754643  0.205586  1
  F  F12  1  0.267227  0.750909  0.877439  1
  F  F13  1  0.240617  0.246210  0.624903  1
  F  F14  1  0.197021  0.244257  0.954714  1
  F  F15  1  0.205265  0.249835  0.292156  1
