# generated using pymatgen
data_LiYbEuPt2
_symmetry_space_group_name_H-M   'P 1'
_cell_length_a   5.67676736
_cell_length_b   5.67676679
_cell_length_c   5.67676700
_cell_angle_alpha   136.23552671
_cell_angle_beta   119.76443200
_cell_angle_gamma   77.37175001
_symmetry_Int_Tables_number   1
_chemical_formula_structural   LiYbEuPt2
_chemical_formula_sum   'Li1 Yb1 Eu1 Pt2'
_cell_volume   106.82068571
_cell_formula_units_Z   1
loop_
 _symmetry_equiv_pos_site_id
 _symmetry_equiv_pos_as_xyz
  1  'x, y, z'
loop_
 _atom_site_type_symbol
 _atom_site_label
 _atom_site_symmetry_multiplicity
 _atom_site_fract_x
 _atom_site_fract_y
 _atom_site_fract_z
 _atom_site_occupancy
  Li  Li0  1  0.999762  0.999762  0.000000  1
  Yb  Yb1  1  0.304081  0.804081  0.500000  1
  Eu  Eu2  1  0.695405  0.195405  0.500000  1
  Pt  Pt3  1  0.744878  0.500377  0.244503  1
  Pt  Pt4  1  0.255874  0.500377  0.755497  1
