# generated using pymatgen
data_Hf2Zr6Co16(SiP3)3
_symmetry_space_group_name_H-M   'P 1'
_cell_length_a   12.18765241
_cell_length_b   12.19856717
_cell_length_c   3.66250100
_cell_angle_alpha   90.00000000
_cell_angle_beta   90.00000000
_cell_angle_gamma   120.02961807
_symmetry_Int_Tables_number   1
_chemical_formula_structural   Hf2Zr6Co16(SiP3)3
_chemical_formula_sum   'Hf2 Zr6 Co16 Si3 P9'
_cell_volume   471.41953147
_cell_formula_units_Z   1
loop_
 _symmetry_equiv_pos_site_id
 _symmetry_equiv_pos_as_xyz
  1  'x, y, z'
loop_
 _atom_site_type_symbol
 _atom_site_label
 _atom_site_symmetry_multiplicity
 _atom_site_fract_x
 _atom_site_fract_y
 _atom_site_fract_z
 _atom_site_occupancy
  Hf  Hf0  1  0.442715  0.442601  0.000000  1
  Hf  Hf1  1  0.557285  0.999885  0.000000  1
  Zr  Zr2  1  0.000000  0.556673  0.000000  1
  Zr  Zr3  1  0.666589  0.333245  0.000000  1
  Zr  Zr4  1  0.333411  0.666658  0.000000  1
  Zr  Zr5  1  0.824452  0.824748  0.500000  1
  Zr  Zr6  1  0.175548  0.000295  0.500000  1
  Zr  Zr7  1  0.000000  0.174761  0.500000  1
  Co  Co8  1  0.197551  0.371837  0.000000  1
  Co  Co9  1  0.175548  0.803961  0.000000  1
  Co  Co10  1  0.824452  0.628413  0.000000  1
  Co  Co11  1  0.802449  0.174286  0.000000  1
  Co  Co12  1  0.372150  0.197416  0.000000  1
  Co  Co13  1  0.127344  0.481783  0.500000  1
  Co  Co14  1  0.356581  0.873738  0.500000  1
  Co  Co15  1  0.517084  0.644174  0.500000  1
  Co  Co16  1  0.643419  0.517156  0.500000  1
  Co  Co17  1  0.872656  0.354439  0.500000  1
  Co  Co18  1  0.482916  0.127088  0.500000  1
  Co  Co19  1  0.000000  0.999917  0.000000  1
  Co  Co20  1  0.721503  0.999905  0.500000  1
  Co  Co21  1  0.000000  0.722793  0.500000  1
  Co  Co22  1  0.627850  0.825266  0.000000  1
  Co  Co23  1  0.278497  0.278402  0.500000  1
  Si  Si24  1  0.653843  0.654410  0.000000  1
  Si  Si25  1  0.346157  0.000568  0.000000  1
  Si  Si26  1  0.000000  0.344663  0.000000  1
  P  P27  1  0.481374  0.307762  0.500000  1
  P  P28  1  0.691939  0.173358  0.500000  1
  P  P29  1  0.825189  0.518655  0.500000  1
  P  P30  1  0.518626  0.826387  0.500000  1
  P  P31  1  0.174811  0.693465  0.500000  1
  P  P32  1  0.824314  0.999809  0.000000  1
  P  P33  1  0.000000  0.824572  0.000000  1
  P  P34  1  0.308061  0.481419  0.500000  1
  P  P35  1  0.175686  0.175495  0.000000  1
