# generated using pymatgen
data_Nd9Dy7(ErSn4)4
_symmetry_space_group_name_H-M   'P 1'
_cell_length_a   8.03675506
_cell_length_b   8.15289812
_cell_length_c   15.87555400
_cell_angle_alpha   90.00803964
_cell_angle_beta   89.99299198
_cell_angle_gamma   90.00543336
_symmetry_Int_Tables_number   1
_chemical_formula_structural   Nd9Dy7(ErSn4)4
_chemical_formula_sum   'Nd9 Dy7 Er4 Sn16'
_cell_volume   1040.21144444
_cell_formula_units_Z   1
loop_
 _symmetry_equiv_pos_site_id
 _symmetry_equiv_pos_as_xyz
  1  'x, y, z'
loop_
 _atom_site_type_symbol
 _atom_site_label
 _atom_site_symmetry_multiplicity
 _atom_site_fract_x
 _atom_site_fract_y
 _atom_site_fract_z
 _atom_site_occupancy
  Nd  Nd0  1  0.152808  0.333379  0.622609  1
  Nd  Nd1  1  0.495363  0.676711  0.596073  1
  Nd  Nd2  1  0.995110  0.823348  0.905387  1
  Nd  Nd3  1  0.504897  0.323507  0.095824  1
  Nd  Nd4  1  0.004412  0.177126  0.402865  1
  Nd  Nd5  1  0.504758  0.324063  0.403566  1
  Nd  Nd6  1  0.004980  0.176795  0.096164  1
  Nd  Nd7  1  0.495634  0.677095  0.904887  1
  Nd  Nd8  1  0.995308  0.822498  0.595702  1
  Dy  Dy9  1  0.654037  0.166174  0.625358  1
  Dy  Dy10  1  0.153604  0.333729  0.876152  1
  Dy  Dy11  1  0.346781  0.834100  0.124626  1
  Dy  Dy12  1  0.846772  0.666154  0.375053  1
  Dy  Dy13  1  0.347088  0.834623  0.373598  1
  Dy  Dy14  1  0.846277  0.666203  0.124587  1
  Dy  Dy15  1  0.653176  0.165698  0.876682  1
  Er  Er16  1  0.822584  0.498661  0.750337  1
  Er  Er17  1  0.323197  0.001248  0.751124  1
  Er  Er18  1  0.177586  0.501700  0.249347  1
  Er  Er19  1  0.677457  0.998600  0.249819  1
  Sn  Sn20  1  0.683299  0.960588  0.458917  1
  Sn  Sn21  1  0.183393  0.540055  0.041222  1
  Sn  Sn22  1  0.315568  0.039623  0.959352  1
  Sn  Sn23  1  0.809251  0.460938  0.539791  1
  Sn  Sn24  1  0.321012  0.034804  0.540009  1
  Sn  Sn25  1  0.816871  0.460164  0.959364  1
  Sn  Sn26  1  0.684019  0.960372  0.041771  1
  Sn  Sn27  1  0.184481  0.542092  0.455458  1
  Sn  Sn28  1  0.458009  0.379632  0.752118  1
  Sn  Sn29  1  0.954910  0.118013  0.751682  1
  Sn  Sn30  1  0.543632  0.620378  0.249496  1
  Sn  Sn31  1  0.043267  0.879455  0.249520  1
  Sn  Sn32  1  0.687734  0.854506  0.750702  1
  Sn  Sn33  1  0.188212  0.646919  0.751698  1
  Sn  Sn34  1  0.312431  0.145879  0.249411  1
  Sn  Sn35  1  0.812082  0.355170  0.249729  1
