# generated using pymatgen
data_Ce4Mn(Sb4Pd)2
_symmetry_space_group_name_H-M   'P 1'
_cell_length_a   10.85608171
_cell_length_b   10.85608175
_cell_length_c   10.85608248
_cell_angle_alpha   146.56359831
_cell_angle_beta   146.56360150
_cell_angle_gamma   48.01038328
_symmetry_Int_Tables_number   1
_chemical_formula_structural   Ce4Mn(Sb4Pd)2
_chemical_formula_sum   'Ce4 Mn1 Sb8 Pd2'
_cell_volume   386.87021412
_cell_formula_units_Z   1
loop_
 _symmetry_equiv_pos_site_id
 _symmetry_equiv_pos_as_xyz
  1  'x, y, z'
loop_
 _atom_site_type_symbol
 _atom_site_label
 _atom_site_symmetry_multiplicity
 _atom_site_fract_x
 _atom_site_fract_y
 _atom_site_fract_z
 _atom_site_occupancy
  Ce  Ce0  1  0.627093  0.128163  0.000000  1
  Ce  Ce1  1  0.128163  0.627093  0.000000  1
  Ce  Ce2  1  0.871837  0.871837  0.498930  1
  Ce  Ce3  1  0.372907  0.372907  0.501070  1
  Mn  Mn4  1  0.000000  0.000000  0.000000  1
  Sb  Sb5  1  0.249881  0.249881  0.000000  1
  Sb  Sb6  1  0.750119  0.750119  0.000000  1
  Sb  Sb7  1  0.250000  0.750000  0.500000  1
  Sb  Sb8  1  0.750000  0.250000  0.500000  1
  Sb  Sb9  1  0.331065  0.826625  0.000000  1
  Sb  Sb10  1  0.826625  0.331065  0.000000  1
  Sb  Sb11  1  0.173375  0.173375  0.504439  1
  Sb  Sb12  1  0.668935  0.668935  0.495561  1
  Pd  Pd13  1  0.500000  0.000000  0.500000  1
  Pd  Pd14  1  0.000000  0.500000  0.500000  1
