# generated using pymatgen
data_Th2HgRhAu
_symmetry_space_group_name_H-M   'P 1'
_cell_length_a   8.04500500
_cell_length_b   8.06950300
_cell_length_c   3.76556400
_cell_angle_alpha   90.00000000
_cell_angle_beta   90.00000000
_cell_angle_gamma   90.00000000
_symmetry_Int_Tables_number   1
_chemical_formula_structural   Th2HgRhAu
_chemical_formula_sum   'Th4 Hg2 Rh2 Au2'
_cell_volume   244.45737224
_cell_formula_units_Z   2
loop_
 _symmetry_equiv_pos_site_id
 _symmetry_equiv_pos_as_xyz
  1  'x, y, z'
loop_
 _atom_site_type_symbol
 _atom_site_label
 _atom_site_symmetry_multiplicity
 _atom_site_fract_x
 _atom_site_fract_y
 _atom_site_fract_z
 _atom_site_occupancy
  Th  Th0  1  0.322709  0.150676  0.500001  1
  Th  Th1  1  0.822709  0.349325  0.500001  1
  Th  Th2  1  0.174420  0.690755  0.500001  1
  Th  Th3  1  0.674420  0.809246  0.500001  1
  Hg  Hg4  1  0.998777  0.996048  0.000000  1
  Hg  Hg5  1  0.498777  0.503952  0.000000  1
  Rh  Rh6  1  0.872324  0.626104  0.000000  1
  Rh  Rh7  1  0.372324  0.873895  0.000000  1
  Au  Au8  1  0.631769  0.123901  0.000000  1
  Au  Au9  1  0.131771  0.376100  0.000000  1
