# generated using pymatgen
data_ErTm3Co16(P3Rh)4
_symmetry_space_group_name_H-M   'P 1'
_cell_length_a   3.67924200
_cell_length_b   10.37299434
_cell_length_c   11.80935640
_cell_angle_alpha   90.02964030
_cell_angle_beta   90.00000000
_cell_angle_gamma   90.00000000
_symmetry_Int_Tables_number   1
_chemical_formula_structural   ErTm3Co16(P3Rh)4
_chemical_formula_sum   'Er1 Tm3 Co16 P12 Rh4'
_cell_volume   450.70115055
_cell_formula_units_Z   1
loop_
 _symmetry_equiv_pos_site_id
 _symmetry_equiv_pos_as_xyz
  1  'x, y, z'
loop_
 _atom_site_type_symbol
 _atom_site_label
 _atom_site_symmetry_multiplicity
 _atom_site_fract_x
 _atom_site_fract_y
 _atom_site_fract_z
 _atom_site_occupancy
  Er  Er0  1  0.250000  0.584184  0.704149  1
  Tm  Tm1  1  0.250000  0.915859  0.204029  1
  Tm  Tm2  1  0.750000  0.415650  0.296005  1
  Tm  Tm3  1  0.750000  0.084293  0.795929  1
  Co  Co4  1  0.250000  0.408885  0.486404  1
  Co  Co5  1  0.250000  0.090830  0.986537  1
  Co  Co6  1  0.750000  0.590676  0.512832  1
  Co  Co7  1  0.750000  0.909154  0.013487  1
  Co  Co8  1  0.250000  0.221686  0.175852  1
  Co  Co9  1  0.250000  0.278184  0.675839  1
  Co  Co10  1  0.750000  0.778541  0.824229  1
  Co  Co11  1  0.750000  0.721925  0.324083  1
  Co  Co12  1  0.250000  0.885709  0.702493  1
  Co  Co13  1  0.250000  0.614684  0.202634  1
  Co  Co14  1  0.750000  0.114646  0.297391  1
  Co  Co15  1  0.750000  0.385069  0.797651  1
  Co  Co16  1  0.250000  0.464633  0.930183  1
  Co  Co17  1  0.250000  0.035143  0.429704  1
  Co  Co18  1  0.750000  0.535089  0.070465  1
  Co  Co19  1  0.750000  0.965091  0.570037  1
  P  P20  1  0.250000  0.421501  0.113443  1
  P  P21  1  0.250000  0.078575  0.613141  1
  P  P22  1  0.750000  0.578436  0.887263  1
  P  P23  1  0.750000  0.921597  0.386707  1
  P  P24  1  0.250000  0.269990  0.864600  1
  P  P25  1  0.250000  0.229935  0.364526  1
  P  P26  1  0.750000  0.730090  0.135388  1
  P  P27  1  0.750000  0.770491  0.635235  1
  P  P28  1  0.250000  0.594463  0.389263  1
  P  P29  1  0.250000  0.905532  0.889194  1
  P  P30  1  0.750000  0.405176  0.610643  1
  P  P31  1  0.750000  0.094453  0.110763  1
  Rh  Rh32  1  0.250000  0.717519  0.992321  1
  Rh  Rh33  1  0.250000  0.782543  0.492220  1
  Rh  Rh34  1  0.750000  0.282378  0.007725  1
  Rh  Rh35  1  0.750000  0.217389  0.507634  1
