# generated using pymatgen
data_LiCo2As2Pd
_symmetry_space_group_name_H-M   'P 1'
_cell_length_a   3.73613000
_cell_length_b   3.73613000
_cell_length_c   6.05110700
_cell_angle_alpha   90.00000000
_cell_angle_beta   90.00000000
_cell_angle_gamma   90.00000000
_symmetry_Int_Tables_number   1
_chemical_formula_structural   LiCo2As2Pd
_chemical_formula_sum   'Li1 Co2 As2 Pd1'
_cell_volume   84.46538988
_cell_formula_units_Z   1
loop_
 _symmetry_equiv_pos_site_id
 _symmetry_equiv_pos_as_xyz
  1  'x, y, z'
loop_
 _atom_site_type_symbol
 _atom_site_label
 _atom_site_symmetry_multiplicity
 _atom_site_fract_x
 _atom_site_fract_y
 _atom_site_fract_z
 _atom_site_occupancy
  Li  Li0  1  0.500000  0.000000  0.339046  1
  Co  Co1  1  0.500000  0.500000  0.002946  1
  Co  Co2  1  0.000000  0.000000  0.002946  1
  As  As3  1  0.500000  0.000000  0.765397  1
  As  As4  1  0.000000  0.500000  0.235966  1
  Pd  Pd5  1  0.000000  0.500000  0.653699  1
