# generated using pymatgen
data_Lu2Hf2PtRh
_symmetry_space_group_name_H-M   'P 1'
_cell_length_a   4.61655300
_cell_length_b   6.93473600
_cell_length_c   8.16173900
_cell_angle_alpha   90.00000000
_cell_angle_beta   90.00000000
_cell_angle_gamma   90.00000000
_symmetry_Int_Tables_number   1
_chemical_formula_structural   Lu2Hf2PtRh
_chemical_formula_sum   'Lu4 Hf4 Pt2 Rh2'
_cell_volume   261.29461583
_cell_formula_units_Z   2
loop_
 _symmetry_equiv_pos_site_id
 _symmetry_equiv_pos_as_xyz
  1  'x, y, z'
loop_
 _atom_site_type_symbol
 _atom_site_label
 _atom_site_symmetry_multiplicity
 _atom_site_fract_x
 _atom_site_fract_y
 _atom_site_fract_z
 _atom_site_occupancy
  Lu  Lu0  1  0.250000  0.978610  0.323356  1
  Lu  Lu1  1  0.250000  0.478610  0.176644  1
  Lu  Lu2  1  0.750000  0.022186  0.676420  1
  Lu  Lu3  1  0.750000  0.522186  0.823580  1
  Hf  Hf4  1  0.250000  0.357590  0.575404  1
  Hf  Hf5  1  0.250000  0.857590  0.924596  1
  Hf  Hf6  1  0.750000  0.646436  0.430197  1
  Hf  Hf7  1  0.750000  0.146436  0.069803  1
  Pt  Pt8  1  0.750000  0.764717  0.103122  1
  Pt  Pt9  1  0.750000  0.264717  0.396878  1
  Rh  Rh10  1  0.250000  0.230459  0.900319  1
  Rh  Rh11  1  0.250000  0.730459  0.599681  1
