# generated using pymatgen
data_Hf4Cu3Si4Pd
_symmetry_space_group_name_H-M   'P 1'
_cell_length_a   3.87739100
_cell_length_b   6.50093509
_cell_length_c   7.41669839
_cell_angle_alpha   91.19101652
_cell_angle_beta   90.00000000
_cell_angle_gamma   90.00000000
_symmetry_Int_Tables_number   1
_chemical_formula_structural   Hf4Cu3Si4Pd
_chemical_formula_sum   'Hf4 Cu3 Si4 Pd1'
_cell_volume   186.90985845
_cell_formula_units_Z   1
loop_
 _symmetry_equiv_pos_site_id
 _symmetry_equiv_pos_as_xyz
  1  'x, y, z'
loop_
 _atom_site_type_symbol
 _atom_site_label
 _atom_site_symmetry_multiplicity
 _atom_site_fract_x
 _atom_site_fract_y
 _atom_site_fract_z
 _atom_site_occupancy
  Hf  Hf0  1  0.250000  0.514878  0.684591  1
  Hf  Hf1  1  0.750000  0.482513  0.321103  1
  Hf  Hf2  1  0.250000  0.022555  0.810175  1
  Hf  Hf3  1  0.750000  0.980517  0.187572  1
  Cu  Cu4  1  0.750000  0.838161  0.571706  1
  Cu  Cu5  1  0.250000  0.162801  0.425220  1
  Cu  Cu6  1  0.750000  0.346330  0.935343  1
  Si  Si7  1  0.250000  0.268423  0.113907  1
  Si  Si8  1  0.750000  0.733720  0.879551  1
  Si  Si9  1  0.250000  0.776705  0.394366  1
  Si  Si10  1  0.750000  0.222932  0.609519  1
  Pd  Pd11  1  0.250000  0.650466  0.066949  1
