# generated using pymatgen
data_Sc5U(SnRh)6
_symmetry_space_group_name_H-M   'P 1'
_cell_length_a   7.56456244
_cell_length_b   7.45644509
_cell_length_c   7.25116900
_cell_angle_alpha   90.00000000
_cell_angle_beta   90.00000000
_cell_angle_gamma   120.43481915
_symmetry_Int_Tables_number   1
_chemical_formula_structural   Sc5U(SnRh)6
_chemical_formula_sum   'Sc5 U1 Sn6 Rh6'
_cell_volume   352.64253787
_cell_formula_units_Z   1
loop_
 _symmetry_equiv_pos_site_id
 _symmetry_equiv_pos_as_xyz
  1  'x, y, z'
loop_
 _atom_site_type_symbol
 _atom_site_label
 _atom_site_symmetry_multiplicity
 _atom_site_fract_x
 _atom_site_fract_y
 _atom_site_fract_z
 _atom_site_occupancy
  Sc  Sc0  1  0.005177  0.404956  0.750000  1
  Sc  Sc1  1  0.596802  0.598589  0.750000  1
  Sc  Sc2  1  0.393253  0.993835  0.750000  1
  Sc  Sc3  1  0.992786  0.389633  0.250000  1
  Sc  Sc4  1  0.607650  0.605782  0.250000  1
  U  U5  1  0.415753  0.006549  0.250000  1
  Sn  Sn6  1  0.269558  0.281562  0.500569  1
  Sn  Sn7  1  0.989478  0.719021  0.499681  1
  Sn  Sn8  1  0.989478  0.719021  0.000319  1
  Sn  Sn9  1  0.741830  0.999413  0.511208  1
  Sn  Sn10  1  0.741830  0.999413  0.988792  1
  Sn  Sn11  1  0.269558  0.281562  0.999431  1
  Rh  Rh12  1  0.336111  0.686979  0.476008  1
  Rh  Rh13  1  0.649349  0.313718  0.494420  1
  Rh  Rh14  1  0.336111  0.686979  0.023992  1
  Rh  Rh15  1  0.009147  0.999025  0.750000  1
  Rh  Rh16  1  0.006778  0.000247  0.250000  1
  Rh  Rh17  1  0.649349  0.313718  0.005580  1
