# generated using pymatgen
data_AcTe2
_symmetry_space_group_name_H-M   'P 1'
_cell_length_a   9.42411300
_cell_length_b   9.42411300
_cell_length_c   9.49498900
_cell_angle_alpha   90.00000000
_cell_angle_beta   90.00000000
_cell_angle_gamma   90.00000000
_symmetry_Int_Tables_number   1
_chemical_formula_structural   AcTe2
_chemical_formula_sum   'Ac8 Te16'
_cell_volume   843.28705897
_cell_formula_units_Z   8
loop_
 _symmetry_equiv_pos_site_id
 _symmetry_equiv_pos_as_xyz
  1  'x, y, z'
loop_
 _atom_site_type_symbol
 _atom_site_label
 _atom_site_symmetry_multiplicity
 _atom_site_fract_x
 _atom_site_fract_y
 _atom_site_fract_z
 _atom_site_occupancy
  Ac  Ac0  1  0.258983  0.758983  0.276080  1
  Ac  Ac1  1  0.000000  0.500000  0.729305  1
  Ac  Ac2  1  0.000000  0.000000  0.723580  1
  Ac  Ac3  1  0.500000  0.000000  0.729305  1
  Ac  Ac4  1  0.241017  0.258983  0.276080  1
  Ac  Ac5  1  0.741017  0.241017  0.276080  1
  Ac  Ac6  1  0.500000  0.500000  0.723580  1
  Ac  Ac7  1  0.758983  0.741017  0.276080  1
  Te  Te8  1  0.528818  0.748645  0.998879  1
  Te  Te9  1  0.251355  0.528818  0.998879  1
  Te  Te10  1  0.752453  0.747547  0.634379  1
  Te  Te11  1  0.500000  0.500000  0.365091  1
  Te  Te12  1  0.747547  0.247547  0.634379  1
  Te  Te13  1  0.751355  0.971182  0.998879  1
  Te  Te14  1  0.500000  0.000000  0.368003  1
  Te  Te15  1  0.000000  0.500000  0.368003  1
  Te  Te16  1  0.248645  0.028818  0.998879  1
  Te  Te17  1  0.748645  0.471182  0.998879  1
  Te  Te18  1  0.000000  0.000000  0.365091  1
  Te  Te19  1  0.028818  0.751355  0.998879  1
  Te  Te20  1  0.971182  0.248645  0.998879  1
  Te  Te21  1  0.471182  0.251355  0.998879  1
  Te  Te22  1  0.247547  0.252453  0.634379  1
  Te  Te23  1  0.252453  0.752453  0.634379  1
