# generated using pymatgen
data_CeThZn16Pt
_symmetry_space_group_name_H-M   'P 1'
_cell_length_a   6.88026883
_cell_length_b   6.88026808
_cell_length_c   6.90802867
_cell_angle_alpha   82.81063914
_cell_angle_beta   82.81063760
_cell_angle_gamma   83.21868478
_symmetry_Int_Tables_number   1
_chemical_formula_structural   CeThZn16Pt
_chemical_formula_sum   'Ce1 Th1 Zn16 Pt1'
_cell_volume   320.14402498
_cell_formula_units_Z   1
loop_
 _symmetry_equiv_pos_site_id
 _symmetry_equiv_pos_as_xyz
  1  'x, y, z'
loop_
 _atom_site_type_symbol
 _atom_site_label
 _atom_site_symmetry_multiplicity
 _atom_site_fract_x
 _atom_site_fract_y
 _atom_site_fract_z
 _atom_site_occupancy
  Ce  Ce0  1  0.655980  0.655980  0.665333  1
  Th  Th1  1  0.337955  0.337955  0.334254  1
  Zn  Zn2  1  0.701134  0.297824  0.997605  1
  Zn  Zn3  1  0.999131  0.704705  0.297300  1
  Zn  Zn4  1  0.295738  0.001857  0.706993  1
  Zn  Zn5  1  0.001857  0.295738  0.706993  1
  Zn  Zn6  1  0.704705  0.999131  0.297300  1
  Zn  Zn7  1  0.297824  0.701134  0.997605  1
  Zn  Zn8  1  0.352433  0.842636  0.351642  1
  Zn  Zn9  1  0.842636  0.352433  0.351642  1
  Zn  Zn10  1  0.649808  0.159816  0.647148  1
  Zn  Zn11  1  0.650891  0.650891  0.161245  1
  Zn  Zn12  1  0.159816  0.649808  0.647148  1
  Zn  Zn13  1  0.999450  0.999450  0.501758  1
  Zn  Zn14  1  0.500557  0.999648  0.998789  1
  Zn  Zn15  1  0.999648  0.500557  0.998789  1
  Zn  Zn16  1  0.898055  0.898055  0.897934  1
  Zn  Zn17  1  0.100380  0.100380  0.098832  1
  Pt  Pt18  1  0.352006  0.352006  0.841691  1
