# generated using pymatgen
data_Ca5DyRuWO12
_symmetry_space_group_name_H-M   'P 1'
_cell_length_a   6.58374477
_cell_length_b   6.56755599
_cell_length_c   6.60062960
_cell_angle_alpha   92.10582172
_cell_angle_beta   92.40863193
_cell_angle_gamma   92.32148315
_symmetry_Int_Tables_number   1
_chemical_formula_structural   Ca5DyRuWO12
_chemical_formula_sum   'Ca5 Dy1 Ru1 W1 O12'
_cell_volume   284.70779658
_cell_formula_units_Z   1
loop_
 _symmetry_equiv_pos_site_id
 _symmetry_equiv_pos_as_xyz
  1  'x, y, z'
loop_
 _atom_site_type_symbol
 _atom_site_label
 _atom_site_symmetry_multiplicity
 _atom_site_fract_x
 _atom_site_fract_y
 _atom_site_fract_z
 _atom_site_occupancy
  Ca  Ca0  1  0.740352  0.927517  0.435291  1
  Ca  Ca1  1  0.559762  0.256038  0.074534  1
  Ca  Ca2  1  0.437860  0.739639  0.927322  1
  Ca  Ca3  1  0.260954  0.068969  0.564479  1
  Ca  Ca4  1  0.073306  0.566773  0.259157  1
  Dy  Dy5  1  0.926042  0.432529  0.739965  1
  Ru  Ru6  1  0.498533  0.499743  0.499869  1
  W  W7  1  0.999041  0.000606  0.999994  1
  O  O8  1  0.942398  0.288949  0.060759  1
  O  O9  1  0.932970  0.073204  0.713253  1
  O  O10  1  0.793499  0.578093  0.461266  1
  O  O11  1  0.716538  0.934653  0.056314  1
  O  O12  1  0.590692  0.450624  0.789969  1
  O  O13  1  0.547617  0.213199  0.421611  1
  O  O14  1  0.453781  0.785000  0.581555  1
  O  O15  1  0.419443  0.548577  0.215917  1
  O  O16  1  0.281890  0.062039  0.939618  1
  O  O17  1  0.208452  0.420986  0.555942  1
  O  O18  1  0.067337  0.941700  0.279503  1
  O  O19  1  0.049533  0.711164  0.923682  1
