# generated using pymatgen
data_Er8Tm4ZnCo4Pb
_symmetry_space_group_name_H-M   'P 1'
_cell_length_a   8.25378679
_cell_length_b   8.25385506
_cell_length_c   8.25378708
_cell_angle_alpha   111.49453403
_cell_angle_beta   110.00299982
_cell_angle_gamma   106.94855213
_symmetry_Int_Tables_number   1
_chemical_formula_structural   Er8Tm4ZnCo4Pb
_chemical_formula_sum   'Er8 Tm4 Zn1 Co4 Pb1'
_cell_volume   432.15316268
_cell_formula_units_Z   1
loop_
 _symmetry_equiv_pos_site_id
 _symmetry_equiv_pos_as_xyz
  1  'x, y, z'
loop_
 _atom_site_type_symbol
 _atom_site_label
 _atom_site_symmetry_multiplicity
 _atom_site_fract_x
 _atom_site_fract_y
 _atom_site_fract_z
 _atom_site_occupancy
  Er  Er0  1  0.426933  0.221189  0.205745  1
  Er  Er1  1  0.573067  0.778811  0.794255  1
  Er  Er2  1  0.015444  0.221189  0.794256  1
  Er  Er3  1  0.984556  0.778811  0.205744  1
  Er  Er4  1  0.183774  0.286614  0.470391  1
  Er  Er5  1  0.816226  0.713386  0.529609  1
  Er  Er6  1  0.183778  0.713386  0.897160  1
  Er  Er7  1  0.816222  0.286614  0.102840  1
  Tm  Tm8  1  0.314340  0.619957  0.305616  1
  Tm  Tm9  1  0.685660  0.380044  0.694384  1
  Tm  Tm10  1  0.314340  0.008722  0.694383  1
  Tm  Tm11  1  0.685660  0.991278  0.305617  1
  Zn  Zn12  1  0.000000  0.000000  0.000000  1
  Co  Co13  1  0.113550  0.613550  0.500001  1
  Co  Co14  1  0.886451  0.386451  0.499999  1
  Co  Co15  1  0.375972  0.000000  0.375972  1
  Co  Co16  1  0.624028  0.000000  0.624028  1
  Pb  Pb17  1  0.500000  0.500000  0.000000  1
