# generated using pymatgen
data_TbY2In3SnRh2
_symmetry_space_group_name_H-M   'P 1'
_cell_length_a   7.83677781
_cell_length_b   7.84616096
_cell_length_c   3.88820000
_cell_angle_alpha   90.00000000
_cell_angle_beta   90.00000000
_cell_angle_gamma   120.01286199
_symmetry_Int_Tables_number   1
_chemical_formula_structural   TbY2In3SnRh2
_chemical_formula_sum   'Tb1 Y2 In3 Sn1 Rh2'
_cell_volume   207.02255919
_cell_formula_units_Z   1
loop_
 _symmetry_equiv_pos_site_id
 _symmetry_equiv_pos_as_xyz
  1  'x, y, z'
loop_
 _atom_site_type_symbol
 _atom_site_label
 _atom_site_symmetry_multiplicity
 _atom_site_fract_x
 _atom_site_fract_y
 _atom_site_fract_z
 _atom_site_occupancy
  Tb  Tb0  1  0.613674  0.030170  0.500000  1
  Y  Y1  1  0.971308  0.584130  0.500000  1
  Y  Y2  1  0.416026  0.386999  0.500000  1
  In  In3  1  0.751255  0.742428  0.000000  1
  In  In4  1  0.991956  0.249203  0.000000  1
  In  In5  1  0.257026  0.009008  0.000000  1
  Sn  Sn6  1  0.333185  0.666581  0.000000  1
  Rh  Rh7  1  0.999064  0.999315  0.500000  1
  Rh  Rh8  1  0.666507  0.332165  0.000000  1
