# generated using pymatgen
data_SiS23
_symmetry_space_group_name_H-M   'P 1'
_cell_length_a   5.61904016
_cell_length_b   9.54313347
_cell_length_c   15.24647800
_cell_angle_alpha   88.98743582
_cell_angle_beta   87.04387293
_cell_angle_gamma   90.07409885
_symmetry_Int_Tables_number   1
_chemical_formula_structural   SiS23
_chemical_formula_sum   'Si1 S23'
_cell_volume   816.34829686
_cell_formula_units_Z   1
loop_
 _symmetry_equiv_pos_site_id
 _symmetry_equiv_pos_as_xyz
  1  'x, y, z'
loop_
 _atom_site_type_symbol
 _atom_site_label
 _atom_site_symmetry_multiplicity
 _atom_site_fract_x
 _atom_site_fract_y
 _atom_site_fract_z
 _atom_site_occupancy
  Si  Si0  1  0.529611  0.255738  0.462044  1
  S  S1  1  0.529041  0.809816  0.383266  1
  S  S2  1  0.995198  0.301703  0.112575  1
  S  S3  1  0.819956  0.158414  0.420618  1
  S  S4  1  0.315810  0.771530  0.495911  1
  S  S5  1  0.193656  0.260640  0.998034  1
  S  S6  1  0.801746  0.738895  0.004887  1
  S  S7  1  0.312938  0.397476  0.391911  1
  S  S8  1  0.739685  0.634355  0.364816  1
  S  S9  1  0.798145  0.125024  0.147749  1
  S  S10  1  0.200416  0.868117  0.137714  1
  S  S11  1  0.673610  0.604064  0.628490  1
  S  S12  1  0.204708  0.391664  0.632228  1
  S  S13  1  0.199936  0.874659  0.856493  1
  S  S14  1  0.796111  0.131233  0.864232  1
  S  S15  1  0.002565  0.692749  0.111240  1
  S  S16  1  0.519863  0.796592  0.602754  1
  S  S17  1  0.373767  0.208252  0.589741  1
  S  S18  1  0.002239  0.697717  0.890886  1
  S  S19  1  0.992569  0.306845  0.891696  1
  S  S20  1  0.558863  0.486073  0.299392  1
  S  S21  1  0.002058  0.994148  0.222655  1
  S  S22  1  0.439093  0.488886  0.710067  1
  S  S23  1  0.998411  0.005408  0.780602  1
