# generated using pymatgen
data_Tm7LuSc12Si15Bi
_symmetry_space_group_name_H-M   'P 1'
_cell_length_a   7.12614690
_cell_length_b   7.36437170
_cell_length_c   13.98289099
_cell_angle_alpha   90.03145190
_cell_angle_beta   88.53227791
_cell_angle_gamma   90.12748542
_symmetry_Int_Tables_number   1
_chemical_formula_structural   Tm7LuSc12Si15Bi
_chemical_formula_sum   'Tm7 Lu1 Sc12 Si15 Bi1'
_cell_volume   733.57378969
_cell_formula_units_Z   1
loop_
 _symmetry_equiv_pos_site_id
 _symmetry_equiv_pos_as_xyz
  1  'x, y, z'
loop_
 _atom_site_type_symbol
 _atom_site_label
 _atom_site_symmetry_multiplicity
 _atom_site_fract_x
 _atom_site_fract_y
 _atom_site_fract_z
 _atom_site_occupancy
  Tm  Tm0  1  0.988430  0.823965  0.904732  1
  Tm  Tm1  1  0.489054  0.676386  0.904494  1
  Tm  Tm2  1  0.994417  0.831605  0.598273  1
  Tm  Tm3  1  0.510902  0.323357  0.097060  1
  Tm  Tm4  1  0.997668  0.170314  0.399315  1
  Tm  Tm5  1  0.511002  0.315533  0.397288  1
  Tm  Tm6  1  0.513960  0.687961  0.601149  1
  Lu  Lu7  1  0.011866  0.177802  0.096542  1
  Sc  Sc8  1  0.165971  0.501578  0.756089  1
  Sc  Sc9  1  0.833221  0.497884  0.251391  1
  Sc  Sc10  1  0.332943  0.002827  0.250289  1
  Sc  Sc11  1  0.668724  0.998104  0.751106  1
  Sc  Sc12  1  0.351095  0.155218  0.631437  1
  Sc  Sc13  1  0.656641  0.827784  0.372653  1
  Sc  Sc14  1  0.151899  0.683305  0.368650  1
  Sc  Sc15  1  0.666740  0.822676  0.123528  1
  Sc  Sc16  1  0.828811  0.326679  0.625957  1
  Sc  Sc17  1  0.331300  0.175693  0.875781  1
  Sc  Sc18  1  0.832434  0.322947  0.875926  1
  Sc  Sc19  1  0.167465  0.676955  0.124740  1
  Si  Si20  1  0.038481  0.117265  0.751509  1
  Si  Si21  1  0.959203  0.887788  0.245546  1
  Si  Si22  1  0.459797  0.614377  0.247450  1
  Si  Si23  1  0.537208  0.386372  0.752998  1
  Si  Si24  1  0.290582  0.865575  0.753431  1
  Si  Si25  1  0.710268  0.128591  0.245775  1
  Si  Si26  1  0.208190  0.370800  0.248421  1
  Si  Si27  1  0.794559  0.630661  0.752168  1
  Si  Si28  1  0.809320  0.540406  0.456949  1
  Si  Si29  1  0.325018  0.963373  0.459640  1
  Si  Si30  1  0.842276  0.533066  0.040039  1
  Si  Si31  1  0.676536  0.038852  0.538596  1
  Si  Si32  1  0.156922  0.465206  0.961795  1
  Si  Si33  1  0.656598  0.033983  0.960366  1
  Si  Si34  1  0.340661  0.966945  0.040175  1
  Bi  Bi35  1  0.189832  0.458168  0.538744  1
