# generated using pymatgen
data_Dy3Ho9(TcOs)2
_symmetry_space_group_name_H-M   'P 1'
_cell_length_a   6.27937002
_cell_length_b   7.40787002
_cell_length_c   9.05812800
_cell_angle_alpha   90.00000000
_cell_angle_beta   90.00000000
_cell_angle_gamma   89.99204624
_symmetry_Int_Tables_number   1
_chemical_formula_structural   Dy3Ho9(TcOs)2
_chemical_formula_sum   'Dy3 Ho9 Tc2 Os2'
_cell_volume   421.35473378
_cell_formula_units_Z   1
loop_
 _symmetry_equiv_pos_site_id
 _symmetry_equiv_pos_as_xyz
  1  'x, y, z'
loop_
 _atom_site_type_symbol
 _atom_site_label
 _atom_site_symmetry_multiplicity
 _atom_site_fract_x
 _atom_site_fract_y
 _atom_site_fract_z
 _atom_site_occupancy
  Dy  Dy0  1  0.875343  0.539732  0.250000  1
  Dy  Dy1  1  0.624665  0.039735  0.250000  1
  Dy  Dy2  1  0.130438  0.459270  0.750000  1
  Ho  Ho3  1  0.336984  0.675388  0.062487  1
  Ho  Ho4  1  0.163036  0.175324  0.437536  1
  Ho  Ho5  1  0.665266  0.324303  0.563012  1
  Ho  Ho6  1  0.834682  0.824367  0.936949  1
  Ho  Ho7  1  0.665266  0.324303  0.936988  1
  Ho  Ho8  1  0.834682  0.824367  0.563051  1
  Ho  Ho9  1  0.336984  0.675388  0.437513  1
  Ho  Ho10  1  0.163036  0.175324  0.062464  1
  Ho  Ho11  1  0.369493  0.959277  0.750000  1
  Tc  Tc12  1  0.039046  0.884381  0.250000  1
  Tc  Tc13  1  0.460951  0.384363  0.250000  1
  Os  Os14  1  0.959506  0.117135  0.750000  1
  Os  Os15  1  0.540621  0.617338  0.750000  1
