# generated using pymatgen
data_Ho2Er3P12Ru17Pt2
_symmetry_space_group_name_H-M   'P 1'
_cell_length_a   12.60882800
_cell_length_b   12.52539064
_cell_length_c   3.97980900
_cell_angle_alpha   90.00000000
_cell_angle_beta   90.00000000
_cell_angle_gamma   120.21964611
_symmetry_Int_Tables_number   1
_chemical_formula_structural   Ho2Er3P12Ru17Pt2
_chemical_formula_sum   'Ho2 Er3 P12 Ru17 Pt2'
_cell_volume   543.11697444
_cell_formula_units_Z   1
loop_
 _symmetry_equiv_pos_site_id
 _symmetry_equiv_pos_as_xyz
  1  'x, y, z'
loop_
 _atom_site_type_symbol
 _atom_site_label
 _atom_site_symmetry_multiplicity
 _atom_site_fract_x
 _atom_site_fract_y
 _atom_site_fract_z
 _atom_site_occupancy
  Ho  Ho0  1  0.818861  0.817269  0.500000  1
  Ho  Ho1  1  0.183425  0.000006  0.500000  1
  Er  Er2  1  0.001598  0.182699  0.500000  1
  Er  Er3  1  0.664086  0.326984  0.000000  1
  Er  Er4  1  0.337086  0.673007  0.000000  1
  P  P5  1  0.997455  0.812315  0.000000  1
  P  P6  1  0.185066  0.187682  0.000000  1
  P  P7  1  0.818856  0.000062  0.000000  1
  P  P8  1  0.692634  0.169474  0.500000  1
  P  P9  1  0.816432  0.515683  0.500000  1
  P  P10  1  0.477774  0.299329  0.500000  1
  P  P11  1  0.178459  0.700667  0.500000  1
  P  P12  1  0.523179  0.830535  0.500000  1
  P  P13  1  0.300753  0.484317  0.500000  1
  P  P14  1  0.000285  0.364609  0.000000  1
  P  P15  1  0.635596  0.635311  0.000000  1
  P  P16  1  0.372943  0.999992  0.000000  1
  Ru  Ru17  1  0.555186  0.000004  0.000000  1
  Ru  Ru18  1  0.997153  0.709363  0.500000  1
  Ru  Ru19  1  0.287709  0.290613  0.500000  1
  Ru  Ru20  1  0.719250  0.000058  0.500000  1
  Ru  Ru21  1  0.809204  0.184503  0.000000  1
  Ru  Ru22  1  0.812725  0.617929  0.000000  1
  Ru  Ru23  1  0.375874  0.192635  0.000000  1
  Ru  Ru24  1  0.183248  0.807368  0.000000  1
  Ru  Ru25  1  0.624586  0.815519  0.000000  1
  Ru  Ru26  1  0.194674  0.381960  0.000000  1
  Ru  Ru27  1  0.869885  0.364659  0.500000  1
  Ru  Ru28  1  0.628800  0.505483  0.500000  1
  Ru  Ru29  1  0.491796  0.124141  0.500000  1
  Ru  Ru30  1  0.367660  0.875859  0.500000  1
  Ru  Ru31  1  0.505214  0.635331  0.500000  1
  Ru  Ru32  1  0.123324  0.494501  0.500000  1
  Ru  Ru33  1  0.003057  0.000144  0.000000  1
  Pt  Pt34  1  0.997755  0.549342  0.000000  1
  Pt  Pt35  1  0.448416  0.450646  0.000000  1
