# generated using pymatgen
data_Tb2YSi3Os2
_symmetry_space_group_name_H-M   'P 1'
_cell_length_a   5.78592978
_cell_length_b   5.78592997
_cell_length_c   13.73190900
_cell_angle_alpha   90.00000000
_cell_angle_beta   90.00000000
_cell_angle_gamma   137.45800165
_symmetry_Int_Tables_number   1
_chemical_formula_structural   Tb2YSi3Os2
_chemical_formula_sum   'Tb4 Y2 Si6 Os4'
_cell_volume   310.81913560
_cell_formula_units_Z   2
loop_
 _symmetry_equiv_pos_site_id
 _symmetry_equiv_pos_as_xyz
  1  'x, y, z'
loop_
 _atom_site_type_symbol
 _atom_site_label
 _atom_site_symmetry_multiplicity
 _atom_site_fract_x
 _atom_site_fract_y
 _atom_site_fract_z
 _atom_site_occupancy
  Tb  Tb0  1  0.924368  0.075632  0.115728  1
  Tb  Tb1  1  0.075632  0.924368  0.884272  1
  Tb  Tb2  1  0.075632  0.924368  0.615728  1
  Tb  Tb3  1  0.924368  0.075632  0.384272  1
  Y  Y4  1  0.640844  0.359156  0.250000  1
  Y  Y5  1  0.359156  0.640844  0.750000  1
  Si  Si6  1  0.324049  0.675951  0.250000  1
  Si  Si7  1  0.675951  0.324049  0.750000  1
  Si  Si8  1  0.618441  0.381559  0.038062  1
  Si  Si9  1  0.381559  0.618441  0.961938  1
  Si  Si10  1  0.381559  0.618441  0.538062  1
  Si  Si11  1  0.618441  0.381559  0.461938  1
  Os  Os12  1  0.786208  0.213792  0.581774  1
  Os  Os13  1  0.213792  0.786208  0.418226  1
  Os  Os14  1  0.213792  0.786208  0.081774  1
  Os  Os15  1  0.786208  0.213792  0.918226  1
