# generated using pymatgen
data_Er4Cd2CuNi2Pd
_symmetry_space_group_name_H-M   'P 1'
_cell_length_a   7.46729115
_cell_length_b   7.46729132
_cell_length_c   3.64324200
_cell_angle_alpha   90.00000000
_cell_angle_beta   90.00000000
_cell_angle_gamma   90.66482692
_symmetry_Int_Tables_number   1
_chemical_formula_structural   Er4Cd2CuNi2Pd
_chemical_formula_sum   'Er4 Cd2 Cu1 Ni2 Pd1'
_cell_volume   203.13509531
_cell_formula_units_Z   1
loop_
 _symmetry_equiv_pos_site_id
 _symmetry_equiv_pos_as_xyz
  1  'x, y, z'
loop_
 _atom_site_type_symbol
 _atom_site_label
 _atom_site_symmetry_multiplicity
 _atom_site_fract_x
 _atom_site_fract_y
 _atom_site_fract_z
 _atom_site_occupancy
  Er  Er0  1  0.680055  0.185883  0.500000  1
  Er  Er1  1  0.314117  0.819945  0.500000  1
  Er  Er2  1  0.166312  0.333688  0.500000  1
  Er  Er3  1  0.838518  0.661482  0.500000  1
  Cd  Cd4  1  0.993068  0.997890  0.000000  1
  Cd  Cd5  1  0.502110  0.506932  0.000000  1
  Cu  Cu6  1  0.625563  0.874437  0.000000  1
  Ni  Ni7  1  0.121342  0.619474  0.000000  1
  Ni  Ni8  1  0.880526  0.378658  0.000000  1
  Pd  Pd9  1  0.378390  0.121610  0.000000  1
