# generated using pymatgen
data_YbZrH6
_symmetry_space_group_name_H-M   'P 1'
_cell_length_a   6.32568800
_cell_length_b   6.38260000
_cell_length_c   6.32568800
_cell_angle_alpha   90.00000000
_cell_angle_beta   90.00000000
_cell_angle_gamma   90.00000000
_symmetry_Int_Tables_number   1
_chemical_formula_structural   YbZrH6
_chemical_formula_sum   'Yb4 Zr4 H24'
_cell_volume   255.39545419
_cell_formula_units_Z   4
loop_
 _symmetry_equiv_pos_site_id
 _symmetry_equiv_pos_as_xyz
  1  'x, y, z'
loop_
 _atom_site_type_symbol
 _atom_site_label
 _atom_site_symmetry_multiplicity
 _atom_site_fract_x
 _atom_site_fract_y
 _atom_site_fract_z
 _atom_site_occupancy
  Yb  Yb0  1  0.243898  0.000000  0.500000  1
  Yb  Yb1  1  0.756102  0.000000  0.500000  1
  Yb  Yb2  1  0.000000  0.500000  0.256102  1
  Yb  Yb3  1  0.000000  0.500000  0.743898  1
  Zr  Zr4  1  0.000000  0.000000  0.000000  1
  Zr  Zr5  1  0.500000  0.500000  0.500000  1
  Zr  Zr6  1  0.500000  0.750000  0.000000  1
  Zr  Zr7  1  0.500000  0.250000  0.000000  1
  H  H8  1  0.000000  0.153744  0.285578  1
  H  H9  1  0.500000  0.221587  0.670232  1
  H  H10  1  0.500000  0.778413  0.329768  1
  H  H11  1  0.785578  0.653744  0.500000  1
  H  H12  1  0.214422  0.653744  0.500000  1
  H  H13  1  0.353495  0.500000  0.820271  1
  H  H14  1  0.646505  0.500000  0.820271  1
  H  H15  1  0.320271  0.000000  0.146505  1
  H  H16  1  0.170232  0.278413  0.000000  1
  H  H17  1  0.829768  0.721587  0.000000  1
  H  H18  1  0.320271  0.000000  0.853495  1
  H  H19  1  0.829768  0.278413  0.000000  1
  H  H20  1  0.679729  0.000000  0.146505  1
  H  H21  1  0.679729  0.000000  0.853495  1
  H  H22  1  0.170232  0.721587  0.000000  1
  H  H23  1  0.000000  0.846256  0.714422  1
  H  H24  1  0.000000  0.153744  0.714422  1
  H  H25  1  0.000000  0.846256  0.285578  1
  H  H26  1  0.646505  0.500000  0.179729  1
  H  H27  1  0.353495  0.500000  0.179729  1
  H  H28  1  0.785578  0.346256  0.500000  1
  H  H29  1  0.214422  0.346256  0.500000  1
  H  H30  1  0.500000  0.778413  0.670232  1
  H  H31  1  0.500000  0.221587  0.329768  1
