# generated using pymatgen
data_Y2ThSi2Ag3Hg
_symmetry_space_group_name_H-M   'P 1'
_cell_length_a   7.32769981
_cell_length_b   7.32769989
_cell_length_c   4.27356200
_cell_angle_alpha   90.00000000
_cell_angle_beta   90.00000000
_cell_angle_gamma   120.05528831
_symmetry_Int_Tables_number   1
_chemical_formula_structural   Y2ThSi2Ag3Hg
_chemical_formula_sum   'Y2 Th1 Si2 Ag3 Hg1'
_cell_volume   198.61578446
_cell_formula_units_Z   1
loop_
 _symmetry_equiv_pos_site_id
 _symmetry_equiv_pos_as_xyz
  1  'x, y, z'
loop_
 _atom_site_type_symbol
 _atom_site_label
 _atom_site_symmetry_multiplicity
 _atom_site_fract_x
 _atom_site_fract_y
 _atom_site_fract_z
 _atom_site_occupancy
  Y  Y0  1  0.418520  0.999391  0.500000  1
  Y  Y1  1  0.999391  0.418520  0.500000  1
  Th  Th2  1  0.579312  0.579312  0.500000  1
  Si  Si3  1  0.331882  0.668001  0.000000  1
  Si  Si4  1  0.668001  0.331882  0.000000  1
  Ag  Ag5  1  0.730617  0.002439  0.000000  1
  Ag  Ag6  1  0.002439  0.730617  0.000000  1
  Ag  Ag7  1  0.264420  0.264420  0.000000  1
  Hg  Hg8  1  0.005416  0.005416  0.500000  1
