# generated using pymatgen
data_Sc4CoAg
_symmetry_space_group_name_H-M   'P 1'
_cell_length_a   8.79141599
_cell_length_b   8.78811304
_cell_length_c   8.78811300
_cell_angle_alpha   60.00000393
_cell_angle_beta   60.01243125
_cell_angle_gamma   60.01243513
_symmetry_Int_Tables_number   1
_chemical_formula_structural   Sc4CoAg
_chemical_formula_sum   'Sc16 Co4 Ag4'
_cell_volume   480.19397120
_cell_formula_units_Z   4
loop_
 _symmetry_equiv_pos_site_id
 _symmetry_equiv_pos_as_xyz
  1  'x, y, z'
loop_
 _atom_site_type_symbol
 _atom_site_label
 _atom_site_symmetry_multiplicity
 _atom_site_fract_x
 _atom_site_fract_y
 _atom_site_fract_z
 _atom_site_occupancy
  Sc  Sc0  1  0.598766  0.598544  0.598544  1
  Sc  Sc1  1  0.598766  0.598544  0.204146  1
  Sc  Sc2  1  0.598766  0.204146  0.598544  1
  Sc  Sc3  1  0.202812  0.599063  0.599063  1
  Sc  Sc4  1  0.062087  0.437585  0.437585  1
  Sc  Sc5  1  0.437471  0.062592  0.062592  1
  Sc  Sc6  1  0.437471  0.062592  0.437343  1
  Sc  Sc7  1  0.062087  0.437585  0.062746  1
  Sc  Sc8  1  0.437471  0.437343  0.062592  1
  Sc  Sc9  1  0.062087  0.062746  0.437585  1
  Sc  Sc10  1  0.188066  0.812308  0.812308  1
  Sc  Sc11  1  0.812939  0.187260  0.187260  1
  Sc  Sc12  1  0.812939  0.187260  0.812541  1
  Sc  Sc13  1  0.188066  0.812308  0.187320  1
  Sc  Sc14  1  0.812939  0.812541  0.187260  1
  Sc  Sc15  1  0.188066  0.187320  0.812308  1
  Co  Co16  1  0.391026  0.392128  0.392128  1
  Co  Co17  1  0.391026  0.392128  0.824720  1
  Co  Co18  1  0.391026  0.824720  0.392128  1
  Co  Co19  1  0.824437  0.391855  0.391855  1
  Ag  Ag20  1  0.502167  0.832611  0.832611  1
  Ag  Ag21  1  0.833176  0.832915  0.832915  1
  Ag  Ag22  1  0.833176  0.832915  0.500995  1
  Ag  Ag23  1  0.833176  0.500995  0.832915  1
