# generated using pymatgen
data_Sr(NdPb4)3
_symmetry_space_group_name_H-M   'P 1'
_cell_length_a   9.97249400
_cell_length_b   6.98210442
_cell_length_c   6.95176000
_cell_angle_alpha   90.17189323
_cell_angle_beta   90.00000000
_cell_angle_gamma   90.00000000
_symmetry_Int_Tables_number   1
_chemical_formula_structural   Sr(NdPb4)3
_chemical_formula_sum   'Sr1 Nd3 Pb12'
_cell_volume   484.04188012
_cell_formula_units_Z   1
loop_
 _symmetry_equiv_pos_site_id
 _symmetry_equiv_pos_as_xyz
  1  'x, y, z'
loop_
 _atom_site_type_symbol
 _atom_site_label
 _atom_site_symmetry_multiplicity
 _atom_site_fract_x
 _atom_site_fract_y
 _atom_site_fract_z
 _atom_site_occupancy
  Sr  Sr0  1  0.750000  0.501555  0.499647  1
  Nd  Nd1  1  0.250000  0.000680  0.000440  1
  Nd  Nd2  1  0.250000  0.500620  0.501619  1
  Nd  Nd3  1  0.750000  0.999702  0.998661  1
  Pb  Pb4  1  0.750000  0.497232  0.999266  1
  Pb  Pb5  1  0.000341  0.245248  0.749398  1
  Pb  Pb6  1  0.499706  0.249705  0.246054  1
  Pb  Pb7  1  0.500198  0.754202  0.248899  1
  Pb  Pb8  1  0.000094  0.749746  0.755374  1
  Pb  Pb9  1  0.999802  0.754202  0.248899  1
  Pb  Pb10  1  0.499906  0.749746  0.755374  1
  Pb  Pb11  1  0.499659  0.245248  0.749398  1
  Pb  Pb12  1  0.000294  0.249705  0.246054  1
  Pb  Pb13  1  0.250000  0.999800  0.500243  1
  Pb  Pb14  1  0.250000  0.501080  0.001696  1
  Pb  Pb15  1  0.750000  0.001530  0.498977  1
