# generated using pymatgen
data_Ba2VCu8Ge(P4O17)2
_symmetry_space_group_name_H-M   'P 1'
_cell_length_a   9.73455600
_cell_length_b   9.73455600
_cell_length_c   7.34686600
_cell_angle_alpha   90.00000000
_cell_angle_beta   90.00000000
_cell_angle_gamma   90.00000000
_symmetry_Int_Tables_number   1
_chemical_formula_structural   Ba2VCu8Ge(P4O17)2
_chemical_formula_sum   'Ba2 V1 Cu8 Ge1 P8 O34'
_cell_volume   696.20063401
_cell_formula_units_Z   1
loop_
 _symmetry_equiv_pos_site_id
 _symmetry_equiv_pos_as_xyz
  1  'x, y, z'
loop_
 _atom_site_type_symbol
 _atom_site_label
 _atom_site_symmetry_multiplicity
 _atom_site_fract_x
 _atom_site_fract_y
 _atom_site_fract_z
 _atom_site_occupancy
  Ba  Ba0  1  0.000000  0.000000  0.002167  1
  Ba  Ba1  1  0.500000  0.500000  0.002167  1
  V  V2  1  0.500000  0.000000  0.030264  1
  Cu  Cu3  1  0.227932  0.487200  0.395186  1
  Cu  Cu4  1  0.487145  0.235424  0.598131  1
  Cu  Cu5  1  0.012800  0.727932  0.395186  1
  Cu  Cu6  1  0.772068  0.512800  0.395186  1
  Cu  Cu7  1  0.735424  0.012855  0.598131  1
  Cu  Cu8  1  0.987200  0.272068  0.395186  1
  Cu  Cu9  1  0.512855  0.764576  0.598131  1
  Cu  Cu10  1  0.264576  0.987145  0.598131  1
  Ge  Ge11  1  0.000000  0.500000  0.969206  1
  P  P12  1  0.216597  0.689745  0.733144  1
  P  P13  1  0.810255  0.716597  0.733144  1
  P  P14  1  0.719037  0.808972  0.265856  1
  P  P15  1  0.189745  0.283403  0.733144  1
  P  P16  1  0.783403  0.310255  0.733144  1
  P  P17  1  0.280963  0.191028  0.265856  1
  P  P18  1  0.691028  0.219037  0.265856  1
  P  P19  1  0.308972  0.780963  0.265856  1
  O  O20  1  0.000000  0.500000  0.204502  1
  O  O21  1  0.875807  0.837194  0.268402  1
  O  O22  1  0.896136  0.659784  0.895461  1
  O  O23  1  0.319512  0.344703  0.247592  1
  O  O24  1  0.844703  0.180488  0.247592  1
  O  O25  1  0.840216  0.396136  0.895461  1
  O  O26  1  0.680488  0.655297  0.247592  1
  O  O27  1  0.500000  0.000000  0.802921  1
  O  O28  1  0.656256  0.679090  0.753113  1
  O  O29  1  0.820910  0.156256  0.753113  1
  O  O30  1  0.663024  0.893699  0.105629  1
  O  O31  1  0.103864  0.340216  0.895461  1
  O  O32  1  0.343744  0.320910  0.753113  1
  O  O33  1  0.179090  0.843744  0.753113  1
  O  O34  1  0.626292  0.338141  0.734010  1
  O  O35  1  0.336976  0.106301  0.105629  1
  O  O36  1  0.124193  0.162806  0.268402  1
  O  O37  1  0.838141  0.873708  0.734010  1
  O  O38  1  0.864506  0.651514  0.550076  1
  O  O39  1  0.346903  0.136657  0.450594  1
  O  O40  1  0.337194  0.624193  0.268402  1
  O  O41  1  0.848486  0.364506  0.550076  1
  O  O42  1  0.653097  0.863343  0.450594  1
  O  O43  1  0.159784  0.603864  0.895461  1
  O  O44  1  0.161859  0.126292  0.734010  1
  O  O45  1  0.373708  0.661859  0.734010  1
  O  O46  1  0.155297  0.819512  0.247592  1
  O  O47  1  0.363343  0.846903  0.450594  1
  O  O48  1  0.393699  0.836976  0.105629  1
  O  O49  1  0.662806  0.375807  0.268402  1
  O  O50  1  0.636657  0.153097  0.450594  1
  O  O51  1  0.135494  0.348486  0.550076  1
  O  O52  1  0.606301  0.163024  0.105629  1
  O  O53  1  0.151514  0.635494  0.550076  1
