# generated using pymatgen
data_Tb2Ho2ReB12Ir
_symmetry_space_group_name_H-M   'P 1'
_cell_length_a   3.67204800
_cell_length_b   9.16358926
_cell_length_c   11.55628808
_cell_angle_alpha   90.32236399
_cell_angle_beta   90.00000000
_cell_angle_gamma   90.00000000
_symmetry_Int_Tables_number   1
_chemical_formula_structural   Tb2Ho2ReB12Ir
_chemical_formula_sum   'Tb4 Ho4 Re2 B24 Ir2'
_cell_volume   388.85299659
_cell_formula_units_Z   2
loop_
 _symmetry_equiv_pos_site_id
 _symmetry_equiv_pos_as_xyz
  1  'x, y, z'
loop_
 _atom_site_type_symbol
 _atom_site_label
 _atom_site_symmetry_multiplicity
 _atom_site_fract_x
 _atom_site_fract_y
 _atom_site_fract_z
 _atom_site_occupancy
  Tb  Tb0  1  0.000000  0.317486  0.409986  1
  Tb  Tb1  1  0.000000  0.682514  0.590014  1
  Tb  Tb2  1  0.000000  0.826428  0.082523  1
  Tb  Tb3  1  0.000000  0.173572  0.917477  1
  Ho  Ho4  1  0.000000  0.946210  0.372199  1
  Ho  Ho5  1  0.000000  0.053790  0.627801  1
  Ho  Ho6  1  0.000000  0.441699  0.125930  1
  Ho  Ho7  1  0.000000  0.558301  0.874070  1
  Re  Re8  1  0.000000  0.138574  0.179932  1
  Re  Re9  1  0.000000  0.861426  0.820068  1
  B  B10  1  0.500000  0.554417  0.433540  1
  B  B11  1  0.500000  0.445583  0.566460  1
  B  B12  1  0.500000  0.053625  0.067595  1
  B  B13  1  0.500000  0.946375  0.932405  1
  B  B14  1  0.500000  0.749462  0.420804  1
  B  B15  1  0.500000  0.250538  0.579196  1
  B  B16  1  0.500000  0.247903  0.081078  1
  B  B17  1  0.500000  0.752097  0.918922  1
  B  B18  1  0.500000  0.790735  0.266247  1
  B  B19  1  0.500000  0.209265  0.733753  1
  B  B20  1  0.500000  0.292035  0.233991  1
  B  B21  1  0.500000  0.707965  0.766009  1
  B  B22  1  0.500000  0.631577  0.184221  1
  B  B23  1  0.500000  0.368423  0.815779  1
  B  B24  1  0.500000  0.131500  0.314483  1
  B  B25  1  0.500000  0.868500  0.685517  1
  B  B26  1  0.500000  0.983391  0.213204  1
  B  B27  1  0.500000  0.016609  0.786796  1
  B  B28  1  0.500000  0.482935  0.287089  1
  B  B29  1  0.500000  0.517065  0.712911  1
  B  B30  1  0.500000  0.606551  0.029842  1
  B  B31  1  0.500000  0.393449  0.970158  1
  B  B32  1  0.500000  0.107251  0.470893  1
  B  B33  1  0.500000  0.892749  0.529107  1
  Ir  Ir34  1  0.000000  0.636858  0.321773  1
  Ir  Ir35  1  0.000000  0.363142  0.678227  1
