# generated using pymatgen
data_K2Si2Hg3S8
_symmetry_space_group_name_H-M   'P 1'
_cell_length_a   6.45186100
_cell_length_b   9.85440439
_cell_length_c   13.22312102
_cell_angle_alpha   84.77323671
_cell_angle_beta   90.00000000
_cell_angle_gamma   90.00000000
_symmetry_Int_Tables_number   1
_chemical_formula_structural   K2Si2Hg3S8
_chemical_formula_sum   'K4 Si4 Hg6 S16'
_cell_volume   837.22034655
_cell_formula_units_Z   2
loop_
 _symmetry_equiv_pos_site_id
 _symmetry_equiv_pos_as_xyz
  1  'x, y, z'
loop_
 _atom_site_type_symbol
 _atom_site_label
 _atom_site_symmetry_multiplicity
 _atom_site_fract_x
 _atom_site_fract_y
 _atom_site_fract_z
 _atom_site_occupancy
  K  K0  1  0.152745  0.223248  0.679268  1
  K  K1  1  0.847255  0.776752  0.320732  1
  K  K2  1  0.652745  0.776752  0.820732  1
  K  K3  1  0.347255  0.223248  0.179268  1
  Si  Si4  1  0.194423  0.718823  0.582407  1
  Si  Si5  1  0.805577  0.281177  0.417593  1
  Si  Si6  1  0.694423  0.281177  0.917593  1
  Si  Si7  1  0.305577  0.718823  0.082407  1
  Hg  Hg8  1  0.211568  0.489426  0.887667  1
  Hg  Hg9  1  0.788432  0.510574  0.112333  1
  Hg  Hg10  1  0.711568  0.510574  0.612333  1
  Hg  Hg11  1  0.288432  0.489426  0.387667  1
  Hg  Hg12  1  0.500000  0.000000  0.500000  1
  Hg  Hg13  1  0.000000  0.000000  0.000000  1
  S  S14  1  0.863444  0.740438  0.591860  1
  S  S15  1  0.136556  0.259562  0.408140  1
  S  S16  1  0.363444  0.259562  0.908140  1
  S  S17  1  0.636556  0.740438  0.091860  1
  S  S18  1  0.310154  0.545049  0.668976  1
  S  S19  1  0.689846  0.454951  0.331024  1
  S  S20  1  0.810154  0.454951  0.831024  1
  S  S21  1  0.189846  0.545049  0.168976  1
  S  S22  1  0.304825  0.906336  0.642053  1
  S  S23  1  0.695175  0.093664  0.357947  1
  S  S24  1  0.804825  0.093664  0.857947  1
  S  S25  1  0.195175  0.906336  0.142053  1
  S  S26  1  0.203771  0.730833  0.926863  1
  S  S27  1  0.796229  0.269167  0.073137  1
  S  S28  1  0.703771  0.269167  0.573137  1
  S  S29  1  0.296229  0.730833  0.426863  1
