# generated using pymatgen
data_Tm4Al3Re2Tc3
_symmetry_space_group_name_H-M   'P 1'
_cell_length_a   5.43993968
_cell_length_b   5.36897566
_cell_length_c   8.75814000
_cell_angle_alpha   90.00000000
_cell_angle_beta   90.00000000
_cell_angle_gamma   119.56941093
_symmetry_Int_Tables_number   1
_chemical_formula_structural   Tm4Al3Re2Tc3
_chemical_formula_sum   'Tm4 Al3 Re2 Tc3'
_cell_volume   222.48261963
_cell_formula_units_Z   1
loop_
 _symmetry_equiv_pos_site_id
 _symmetry_equiv_pos_as_xyz
  1  'x, y, z'
loop_
 _atom_site_type_symbol
 _atom_site_label
 _atom_site_symmetry_multiplicity
 _atom_site_fract_x
 _atom_site_fract_y
 _atom_site_fract_z
 _atom_site_occupancy
  Tm  Tm0  1  0.326051  0.663026  0.435121  1
  Tm  Tm1  1  0.671789  0.335894  0.556822  1
  Tm  Tm2  1  0.671789  0.335894  0.943178  1
  Tm  Tm3  1  0.326051  0.663026  0.064879  1
  Al  Al4  1  0.328048  0.164024  0.250000  1
  Al  Al5  1  0.194312  0.847973  0.750000  1
  Al  Al6  1  0.194312  0.346339  0.750000  1
  Re  Re7  1  0.826231  0.169086  0.250000  1
  Re  Re8  1  0.826231  0.657146  0.250000  1
  Tc  Tc9  1  0.972408  0.986203  0.505213  1
  Tc  Tc10  1  0.972408  0.986203  0.994787  1
  Tc  Tc11  1  0.690370  0.845185  0.750000  1
