# generated using pymatgen
data_Cs6YTmI12
_symmetry_space_group_name_H-M   'P 1'
_cell_length_a   10.63269658
_cell_length_b   10.64837471
_cell_length_c   8.79485000
_cell_angle_alpha   90.00000000
_cell_angle_beta   90.00000000
_cell_angle_gamma   89.84649302
_symmetry_Int_Tables_number   1
_chemical_formula_structural   Cs6YTmI12
_chemical_formula_sum   'Cs6 Y1 Tm1 I12'
_cell_volume   995.75758710
_cell_formula_units_Z   1
loop_
 _symmetry_equiv_pos_site_id
 _symmetry_equiv_pos_as_xyz
  1  'x, y, z'
loop_
 _atom_site_type_symbol
 _atom_site_label
 _atom_site_symmetry_multiplicity
 _atom_site_fract_x
 _atom_site_fract_y
 _atom_site_fract_z
 _atom_site_occupancy
  Cs  Cs0  1  0.000000  0.000000  0.500000  1
  Cs  Cs1  1  0.000000  0.000000  0.000000  1
  Cs  Cs2  1  0.233864  0.586734  0.500000  1
  Cs  Cs3  1  0.766136  0.413266  0.500000  1
  Cs  Cs4  1  0.412785  0.232341  0.000000  1
  Cs  Cs5  1  0.587215  0.767659  0.000000  1
  Y  Y6  1  0.500000  0.000000  0.500000  1
  Tm  Tm7  1  0.000000  0.500000  0.000000  1
  I  I8  1  0.695356  0.059147  0.744982  1
  I  I9  1  0.304644  0.940853  0.744982  1
  I  I10  1  0.941227  0.693069  0.242061  1
  I  I11  1  0.058773  0.306931  0.242061  1
  I  I12  1  0.304644  0.940853  0.255018  1
  I  I13  1  0.695356  0.059147  0.255018  1
  I  I14  1  0.058773  0.306931  0.757939  1
  I  I15  1  0.941227  0.693069  0.757939  1
  I  I16  1  0.571145  0.723736  0.500000  1
  I  I17  1  0.428855  0.276264  0.500000  1
  I  I18  1  0.273392  0.569396  0.000000  1
  I  I19  1  0.726608  0.430604  0.000000  1
