# generated using pymatgen
data_Nd2Cd4Ga4CuNi
_symmetry_space_group_name_H-M   'P 1'
_cell_length_a   4.21453404
_cell_length_b   6.73621600
_cell_length_c   8.69577689
_cell_angle_alpha   90.00000000
_cell_angle_beta   104.02423287
_cell_angle_gamma   90.00000000
_symmetry_Int_Tables_number   1
_chemical_formula_structural   Nd2Cd4Ga4CuNi
_chemical_formula_sum   'Nd2 Cd4 Ga4 Cu1 Ni1'
_cell_volume   239.51473620
_cell_formula_units_Z   1
loop_
 _symmetry_equiv_pos_site_id
 _symmetry_equiv_pos_as_xyz
  1  'x, y, z'
loop_
 _atom_site_type_symbol
 _atom_site_label
 _atom_site_symmetry_multiplicity
 _atom_site_fract_x
 _atom_site_fract_y
 _atom_site_fract_z
 _atom_site_occupancy
  Nd  Nd0  1  0.871262  0.750000  0.742523  1
  Nd  Nd1  1  0.127890  0.250000  0.255781  1
  Cd  Cd2  1  0.500307  0.499943  0.000615  1
  Cd  Cd3  1  0.500307  0.000057  0.000615  1
  Cd  Cd4  1  0.072542  0.750000  0.145084  1
  Cd  Cd5  1  0.926382  0.250000  0.852763  1
  Ga  Ga6  1  0.690275  0.548274  0.380551  1
  Ga  Ga7  1  0.310344  0.443370  0.620687  1
  Ga  Ga8  1  0.690275  0.951726  0.380551  1
  Ga  Ga9  1  0.310344  0.056630  0.620687  1
  Cu  Cu10  1  0.228294  0.750000  0.456588  1
  Ni  Ni11  1  0.771777  0.250000  0.543553  1
