# generated using pymatgen
data_Ac6OsO12
_symmetry_space_group_name_H-M   'P 1'
_cell_length_a   7.06994707
_cell_length_b   7.06994614
_cell_length_c   7.06994600
_cell_angle_alpha   98.50217493
_cell_angle_beta   98.50218200
_cell_angle_gamma   98.50218091
_symmetry_Int_Tables_number   1
_chemical_formula_structural   Ac6OsO12
_chemical_formula_sum   'Ac6 Os1 O12'
_cell_volume   340.41842239
_cell_formula_units_Z   1
loop_
 _symmetry_equiv_pos_site_id
 _symmetry_equiv_pos_as_xyz
  1  'x, y, z'
loop_
 _atom_site_type_symbol
 _atom_site_label
 _atom_site_symmetry_multiplicity
 _atom_site_fract_x
 _atom_site_fract_y
 _atom_site_fract_z
 _atom_site_occupancy
  Ac  Ac0  1  0.142457  0.301227  0.604490  1
  Ac  Ac1  1  0.395510  0.857543  0.698773  1
  Ac  Ac2  1  0.698773  0.395510  0.857543  1
  Ac  Ac3  1  0.301227  0.604490  0.142457  1
  Ac  Ac4  1  0.604490  0.142457  0.301227  1
  Ac  Ac5  1  0.857543  0.698773  0.395510  1
  Os  Os6  1  0.000000  0.000000  0.000000  1
  O  O7  1  0.066217  0.275776  0.970736  1
  O  O8  1  0.029264  0.933783  0.724224  1
  O  O9  1  0.405662  0.556009  0.822546  1
  O  O10  1  0.177454  0.594338  0.443991  1
  O  O11  1  0.724224  0.029264  0.933783  1
  O  O12  1  0.443991  0.177454  0.594338  1
  O  O13  1  0.556009  0.822546  0.405662  1
  O  O14  1  0.275776  0.970736  0.066217  1
  O  O15  1  0.822546  0.405662  0.556009  1
  O  O16  1  0.594338  0.443991  0.177454  1
  O  O17  1  0.970736  0.066217  0.275776  1
  O  O18  1  0.933783  0.724224  0.029264  1
