# generated using pymatgen
data_Er3Mg(B4Ru5)2
_symmetry_space_group_name_H-M   'P 1'
_cell_length_a   3.03668900
_cell_length_b   8.67400985
_cell_length_c   10.17198458
_cell_angle_alpha   90.70379152
_cell_angle_beta   90.00000000
_cell_angle_gamma   90.00000000
_symmetry_Int_Tables_number   1
_chemical_formula_structural   Er3Mg(B4Ru5)2
_chemical_formula_sum   'Er3 Mg1 B8 Ru10'
_cell_volume   267.91261023
_cell_formula_units_Z   1
loop_
 _symmetry_equiv_pos_site_id
 _symmetry_equiv_pos_as_xyz
  1  'x, y, z'
loop_
 _atom_site_type_symbol
 _atom_site_label
 _atom_site_symmetry_multiplicity
 _atom_site_fract_x
 _atom_site_fract_y
 _atom_site_fract_z
 _atom_site_occupancy
  Er  Er0  1  0.500000  0.659731  0.821056  1
  Er  Er1  1  0.500000  0.343683  0.186942  1
  Er  Er2  1  0.500000  0.156807  0.676082  1
  Mg  Mg3  1  0.500000  0.846742  0.312823  1
  B  B4  1  0.500000  0.850282  0.597435  1
  B  B5  1  0.500000  0.140017  0.397613  1
  B  B6  1  0.500000  0.353052  0.901494  1
  B  B7  1  0.500000  0.651578  0.106582  1
  B  B8  1  0.500000  0.966594  0.910635  1
  B  B9  1  0.500000  0.034424  0.087889  1
  B  B10  1  0.500000  0.465399  0.588663  1
  B  B11  1  0.500000  0.537196  0.412325  1
  Ru  Ru12  1  0.000000  0.405499  0.740240  1
  Ru  Ru13  1  0.000000  0.606996  0.265688  1
  Ru  Ru14  1  0.000000  0.906100  0.759380  1
  Ru  Ru15  1  0.000000  0.089382  0.237854  1
  Ru  Ru16  1  0.000000  0.989508  0.493891  1
  Ru  Ru17  1  0.000000  0.501245  0.003182  1
  Ru  Ru18  1  0.000000  0.654254  0.549035  1
  Ru  Ru19  1  0.000000  0.338729  0.453751  1
  Ru  Ru20  1  0.000000  0.160165  0.953020  1
  Ru  Ru21  1  0.000000  0.842620  0.044421  1
