# generated using pymatgen
data_La2Y2Er2CoI10
_symmetry_space_group_name_H-M   'P 1'
_cell_length_a   7.84103264
_cell_length_b   9.83201194
_cell_length_c   9.79113421
_cell_angle_alpha   106.70495334
_cell_angle_beta   95.46868278
_cell_angle_gamma   105.68766692
_symmetry_Int_Tables_number   1
_chemical_formula_structural   La2Y2Er2CoI10
_chemical_formula_sum   'La2 Y2 Er2 Co1 I10'
_cell_volume   683.67990232
_cell_formula_units_Z   1
loop_
 _symmetry_equiv_pos_site_id
 _symmetry_equiv_pos_as_xyz
  1  'x, y, z'
loop_
 _atom_site_type_symbol
 _atom_site_label
 _atom_site_symmetry_multiplicity
 _atom_site_fract_x
 _atom_site_fract_y
 _atom_site_fract_z
 _atom_site_occupancy
  La  La0  1  0.886087  0.957374  0.229925  1
  La  La1  1  0.113913  0.042626  0.770075  1
  Y  Y2  1  0.655715  0.875327  0.838614  1
  Y  Y3  1  0.344285  0.124673  0.161386  1
  Er  Er4  1  0.027296  0.719681  0.915186  1
  Er  Er5  1  0.972704  0.280319  0.084814  1
  Co  Co6  1  0.000000  0.000000  0.000000  1
  I  I7  1  0.654444  0.552938  0.731869  1
  I  I8  1  0.345556  0.447062  0.268131  1
  I  I9  1  0.729254  0.910390  0.541968  1
  I  I10  1  0.270746  0.089610  0.458032  1
  I  I11  1  0.081306  0.380258  0.826408  1
  I  I12  1  0.918694  0.619742  0.173592  1
  I  I13  1  0.442774  0.815883  0.088582  1
  I  I14  1  0.557226  0.184117  0.911418  1
  I  I15  1  0.225602  0.735942  0.660039  1
  I  I16  1  0.774398  0.264058  0.339961  1
