# generated using pymatgen
data_Hf18Ta5Re3S2
_symmetry_space_group_name_H-M   'P 1'
_cell_length_a   8.65923100
_cell_length_b   8.72081422
_cell_length_c   8.73411000
_cell_angle_alpha   90.00000000
_cell_angle_beta   90.00000000
_cell_angle_gamma   120.23553319
_symmetry_Int_Tables_number   1
_chemical_formula_structural   Hf18Ta5Re3S2
_chemical_formula_sum   'Hf18 Ta5 Re3 S2'
_cell_volume   569.83615236
_cell_formula_units_Z   1
loop_
 _symmetry_equiv_pos_site_id
 _symmetry_equiv_pos_as_xyz
  1  'x, y, z'
loop_
 _atom_site_type_symbol
 _atom_site_label
 _atom_site_symmetry_multiplicity
 _atom_site_fract_x
 _atom_site_fract_y
 _atom_site_fract_z
 _atom_site_occupancy
  Hf  Hf0  1  0.197840  0.803599  0.450649  1
  Hf  Hf1  1  0.197840  0.394240  0.450649  1
  Hf  Hf2  1  0.608348  0.804173  0.453217  1
  Hf  Hf3  1  0.802775  0.196380  0.552994  1
  Hf  Hf4  1  0.802775  0.606396  0.552994  1
  Hf  Hf5  1  0.393424  0.196713  0.552544  1
  Hf  Hf6  1  0.802775  0.196380  0.947006  1
  Hf  Hf7  1  0.802775  0.606396  0.947006  1
  Hf  Hf8  1  0.393424  0.196713  0.947456  1
  Hf  Hf9  1  0.197840  0.803599  0.049351  1
  Hf  Hf10  1  0.197840  0.394240  0.049351  1
  Hf  Hf11  1  0.608348  0.804173  0.046783  1
  Hf  Hf12  1  0.540981  0.460370  0.250000  1
  Hf  Hf13  1  0.540981  0.080611  0.250000  1
  Hf  Hf14  1  0.919511  0.459756  0.250000  1
  Hf  Hf15  1  0.459923  0.544676  0.750000  1
  Hf  Hf16  1  0.459923  0.915245  0.750000  1
  Hf  Hf17  1  0.083995  0.541997  0.750000  1
  Ta  Ta18  1  0.888696  0.110347  0.250000  1
  Ta  Ta19  1  0.888696  0.778347  0.250000  1
  Ta  Ta20  1  0.221848  0.110923  0.250000  1
  Ta  Ta21  1  0.106670  0.887436  0.750000  1
  Ta  Ta22  1  0.106670  0.219234  0.750000  1
  Re  Re23  1  0.776390  0.888195  0.750000  1
  Re  Re24  1  0.998785  0.999392  0.499686  1
  Re  Re25  1  0.998785  0.999392  0.000314  1
  S  S26  1  0.334470  0.667236  0.250000  1
  S  S27  1  0.667673  0.333836  0.750000  1
