# generated using pymatgen
data_YbBiRu2O7
_symmetry_space_group_name_H-M   'P 1'
_cell_length_a   7.26480632
_cell_length_b   7.26347054
_cell_length_c   7.26457868
_cell_angle_alpha   120.05927049
_cell_angle_beta   119.94591396
_cell_angle_gamma   89.99905846
_symmetry_Int_Tables_number   1
_chemical_formula_structural   YbBiRu2O7
_chemical_formula_sum   'Yb2 Bi2 Ru4 O14'
_cell_volume   271.03960859
_cell_formula_units_Z   2
loop_
 _symmetry_equiv_pos_site_id
 _symmetry_equiv_pos_as_xyz
  1  'x, y, z'
loop_
 _atom_site_type_symbol
 _atom_site_label
 _atom_site_symmetry_multiplicity
 _atom_site_fract_x
 _atom_site_fract_y
 _atom_site_fract_z
 _atom_site_occupancy
  Yb  Yb0  1  0.500000  0.500000  0.000000  1
  Yb  Yb1  1  0.000000  0.500000  0.500000  1
  Bi  Bi2  1  0.500000  0.500000  0.500000  1
  Bi  Bi3  1  0.500000  0.000000  0.000000  1
  Ru  Ru4  1  0.000000  0.000000  0.500000  1
  Ru  Ru5  1  0.000000  0.500000  0.000000  1
  Ru  Ru6  1  0.000000  0.000000  0.000000  1
  Ru  Ru7  1  0.500000  0.000000  0.500000  1
  O  O8  1  0.328340  0.070965  0.654467  1
  O  O9  1  0.916487  0.070970  0.242639  1
  O  O10  1  0.925563  0.675664  0.250096  1
  O  O11  1  0.916454  0.673912  0.845458  1
  O  O12  1  0.328464  0.673936  0.257474  1
  O  O13  1  0.328791  0.078782  0.250026  1
  O  O14  1  0.671660  0.929035  0.345533  1
  O  O15  1  0.083513  0.929030  0.757361  1
  O  O16  1  0.074437  0.324336  0.749904  1
  O  O17  1  0.083546  0.326088  0.154542  1
  O  O18  1  0.671536  0.326064  0.742526  1
  O  O19  1  0.671209  0.921218  0.749974  1
  O  O20  1  0.627703  0.377718  0.250016  1
  O  O21  1  0.372297  0.622282  0.749984  1
