# generated using pymatgen
data_Zr10BeSn4Sb3
_symmetry_space_group_name_H-M   'P 1'
_cell_length_a   8.73252622
_cell_length_b   8.72174859
_cell_length_c   5.90369901
_cell_angle_alpha   89.99289840
_cell_angle_beta   90.00353879
_cell_angle_gamma   119.95918068
_symmetry_Int_Tables_number   1
_chemical_formula_structural   Zr10BeSn4Sb3
_chemical_formula_sum   'Zr10 Be1 Sn4 Sb3'
_cell_volume   389.56217910
_cell_formula_units_Z   1
loop_
 _symmetry_equiv_pos_site_id
 _symmetry_equiv_pos_as_xyz
  1  'x, y, z'
loop_
 _atom_site_type_symbol
 _atom_site_label
 _atom_site_symmetry_multiplicity
 _atom_site_fract_x
 _atom_site_fract_y
 _atom_site_fract_z
 _atom_site_occupancy
  Zr  Zr0  1  0.334184  0.667093  0.000000  1
  Zr  Zr1  1  0.665955  0.332977  0.500000  1
  Zr  Zr2  1  0.666341  0.333170  0.000000  1
  Zr  Zr3  1  0.334815  0.667408  0.500000  1
  Zr  Zr4  1  0.267614  0.000286  0.227381  1
  Zr  Zr5  1  0.267614  0.267327  0.772619  1
  Zr  Zr6  1  0.999757  0.733558  0.772813  1
  Zr  Zr7  1  0.999757  0.266199  0.227187  1
  Zr  Zr8  1  0.733119  0.733571  0.227782  1
  Zr  Zr9  1  0.733119  0.999548  0.772218  1
  Be  Be10  1  0.000623  0.000312  0.000000  1
  Sn  Sn11  1  0.000432  0.390806  0.743396  1
  Sn  Sn12  1  0.000432  0.609626  0.256604  1
  Sn  Sn13  1  0.389115  0.389191  0.256109  1
  Sn  Sn14  1  0.389115  0.999924  0.743891  1
  Sb  Sb15  1  0.001128  0.000564  0.500000  1
  Sb  Sb16  1  0.608441  0.000465  0.255465  1
  Sb  Sb17  1  0.608441  0.607976  0.744535  1
