# generated using pymatgen
data_Ca14MgMn3(NbN9)2
_symmetry_space_group_name_H-M   'P 1'
_cell_length_a   10.11411800
_cell_length_b   6.09483420
_cell_length_c   9.10599882
_cell_angle_alpha   87.30267171
_cell_angle_beta   90.00000000
_cell_angle_gamma   90.00000000
_symmetry_Int_Tables_number   1
_chemical_formula_structural   Ca14MgMn3(NbN9)2
_chemical_formula_sum   'Ca14 Mg1 Mn3 Nb2 N18'
_cell_volume   560.70711547
_cell_formula_units_Z   1
loop_
 _symmetry_equiv_pos_site_id
 _symmetry_equiv_pos_as_xyz
  1  'x, y, z'
loop_
 _atom_site_type_symbol
 _atom_site_label
 _atom_site_symmetry_multiplicity
 _atom_site_fract_x
 _atom_site_fract_y
 _atom_site_fract_z
 _atom_site_occupancy
  Ca  Ca0  1  0.937755  0.419006  0.158126  1
  Ca  Ca1  1  0.079981  0.246279  0.493492  1
  Ca  Ca2  1  0.250000  0.082498  0.812112  1
  Ca  Ca3  1  0.446135  0.554190  0.826655  1
  Ca  Ca4  1  0.578130  0.754337  0.502669  1
  Ca  Ca5  1  0.580165  0.063510  0.825095  1
  Ca  Ca6  1  0.919835  0.063510  0.825095  1
  Ca  Ca7  1  0.420423  0.939124  0.168546  1
  Ca  Ca8  1  0.420019  0.246279  0.493492  1
  Ca  Ca9  1  0.079577  0.939124  0.168546  1
  Ca  Ca10  1  0.921870  0.754337  0.502669  1
  Ca  Ca11  1  0.053865  0.554190  0.826655  1
  Ca  Ca12  1  0.750000  0.911489  0.200122  1
  Ca  Ca13  1  0.562245  0.419006  0.158126  1
  Mg  Mg14  1  0.250000  0.335174  0.057722  1
  Mn  Mn15  1  0.750000  0.465487  0.722107  1
  Mn  Mn16  1  0.750000  0.670934  0.932467  1
  Mn  Mn17  1  0.250000  0.547547  0.283182  1
  Nb  Nb18  1  0.750000  0.283185  0.439690  1
  Nb  Nb19  1  0.250000  0.721950  0.567414  1
  N  N20  1  0.424558  0.224301  0.974339  1
  N  N21  1  0.250000  0.249869  0.288130  1
  N  N22  1  0.899817  0.112507  0.342036  1
  N  N23  1  0.609223  0.365059  0.624916  1
  N  N24  1  0.750000  0.558323  0.331705  1
  N  N25  1  0.250000  0.672056  0.100475  1
  N  N26  1  0.890777  0.365059  0.624916  1
  N  N27  1  0.390830  0.640591  0.378986  1
  N  N28  1  0.750000  0.369558  0.919606  1
  N  N29  1  0.097472  0.883032  0.659384  1
  N  N30  1  0.750000  0.765776  0.732108  1
  N  N31  1  0.109170  0.640591  0.378986  1
  N  N32  1  0.604032  0.759281  0.014836  1
  N  N33  1  0.250000  0.443721  0.674999  1
  N  N34  1  0.402528  0.883032  0.659384  1
  N  N35  1  0.600183  0.112507  0.342036  1
  N  N36  1  0.075442  0.224301  0.974339  1
  N  N37  1  0.895968  0.759281  0.014836  1
