# generated using pymatgen
data_Lu12Tc3Au2
_symmetry_space_group_name_H-M   'P 1'
_cell_length_a   8.14843379
_cell_length_b   8.14843509
_cell_length_c   8.14843446
_cell_angle_alpha   110.46997588
_cell_angle_beta   110.46998449
_cell_angle_gamma   107.49165092
_symmetry_Int_Tables_number   1
_chemical_formula_structural   Lu12Tc3Au2
_chemical_formula_sum   'Lu12 Tc3 Au2'
_cell_volume   416.11495973
_cell_formula_units_Z   1
loop_
 _symmetry_equiv_pos_site_id
 _symmetry_equiv_pos_as_xyz
  1  'x, y, z'
loop_
 _atom_site_type_symbol
 _atom_site_label
 _atom_site_symmetry_multiplicity
 _atom_site_fract_x
 _atom_site_fract_y
 _atom_site_fract_z
 _atom_site_occupancy
  Lu  Lu0  1  0.318277  0.318277  0.636555  1
  Lu  Lu1  1  0.681723  0.681723  0.363445  1
  Lu  Lu2  1  0.681723  0.318277  0.000000  1
  Lu  Lu3  1  0.318277  0.681723  0.000000  1
  Lu  Lu4  1  0.185252  0.436000  0.250748  1
  Lu  Lu5  1  0.814748  0.564000  0.749252  1
  Lu  Lu6  1  0.185252  0.934502  0.749252  1
  Lu  Lu7  1  0.934502  0.185252  0.749252  1
  Lu  Lu8  1  0.814748  0.065498  0.250748  1
  Lu  Lu9  1  0.065498  0.814748  0.250748  1
  Lu  Lu10  1  0.436000  0.185252  0.250748  1
  Lu  Lu11  1  0.564000  0.814748  0.749252  1
  Tc  Tc12  1  0.340161  0.340161  0.000000  1
  Tc  Tc13  1  0.659839  0.659839  0.000000  1
  Tc  Tc14  1  0.000000  0.000000  0.000000  1
  Au  Au15  1  0.000000  0.500000  0.500000  1
  Au  Au16  1  0.500000  0.000000  0.500000  1
