# generated using pymatgen
data_HfZr3(SeO3)8
_symmetry_space_group_name_H-M   'P 1'
_cell_length_a   8.74838726
_cell_length_b   8.74838716
_cell_length_c   8.74838722
_cell_angle_alpha   89.93317903
_cell_angle_beta   90.06682349
_cell_angle_gamma   90.06681852
_symmetry_Int_Tables_number   1
_chemical_formula_structural   HfZr3(SeO3)8
_chemical_formula_sum   'Hf1 Zr3 Se8 O24'
_cell_volume   669.55014161
_cell_formula_units_Z   1
loop_
 _symmetry_equiv_pos_site_id
 _symmetry_equiv_pos_as_xyz
  1  'x, y, z'
loop_
 _atom_site_type_symbol
 _atom_site_label
 _atom_site_symmetry_multiplicity
 _atom_site_fract_x
 _atom_site_fract_y
 _atom_site_fract_z
 _atom_site_occupancy
  Hf  Hf0  1  0.500000  0.500000  0.000000  1
  Zr  Zr1  1  0.500000  0.000000  0.500000  1
  Zr  Zr2  1  0.000000  0.000000  0.000000  1
  Zr  Zr3  1  0.000000  0.500000  0.500000  1
  Se  Se4  1  0.809269  0.190731  0.690731  1
  Se  Se5  1  0.190731  0.809269  0.309269  1
  Se  Se6  1  0.692977  0.691323  0.694761  1
  Se  Se7  1  0.194761  0.692977  0.808677  1
  Se  Se8  1  0.308677  0.194761  0.807023  1
  Se  Se9  1  0.805239  0.307023  0.191323  1
  Se  Se10  1  0.691323  0.805239  0.192977  1
  Se  Se11  1  0.307023  0.308677  0.305239  1
  O  O12  1  0.220068  0.423376  0.439448  1
  O  O13  1  0.939448  0.220068  0.076624  1
  O  O14  1  0.054055  0.720930  0.420225  1
  O  O15  1  0.442238  0.283986  0.921105  1
  O  O16  1  0.279070  0.920225  0.445945  1
  O  O17  1  0.578895  0.557762  0.783986  1
  O  O18  1  0.920225  0.054055  0.779070  1
  O  O19  1  0.557762  0.716014  0.078895  1
  O  O20  1  0.576624  0.939448  0.279932  1
  O  O21  1  0.423376  0.060552  0.720068  1
  O  O22  1  0.780663  0.918578  0.058749  1
  O  O23  1  0.283986  0.578895  0.942238  1
  O  O24  1  0.081422  0.558749  0.719337  1
  O  O25  1  0.079775  0.945945  0.220930  1
  O  O26  1  0.219337  0.081422  0.941251  1
  O  O27  1  0.421105  0.442238  0.216014  1
  O  O28  1  0.779932  0.576624  0.560552  1
  O  O29  1  0.918578  0.441251  0.280663  1
  O  O30  1  0.060552  0.779932  0.923376  1
  O  O31  1  0.441251  0.219337  0.418578  1
  O  O32  1  0.558749  0.780663  0.581422  1
  O  O33  1  0.945945  0.279070  0.579775  1
  O  O34  1  0.720930  0.079775  0.554055  1
  O  O35  1  0.716014  0.421105  0.057762  1
