# generated using pymatgen
data_La2ZrMoF14
_symmetry_space_group_name_H-M   'P 1'
_cell_length_a   5.82140400
_cell_length_b   9.33048697
_cell_length_c   12.49940900
_cell_angle_alpha   62.02284613
_cell_angle_beta   90.00000000
_cell_angle_gamma   90.00000000
_symmetry_Int_Tables_number   1
_chemical_formula_structural   La2ZrMoF14
_chemical_formula_sum   'La4 Zr2 Mo2 F28'
_cell_volume   599.58186553
_cell_formula_units_Z   2
loop_
 _symmetry_equiv_pos_site_id
 _symmetry_equiv_pos_as_xyz
  1  'x, y, z'
loop_
 _atom_site_type_symbol
 _atom_site_label
 _atom_site_symmetry_multiplicity
 _atom_site_fract_x
 _atom_site_fract_y
 _atom_site_fract_z
 _atom_site_occupancy
  La  La0  1  0.761562  0.810883  0.263287  1
  La  La1  1  0.261562  0.189117  0.236713  1
  La  La2  1  0.239860  0.188560  0.732666  1
  La  La3  1  0.739860  0.811440  0.767334  1
  Zr  Zr4  1  0.245978  0.725707  0.542718  1
  Zr  Zr5  1  0.745978  0.274293  0.957282  1
  Mo  Mo6  1  0.755333  0.274490  0.456331  1
  Mo  Mo7  1  0.255333  0.725510  0.043669  1
  F  F8  1  0.952843  0.712912  0.457203  1
  F  F9  1  0.452843  0.287088  0.042797  1
  F  F10  1  0.045395  0.286146  0.543805  1
  F  F11  1  0.545395  0.713854  0.956195  1
  F  F12  1  0.057815  0.708755  0.921817  1
  F  F13  1  0.557815  0.291245  0.578183  1
  F  F14  1  0.947435  0.292105  0.083068  1
  F  F15  1  0.447435  0.707895  0.416932  1
  F  F16  1  0.735189  0.519050  0.857335  1
  F  F17  1  0.235189  0.480950  0.642665  1
  F  F18  1  0.263519  0.487403  0.140128  1
  F  F19  1  0.763519  0.512597  0.359872  1
  F  F20  1  0.736692  0.028395  0.052341  1
  F  F21  1  0.236692  0.971605  0.447659  1
  F  F22  1  0.258352  0.964428  0.950582  1
  F  F23  1  0.758352  0.035572  0.549418  1
  F  F24  1  0.048598  0.742885  0.671425  1
  F  F25  1  0.548598  0.257115  0.828575  1
  F  F26  1  0.948979  0.259015  0.332039  1
  F  F27  1  0.448979  0.740985  0.167961  1
  F  F28  1  0.027951  0.269130  0.863482  1
  F  F29  1  0.527951  0.730870  0.636518  1
  F  F30  1  0.973196  0.728503  0.138476  1
  F  F31  1  0.473196  0.271497  0.361524  1
  F  F32  1  0.093470  0.966774  0.231964  1
  F  F33  1  0.593470  0.033226  0.268036  1
  F  F34  1  0.907830  0.032926  0.770552  1
  F  F35  1  0.407830  0.967074  0.729448  1
