# generated using pymatgen
data_Y6As(P3Rh5)4
_symmetry_space_group_name_H-M   'P 1'
_cell_length_a   13.39970100
_cell_length_b   13.39969948
_cell_length_c   3.92425700
_cell_angle_alpha   90.00000000
_cell_angle_beta   90.00000000
_cell_angle_gamma   120.00000129
_symmetry_Int_Tables_number   1
_chemical_formula_structural   Y6As(P3Rh5)4
_chemical_formula_sum   'Y6 As1 P12 Rh20'
_cell_volume   610.20847293
_cell_formula_units_Z   1
loop_
 _symmetry_equiv_pos_site_id
 _symmetry_equiv_pos_as_xyz
  1  'x, y, z'
loop_
 _atom_site_type_symbol
 _atom_site_label
 _atom_site_symmetry_multiplicity
 _atom_site_fract_x
 _atom_site_fract_y
 _atom_site_fract_z
 _atom_site_occupancy
  Y  Y0  1  0.529522  0.716681  0.248711  1
  Y  Y1  1  0.283319  0.812840  0.248711  1
  Y  Y2  1  0.187160  0.470478  0.248711  1
  Y  Y3  1  0.470478  0.283319  0.751289  1
  Y  Y4  1  0.716681  0.187160  0.751289  1
  Y  Y5  1  0.812840  0.529522  0.751289  1
  As  As6  1  0.000000  0.000000  0.000000  1
  P  P7  1  0.526801  0.139389  0.250197  1
  P  P8  1  0.860611  0.387414  0.250197  1
  P  P9  1  0.612586  0.473199  0.250197  1
  P  P10  1  0.945996  0.714835  0.253006  1
  P  P11  1  0.285165  0.231161  0.253006  1
  P  P12  1  0.768839  0.054004  0.253006  1
  P  P13  1  0.387414  0.526801  0.749803  1
  P  P14  1  0.473199  0.860611  0.749803  1
  P  P15  1  0.139389  0.612586  0.749803  1
  P  P16  1  0.714835  0.768839  0.746994  1
  P  P17  1  0.231161  0.945996  0.746994  1
  P  P18  1  0.054004  0.285165  0.746994  1
  Rh  Rh19  1  0.333333  0.666667  0.752358  1
  Rh  Rh20  1  0.919320  0.251280  0.249829  1
  Rh  Rh21  1  0.748720  0.668040  0.249829  1
  Rh  Rh22  1  0.331960  0.080680  0.249829  1
  Rh  Rh23  1  0.439794  0.023457  0.750188  1
  Rh  Rh24  1  0.976543  0.416338  0.750188  1
  Rh  Rh25  1  0.583662  0.560206  0.750188  1
  Rh  Rh26  1  0.666667  0.333333  0.247642  1
  Rh  Rh27  1  0.096317  0.195360  0.254575  1
  Rh  Rh28  1  0.804640  0.900957  0.254575  1
  Rh  Rh29  1  0.099043  0.903683  0.254575  1
  Rh  Rh30  1  0.023457  0.583662  0.249812  1
  Rh  Rh31  1  0.416338  0.439794  0.249812  1
  Rh  Rh32  1  0.560206  0.976543  0.249812  1
  Rh  Rh33  1  0.668040  0.919320  0.750171  1
  Rh  Rh34  1  0.080680  0.748720  0.750171  1
  Rh  Rh35  1  0.251280  0.331960  0.750171  1
  Rh  Rh36  1  0.903683  0.804640  0.745425  1
  Rh  Rh37  1  0.195360  0.099043  0.745425  1
  Rh  Rh38  1  0.900957  0.096317  0.745425  1
