# generated using pymatgen
data_Dy5Mg2Nb(Co4P3)4
_symmetry_space_group_name_H-M   'P 1'
_cell_length_a   12.18736210
_cell_length_b   12.18736258
_cell_length_c   3.71753000
_cell_angle_alpha   90.00000000
_cell_angle_beta   90.00000000
_cell_angle_gamma   119.79709935
_symmetry_Int_Tables_number   1
_chemical_formula_structural   Dy5Mg2Nb(Co4P3)4
_chemical_formula_sum   'Dy5 Mg2 Nb1 Co16 P12'
_cell_volume   479.16917937
_cell_formula_units_Z   1
loop_
 _symmetry_equiv_pos_site_id
 _symmetry_equiv_pos_as_xyz
  1  'x, y, z'
loop_
 _atom_site_type_symbol
 _atom_site_label
 _atom_site_symmetry_multiplicity
 _atom_site_fract_x
 _atom_site_fract_y
 _atom_site_fract_z
 _atom_site_occupancy
  Dy  Dy0  1  0.813466  0.998972  0.500000  1
  Dy  Dy1  1  0.998972  0.813466  0.500000  1
  Dy  Dy2  1  0.184210  0.184210  0.500000  1
  Dy  Dy3  1  0.334509  0.665384  0.000000  1
  Dy  Dy4  1  0.665384  0.334509  0.000000  1
  Mg  Mg5  1  0.439821  0.998813  0.000000  1
  Mg  Mg6  1  0.998813  0.439821  0.000000  1
  Nb  Nb7  1  0.559608  0.559608  0.000000  1
  Co  Co8  1  0.281265  0.000241  0.500000  1
  Co  Co9  1  0.000241  0.281265  0.500000  1
  Co  Co10  1  0.721533  0.721533  0.500000  1
  Co  Co11  1  0.628241  0.805499  0.000000  1
  Co  Co12  1  0.197746  0.822125  0.000000  1
  Co  Co13  1  0.177803  0.376072  0.000000  1
  Co  Co14  1  0.376072  0.177803  0.000000  1
  Co  Co15  1  0.805499  0.628241  0.000000  1
  Co  Co16  1  0.822125  0.197746  0.000000  1
  Co  Co17  1  0.515315  0.871484  0.500000  1
  Co  Co18  1  0.123448  0.642359  0.500000  1
  Co  Co19  1  0.356499  0.481196  0.500000  1
  Co  Co20  1  0.481196  0.356499  0.500000  1
  Co  Co21  1  0.871484  0.515315  0.500000  1
  Co  Co22  1  0.642359  0.123448  0.500000  1
  Co  Co23  1  0.002866  0.002866  0.000000  1
  P  P24  1  0.180848  0.000212  0.000000  1
  P  P25  1  0.000212  0.180848  0.000000  1
  P  P26  1  0.823141  0.823141  0.000000  1
  P  P27  1  0.522673  0.691557  0.500000  1
  P  P28  1  0.306650  0.826938  0.500000  1
  P  P29  1  0.170739  0.479564  0.500000  1
  P  P30  1  0.479564  0.170739  0.500000  1
  P  P31  1  0.691557  0.522673  0.500000  1
  P  P32  1  0.826938  0.306650  0.500000  1
  P  P33  1  0.641124  0.000826  0.000000  1
  P  P34  1  0.000826  0.641124  0.000000  1
  P  P35  1  0.357255  0.357255  0.000000  1
