# generated using pymatgen
data_CsLaZr6CBr18
_symmetry_space_group_name_H-M   'P 1'
_cell_length_a   10.20678600
_cell_length_b   10.20678516
_cell_length_c   19.23745500
_cell_angle_alpha   90.00000000
_cell_angle_beta   90.00000000
_cell_angle_gamma   120.00000271
_symmetry_Int_Tables_number   1
_chemical_formula_structural   CsLaZr6CBr18
_chemical_formula_sum   'Cs2 La2 Zr12 C2 Br36'
_cell_volume   1735.62628904
_cell_formula_units_Z   2
loop_
 _symmetry_equiv_pos_site_id
 _symmetry_equiv_pos_as_xyz
  1  'x, y, z'
loop_
 _atom_site_type_symbol
 _atom_site_label
 _atom_site_symmetry_multiplicity
 _atom_site_fract_x
 _atom_site_fract_y
 _atom_site_fract_z
 _atom_site_occupancy
  Cs  Cs0  1  0.333333  0.666667  0.750000  1
  Cs  Cs1  1  0.666667  0.333333  0.250000  1
  La  La2  1  0.666667  0.333333  0.750000  1
  La  La3  1  0.333333  0.666667  0.250000  1
  Zr  Zr4  1  0.836148  0.036747  0.569295  1
  Zr  Zr5  1  0.163852  0.963253  0.430705  1
  Zr  Zr6  1  0.963253  0.799401  0.569295  1
  Zr  Zr7  1  0.836148  0.799401  0.930705  1
  Zr  Zr8  1  0.036747  0.200599  0.430705  1
  Zr  Zr9  1  0.163852  0.200599  0.069295  1
  Zr  Zr10  1  0.200599  0.163852  0.569295  1
  Zr  Zr11  1  0.963253  0.163852  0.930705  1
  Zr  Zr12  1  0.799401  0.836148  0.430705  1
  Zr  Zr13  1  0.036747  0.836148  0.069295  1
  Zr  Zr14  1  0.200599  0.036747  0.930705  1
  Zr  Zr15  1  0.799401  0.963253  0.069295  1
  C  C16  1  0.000000  0.000000  0.500000  1
  C  C17  1  0.000000  0.000000  0.000000  1
  Br  Br18  1  0.272135  0.419555  0.500502  1
  Br  Br19  1  0.727865  0.580445  0.499498  1
  Br  Br20  1  0.580445  0.852580  0.500502  1
  Br  Br21  1  0.272135  0.852580  0.999498  1
  Br  Br22  1  0.419555  0.147420  0.499498  1
  Br  Br23  1  0.727865  0.147420  0.000502  1
  Br  Br24  1  0.147420  0.727865  0.500502  1
  Br  Br25  1  0.580445  0.727865  0.999498  1
  Br  Br26  1  0.852580  0.272135  0.499498  1
  Br  Br27  1  0.419555  0.272135  0.000502  1
  Br  Br28  1  0.147420  0.419555  0.999498  1
  Br  Br29  1  0.852580  0.580445  0.000502  1
  Br  Br30  1  0.041922  0.231098  0.659633  1
  Br  Br31  1  0.958078  0.768902  0.340367  1
  Br  Br32  1  0.768902  0.810824  0.659633  1
  Br  Br33  1  0.041922  0.810824  0.840367  1
  Br  Br34  1  0.231098  0.189176  0.340367  1
  Br  Br35  1  0.958078  0.189176  0.159633  1
  Br  Br36  1  0.189176  0.958078  0.659633  1
  Br  Br37  1  0.768902  0.958078  0.840367  1
  Br  Br38  1  0.810824  0.041922  0.340367  1
  Br  Br39  1  0.231098  0.041922  0.159633  1
  Br  Br40  1  0.189176  0.231098  0.840367  1
  Br  Br41  1  0.810824  0.768902  0.159633  1
  Br  Br42  1  0.626348  0.076469  0.660962  1
  Br  Br43  1  0.373652  0.923531  0.339038  1
  Br  Br44  1  0.923531  0.549879  0.660962  1
  Br  Br45  1  0.626348  0.549879  0.839038  1
  Br  Br46  1  0.076469  0.450121  0.339038  1
  Br  Br47  1  0.373652  0.450121  0.160962  1
  Br  Br48  1  0.450121  0.373652  0.660962  1
  Br  Br49  1  0.923531  0.373652  0.839038  1
  Br  Br50  1  0.549879  0.626348  0.339038  1
  Br  Br51  1  0.076469  0.626348  0.160962  1
  Br  Br52  1  0.450121  0.076469  0.839038  1
  Br  Br53  1  0.549879  0.923531  0.160962  1
