# generated using pymatgen
data_CaTb2Al2Co9B4
_symmetry_space_group_name_H-M   'P 1'
_cell_length_a   5.17819505
_cell_length_b   5.17651505
_cell_length_c   9.59762900
_cell_angle_alpha   89.99994537
_cell_angle_beta   89.99991237
_cell_angle_gamma   120.00635364
_symmetry_Int_Tables_number   1
_chemical_formula_structural   CaTb2Al2Co9B4
_chemical_formula_sum   'Ca1 Tb2 Al2 Co9 B4'
_cell_volume   222.78331781
_cell_formula_units_Z   1
loop_
 _symmetry_equiv_pos_site_id
 _symmetry_equiv_pos_as_xyz
  1  'x, y, z'
loop_
 _atom_site_type_symbol
 _atom_site_label
 _atom_site_symmetry_multiplicity
 _atom_site_fract_x
 _atom_site_fract_y
 _atom_site_fract_z
 _atom_site_occupancy
  Ca  Ca0  1  0.999987  0.999997  0.000049  1
  Tb  Tb1  1  0.000001  0.000006  0.338171  1
  Tb  Tb2  1  0.999995  0.999996  0.661845  1
  Al  Al3  1  0.333485  0.666785  0.000008  1
  Al  Al4  1  0.666493  0.333210  0.000008  1
  Co  Co5  1  0.499998  0.000001  0.499994  1
  Co  Co6  1  0.499997  0.500002  0.499998  1
  Co  Co7  1  0.999997  0.500001  0.499985  1
  Co  Co8  1  0.499998  0.000003  0.208900  1
  Co  Co9  1  0.500000  0.500006  0.208950  1
  Co  Co10  1  0.999996  0.500003  0.208944  1
  Co  Co11  1  0.499993  0.999996  0.791081  1
  Co  Co12  1  0.499991  0.499995  0.791066  1
  Co  Co13  1  0.999992  0.499995  0.791054  1
  B  B14  1  0.333275  0.666708  0.350520  1
  B  B15  1  0.666717  0.333296  0.350519  1
  B  B16  1  0.666685  0.333345  0.649454  1
  B  B17  1  0.333302  0.666651  0.649455  1
