# generated using pymatgen
data_Pr4Ga10SnPd5
_symmetry_space_group_name_H-M   'P 1'
_cell_length_a   8.81289792
_cell_length_b   8.81289880
_cell_length_c   8.81289800
_cell_angle_alpha   140.87952710
_cell_angle_beta   107.62011527
_cell_angle_gamma   85.49618233
_symmetry_Int_Tables_number   1
_chemical_formula_structural   Pr4Ga10SnPd5
_chemical_formula_sum   'Pr4 Ga10 Sn1 Pd5'
_cell_volume   397.45902486
_cell_formula_units_Z   1
loop_
 _symmetry_equiv_pos_site_id
 _symmetry_equiv_pos_as_xyz
  1  'x, y, z'
loop_
 _atom_site_type_symbol
 _atom_site_label
 _atom_site_symmetry_multiplicity
 _atom_site_fract_x
 _atom_site_fract_y
 _atom_site_fract_z
 _atom_site_occupancy
  Pr  Pr0  1  0.365108  0.139196  0.235203  1
  Pr  Pr1  1  0.634892  0.870095  0.774087  1
  Pr  Pr2  1  0.096009  0.360804  0.725913  1
  Pr  Pr3  1  0.903991  0.629905  0.264797  1
  Ga  Ga4  1  0.000000  0.250000  0.250000  1
  Ga  Ga5  1  0.000000  0.750000  0.750000  1
  Ga  Ga6  1  0.711807  0.961807  0.250000  1
  Ga  Ga7  1  0.288193  0.538193  0.250000  1
  Ga  Ga8  1  0.276574  0.026574  0.750000  1
  Ga  Ga9  1  0.723426  0.473426  0.750000  1
  Ga  Ga10  1  0.556121  0.401040  0.184217  1
  Ga  Ga11  1  0.216823  0.871904  0.315783  1
  Ga  Ga12  1  0.783177  0.098960  0.655080  1
  Ga  Ga13  1  0.443879  0.628096  0.844920  1
  Sn  Sn14  1  0.500000  0.250000  0.750000  1
  Pd  Pd15  1  0.953896  0.868259  0.101679  1
  Pd  Pd16  1  0.500000  0.750000  0.250000  1
  Pd  Pd17  1  0.766579  0.352217  0.398321  1
  Pd  Pd18  1  0.233421  0.631741  0.585637  1
  Pd  Pd19  1  0.046104  0.147783  0.914363  1
