# generated using pymatgen
data_La3YZr4F28
_symmetry_space_group_name_H-M   'P 1'
_cell_length_a   5.91781101
_cell_length_b   9.39582151
_cell_length_c   12.62797193
_cell_angle_alpha   62.19180709
_cell_angle_beta   90.04994395
_cell_angle_gamma   89.96695942
_symmetry_Int_Tables_number   1
_chemical_formula_structural   La3YZr4F28
_chemical_formula_sum   'La3 Y1 Zr4 F28'
_cell_volume   621.06044582
_cell_formula_units_Z   1
loop_
 _symmetry_equiv_pos_site_id
 _symmetry_equiv_pos_as_xyz
  1  'x, y, z'
loop_
 _atom_site_type_symbol
 _atom_site_label
 _atom_site_symmetry_multiplicity
 _atom_site_fract_x
 _atom_site_fract_y
 _atom_site_fract_z
 _atom_site_occupancy
  La  La0  1  0.743474  0.809622  0.266781  1
  La  La1  1  0.243042  0.186812  0.233294  1
  La  La2  1  0.257028  0.181424  0.733835  1
  Y  Y3  1  0.757763  0.810480  0.766409  1
  Zr  Zr4  1  0.745554  0.268653  0.458233  1
  Zr  Zr5  1  0.244549  0.726235  0.039012  1
  Zr  Zr6  1  0.256308  0.725916  0.550975  1
  Zr  Zr7  1  0.755638  0.280293  0.952055  1
  F  F8  1  0.466415  0.714747  0.919573  1
  F  F9  1  0.959043  0.288643  0.576750  1
  F  F10  1  0.543328  0.291794  0.074408  1
  F  F11  1  0.044131  0.712432  0.428823  1
  F  F12  1  0.461141  0.282403  0.545443  1
  F  F13  1  0.960335  0.720855  0.945925  1
  F  F14  1  0.534682  0.717017  0.457653  1
  F  F15  1  0.038899  0.287089  0.042658  1
  F  F16  1  0.764510  0.527174  0.857733  1
  F  F17  1  0.266129  0.481666  0.642665  1
  F  F18  1  0.230868  0.482885  0.136940  1
  F  F19  1  0.733203  0.514203  0.362611  1
  F  F20  1  0.760462  0.036515  0.052589  1
  F  F21  1  0.260596  0.969056  0.448192  1
  F  F22  1  0.239600  0.970563  0.944796  1
  F  F23  1  0.740324  0.025209  0.560779  1
  F  F24  1  0.989011  0.735685  0.651249  1
  F  F25  1  0.489416  0.269083  0.853661  1
  F  F26  1  0.012455  0.267165  0.357080  1
  F  F27  1  0.508667  0.731693  0.141133  1
  F  F28  1  0.041883  0.744051  0.164821  1
  F  F29  1  0.543983  0.253947  0.331588  1
  F  F30  1  0.958485  0.258668  0.828748  1
  F  F31  1  0.470023  0.748540  0.672329  1
  F  F32  1  0.419269  0.967461  0.233304  1
  F  F33  1  0.917082  0.030524  0.266767  1
  F  F34  1  0.580988  0.016940  0.765515  1
  F  F35  1  0.061714  0.964559  0.735679  1
