# generated using pymatgen
data_Ta6Al4Tc2CN
_symmetry_space_group_name_H-M   'P 1'
_cell_length_a   8.30982911
_cell_length_b   8.32460711
_cell_length_c   8.30982766
_cell_angle_alpha   59.94115040
_cell_angle_beta   59.90074486
_cell_angle_gamma   59.94115177
_symmetry_Int_Tables_number   1
_chemical_formula_structural   Ta6Al4Tc2CN
_chemical_formula_sum   'Ta12 Al8 Tc4 C2 N2'
_cell_volume   405.80717978
_cell_formula_units_Z   2
loop_
 _symmetry_equiv_pos_site_id
 _symmetry_equiv_pos_as_xyz
  1  'x, y, z'
loop_
 _atom_site_type_symbol
 _atom_site_label
 _atom_site_symmetry_multiplicity
 _atom_site_fract_x
 _atom_site_fract_y
 _atom_site_fract_z
 _atom_site_occupancy
  Ta  Ta0  1  0.558178  0.941822  0.558178  1
  Ta  Ta1  1  0.307907  0.689722  0.693425  1
  Ta  Ta2  1  0.693425  0.308946  0.307907  1
  Ta  Ta3  1  0.308643  0.691357  0.308643  1
  Ta  Ta4  1  0.693425  0.689722  0.307907  1
  Ta  Ta5  1  0.307907  0.308946  0.693425  1
  Ta  Ta6  1  0.556575  0.560278  0.942093  1
  Ta  Ta7  1  0.942093  0.560278  0.556575  1
  Ta  Ta8  1  0.556575  0.941054  0.942093  1
  Ta  Ta9  1  0.942093  0.941054  0.556575  1
  Ta  Ta10  1  0.691822  0.308178  0.691822  1
  Ta  Ta11  1  0.941357  0.558643  0.941357  1
  Al  Al12  1  0.915281  0.916243  0.915281  1
  Al  Al13  1  0.997769  0.333727  0.334775  1
  Al  Al14  1  0.334719  0.996804  0.334719  1
  Al  Al15  1  0.334775  0.333727  0.997769  1
  Al  Al16  1  0.915281  0.253196  0.915281  1
  Al  Al17  1  0.915225  0.916273  0.252231  1
  Al  Al18  1  0.252231  0.916273  0.915225  1
  Al  Al19  1  0.334719  0.333757  0.334719  1
  Tc  Tc20  1  0.125000  0.125000  0.125000  1
  Tc  Tc21  1  0.625000  0.125000  0.125000  1
  Tc  Tc22  1  0.125000  0.625000  0.125000  1
  Tc  Tc23  1  0.125000  0.125000  0.625000  1
  C  C24  1  0.625000  0.625000  0.625000  1
  C  C25  1  0.625000  0.125000  0.625000  1
  N  N26  1  0.125000  0.625000  0.625000  1
  N  N27  1  0.625000  0.625000  0.125000  1
