# generated using pymatgen
data_Sm2Ga8CuPd3
_symmetry_space_group_name_H-M   'P 1'
_cell_length_a   7.63216146
_cell_length_b   7.63216113
_cell_length_c   9.55035900
_cell_angle_alpha   90.00000000
_cell_angle_beta   90.00000000
_cell_angle_gamma   118.23678323
_symmetry_Int_Tables_number   1
_chemical_formula_structural   Sm2Ga8CuPd3
_chemical_formula_sum   'Sm4 Ga16 Cu2 Pd6'
_cell_volume   490.10669502
_cell_formula_units_Z   2
loop_
 _symmetry_equiv_pos_site_id
 _symmetry_equiv_pos_as_xyz
  1  'x, y, z'
loop_
 _atom_site_type_symbol
 _atom_site_label
 _atom_site_symmetry_multiplicity
 _atom_site_fract_x
 _atom_site_fract_y
 _atom_site_fract_z
 _atom_site_occupancy
  Sm  Sm0  1  0.995495  0.675905  0.250000  1
  Sm  Sm1  1  0.004505  0.324095  0.750000  1
  Sm  Sm2  1  0.675905  0.995495  0.250000  1
  Sm  Sm3  1  0.324095  0.004505  0.750000  1
  Ga  Ga4  1  0.007536  0.331867  0.087793  1
  Ga  Ga5  1  0.992464  0.668133  0.912207  1
  Ga  Ga6  1  0.992464  0.668133  0.587793  1
  Ga  Ga7  1  0.331867  0.007536  0.412207  1
  Ga  Ga8  1  0.007536  0.331867  0.412207  1
  Ga  Ga9  1  0.668133  0.992464  0.587793  1
  Ga  Ga10  1  0.668133  0.992464  0.912207  1
  Ga  Ga11  1  0.331867  0.007536  0.087793  1
  Ga  Ga12  1  0.330481  0.330481  0.553416  1
  Ga  Ga13  1  0.669519  0.669520  0.446584  1
  Ga  Ga14  1  0.669519  0.669520  0.053416  1
  Ga  Ga15  1  0.330481  0.330481  0.946584  1
  Ga  Ga16  1  0.345760  0.546314  0.250000  1
  Ga  Ga17  1  0.654240  0.453686  0.750000  1
  Ga  Ga18  1  0.546314  0.345760  0.250000  1
  Ga  Ga19  1  0.453686  0.654240  0.750000  1
  Cu  Cu20  1  0.155073  0.155073  0.250000  1
  Cu  Cu21  1  0.844927  0.844927  0.750000  1
  Pd  Pd22  1  0.675448  0.324552  0.000000  1
  Pd  Pd23  1  0.324552  0.675448  0.000000  1
  Pd  Pd24  1  0.324552  0.675448  0.500000  1
  Pd  Pd25  1  0.675448  0.324552  0.500000  1
  Pd  Pd26  1  0.000000  0.000000  0.000000  1
  Pd  Pd27  1  0.000000  0.000000  0.500000  1
