# generated using pymatgen
data_Ce3Ho(Hf3Ge4)2
_symmetry_space_group_name_H-M   'P 1'
_cell_length_a   7.39915100
_cell_length_b   7.39791700
_cell_length_c   13.57480200
_cell_angle_alpha   90.00000000
_cell_angle_beta   90.00000000
_cell_angle_gamma   90.00104556
_symmetry_Int_Tables_number   1
_chemical_formula_structural   Ce3Ho(Hf3Ge4)2
_chemical_formula_sum   'Ce6 Ho2 Hf12 Ge16'
_cell_volume   743.06165176
_cell_formula_units_Z   2
loop_
 _symmetry_equiv_pos_site_id
 _symmetry_equiv_pos_as_xyz
  1  'x, y, z'
loop_
 _atom_site_type_symbol
 _atom_site_label
 _atom_site_symmetry_multiplicity
 _atom_site_fract_x
 _atom_site_fract_y
 _atom_site_fract_z
 _atom_site_occupancy
  Ce  Ce0  1  0.160631  0.495176  0.467644  1
  Ce  Ce1  1  0.504370  0.839074  0.032019  1
  Ce  Ce2  1  0.839369  0.504824  0.967644  1
  Ce  Ce3  1  0.495630  0.160926  0.532019  1
  Ce  Ce4  1  0.341710  0.997734  0.781769  1
  Ce  Ce5  1  0.658290  0.002266  0.281769  1
  Ho  Ho6  1  0.999794  0.341647  0.218763  1
  Ho  Ho7  1  0.000206  0.658353  0.718763  1
  Hf  Hf8  1  0.172270  0.171569  0.999312  1
  Hf  Hf9  1  0.827730  0.828431  0.499312  1
  Hf  Hf10  1  0.330337  0.673898  0.249887  1
  Hf  Hf11  1  0.669663  0.326102  0.749887  1
  Hf  Hf12  1  0.157477  0.996277  0.375896  1
  Hf  Hf13  1  0.842523  0.003723  0.875896  1
  Hf  Hf14  1  0.501499  0.658349  0.625340  1
  Hf  Hf15  1  0.342342  0.498699  0.875390  1
  Hf  Hf16  1  0.498501  0.341651  0.125340  1
  Hf  Hf17  1  0.657658  0.501301  0.375390  1
  Hf  Hf18  1  0.998548  0.157913  0.624267  1
  Hf  Hf19  1  0.001452  0.842087  0.124267  1
  Ge  Ge20  1  0.366665  0.300941  0.319094  1
  Ge  Ge21  1  0.633335  0.699059  0.819094  1
  Ge  Ge22  1  0.196385  0.864816  0.572040  1
  Ge  Ge23  1  0.131927  0.801163  0.928383  1
  Ge  Ge24  1  0.803615  0.135184  0.072040  1
  Ge  Ge25  1  0.868073  0.198837  0.428383  1
  Ge  Ge26  1  0.299693  0.369808  0.679945  1
  Ge  Ge27  1  0.700307  0.630192  0.179945  1
  Ge  Ge28  1  0.293085  0.039012  0.181651  1
  Ge  Ge29  1  0.706915  0.960988  0.681651  1
  Ge  Ge30  1  0.461369  0.792860  0.432422  1
  Ge  Ge31  1  0.204219  0.535998  0.069291  1
  Ge  Ge32  1  0.538631  0.207140  0.932422  1
  Ge  Ge33  1  0.795781  0.464002  0.569291  1
  Ge  Ge34  1  0.038422  0.295748  0.816886  1
  Ge  Ge35  1  0.961578  0.704252  0.316886  1
