# generated using pymatgen
data_Tb4FeOs5Ru2
_symmetry_space_group_name_H-M   'P 1'
_cell_length_a   5.25269824
_cell_length_b   5.26306443
_cell_length_c   9.04149400
_cell_angle_alpha   90.00000000
_cell_angle_beta   90.00000000
_cell_angle_gamma   120.06529387
_symmetry_Int_Tables_number   1
_chemical_formula_structural   Tb4FeOs5Ru2
_chemical_formula_sum   'Tb4 Fe1 Os5 Ru2'
_cell_volume   216.32457094
_cell_formula_units_Z   1
loop_
 _symmetry_equiv_pos_site_id
 _symmetry_equiv_pos_as_xyz
  1  'x, y, z'
loop_
 _atom_site_type_symbol
 _atom_site_label
 _atom_site_symmetry_multiplicity
 _atom_site_fract_x
 _atom_site_fract_y
 _atom_site_fract_z
 _atom_site_occupancy
  Tb  Tb0  1  0.334997  0.667499  0.436640  1
  Tb  Tb1  1  0.665324  0.332662  0.567086  1
  Tb  Tb2  1  0.665324  0.332662  0.932914  1
  Tb  Tb3  1  0.334997  0.667499  0.063360  1
  Fe  Fe4  1  0.670645  0.835323  0.750000  1
  Os  Os5  1  0.828506  0.171082  0.250000  1
  Os  Os6  1  0.828506  0.657422  0.250000  1
  Os  Os7  1  0.334383  0.167191  0.250000  1
  Os  Os8  1  0.169134  0.824534  0.750000  1
  Os  Os9  1  0.169134  0.344602  0.750000  1
  Ru  Ru10  1  0.999524  0.999762  0.502981  1
  Ru  Ru11  1  0.999524  0.999762  0.997019  1
