# generated using pymatgen
data_TbDy3Zn4(IrRh)2
_symmetry_space_group_name_H-M   'P 1'
_cell_length_a   4.04655700
_cell_length_b   7.00756850
_cell_length_c   8.10400375
_cell_angle_alpha   90.07053070
_cell_angle_beta   90.00000000
_cell_angle_gamma   90.00000000
_symmetry_Int_Tables_number   1
_chemical_formula_structural   TbDy3Zn4(IrRh)2
_chemical_formula_sum   'Tb1 Dy3 Zn4 Ir2 Rh2'
_cell_volume   229.80121390
_cell_formula_units_Z   1
loop_
 _symmetry_equiv_pos_site_id
 _symmetry_equiv_pos_as_xyz
  1  'x, y, z'
loop_
 _atom_site_type_symbol
 _atom_site_label
 _atom_site_symmetry_multiplicity
 _atom_site_fract_x
 _atom_site_fract_y
 _atom_site_fract_z
 _atom_site_occupancy
  Tb  Tb0  1  0.250000  0.539162  0.184552  1
  Dy  Dy1  1  0.750000  0.460648  0.815148  1
  Dy  Dy2  1  0.250000  0.036186  0.317383  1
  Dy  Dy3  1  0.750000  0.963757  0.682720  1
  Zn  Zn4  1  0.250000  0.135403  0.935424  1
  Zn  Zn5  1  0.750000  0.864697  0.064425  1
  Zn  Zn6  1  0.250000  0.637240  0.565400  1
  Zn  Zn7  1  0.750000  0.362659  0.434936  1
  Ir  Ir8  1  0.750000  0.743332  0.376496  1
  Ir  Ir9  1  0.250000  0.257086  0.623876  1
  Rh  Rh10  1  0.750000  0.244251  0.120978  1
  Rh  Rh11  1  0.250000  0.755579  0.878663  1
