# generated using pymatgen
data_Dy8MgGaPd23
_symmetry_space_group_name_H-M   'P 1'
_cell_length_a   8.40208000
_cell_length_b   8.39430900
_cell_length_c   8.30064400
_cell_angle_alpha   90.00000000
_cell_angle_beta   90.00000000
_cell_angle_gamma   90.00000000
_symmetry_Int_Tables_number   1
_chemical_formula_structural   Dy8MgGaPd23
_chemical_formula_sum   'Dy8 Mg1 Ga1 Pd23'
_cell_volume   585.44156393
_cell_formula_units_Z   1
loop_
 _symmetry_equiv_pos_site_id
 _symmetry_equiv_pos_as_xyz
  1  'x, y, z'
loop_
 _atom_site_type_symbol
 _atom_site_label
 _atom_site_symmetry_multiplicity
 _atom_site_fract_x
 _atom_site_fract_y
 _atom_site_fract_z
 _atom_site_occupancy
  Dy  Dy0  1  0.263927  0.241587  0.749103  1
  Dy  Dy1  1  0.250266  0.746150  0.252322  1
  Dy  Dy2  1  0.749734  0.253850  0.252322  1
  Dy  Dy3  1  0.736073  0.758413  0.749103  1
  Dy  Dy4  1  0.749734  0.746150  0.252322  1
  Dy  Dy5  1  0.736073  0.241587  0.749103  1
  Dy  Dy6  1  0.263927  0.758413  0.749103  1
  Dy  Dy7  1  0.250266  0.253850  0.252322  1
  Mg  Mg8  1  0.000000  0.500000  0.729563  1
  Ga  Ga9  1  0.000000  0.000000  0.002899  1
  Pd  Pd10  1  0.500000  0.500000  0.747146  1
  Pd  Pd11  1  0.500000  0.254284  0.497279  1
  Pd  Pd12  1  0.253795  0.500000  0.506065  1
  Pd  Pd13  1  0.500000  0.500000  0.252388  1
  Pd  Pd14  1  0.500000  0.745716  0.497279  1
  Pd  Pd15  1  0.746205  0.500000  0.506065  1
  Pd  Pd16  1  0.000000  0.000000  0.709243  1
  Pd  Pd17  1  0.000000  0.293217  0.987629  1
  Pd  Pd18  1  0.289785  0.000000  0.004372  1
  Pd  Pd19  1  0.000000  0.000000  0.295498  1
  Pd  Pd20  1  0.000000  0.706783  0.987629  1
  Pd  Pd21  1  0.710215  0.000000  0.004372  1
  Pd  Pd22  1  0.500000  0.260070  0.003703  1
  Pd  Pd23  1  0.261184  0.000000  0.498270  1
  Pd  Pd24  1  0.000000  0.262765  0.506995  1
  Pd  Pd25  1  0.500000  0.000000  0.741389  1
  Pd  Pd26  1  0.260141  0.500000  0.994375  1
  Pd  Pd27  1  0.000000  0.500000  0.257910  1
  Pd  Pd28  1  0.500000  0.739930  0.003703  1
  Pd  Pd29  1  0.000000  0.737235  0.506995  1
  Pd  Pd30  1  0.500000  0.000000  0.260886  1
  Pd  Pd31  1  0.738816  0.000000  0.498270  1
  Pd  Pd32  1  0.739859  0.500000  0.994375  1
