# generated using pymatgen
data_Li13TlIn4
_symmetry_space_group_name_H-M   'P 1'
_cell_length_a   4.73309200
_cell_length_b   4.73309358
_cell_length_c   17.03130300
_cell_angle_alpha   90.00000000
_cell_angle_beta   90.00000000
_cell_angle_gamma   120.00003091
_symmetry_Int_Tables_number   1
_chemical_formula_structural   Li13TlIn4
_chemical_formula_sum   'Li13 Tl1 In4'
_cell_volume   330.42158415
_cell_formula_units_Z   1
loop_
 _symmetry_equiv_pos_site_id
 _symmetry_equiv_pos_as_xyz
  1  'x, y, z'
loop_
 _atom_site_type_symbol
 _atom_site_label
 _atom_site_symmetry_multiplicity
 _atom_site_fract_x
 _atom_site_fract_y
 _atom_site_fract_z
 _atom_site_occupancy
  Li  Li0  1  0.000000  0.000000  0.500000  1
  Li  Li1  1  0.000000  0.000000  0.672319  1
  Li  Li2  1  0.000000  0.000000  0.327681  1
  Li  Li3  1  0.000000  0.000000  0.836246  1
  Li  Li4  1  0.000000  0.000000  0.163754  1
  Li  Li5  1  0.333333  0.666667  0.947313  1
  Li  Li6  1  0.666667  0.333333  0.052687  1
  Li  Li7  1  0.333333  0.666667  0.446643  1
  Li  Li8  1  0.666667  0.333333  0.553357  1
  Li  Li9  1  0.333333  0.666667  0.284138  1
  Li  Li10  1  0.666667  0.333333  0.715862  1
  Li  Li11  1  0.333333  0.666667  0.115577  1
  Li  Li12  1  0.666667  0.333333  0.884423  1
  Tl  Tl13  1  0.000000  0.000000  0.000000  1
  In  In14  1  0.333333  0.666667  0.782339  1
  In  In15  1  0.666667  0.333333  0.217661  1
  In  In16  1  0.333333  0.666667  0.609677  1
  In  In17  1  0.666667  0.333333  0.390323  1
