# generated using pymatgen
data_Lu12Mn2InReAg
_symmetry_space_group_name_H-M   'P 1'
_cell_length_a   8.18460504
_cell_length_b   8.18457414
_cell_length_c   8.18460511
_cell_angle_alpha   110.46712052
_cell_angle_beta   106.60278601
_cell_angle_gamma   111.38284845
_symmetry_Int_Tables_number   1
_chemical_formula_structural   Lu12Mn2InReAg
_chemical_formula_sum   'Lu12 Mn2 In1 Re1 Ag1'
_cell_volume   421.23792567
_cell_formula_units_Z   1
loop_
 _symmetry_equiv_pos_site_id
 _symmetry_equiv_pos_as_xyz
  1  'x, y, z'
loop_
 _atom_site_type_symbol
 _atom_site_label
 _atom_site_symmetry_multiplicity
 _atom_site_fract_x
 _atom_site_fract_y
 _atom_site_fract_z
 _atom_site_occupancy
  Lu  Lu0  1  0.309611  0.307827  0.617404  1
  Lu  Lu1  1  0.690389  0.692173  0.382596  1
  Lu  Lu2  1  0.690424  0.307827  0.998216  1
  Lu  Lu3  1  0.309576  0.692173  0.001784  1
  Lu  Lu4  1  0.193308  0.442989  0.249680  1
  Lu  Lu5  1  0.806692  0.557011  0.750320  1
  Lu  Lu6  1  0.193301  0.943616  0.750317  1
  Lu  Lu7  1  0.959682  0.190712  0.768959  1
  Lu  Lu8  1  0.806699  0.056384  0.249683  1
  Lu  Lu9  1  0.040318  0.809288  0.231041  1
  Lu  Lu10  1  0.421754  0.190712  0.231028  1
  Lu  Lu11  1  0.578246  0.809288  0.768972  1
  Mn  Mn12  1  0.383246  0.383241  0.999995  1
  Mn  Mn13  1  0.616754  0.616759  0.000005  1
  In  In14  1  0.500000  0.000000  0.500000  1
  Re  Re15  1  0.000000  0.000000  0.000000  1
  Ag  Ag16  1  0.000000  0.500000  0.500000  1
