# generated using pymatgen
data_Tb2Zn2IrRh
_symmetry_space_group_name_H-M   'P 1'
_cell_length_a   4.06874800
_cell_length_b   7.01911708
_cell_length_c   8.13966028
_cell_angle_alpha   90.06383416
_cell_angle_beta   90.00000000
_cell_angle_gamma   90.00000000
_symmetry_Int_Tables_number   1
_chemical_formula_structural   Tb2Zn2IrRh
_chemical_formula_sum   'Tb4 Zn4 Ir2 Rh2'
_cell_volume   232.46056472
_cell_formula_units_Z   2
loop_
 _symmetry_equiv_pos_site_id
 _symmetry_equiv_pos_as_xyz
  1  'x, y, z'
loop_
 _atom_site_type_symbol
 _atom_site_label
 _atom_site_symmetry_multiplicity
 _atom_site_fract_x
 _atom_site_fract_y
 _atom_site_fract_z
 _atom_site_occupancy
  Tb  Tb0  1  0.250000  0.538982  0.184864  1
  Tb  Tb1  1  0.750000  0.461018  0.815136  1
  Tb  Tb2  1  0.250000  0.036983  0.316539  1
  Tb  Tb3  1  0.750000  0.963017  0.683461  1
  Zn  Zn4  1  0.250000  0.136690  0.936089  1
  Zn  Zn5  1  0.750000  0.863310  0.063911  1
  Zn  Zn6  1  0.250000  0.637113  0.563967  1
  Zn  Zn7  1  0.750000  0.362887  0.436033  1
  Ir  Ir8  1  0.750000  0.743253  0.376244  1
  Ir  Ir9  1  0.250000  0.256747  0.623756  1
  Rh  Rh10  1  0.750000  0.244415  0.122178  1
  Rh  Rh11  1  0.250000  0.755585  0.877822  1
