# generated using pymatgen
data_Pr6Dy10Cd4OsPt3
_symmetry_space_group_name_H-M   'P 1'
_cell_length_a   9.82877916
_cell_length_b   9.82877932
_cell_length_c   9.82877933
_cell_angle_alpha   59.79173595
_cell_angle_beta   59.79174273
_cell_angle_gamma   59.79173601
_symmetry_Int_Tables_number   1
_chemical_formula_structural   Pr6Dy10Cd4OsPt3
_chemical_formula_sum   'Pr6 Dy10 Cd4 Os1 Pt3'
_cell_volume   668.22935574
_cell_formula_units_Z   1
loop_
 _symmetry_equiv_pos_site_id
 _symmetry_equiv_pos_as_xyz
  1  'x, y, z'
loop_
 _atom_site_type_symbol
 _atom_site_label
 _atom_site_symmetry_multiplicity
 _atom_site_fract_x
 _atom_site_fract_y
 _atom_site_fract_z
 _atom_site_occupancy
  Pr  Pr0  1  0.938477  0.561725  0.561725  1
  Pr  Pr1  1  0.555515  0.940540  0.940540  1
  Pr  Pr2  1  0.561725  0.938477  0.561725  1
  Pr  Pr3  1  0.940540  0.555515  0.940540  1
  Pr  Pr4  1  0.561725  0.561725  0.938477  1
  Pr  Pr5  1  0.940540  0.940540  0.555515  1
  Dy  Dy6  1  0.350808  0.350808  0.350808  1
  Dy  Dy7  1  0.346942  0.346942  0.955354  1
  Dy  Dy8  1  0.346942  0.955354  0.346942  1
  Dy  Dy9  1  0.955354  0.346942  0.346942  1
  Dy  Dy10  1  0.817247  0.186535  0.186535  1
  Dy  Dy11  1  0.185482  0.811475  0.811475  1
  Dy  Dy12  1  0.186535  0.817247  0.186535  1
  Dy  Dy13  1  0.811475  0.185482  0.811475  1
  Dy  Dy14  1  0.186535  0.186535  0.817247  1
  Dy  Dy15  1  0.811475  0.811475  0.185482  1
  Cd  Cd16  1  0.579082  0.579082  0.579082  1
  Cd  Cd17  1  0.579269  0.579269  0.261205  1
  Cd  Cd18  1  0.579269  0.261205  0.579269  1
  Cd  Cd19  1  0.261205  0.579269  0.579269  1
  Os  Os20  1  0.142526  0.142526  0.142526  1
  Pt  Pt21  1  0.143654  0.143654  0.574029  1
  Pt  Pt22  1  0.143654  0.574029  0.143654  1
  Pt  Pt23  1  0.574029  0.143654  0.143654  1
