# generated using pymatgen
data_Nd2SmIn4Te
_symmetry_space_group_name_H-M   'P 1'
_cell_length_a   8.57530369
_cell_length_b   8.57530280
_cell_length_c   8.57530390
_cell_angle_alpha   119.26223755
_cell_angle_beta   119.26223681
_cell_angle_gamma   91.28266691
_symmetry_Int_Tables_number   1
_chemical_formula_structural   Nd2SmIn4Te
_chemical_formula_sum   'Nd4 Sm2 In8 Te2'
_cell_volume   450.74596896
_cell_formula_units_Z   2
loop_
 _symmetry_equiv_pos_site_id
 _symmetry_equiv_pos_as_xyz
  1  'x, y, z'
loop_
 _atom_site_type_symbol
 _atom_site_label
 _atom_site_symmetry_multiplicity
 _atom_site_fract_x
 _atom_site_fract_y
 _atom_site_fract_z
 _atom_site_occupancy
  Nd  Nd0  1  0.659778  0.159778  0.819556  1
  Nd  Nd1  1  0.340222  0.840222  0.180444  1
  Nd  Nd2  1  0.159778  0.340222  0.500000  1
  Nd  Nd3  1  0.840222  0.659778  0.500000  1
  Sm  Sm4  1  0.750000  0.750000  0.000000  1
  Sm  Sm5  1  0.250000  0.250000  0.000000  1
  In  In6  1  0.332325  0.832325  0.791392  1
  In  In7  1  0.667675  0.167675  0.208608  1
  In  In8  1  0.040933  0.540933  0.208608  1
  In  In9  1  0.832325  0.040933  0.500000  1
  In  In10  1  0.459067  0.667675  0.500000  1
  In  In11  1  0.959067  0.459067  0.791392  1
  In  In12  1  0.167675  0.959067  0.500000  1
  In  In13  1  0.540933  0.332325  0.500000  1
  Te  Te14  1  0.500000  0.500000  0.000000  1
  Te  Te15  1  0.000000  0.000000  0.000000  1
