# generated using pymatgen
data_Dy3ZnCdIn3Ru
_symmetry_space_group_name_H-M   'P 1'
_cell_length_a   7.86986700
_cell_length_b   7.86986697
_cell_length_c   3.89301000
_cell_angle_alpha   90.00000000
_cell_angle_beta   90.00000000
_cell_angle_gamma   119.99999592
_symmetry_Int_Tables_number   1
_chemical_formula_structural   Dy3ZnCdIn3Ru
_chemical_formula_sum   'Dy3 Zn1 Cd1 In3 Ru1'
_cell_volume   208.80983631
_cell_formula_units_Z   1
loop_
 _symmetry_equiv_pos_site_id
 _symmetry_equiv_pos_as_xyz
  1  'x, y, z'
loop_
 _atom_site_type_symbol
 _atom_site_label
 _atom_site_symmetry_multiplicity
 _atom_site_fract_x
 _atom_site_fract_y
 _atom_site_fract_z
 _atom_site_occupancy
  Dy  Dy0  1  0.578619  0.615078  0.000000  1
  Dy  Dy1  1  0.384922  0.963541  0.000000  1
  Dy  Dy2  1  0.036459  0.421381  0.000000  1
  Zn  Zn3  1  0.000000  0.000000  0.000000  1
  Cd  Cd4  1  0.666667  0.333333  0.500000  1
  In  In5  1  0.003066  0.740335  0.500000  1
  In  In6  1  0.259665  0.262730  0.500000  1
  In  In7  1  0.737270  0.996934  0.500000  1
  Ru  Ru8  1  0.333333  0.666667  0.500000  1
