# generated using pymatgen
data_Er2Al8GaIrRh2
_symmetry_space_group_name_H-M   'P 1'
_cell_length_a   7.52893251
_cell_length_b   7.52893236
_cell_length_c   9.47286053
_cell_angle_alpha   90.04220125
_cell_angle_beta   90.04219876
_cell_angle_gamma   119.39350842
_symmetry_Int_Tables_number   1
_chemical_formula_structural   Er2Al8GaIrRh2
_chemical_formula_sum   'Er4 Al16 Ga2 Ir2 Rh4'
_cell_volume   467.84280408
_cell_formula_units_Z   2
loop_
 _symmetry_equiv_pos_site_id
 _symmetry_equiv_pos_as_xyz
  1  'x, y, z'
loop_
 _atom_site_type_symbol
 _atom_site_label
 _atom_site_symmetry_multiplicity
 _atom_site_fract_x
 _atom_site_fract_y
 _atom_site_fract_z
 _atom_site_occupancy
  Er  Er0  1  0.994668  0.673316  0.748777  1
  Er  Er1  1  0.005332  0.326684  0.251223  1
  Er  Er2  1  0.673316  0.994668  0.748777  1
  Er  Er3  1  0.326684  0.005332  0.251223  1
  Al  Al4  1  0.001630  0.335669  0.573996  1
  Al  Al5  1  0.998370  0.664331  0.426004  1
  Al  Al6  1  0.998890  0.664414  0.073967  1
  Al  Al7  1  0.335586  0.001110  0.926033  1
  Al  Al8  1  0.001110  0.335586  0.926033  1
  Al  Al9  1  0.664414  0.998890  0.073967  1
  Al  Al10  1  0.664331  0.998370  0.426004  1
  Al  Al11  1  0.335669  0.001630  0.573996  1
  Al  Al12  1  0.333956  0.333956  0.053816  1
  Al  Al13  1  0.666044  0.666044  0.946184  1
  Al  Al14  1  0.666324  0.666324  0.553325  1
  Al  Al15  1  0.333676  0.333676  0.446675  1
  Al  Al16  1  0.337539  0.549653  0.750359  1
  Al  Al17  1  0.662461  0.450347  0.249641  1
  Al  Al18  1  0.549653  0.337539  0.750359  1
  Al  Al19  1  0.450347  0.662461  0.249641  1
  Ga  Ga20  1  0.130769  0.130769  0.749774  1
  Ga  Ga21  1  0.869231  0.869231  0.250226  1
  Ir  Ir22  1  0.671736  0.328264  0.500000  1
  Ir  Ir23  1  0.328264  0.671736  0.500000  1
  Rh  Rh24  1  0.328311  0.671689  0.000000  1
  Rh  Rh25  1  0.671689  0.328311  0.000000  1
  Rh  Rh26  1  0.000000  0.000000  0.500000  1
  Rh  Rh27  1  0.000000  0.000000  0.000000  1
