# generated using pymatgen
data_Cs6SmTe4Br
_symmetry_space_group_name_H-M   'P 1'
_cell_length_a   12.46491200
_cell_length_b   12.46491211
_cell_length_c   9.19912900
_cell_angle_alpha   90.00000000
_cell_angle_beta   90.00000000
_cell_angle_gamma   120.00000501
_symmetry_Int_Tables_number   1
_chemical_formula_structural   Cs6SmTe4Br
_chemical_formula_sum   'Cs12 Sm2 Te8 Br2'
_cell_volume   1237.81504308
_cell_formula_units_Z   2
loop_
 _symmetry_equiv_pos_site_id
 _symmetry_equiv_pos_as_xyz
  1  'x, y, z'
loop_
 _atom_site_type_symbol
 _atom_site_label
 _atom_site_symmetry_multiplicity
 _atom_site_fract_x
 _atom_site_fract_y
 _atom_site_fract_z
 _atom_site_occupancy
  Cs  Cs0  1  0.129184  0.870816  0.510545  1
  Cs  Cs1  1  0.741632  0.870816  0.510545  1
  Cs  Cs2  1  0.942125  0.471063  0.317765  1
  Cs  Cs3  1  0.528937  0.471063  0.317765  1
  Cs  Cs4  1  0.870816  0.741632  0.010545  1
  Cs  Cs5  1  0.258368  0.129184  0.010545  1
  Cs  Cs6  1  0.528937  0.057875  0.317765  1
  Cs  Cs7  1  0.129184  0.258368  0.510545  1
  Cs  Cs8  1  0.870816  0.129184  0.010545  1
  Cs  Cs9  1  0.057875  0.528937  0.817765  1
  Cs  Cs10  1  0.471063  0.942125  0.817765  1
  Cs  Cs11  1  0.471063  0.528937  0.817765  1
  Sm  Sm12  1  0.666667  0.333333  0.717438  1
  Sm  Sm13  1  0.333333  0.666667  0.217438  1
  Te  Te14  1  0.405455  0.202727  0.608532  1
  Te  Te15  1  0.594545  0.797273  0.108532  1
  Te  Te16  1  0.666667  0.333333  0.044036  1
  Te  Te17  1  0.797273  0.594545  0.608532  1
  Te  Te18  1  0.202727  0.405455  0.108532  1
  Te  Te19  1  0.333333  0.666667  0.544036  1
  Te  Te20  1  0.202727  0.797273  0.108532  1
  Te  Te21  1  0.797273  0.202727  0.608532  1
  Br  Br22  1  0.000000  0.000000  0.268603  1
  Br  Br23  1  0.000000  0.000000  0.768603  1
