# generated using pymatgen
data_Ho6Er9Lu(CdPt)4
_symmetry_space_group_name_H-M   'P 1'
_cell_length_a   9.60523369
_cell_length_b   9.60523430
_cell_length_c   9.60838600
_cell_angle_alpha   59.98914517
_cell_angle_beta   59.98914306
_cell_angle_gamma   59.92490146
_symmetry_Int_Tables_number   1
_chemical_formula_structural   Ho6Er9Lu(CdPt)4
_chemical_formula_sum   'Ho6 Er9 Lu1 Cd4 Pt4'
_cell_volume   626.37302786
_cell_formula_units_Z   1
loop_
 _symmetry_equiv_pos_site_id
 _symmetry_equiv_pos_as_xyz
  1  'x, y, z'
loop_
 _atom_site_type_symbol
 _atom_site_label
 _atom_site_symmetry_multiplicity
 _atom_site_fract_x
 _atom_site_fract_y
 _atom_site_fract_z
 _atom_site_occupancy
  Ho  Ho0  1  0.185593  0.814599  0.814020  1
  Ho  Ho1  1  0.814599  0.185593  0.185788  1
  Ho  Ho2  1  0.814599  0.185593  0.814020  1
  Ho  Ho3  1  0.185593  0.814599  0.185788  1
  Ho  Ho4  1  0.815339  0.815339  0.184661  1
  Ho  Ho5  1  0.186818  0.186818  0.813182  1
  Er  Er6  1  0.602316  0.602316  0.600348  1
  Er  Er7  1  0.602316  0.602316  0.195020  1
  Er  Er8  1  0.605509  0.189693  0.602398  1
  Er  Er9  1  0.189693  0.605509  0.602398  1
  Er  Er10  1  0.060849  0.438581  0.440003  1
  Er  Er11  1  0.438581  0.060849  0.060567  1
  Er  Er12  1  0.438581  0.060849  0.440003  1
  Er  Er13  1  0.060849  0.438581  0.060567  1
  Er  Er14  1  0.440207  0.440207  0.059793  1
  Lu  Lu15  1  0.061208  0.061208  0.438792  1
  Cd  Cd16  1  0.831413  0.831413  0.832447  1
  Cd  Cd17  1  0.831413  0.831413  0.504728  1
  Cd  Cd18  1  0.831333  0.504294  0.832187  1
  Cd  Cd19  1  0.504294  0.831333  0.832187  1
  Pt  Pt20  1  0.393140  0.393140  0.394660  1
  Pt  Pt21  1  0.393140  0.393140  0.819059  1
  Pt  Pt22  1  0.390842  0.821775  0.393691  1
  Pt  Pt23  1  0.821775  0.390842  0.393691  1
