# generated using pymatgen
data_HoTh7TiS17
_symmetry_space_group_name_H-M   'P 1'
_cell_length_a   8.06991173
_cell_length_b   8.05925329
_cell_length_c   10.69870021
_cell_angle_alpha   80.69805881
_cell_angle_beta   80.88125367
_cell_angle_gamma   65.07597195
_symmetry_Int_Tables_number   1
_chemical_formula_structural   HoTh7TiS17
_chemical_formula_sum   'Ho1 Th7 Ti1 S17'
_cell_volume   619.53287391
_cell_formula_units_Z   1
loop_
 _symmetry_equiv_pos_site_id
 _symmetry_equiv_pos_as_xyz
  1  'x, y, z'
loop_
 _atom_site_type_symbol
 _atom_site_label
 _atom_site_symmetry_multiplicity
 _atom_site_fract_x
 _atom_site_fract_y
 _atom_site_fract_z
 _atom_site_occupancy
  Ho  Ho0  1  0.812018  0.301087  0.297039  1
  Th  Th1  1  0.299728  0.811632  0.293656  1
  Th  Th2  1  0.187439  0.700347  0.703472  1
  Th  Th3  1  0.700382  0.189183  0.702486  1
  Th  Th4  1  0.205543  0.205681  0.541649  1
  Th  Th5  1  0.793534  0.796782  0.453662  1
  Th  Th6  1  0.684458  0.680909  0.980700  1
  Th  Th7  1  0.317193  0.315214  0.024570  1
  Ti  Ti8  1  0.999177  0.002879  0.001384  1
  S  S9  1  0.824987  0.428775  0.528293  1
  S  S10  1  0.430925  0.822589  0.529638  1
  S  S11  1  0.176032  0.569811  0.469243  1
  S  S12  1  0.571554  0.177609  0.469238  1
  S  S13  1  0.941318  0.320917  0.031059  1
  S  S14  1  0.323303  0.941112  0.027176  1
  S  S15  1  0.058801  0.678579  0.971371  1
  S  S16  1  0.677585  0.058676  0.971195  1
  S  S17  1  0.203803  0.205798  0.277802  1
  S  S18  1  0.793232  0.792657  0.722771  1
  S  S19  1  0.061488  0.060802  0.773656  1
  S  S20  1  0.936000  0.946030  0.227629  1
  S  S21  1  0.304190  0.305564  0.755465  1
  S  S22  1  0.695093  0.691673  0.244878  1
  S  S23  1  0.520167  0.521583  0.833178  1
  S  S24  1  0.480165  0.478093  0.165755  1
  S  S25  1  0.001883  0.996017  0.503034  1
