# generated using pymatgen
data_ZrSc3(NiP)6
_symmetry_space_group_name_H-M   'P 1'
_cell_length_a   3.64035000
_cell_length_b   9.99151631
_cell_length_c   12.28313337
_cell_angle_alpha   90.11741842
_cell_angle_beta   90.00000000
_cell_angle_gamma   90.00000000
_symmetry_Int_Tables_number   1
_chemical_formula_structural   ZrSc3(NiP)6
_chemical_formula_sum   'Zr2 Sc6 Ni12 P12'
_cell_volume   446.76876005
_cell_formula_units_Z   2
loop_
 _symmetry_equiv_pos_site_id
 _symmetry_equiv_pos_as_xyz
  1  'x, y, z'
loop_
 _atom_site_type_symbol
 _atom_site_label
 _atom_site_symmetry_multiplicity
 _atom_site_fract_x
 _atom_site_fract_y
 _atom_site_fract_z
 _atom_site_occupancy
  Zr  Zr0  1  0.750000  0.659861  0.002864  1
  Zr  Zr1  1  0.250000  0.340139  0.997136  1
  Sc  Sc2  1  0.250000  0.072475  0.213289  1
  Sc  Sc3  1  0.750000  0.927525  0.786711  1
  Sc  Sc4  1  0.750000  0.573326  0.289719  1
  Sc  Sc5  1  0.250000  0.426674  0.710281  1
  Sc  Sc6  1  0.250000  0.158024  0.497081  1
  Sc  Sc7  1  0.750000  0.841976  0.502919  1
  Ni  Ni8  1  0.250000  0.726854  0.665274  1
  Ni  Ni9  1  0.750000  0.273146  0.334726  1
  Ni  Ni10  1  0.750000  0.226101  0.836030  1
  Ni  Ni11  1  0.250000  0.773899  0.163970  1
  Ni  Ni12  1  0.250000  0.366663  0.220069  1
  Ni  Ni13  1  0.750000  0.633337  0.779931  1
  Ni  Ni14  1  0.750000  0.864336  0.281542  1
  Ni  Ni15  1  0.250000  0.135664  0.718458  1
  Ni  Ni16  1  0.250000  0.593930  0.481145  1
  Ni  Ni17  1  0.750000  0.406070  0.518855  1
  Ni  Ni18  1  0.750000  0.095552  0.020031  1
  Ni  Ni19  1  0.250000  0.904448  0.979969  1
  P  P20  1  0.250000  0.945269  0.626217  1
  P  P21  1  0.750000  0.054731  0.373783  1
  P  P22  1  0.750000  0.445319  0.871649  1
  P  P23  1  0.250000  0.554681  0.128351  1
  P  P24  1  0.250000  0.395678  0.399355  1
  P  P25  1  0.750000  0.604322  0.600645  1
  P  P26  1  0.750000  0.898187  0.102632  1
  P  P27  1  0.250000  0.101813  0.897368  1
  P  P28  1  0.250000  0.763380  0.354826  1
  P  P29  1  0.750000  0.236620  0.645174  1
  P  P30  1  0.750000  0.265198  0.146908  1
  P  P31  1  0.250000  0.734802  0.853092  1
