# generated using pymatgen
data_Tm20Cd3Ni2Hg3
_symmetry_space_group_name_H-M   'P 1'
_cell_length_a   9.54516302
_cell_length_b   9.54520161
_cell_length_c   9.42990100
_cell_angle_alpha   90.00000000
_cell_angle_beta   90.00000000
_cell_angle_gamma   120.00800811
_symmetry_Int_Tables_number   1
_chemical_formula_structural   Tm20Cd3Ni2Hg3
_chemical_formula_sum   'Tm20 Cd3 Ni2 Hg3'
_cell_volume   743.99697501
_cell_formula_units_Z   1
loop_
 _symmetry_equiv_pos_site_id
 _symmetry_equiv_pos_as_xyz
  1  'x, y, z'
loop_
 _atom_site_type_symbol
 _atom_site_label
 _atom_site_symmetry_multiplicity
 _atom_site_fract_x
 _atom_site_fract_y
 _atom_site_fract_z
 _atom_site_occupancy
  Tm  Tm0  1  0.000007  0.999999  0.486230  1
  Tm  Tm1  1  0.000007  0.999999  0.013770  1
  Tm  Tm2  1  0.542763  0.457243  0.250000  1
  Tm  Tm3  1  0.542767  0.085499  0.250000  1
  Tm  Tm4  1  0.914508  0.457240  0.250000  1
  Tm  Tm5  1  0.456929  0.543078  0.750000  1
  Tm  Tm6  1  0.456947  0.913876  0.750000  1
  Tm  Tm7  1  0.086131  0.543059  0.750000  1
  Tm  Tm8  1  0.210497  0.789509  0.436879  1
  Tm  Tm9  1  0.210538  0.420981  0.436857  1
  Tm  Tm10  1  0.579025  0.789468  0.436858  1
  Tm  Tm11  1  0.789572  0.210433  0.562902  1
  Tm  Tm12  1  0.789542  0.579140  0.562930  1
  Tm  Tm13  1  0.420866  0.210463  0.562930  1
  Tm  Tm14  1  0.789572  0.210433  0.937098  1
  Tm  Tm15  1  0.789542  0.579140  0.937070  1
  Tm  Tm16  1  0.420866  0.210463  0.937070  1
  Tm  Tm17  1  0.210497  0.789509  0.063121  1
  Tm  Tm18  1  0.210538  0.420981  0.063143  1
  Tm  Tm19  1  0.579025  0.789468  0.063142  1
  Cd  Cd20  1  0.113699  0.886305  0.750000  1
  Cd  Cd21  1  0.113709  0.227375  0.750000  1
  Cd  Cd22  1  0.772630  0.886295  0.750000  1
  Ni  Ni23  1  0.333241  0.666488  0.250000  1
  Ni  Ni24  1  0.666554  0.333570  0.750000  1
  Hg  Hg25  1  0.876485  0.123520  0.250000  1
  Hg  Hg26  1  0.876479  0.752940  0.250000  1
  Hg  Hg27  1  0.247065  0.123526  0.250000  1
