# generated using pymatgen
data_La3LuTl5
_symmetry_space_group_name_H-M   'P 1'
_cell_length_a   8.81802405
_cell_length_b   8.81802316
_cell_length_c   8.81802484
_cell_angle_alpha   66.02141525
_cell_angle_beta   66.02140558
_cell_angle_gamma   66.02139664
_symmetry_Int_Tables_number   1
_chemical_formula_structural   La3LuTl5
_chemical_formula_sum   'La6 Lu2 Tl10'
_cell_volume   548.00557552
_cell_formula_units_Z   2
loop_
 _symmetry_equiv_pos_site_id
 _symmetry_equiv_pos_as_xyz
  1  'x, y, z'
loop_
 _atom_site_type_symbol
 _atom_site_label
 _atom_site_symmetry_multiplicity
 _atom_site_fract_x
 _atom_site_fract_y
 _atom_site_fract_z
 _atom_site_occupancy
  La  La0  1  0.892093  0.181660  0.627615  1
  La  La1  1  0.627615  0.892093  0.181660  1
  La  La2  1  0.181660  0.627615  0.892093  1
  La  La3  1  0.107907  0.818340  0.372385  1
  La  La4  1  0.372385  0.107907  0.818340  1
  La  La5  1  0.818340  0.372385  0.107907  1
  Lu  Lu6  1  0.655548  0.655548  0.655548  1
  Lu  Lu7  1  0.344452  0.344452  0.344452  1
  Tl  Tl8  1  0.000000  0.000000  0.000000  1
  Tl  Tl9  1  0.500000  0.500000  0.500000  1
  Tl  Tl10  1  0.807175  0.807175  0.807175  1
  Tl  Tl11  1  0.192825  0.192825  0.192825  1
  Tl  Tl12  1  0.947253  0.560868  0.309001  1
  Tl  Tl13  1  0.309001  0.947253  0.560868  1
  Tl  Tl14  1  0.560868  0.309001  0.947253  1
  Tl  Tl15  1  0.052747  0.439132  0.690999  1
  Tl  Tl16  1  0.690999  0.052747  0.439132  1
  Tl  Tl17  1  0.439132  0.690999  0.052747  1
