# generated using pymatgen
data_Rb3Tb(PO4)2
_symmetry_space_group_name_H-M   'P 1'
_cell_length_a   5.77155000
_cell_length_b   5.77154970
_cell_length_c   8.20613100
_cell_angle_alpha   90.00000000
_cell_angle_beta   90.00000000
_cell_angle_gamma   120.00001316
_symmetry_Int_Tables_number   1
_chemical_formula_structural   Rb3Tb(PO4)2
_chemical_formula_sum   'Rb3 Tb1 P2 O8'
_cell_volume   236.73034020
_cell_formula_units_Z   1
loop_
 _symmetry_equiv_pos_site_id
 _symmetry_equiv_pos_as_xyz
  1  'x, y, z'
loop_
 _atom_site_type_symbol
 _atom_site_label
 _atom_site_symmetry_multiplicity
 _atom_site_fract_x
 _atom_site_fract_y
 _atom_site_fract_z
 _atom_site_occupancy
  Rb  Rb0  1  0.333333  0.666667  0.753348  1
  Rb  Rb1  1  0.666667  0.333333  0.246652  1
  Rb  Rb2  1  0.000000  0.000000  0.000000  1
  Tb  Tb3  1  0.000000  0.000000  0.500000  1
  P  P4  1  0.333333  0.666667  0.274088  1
  P  P5  1  0.666667  0.333333  0.725912  1
  O  O6  1  0.333333  0.666667  0.087925  1
  O  O7  1  0.666667  0.333333  0.912075  1
  O  O8  1  0.186094  0.813906  0.340350  1
  O  O9  1  0.813906  0.186094  0.659650  1
  O  O10  1  0.186094  0.372187  0.340350  1
  O  O11  1  0.813906  0.627813  0.659650  1
  O  O12  1  0.627813  0.813906  0.340350  1
  O  O13  1  0.372187  0.186094  0.659650  1
