# generated using pymatgen
data_Er8Sc12Si15Ag
_symmetry_space_group_name_H-M   'P 1'
_cell_length_a   7.09829580
_cell_length_b   7.34305974
_cell_length_c   14.01653341
_cell_angle_alpha   89.86848901
_cell_angle_beta   89.54371369
_cell_angle_gamma   90.16155341
_symmetry_Int_Tables_number   1
_chemical_formula_structural   Er8Sc12Si15Ag
_chemical_formula_sum   'Er8 Sc12 Si15 Ag1'
_cell_volume   730.55868294
_cell_formula_units_Z   1
loop_
 _symmetry_equiv_pos_site_id
 _symmetry_equiv_pos_as_xyz
  1  'x, y, z'
loop_
 _atom_site_type_symbol
 _atom_site_label
 _atom_site_symmetry_multiplicity
 _atom_site_fract_x
 _atom_site_fract_y
 _atom_site_fract_z
 _atom_site_occupancy
  Er  Er0  1  0.011918  0.175620  0.097490  1
  Er  Er1  1  0.988113  0.825559  0.904236  1
  Er  Er2  1  0.487445  0.677610  0.904061  1
  Er  Er3  1  0.989615  0.830451  0.597537  1
  Er  Er4  1  0.511873  0.322947  0.096322  1
  Er  Er5  1  0.008118  0.171861  0.398896  1
  Er  Er6  1  0.510970  0.321965  0.400378  1
  Er  Er7  1  0.494428  0.678850  0.599695  1
  Sc  Sc8  1  0.163768  0.502346  0.753125  1
  Sc  Sc9  1  0.837039  0.498036  0.250987  1
  Sc  Sc10  1  0.336820  0.000473  0.248894  1
  Sc  Sc11  1  0.665720  0.995782  0.751258  1
  Sc  Sc12  1  0.342797  0.173439  0.626898  1
  Sc  Sc13  1  0.663715  0.823271  0.373543  1
  Sc  Sc14  1  0.166324  0.675164  0.371588  1
  Sc  Sc15  1  0.669286  0.824323  0.124813  1
  Sc  Sc16  1  0.827017  0.325692  0.625485  1
  Sc  Sc17  1  0.329092  0.175250  0.876239  1
  Sc  Sc18  1  0.830943  0.322736  0.875978  1
  Sc  Sc19  1  0.168776  0.676320  0.125241  1
  Si  Si20  1  0.036670  0.119696  0.750083  1
  Si  Si21  1  0.964688  0.884873  0.248468  1
  Si  Si22  1  0.466441  0.613150  0.248018  1
  Si  Si23  1  0.534573  0.387704  0.752413  1
  Si  Si24  1  0.285857  0.872418  0.751082  1
  Si  Si25  1  0.712198  0.128998  0.248327  1
  Si  Si26  1  0.214005  0.368865  0.248310  1
  Si  Si27  1  0.788739  0.629503  0.752642  1
  Si  Si28  1  0.833297  0.537081  0.459389  1
  Si  Si29  1  0.335234  0.961957  0.461001  1
  Si  Si30  1  0.842484  0.534906  0.039174  1
  Si  Si31  1  0.661653  0.035964  0.537691  1
  Si  Si32  1  0.156647  0.464956  0.961986  1
  Si  Si33  1  0.658490  0.034659  0.960722  1
  Si  Si34  1  0.341517  0.964900  0.039949  1
  Ag  Ag35  1  0.163728  0.462676  0.538077  1
