# generated using pymatgen
data_LuThCu2SiGe
_symmetry_space_group_name_H-M   'P 1'
_cell_length_a   4.18321100
_cell_length_b   4.18320939
_cell_length_c   7.54307000
_cell_angle_alpha   90.00000000
_cell_angle_beta   90.00000000
_cell_angle_gamma   119.99998902
_symmetry_Int_Tables_number   1
_chemical_formula_structural   LuThCu2SiGe
_chemical_formula_sum   'Lu1 Th1 Cu2 Si1 Ge1'
_cell_volume   114.31367636
_cell_formula_units_Z   1
loop_
 _symmetry_equiv_pos_site_id
 _symmetry_equiv_pos_as_xyz
  1  'x, y, z'
loop_
 _atom_site_type_symbol
 _atom_site_label
 _atom_site_symmetry_multiplicity
 _atom_site_fract_x
 _atom_site_fract_y
 _atom_site_fract_z
 _atom_site_occupancy
  Lu  Lu0  1  0.000000  0.000000  0.998180  1
  Th  Th1  1  0.000000  0.000000  0.502710  1
  Cu  Cu2  1  0.333333  0.666667  0.232891  1
  Cu  Cu3  1  0.666667  0.333333  0.767454  1
  Si  Si4  1  0.333333  0.666667  0.763281  1
  Ge  Ge5  1  0.666667  0.333333  0.235485  1
