# generated using pymatgen
data_ErTm2Zr7(In2Pt)4
_symmetry_space_group_name_H-M   'P 1'
_cell_length_a   3.56224200
_cell_length_b   7.73207511
_cell_length_c   17.59039527
_cell_angle_alpha   90.02079893
_cell_angle_beta   90.00000000
_cell_angle_gamma   90.00000000
_symmetry_Int_Tables_number   1
_chemical_formula_structural   ErTm2Zr7(In2Pt)4
_chemical_formula_sum   'Er1 Tm2 Zr7 In8 Pt4'
_cell_volume   484.50141972
_cell_formula_units_Z   1
loop_
 _symmetry_equiv_pos_site_id
 _symmetry_equiv_pos_as_xyz
  1  'x, y, z'
loop_
 _atom_site_type_symbol
 _atom_site_label
 _atom_site_symmetry_multiplicity
 _atom_site_fract_x
 _atom_site_fract_y
 _atom_site_fract_z
 _atom_site_occupancy
  Er  Er0  1  0.000000  0.743572  0.280573  1
  Tm  Tm1  1  0.000000  0.755125  0.781264  1
  Tm  Tm2  1  0.000000  0.255714  0.719126  1
  Zr  Zr3  1  0.000000  0.126881  0.419749  1
  Zr  Zr4  1  0.000000  0.874078  0.578401  1
  Zr  Zr5  1  0.000000  0.374172  0.922538  1
  Zr  Zr6  1  0.000000  0.626394  0.079915  1
  Zr  Zr7  1  0.000000  0.242724  0.219285  1
  Zr  Zr8  1  0.000000  0.001238  0.001354  1
  Zr  Zr9  1  0.000000  0.500631  0.498777  1
  In  In10  1  0.500000  0.420699  0.351684  1
  In  In11  1  0.500000  0.576830  0.646324  1
  In  In12  1  0.500000  0.077027  0.853859  1
  In  In13  1  0.500000  0.926979  0.146828  1
  In  In14  1  0.500000  0.292507  0.064716  1
  In  In15  1  0.500000  0.706165  0.938339  1
  In  In16  1  0.500000  0.205394  0.561775  1
  In  In17  1  0.500000  0.796920  0.436618  1
  Pt  Pt18  1  0.500000  0.041399  0.305556  1
  Pt  Pt19  1  0.500000  0.964649  0.691139  1
  Pt  Pt20  1  0.500000  0.464320  0.809520  1
  Pt  Pt21  1  0.500000  0.526581  0.192661  1
