# generated using pymatgen
data_Th10GaBi5Sb2
_symmetry_space_group_name_H-M   'P 1'
_cell_length_a   9.74399861
_cell_length_b   9.74996123
_cell_length_c   6.58656800
_cell_angle_alpha   89.93424768
_cell_angle_beta   90.03290509
_cell_angle_gamma   120.02024360
_symmetry_Int_Tables_number   1
_chemical_formula_structural   Th10GaBi5Sb2
_chemical_formula_sum   'Th10 Ga1 Bi5 Sb2'
_cell_volume   541.80249481
_cell_formula_units_Z   1
loop_
 _symmetry_equiv_pos_site_id
 _symmetry_equiv_pos_as_xyz
  1  'x, y, z'
loop_
 _atom_site_type_symbol
 _atom_site_label
 _atom_site_symmetry_multiplicity
 _atom_site_fract_x
 _atom_site_fract_y
 _atom_site_fract_z
 _atom_site_occupancy
  Th  Th0  1  0.000000  0.727618  0.760185  1
  Th  Th1  1  0.271717  0.271602  0.760366  1
  Th  Th2  1  0.330187  0.665865  0.499542  1
  Th  Th3  1  0.669813  0.335676  0.499542  1
  Th  Th4  1  0.731326  0.727239  0.240023  1
  Th  Th5  1  0.728283  0.999885  0.760366  1
  Th  Th6  1  0.000000  0.274569  0.240320  1
  Th  Th7  1  0.268674  0.995913  0.240023  1
  Th  Th8  1  0.330752  0.665976  0.000403  1
  Th  Th9  1  0.669248  0.335222  0.000403  1
  Ga  Ga10  1  0.000000  0.000810  0.000149  1
  Bi  Bi11  1  0.614977  0.616077  0.746767  1
  Bi  Bi12  1  0.000000  0.383923  0.746753  1
  Bi  Bi13  1  0.385023  0.001099  0.746767  1
  Bi  Bi14  1  0.615982  0.999242  0.253433  1
  Bi  Bi15  1  0.384018  0.383261  0.253433  1
  Sb  Sb16  1  0.000000  0.615279  0.251675  1
  Sb  Sb17  1  0.000000  0.000743  0.499851  1
