# generated using pymatgen
data_Th3Zn2PdPt3
_symmetry_space_group_name_H-M   'P 1'
_cell_length_a   7.40347703
_cell_length_b   7.40347713
_cell_length_c   3.96044600
_cell_angle_alpha   90.00000000
_cell_angle_beta   90.00000000
_cell_angle_gamma   117.27539238
_symmetry_Int_Tables_number   1
_chemical_formula_structural   Th3Zn2PdPt3
_chemical_formula_sum   'Th3 Zn2 Pd1 Pt3'
_cell_volume   192.94188646
_cell_formula_units_Z   1
loop_
 _symmetry_equiv_pos_site_id
 _symmetry_equiv_pos_as_xyz
  1  'x, y, z'
loop_
 _atom_site_type_symbol
 _atom_site_label
 _atom_site_symmetry_multiplicity
 _atom_site_fract_x
 _atom_site_fract_y
 _atom_site_fract_z
 _atom_site_occupancy
  Th  Th0  1  0.409472  0.409472  0.500000  1
  Th  Th1  1  0.603771  0.987876  0.500000  1
  Th  Th2  1  0.987876  0.603771  0.500000  1
  Zn  Zn3  1  0.248465  0.999880  0.000000  1
  Zn  Zn4  1  0.999880  0.248465  0.000000  1
  Pd  Pd5  1  0.749630  0.749630  0.000000  1
  Pt  Pt6  1  0.659393  0.311614  0.000000  1
  Pt  Pt7  1  0.311614  0.659393  0.000000  1
  Pt  Pt8  1  0.029899  0.029899  0.500000  1
