# generated using pymatgen
data_Ca8YbLuIr4
_symmetry_space_group_name_H-M   'P 1'
_cell_length_a   8.54480906
_cell_length_b   8.54480944
_cell_length_c   7.53822110
_cell_angle_alpha   82.54521557
_cell_angle_beta   82.54521747
_cell_angle_gamma   44.29134012
_symmetry_Int_Tables_number   1
_chemical_formula_structural   Ca8YbLuIr4
_chemical_formula_sum   'Ca8 Yb1 Lu1 Ir4'
_cell_volume   380.55455407
_cell_formula_units_Z   1
loop_
 _symmetry_equiv_pos_site_id
 _symmetry_equiv_pos_as_xyz
  1  'x, y, z'
loop_
 _atom_site_type_symbol
 _atom_site_label
 _atom_site_symmetry_multiplicity
 _atom_site_fract_x
 _atom_site_fract_y
 _atom_site_fract_z
 _atom_site_occupancy
  Ca  Ca0  1  0.363146  0.200148  0.322288  1
  Ca  Ca1  1  0.200863  0.973147  0.081652  1
  Ca  Ca2  1  0.794606  0.033944  0.921183  1
  Ca  Ca3  1  0.966056  0.205394  0.578817  1
  Ca  Ca4  1  0.638630  0.796213  0.676914  1
  Ca  Ca5  1  0.203787  0.361370  0.823086  1
  Ca  Ca6  1  0.799852  0.636854  0.177712  1
  Ca  Ca7  1  0.026853  0.799137  0.418348  1
  Yb  Yb8  1  0.424538  0.575462  0.750000  1
  Lu  Lu9  1  0.565593  0.434407  0.250000  1
  Ir  Ir10  1  0.407879  0.804335  0.416126  1
  Ir  Ir11  1  0.195665  0.592121  0.083874  1
  Ir  Ir12  1  0.810595  0.398065  0.931024  1
  Ir  Ir13  1  0.601935  0.189405  0.568976  1
