# generated using pymatgen
data_YbHo3Pd2(PtO7)2
_symmetry_space_group_name_H-M   'P 1'
_cell_length_a   7.23434020
_cell_length_b   7.23046752
_cell_length_c   7.25587491
_cell_angle_alpha   60.11577255
_cell_angle_beta   60.13903958
_cell_angle_gamma   60.01771304
_symmetry_Int_Tables_number   1
_chemical_formula_structural   YbHo3Pd2(PtO7)2
_chemical_formula_sum   'Yb1 Ho3 Pd2 Pt2 O14'
_cell_volume   268.92553932
_cell_formula_units_Z   1
loop_
 _symmetry_equiv_pos_site_id
 _symmetry_equiv_pos_as_xyz
  1  'x, y, z'
loop_
 _atom_site_type_symbol
 _atom_site_label
 _atom_site_symmetry_multiplicity
 _atom_site_fract_x
 _atom_site_fract_y
 _atom_site_fract_z
 _atom_site_occupancy
  Yb  Yb0  1  0.625000  0.625000  0.125000  1
  Ho  Ho1  1  0.625000  0.625000  0.625000  1
  Ho  Ho2  1  0.625000  0.125000  0.625000  1
  Ho  Ho3  1  0.125000  0.625000  0.625000  1
  Pd  Pd4  1  0.625000  0.125000  0.125000  1
  Pd  Pd5  1  0.125000  0.125000  0.625000  1
  Pt  Pt6  1  0.125000  0.125000  0.125000  1
  Pt  Pt7  1  0.125000  0.625000  0.125000  1
  O  O8  1  0.036059  0.465401  0.464022  1
  O  O9  1  0.789589  0.785914  0.216980  1
  O  O10  1  0.789589  0.207517  0.216980  1
  O  O11  1  0.465105  0.034906  0.465083  1
  O  O12  1  0.752757  0.751559  0.744125  1
  O  O13  1  0.036059  0.034517  0.464022  1
  O  O14  1  0.046764  0.460352  0.032532  1
  O  O15  1  0.784895  0.215094  0.784917  1
  O  O16  1  0.203236  0.789648  0.217468  1
  O  O17  1  0.213941  0.215483  0.785978  1
  O  O18  1  0.497243  0.498441  0.505875  1
  O  O19  1  0.460411  0.042483  0.033020  1
  O  O20  1  0.460411  0.464086  0.033020  1
  O  O21  1  0.213941  0.784599  0.785978  1
