# generated using pymatgen
data_Cs3Ba(US3)2
_symmetry_space_group_name_H-M   'P 1'
_cell_length_a   7.38045354
_cell_length_b   7.38045416
_cell_length_c   8.37421600
_cell_angle_alpha   81.50071103
_cell_angle_beta   81.50070245
_cell_angle_gamma   119.95590866
_symmetry_Int_Tables_number   1
_chemical_formula_structural   Cs3Ba(US3)2
_chemical_formula_sum   'Cs3 Ba1 U2 S6'
_cell_volume   377.57855226
_cell_formula_units_Z   1
loop_
 _symmetry_equiv_pos_site_id
 _symmetry_equiv_pos_as_xyz
  1  'x, y, z'
loop_
 _atom_site_type_symbol
 _atom_site_label
 _atom_site_symmetry_multiplicity
 _atom_site_fract_x
 _atom_site_fract_y
 _atom_site_fract_z
 _atom_site_occupancy
  Cs  Cs0  1  0.657449  0.342551  0.500000  1
  Cs  Cs1  1  0.342551  0.657449  0.500000  1
  Cs  Cs2  1  0.000000  0.000000  0.500000  1
  Ba  Ba3  1  0.500000  0.500000  0.000000  1
  U  U4  1  0.832617  0.167383  0.000000  1
  U  U5  1  0.167383  0.832617  0.000000  1
  S  S6  1  0.806385  0.806385  0.185572  1
  S  S7  1  0.193615  0.193615  0.814428  1
  S  S8  1  0.435887  0.066874  0.189950  1
  S  S9  1  0.564113  0.933126  0.810050  1
  S  S10  1  0.933126  0.564113  0.810050  1
  S  S11  1  0.066874  0.435887  0.189950  1
