# generated using pymatgen
data_Mg2Ni11P7W
_symmetry_space_group_name_H-M   'P 1'
_cell_length_a   9.11172687
_cell_length_b   9.12696078
_cell_length_c   3.57769800
_cell_angle_alpha   90.00000000
_cell_angle_beta   90.00000000
_cell_angle_gamma   120.55906147
_symmetry_Int_Tables_number   1
_chemical_formula_structural   Mg2Ni11P7W
_chemical_formula_sum   'Mg2 Ni11 P7 W1'
_cell_volume   256.20460463
_cell_formula_units_Z   1
loop_
 _symmetry_equiv_pos_site_id
 _symmetry_equiv_pos_as_xyz
  1  'x, y, z'
loop_
 _atom_site_type_symbol
 _atom_site_label
 _atom_site_symmetry_multiplicity
 _atom_site_fract_x
 _atom_site_fract_y
 _atom_site_fract_z
 _atom_site_occupancy
  Mg  Mg0  1  0.001060  0.005115  0.000000  1
  Mg  Mg1  1  0.335558  0.669676  0.500000  1
  Ni  Ni2  1  0.296670  0.399808  0.000000  1
  Ni  Ni3  1  0.108495  0.706786  0.000000  1
  Ni  Ni4  1  0.539874  0.434491  0.500000  1
  Ni  Ni5  1  0.385582  0.174522  0.000000  1
  Ni  Ni6  1  0.788468  0.618238  0.000000  1
  Ni  Ni7  1  0.820809  0.204324  0.000000  1
  Ni  Ni8  1  0.231188  0.948729  0.500000  1
  Ni  Ni9  1  0.049341  0.272898  0.500000  1
  Ni  Ni10  1  0.722909  0.772026  0.500000  1
  Ni  Ni11  1  0.571281  0.113850  0.500000  1
  Ni  Ni12  1  0.599879  0.891211  0.000000  1
  P  P13  1  0.660708  0.329924  0.000000  1
  P  P14  1  0.082652  0.450218  0.000000  1
  P  P15  1  0.257167  0.215581  0.500000  1
  P  P16  1  0.781608  0.039457  0.500000  1
  P  P17  1  0.961298  0.749008  0.500000  1
  P  P18  1  0.548253  0.627946  0.000000  1
  P  P19  1  0.377941  0.924113  0.000000  1
  W  W20  1  0.879258  0.452080  0.500000  1
