# generated using pymatgen
data_HoHf2Zr(Al3Rh)6
_symmetry_space_group_name_H-M   'P 1'
_cell_length_a   7.47996418
_cell_length_b   7.47272608
_cell_length_c   9.29203600
_cell_angle_alpha   90.00000000
_cell_angle_beta   90.00000000
_cell_angle_gamma   119.70945041
_symmetry_Int_Tables_number   1
_chemical_formula_structural   HoHf2Zr(Al3Rh)6
_chemical_formula_sum   'Ho1 Hf2 Zr1 Al18 Rh6'
_cell_volume   451.11179286
_cell_formula_units_Z   1
loop_
 _symmetry_equiv_pos_site_id
 _symmetry_equiv_pos_as_xyz
  1  'x, y, z'
loop_
 _atom_site_type_symbol
 _atom_site_label
 _atom_site_symmetry_multiplicity
 _atom_site_fract_x
 _atom_site_fract_y
 _atom_site_fract_z
 _atom_site_occupancy
  Ho  Ho0  1  0.328838  0.006326  0.750000  1
  Hf  Hf1  1  0.994218  0.672318  0.250000  1
  Hf  Hf2  1  0.671528  0.993714  0.250000  1
  Zr  Zr3  1  0.006053  0.329290  0.750000  1
  Al  Al4  1  0.121760  0.123048  0.250000  1
  Al  Al5  1  0.872536  0.875773  0.750000  1
  Al  Al6  1  0.996753  0.334677  0.077776  1
  Al  Al7  1  0.000395  0.662767  0.926171  1
  Al  Al8  1  0.000395  0.662767  0.573829  1
  Al  Al9  1  0.334991  0.997407  0.418847  1
  Al  Al10  1  0.996753  0.334677  0.422224  1
  Al  Al11  1  0.667854  0.002492  0.574052  1
  Al  Al12  1  0.667854  0.002492  0.925948  1
  Al  Al13  1  0.334991  0.997407  0.081153  1
  Al  Al14  1  0.331192  0.333651  0.554428  1
  Al  Al15  1  0.668856  0.668757  0.439244  1
  Al  Al16  1  0.668856  0.668757  0.060756  1
  Al  Al17  1  0.331192  0.333651  0.945572  1
  Al  Al18  1  0.337973  0.553775  0.250000  1
  Al  Al19  1  0.665962  0.450893  0.750000  1
  Al  Al20  1  0.555957  0.339253  0.250000  1
  Al  Al21  1  0.445596  0.657313  0.750000  1
  Rh  Rh22  1  0.672648  0.327569  0.001944  1
  Rh  Rh23  1  0.328054  0.673543  0.002496  1
  Rh  Rh24  1  0.328054  0.673543  0.497504  1
  Rh  Rh25  1  0.672648  0.327569  0.498056  1
  Rh  Rh26  1  0.999049  0.998288  0.002377  1
  Rh  Rh27  1  0.999049  0.998288  0.497623  1
