# generated using pymatgen
data_Tb10Dy2TlCo4Ir
_symmetry_space_group_name_H-M   'P 1'
_cell_length_a   8.34039930
_cell_length_b   8.34480752
_cell_length_c   8.34040075
_cell_angle_alpha   111.17667953
_cell_angle_beta   110.31187601
_cell_angle_gamma   106.93459996
_symmetry_Int_Tables_number   1
_chemical_formula_structural   Tb10Dy2TlCo4Ir
_chemical_formula_sum   'Tb10 Dy2 Tl1 Co4 Ir1'
_cell_volume   446.29587845
_cell_formula_units_Z   1
loop_
 _symmetry_equiv_pos_site_id
 _symmetry_equiv_pos_as_xyz
  1  'x, y, z'
loop_
 _atom_site_type_symbol
 _atom_site_label
 _atom_site_symmetry_multiplicity
 _atom_site_fract_x
 _atom_site_fract_y
 _atom_site_fract_z
 _atom_site_occupancy
  Tb  Tb0  1  0.407862  0.213030  0.194115  1
  Tb  Tb1  1  0.592138  0.786970  0.805885  1
  Tb  Tb2  1  0.018914  0.213030  0.805167  1
  Tb  Tb3  1  0.981086  0.786970  0.194833  1
  Tb  Tb4  1  0.182777  0.288460  0.472008  1
  Tb  Tb5  1  0.817223  0.711540  0.527992  1
  Tb  Tb6  1  0.183549  0.711540  0.894317  1
  Tb  Tb7  1  0.816451  0.288460  0.105683  1
  Tb  Tb8  1  0.315577  0.621389  0.305814  1
  Tb  Tb9  1  0.684423  0.378611  0.694186  1
  Dy  Dy10  1  0.315862  0.009695  0.693833  1
  Dy  Dy11  1  0.684138  0.990305  0.306167  1
  Tl  Tl12  1  0.500000  0.500000  0.000000  1
  Co  Co13  1  0.379517  0.000000  0.379517  1
  Co  Co14  1  0.620483  0.000000  0.620483  1
  Co  Co15  1  0.111758  0.612153  0.500395  1
  Co  Co16  1  0.888242  0.387847  0.499605  1
  Ir  Ir17  1  0.000000  0.000000  0.000000  1
