# generated using pymatgen
data_AcIn3Cu
_symmetry_space_group_name_H-M   'P 1'
_cell_length_a   4.73682295
_cell_length_b   4.73714779
_cell_length_c   6.62649033
_cell_angle_alpha   69.05691462
_cell_angle_beta   69.05844270
_cell_angle_gamma   89.99999072
_symmetry_Int_Tables_number   1
_chemical_formula_structural   AcIn3Cu
_chemical_formula_sum   'Ac1 In3 Cu1'
_cell_volume   128.29722246
_cell_formula_units_Z   1
loop_
 _symmetry_equiv_pos_site_id
 _symmetry_equiv_pos_as_xyz
  1  'x, y, z'
loop_
 _atom_site_type_symbol
 _atom_site_label
 _atom_site_symmetry_multiplicity
 _atom_site_fract_x
 _atom_site_fract_y
 _atom_site_fract_z
 _atom_site_occupancy
  Ac  Ac0  1  0.997894  0.997894  0.004211  1
  In  In1  1  0.401498  0.401498  0.197003  1
  In  In2  1  0.737422  0.237422  0.525156  1
  In  In3  1  0.237686  0.737686  0.524630  1
  Cu  Cu4  1  0.625501  0.625501  0.748999  1
