# generated using pymatgen
data_LiTi(TcSn4)2
_symmetry_space_group_name_H-M   'P 1'
_cell_length_a   7.36980322
_cell_length_b   7.36980266
_cell_length_c   7.36980345
_cell_angle_alpha   125.28845582
_cell_angle_beta   125.28845152
_cell_angle_gamma   81.06080494
_symmetry_Int_Tables_number   1
_chemical_formula_structural   LiTi(TcSn4)2
_chemical_formula_sum   'Li1 Ti1 Tc2 Sn8'
_cell_volume   256.96523677
_cell_formula_units_Z   1
loop_
 _symmetry_equiv_pos_site_id
 _symmetry_equiv_pos_as_xyz
  1  'x, y, z'
loop_
 _atom_site_type_symbol
 _atom_site_label
 _atom_site_symmetry_multiplicity
 _atom_site_fract_x
 _atom_site_fract_y
 _atom_site_fract_z
 _atom_site_occupancy
  Li  Li0  1  0.500000  0.500000  0.000000  1
  Ti  Ti1  1  0.000000  0.000000  0.000000  1
  Tc  Tc2  1  0.247148  0.247148  0.000000  1
  Tc  Tc3  1  0.752852  0.752852  0.000000  1
  Sn  Sn4  1  0.703317  0.520552  0.497209  1
  Sn  Sn5  1  0.520552  0.023343  0.817235  1
  Sn  Sn6  1  0.206108  0.703317  0.182765  1
  Sn  Sn7  1  0.793892  0.296683  0.817235  1
  Sn  Sn8  1  0.479448  0.976657  0.182765  1
  Sn  Sn9  1  0.296683  0.479448  0.502791  1
  Sn  Sn10  1  0.976657  0.793892  0.497209  1
  Sn  Sn11  1  0.023343  0.206108  0.502791  1
