# generated using pymatgen
data_Yb5HoSi24(IrRu)4
_symmetry_space_group_name_H-M   'P 1'
_cell_length_a   10.11061410
_cell_length_b   10.11061412
_cell_length_c   8.16246915
_cell_angle_alpha   89.88506109
_cell_angle_beta   90.11493783
_cell_angle_gamma   132.43850542
_symmetry_Int_Tables_number   1
_chemical_formula_structural   Yb5HoSi24(IrRu)4
_chemical_formula_sum   'Yb5 Ho1 Si24 Ir4 Ru4'
_cell_volume   615.79069861
_cell_formula_units_Z   1
loop_
 _symmetry_equiv_pos_site_id
 _symmetry_equiv_pos_as_xyz
  1  'x, y, z'
loop_
 _atom_site_type_symbol
 _atom_site_label
 _atom_site_symmetry_multiplicity
 _atom_site_fract_x
 _atom_site_fract_y
 _atom_site_fract_z
 _atom_site_occupancy
  Yb  Yb0  1  0.499382  0.499331  0.499535  1
  Yb  Yb1  1  0.999331  0.999382  0.000465  1
  Yb  Yb2  1  0.502133  0.002133  0.750000  1
  Yb  Yb3  1  0.998394  0.498394  0.250000  1
  Yb  Yb4  1  0.497017  0.997017  0.250000  1
  Ho  Ho5  1  0.002558  0.502558  0.750000  1
  Si  Si6  1  0.796470  0.204015  0.498833  1
  Si  Si7  1  0.296888  0.705232  0.999750  1
  Si  Si8  1  0.205232  0.796888  0.500250  1
  Si  Si9  1  0.704015  0.296470  0.001167  1
  Si  Si10  1  0.330997  0.331477  0.832755  1
  Si  Si11  1  0.665872  0.668142  0.167365  1
  Si  Si12  1  0.168142  0.165872  0.332635  1
  Si  Si13  1  0.831477  0.830997  0.667245  1
  Si  Si14  1  0.118197  0.885786  0.726927  1
  Si  Si15  1  0.111288  0.878401  0.273564  1
  Si  Si16  1  0.612119  0.379630  0.227274  1
  Si  Si17  1  0.622891  0.390724  0.773131  1
  Si  Si18  1  0.879630  0.112119  0.272726  1
  Si  Si19  1  0.890724  0.122891  0.726869  1
  Si  Si20  1  0.385786  0.618197  0.773073  1
  Si  Si21  1  0.378401  0.611288  0.226436  1
  Si  Si22  1  0.343094  0.110680  0.502833  1
  Si  Si23  1  0.889109  0.657939  0.498060  1
  Si  Si24  1  0.388909  0.157720  0.002819  1
  Si  Si25  1  0.843080  0.611278  0.993745  1
  Si  Si26  1  0.657720  0.888909  0.497181  1
  Si  Si27  1  0.111278  0.343080  0.506255  1
  Si  Si28  1  0.610680  0.843094  0.997167  1
  Si  Si29  1  0.157939  0.389109  0.001940  1
  Ir  Ir30  1  0.670826  0.331734  0.501331  1
  Ir  Ir31  1  0.169524  0.831515  0.999947  1
  Ir  Ir32  1  0.331515  0.669524  0.500053  1
  Ir  Ir33  1  0.831734  0.170826  0.998669  1
  Ru  Ru34  1  0.125400  0.124962  0.626405  1
  Ru  Ru35  1  0.873394  0.873891  0.373508  1
  Ru  Ru36  1  0.373891  0.373394  0.126492  1
  Ru  Ru37  1  0.624962  0.625400  0.873595  1
