# generated using pymatgen
data_Ho5ZnIn4Rh
_symmetry_space_group_name_H-M   'P 1'
_cell_length_a   3.60306400
_cell_length_b   8.15860244
_cell_length_c   18.27063010
_cell_angle_alpha   89.41104980
_cell_angle_beta   90.00000000
_cell_angle_gamma   90.00000000
_symmetry_Int_Tables_number   1
_chemical_formula_structural   Ho5ZnIn4Rh
_chemical_formula_sum   'Ho10 Zn2 In8 Rh2'
_cell_volume   537.05446119
_cell_formula_units_Z   2
loop_
 _symmetry_equiv_pos_site_id
 _symmetry_equiv_pos_as_xyz
  1  'x, y, z'
loop_
 _atom_site_type_symbol
 _atom_site_label
 _atom_site_symmetry_multiplicity
 _atom_site_fract_x
 _atom_site_fract_y
 _atom_site_fract_z
 _atom_site_occupancy
  Ho  Ho0  1  0.000000  0.500000  0.500000  1
  Ho  Ho1  1  0.000000  0.000000  0.000000  1
  Ho  Ho2  1  0.000000  0.718706  0.277137  1
  Ho  Ho3  1  0.000000  0.281294  0.722863  1
  Ho  Ho4  1  0.000000  0.740414  0.782315  1
  Ho  Ho5  1  0.000000  0.259586  0.217685  1
  Ho  Ho6  1  0.000000  0.614444  0.085177  1
  Ho  Ho7  1  0.000000  0.385556  0.914823  1
  Ho  Ho8  1  0.000000  0.880506  0.579968  1
  Ho  Ho9  1  0.000000  0.119494  0.420032  1
  Zn  Zn10  1  0.500000  0.979905  0.698673  1
  Zn  Zn11  1  0.500000  0.020095  0.301327  1
  In  In12  1  0.500000  0.707947  0.932035  1
  In  In13  1  0.500000  0.292053  0.067965  1
  In  In14  1  0.500000  0.790998  0.430491  1
  In  In15  1  0.500000  0.209002  0.569509  1
  In  In16  1  0.500000  0.579400  0.648741  1
  In  In17  1  0.500000  0.420600  0.351259  1
  In  In18  1  0.500000  0.919185  0.149798  1
  In  In19  1  0.500000  0.080815  0.850202  1
  Rh  Rh20  1  0.500000  0.522271  0.195590  1
  Rh  Rh21  1  0.500000  0.477729  0.804410  1
