# generated using pymatgen
data_Na4Si2Se5
_symmetry_space_group_name_H-M   'P 1'
_cell_length_a   7.13197556
_cell_length_b   8.14056878
_cell_length_c   10.63077064
_cell_angle_alpha   73.24891288
_cell_angle_beta   70.53728779
_cell_angle_gamma   81.08685595
_symmetry_Int_Tables_number   1
_chemical_formula_structural   Na4Si2Se5
_chemical_formula_sum   'Na8 Si4 Se10'
_cell_volume   556.05559404
_cell_formula_units_Z   2
loop_
 _symmetry_equiv_pos_site_id
 _symmetry_equiv_pos_as_xyz
  1  'x, y, z'
loop_
 _atom_site_type_symbol
 _atom_site_label
 _atom_site_symmetry_multiplicity
 _atom_site_fract_x
 _atom_site_fract_y
 _atom_site_fract_z
 _atom_site_occupancy
  Na  Na0  1  0.205191  0.000586  0.593002  1
  Na  Na1  1  0.794809  0.999414  0.406998  1
  Na  Na2  1  0.909258  0.520858  0.685041  1
  Na  Na3  1  0.090742  0.479142  0.314959  1
  Na  Na4  1  0.500000  0.500000  0.500000  1
  Na  Na5  1  0.000000  0.000000  0.000000  1
  Na  Na6  1  0.273822  0.492512  0.897320  1
  Na  Na7  1  0.726178  0.507488  0.102680  1
  Si  Si8  1  0.425533  0.849760  0.227539  1
  Si  Si9  1  0.574467  0.150240  0.772461  1
  Si  Si10  1  0.383024  0.151111  0.166826  1
  Si  Si11  1  0.616976  0.848889  0.833174  1
  Se  Se12  1  0.070073  0.241289  0.155295  1
  Se  Se13  1  0.929927  0.758711  0.844705  1
  Se  Se14  1  0.632832  0.244136  0.949893  1
  Se  Se15  1  0.367168  0.755864  0.050107  1
  Se  Se16  1  0.829136  0.246942  0.579121  1
  Se  Se17  1  0.170864  0.753058  0.420879  1
  Se  Se18  1  0.536566  0.751541  0.679637  1
  Se  Se19  1  0.463434  0.248459  0.320363  1
  Se  Se20  1  0.269616  0.241269  0.746351  1
  Se  Se21  1  0.730384  0.758731  0.253649  1
