# generated using pymatgen
data_Er3Th(MgRh)4
_symmetry_space_group_name_H-M   'P 1'
_cell_length_a   4.08400700
_cell_length_b   7.08369503
_cell_length_c   8.66162567
_cell_angle_alpha   90.90402243
_cell_angle_beta   90.00000000
_cell_angle_gamma   90.00000000
_symmetry_Int_Tables_number   1
_chemical_formula_structural   Er3Th(MgRh)4
_chemical_formula_sum   'Er3 Th1 Mg4 Rh4'
_cell_volume   250.54842818
_cell_formula_units_Z   1
loop_
 _symmetry_equiv_pos_site_id
 _symmetry_equiv_pos_as_xyz
  1  'x, y, z'
loop_
 _atom_site_type_symbol
 _atom_site_label
 _atom_site_symmetry_multiplicity
 _atom_site_fract_x
 _atom_site_fract_y
 _atom_site_fract_z
 _atom_site_occupancy
  Er  Er0  1  0.750000  0.461988  0.818088  1
  Er  Er1  1  0.750000  0.959259  0.677073  1
  Er  Er2  1  0.250000  0.036878  0.329451  1
  Th  Th3  1  0.250000  0.537755  0.178964  1
  Mg  Mg4  1  0.250000  0.634592  0.561802  1
  Mg  Mg5  1  0.750000  0.358050  0.447249  1
  Mg  Mg6  1  0.750000  0.876008  0.056951  1
  Mg  Mg7  1  0.250000  0.136008  0.936872  1
  Rh  Rh8  1  0.250000  0.746838  0.874968  1
  Rh  Rh9  1  0.750000  0.263249  0.126657  1
  Rh  Rh10  1  0.750000  0.746905  0.362905  1
  Rh  Rh11  1  0.250000  0.242467  0.629020  1
