# generated using pymatgen
data_Cs3K(InI4)4
_symmetry_space_group_name_H-M   'P 1'
_cell_length_a   8.63409892
_cell_length_b   9.22619387
_cell_length_c   17.41461968
_cell_angle_alpha   85.42310556
_cell_angle_beta   90.21590418
_cell_angle_gamma   90.21438590
_symmetry_Int_Tables_number   1
_chemical_formula_structural   Cs3K(InI4)4
_chemical_formula_sum   'Cs3 K1 In4 I16'
_cell_volume   1382.80455664
_cell_formula_units_Z   1
loop_
 _symmetry_equiv_pos_site_id
 _symmetry_equiv_pos_as_xyz
  1  'x, y, z'
loop_
 _atom_site_type_symbol
 _atom_site_label
 _atom_site_symmetry_multiplicity
 _atom_site_fract_x
 _atom_site_fract_y
 _atom_site_fract_z
 _atom_site_occupancy
  Cs  Cs0  1  0.503029  0.257547  0.640342  1
  Cs  Cs1  1  0.002911  0.742275  0.860107  1
  Cs  Cs2  1  0.496669  0.742591  0.359370  1
  K  K3  1  0.998844  0.255847  0.138484  1
  In  In4  1  0.355396  0.244450  0.360792  1
  In  In5  1  0.857366  0.756320  0.138923  1
  In  In6  1  0.643573  0.755672  0.638609  1
  In  In7  1  0.143553  0.243904  0.861615  1
  I  I8  1  0.857467  0.139850  0.910707  1
  I  I9  1  0.357446  0.859737  0.589434  1
  I  I10  1  0.140799  0.868994  0.090407  1
  I  I11  1  0.641606  0.140697  0.410243  1
  I  I12  1  0.384886  0.410171  0.221835  1
  I  I13  1  0.893302  0.581804  0.274659  1
  I  I14  1  0.607624  0.587204  0.776441  1
  I  I15  1  0.108065  0.413128  0.724043  1
  I  I16  1  0.661941  0.987016  0.159868  1
  I  I17  1  0.149311  0.022195  0.337864  1
  I  I18  1  0.348490  0.021311  0.839754  1
  I  I19  1  0.848648  0.979528  0.660357  1
  I  I20  1  0.239635  0.422214  0.467761  1
  I  I21  1  0.744267  0.571263  0.034203  1
  I  I22  1  0.760662  0.577930  0.532140  1
  I  I23  1  0.254510  0.418354  0.972045  1
