# generated using pymatgen
data_Zr10ZnSnGeSb5
_symmetry_space_group_name_H-M   'P 1'
_cell_length_a   8.67898880
_cell_length_b   8.67255882
_cell_length_c   5.87899412
_cell_angle_alpha   89.97679779
_cell_angle_beta   90.01159608
_cell_angle_gamma   119.97549783
_symmetry_Int_Tables_number   1
_chemical_formula_structural   Zr10ZnSnGeSb5
_chemical_formula_sum   'Zr10 Zn1 Sn1 Ge1 Sb5'
_cell_volume   383.31620365
_cell_formula_units_Z   1
loop_
 _symmetry_equiv_pos_site_id
 _symmetry_equiv_pos_as_xyz
  1  'x, y, z'
loop_
 _atom_site_type_symbol
 _atom_site_label
 _atom_site_symmetry_multiplicity
 _atom_site_fract_x
 _atom_site_fract_y
 _atom_site_fract_z
 _atom_site_occupancy
  Zr  Zr0  1  0.666138  0.333109  0.000470  1
  Zr  Zr1  1  0.333862  0.666972  0.000470  1
  Zr  Zr2  1  0.334330  0.667617  0.499632  1
  Zr  Zr3  1  0.665670  0.333286  0.499632  1
  Zr  Zr4  1  0.733630  0.733284  0.751211  1
  Zr  Zr5  1  0.266370  0.999654  0.751211  1
  Zr  Zr6  1  0.000000  0.266119  0.751225  1
  Zr  Zr7  1  0.267877  0.267416  0.248894  1
  Zr  Zr8  1  0.732123  0.999539  0.248894  1
  Zr  Zr9  1  0.000000  0.733630  0.248725  1
  Zn  Zn10  1  0.000000  0.000853  0.499115  1
  Sn  Sn11  1  0.000000  0.387511  0.251880  1
  Ge  Ge12  1  0.000000  0.000645  0.000878  1
  Sb  Sb13  1  0.388672  0.389492  0.747670  1
  Sb  Sb14  1  0.611328  0.000819  0.747670  1
  Sb  Sb15  1  0.000000  0.608992  0.747731  1
  Sb  Sb16  1  0.611106  0.611084  0.252345  1
  Sb  Sb17  1  0.388894  0.999980  0.252345  1
