# generated using pymatgen
data_Dy6Er2In3Os
_symmetry_space_group_name_H-M   'P 1'
_cell_length_a   10.38765900
_cell_length_b   10.38765775
_cell_length_c   7.04057800
_cell_angle_alpha   90.00000000
_cell_angle_beta   90.00000000
_cell_angle_gamma   119.99999443
_symmetry_Int_Tables_number   1
_chemical_formula_structural   Dy6Er2In3Os
_chemical_formula_sum   'Dy12 Er4 In6 Os2'
_cell_volume   657.92181511
_cell_formula_units_Z   2
loop_
 _symmetry_equiv_pos_site_id
 _symmetry_equiv_pos_as_xyz
  1  'x, y, z'
loop_
 _atom_site_type_symbol
 _atom_site_label
 _atom_site_symmetry_multiplicity
 _atom_site_fract_x
 _atom_site_fract_y
 _atom_site_fract_z
 _atom_site_occupancy
  Dy  Dy0  1  0.532990  0.065980  0.793887  1
  Dy  Dy1  1  0.934020  0.467010  0.793887  1
  Dy  Dy2  1  0.532990  0.467010  0.793887  1
  Dy  Dy3  1  0.467010  0.934020  0.293887  1
  Dy  Dy4  1  0.065980  0.532990  0.293887  1
  Dy  Dy5  1  0.467010  0.532990  0.293887  1
  Dy  Dy6  1  0.823116  0.646232  0.499380  1
  Dy  Dy7  1  0.353768  0.176884  0.499380  1
  Dy  Dy8  1  0.823116  0.176884  0.499380  1
  Dy  Dy9  1  0.176884  0.353768  0.999380  1
  Dy  Dy10  1  0.646232  0.823116  0.999380  1
  Dy  Dy11  1  0.176884  0.823116  0.999380  1
  Er  Er12  1  0.666667  0.333333  0.171317  1
  Er  Er13  1  0.333333  0.666667  0.671317  1
  Er  Er14  1  0.000000  0.000000  0.778411  1
  Er  Er15  1  0.000000  0.000000  0.278411  1
  In  In16  1  0.836943  0.673888  0.039713  1
  In  In17  1  0.326112  0.163057  0.039713  1
  In  In18  1  0.836943  0.163057  0.039713  1
  In  In19  1  0.163057  0.326112  0.539713  1
  In  In20  1  0.673888  0.836943  0.539713  1
  In  In21  1  0.163057  0.836943  0.539713  1
  Os  Os22  1  0.666667  0.333333  0.569288  1
  Os  Os23  1  0.333333  0.666667  0.069288  1
