# generated using pymatgen
data_KSb(PS3)2
_symmetry_space_group_name_H-M   'P 1'
_cell_length_a   7.98710800
_cell_length_b   6.79415783
_cell_length_c   9.93595914
_cell_angle_alpha   87.59266197
_cell_angle_beta   90.00000000
_cell_angle_gamma   90.00000000
_symmetry_Int_Tables_number   1
_chemical_formula_structural   KSb(PS3)2
_chemical_formula_sum   'K2 Sb2 P4 S12'
_cell_volume   538.70565315
_cell_formula_units_Z   2
loop_
 _symmetry_equiv_pos_site_id
 _symmetry_equiv_pos_as_xyz
  1  'x, y, z'
loop_
 _atom_site_type_symbol
 _atom_site_label
 _atom_site_symmetry_multiplicity
 _atom_site_fract_x
 _atom_site_fract_y
 _atom_site_fract_z
 _atom_site_occupancy
  K  K0  1  0.444188  0.693973  0.489741  1
  K  K1  1  0.944188  0.306027  0.510259  1
  Sb  Sb2  1  0.740025  0.815344  0.017353  1
  Sb  Sb3  1  0.240025  0.184656  0.982647  1
  P  P4  1  0.933776  0.795272  0.300090  1
  P  P5  1  0.646541  0.305171  0.831393  1
  P  P6  1  0.146541  0.694829  0.168607  1
  P  P7  1  0.433776  0.204728  0.699910  1
  S  S8  1  0.362474  0.951464  0.809238  1
  S  S9  1  0.034225  0.676773  0.979208  1
  S  S10  1  0.253211  0.408183  0.731378  1
  S  S11  1  0.534225  0.323227  0.020792  1
  S  S12  1  0.832857  0.094655  0.831813  1
  S  S13  1  0.332857  0.905345  0.168187  1
  S  S14  1  0.753211  0.591817  0.268622  1
  S  S15  1  0.862474  0.048536  0.190762  1
  S  S16  1  0.514923  0.173892  0.514465  1
  S  S17  1  0.730929  0.564406  0.755772  1
  S  S18  1  0.014923  0.826108  0.485535  1
  S  S19  1  0.230929  0.435594  0.244228  1
