# generated using pymatgen
data_Zr6Al4CuIrC2
_symmetry_space_group_name_H-M   'P 1'
_cell_length_a   8.66608145
_cell_length_b   8.66608106
_cell_length_c   8.65691400
_cell_angle_alpha   60.03500113
_cell_angle_beta   60.03500264
_cell_angle_gamma   60.08855358
_symmetry_Int_Tables_number   1
_chemical_formula_structural   Zr6Al4CuIrC2
_chemical_formula_sum   'Zr12 Al8 Cu2 Ir2 C4'
_cell_volume   460.27066358
_cell_formula_units_Z   2
loop_
 _symmetry_equiv_pos_site_id
 _symmetry_equiv_pos_as_xyz
  1  'x, y, z'
loop_
 _atom_site_type_symbol
 _atom_site_label
 _atom_site_symmetry_multiplicity
 _atom_site_fract_x
 _atom_site_fract_y
 _atom_site_fract_z
 _atom_site_occupancy
  Zr  Zr0  1  0.559729  0.943198  0.555424  1
  Zr  Zr1  1  0.306802  0.690271  0.694576  1
  Zr  Zr2  1  0.690271  0.306802  0.308351  1
  Zr  Zr3  1  0.306802  0.690271  0.308351  1
  Zr  Zr4  1  0.692973  0.692973  0.307027  1
  Zr  Zr5  1  0.307529  0.307529  0.692471  1
  Zr  Zr6  1  0.557027  0.557027  0.942973  1
  Zr  Zr7  1  0.943198  0.559729  0.555424  1
  Zr  Zr8  1  0.559729  0.943198  0.941649  1
  Zr  Zr9  1  0.942471  0.942471  0.557529  1
  Zr  Zr10  1  0.690271  0.306802  0.694576  1
  Zr  Zr11  1  0.943198  0.559729  0.941649  1
  Al  Al12  1  0.918434  0.918434  0.923249  1
  Al  Al13  1  0.011290  0.332224  0.328243  1
  Al  Al14  1  0.332224  0.011290  0.328243  1
  Al  Al15  1  0.331566  0.331566  0.010116  1
  Al  Al16  1  0.917776  0.238710  0.921757  1
  Al  Al17  1  0.918434  0.918434  0.239884  1
  Al  Al18  1  0.238710  0.917776  0.921757  1
  Al  Al19  1  0.331566  0.331566  0.326751  1
  Cu  Cu20  1  0.125000  0.125000  0.125000  1
  Cu  Cu21  1  0.125000  0.125000  0.625000  1
  Ir  Ir22  1  0.625000  0.125000  0.125000  1
  Ir  Ir23  1  0.125000  0.625000  0.125000  1
  C  C24  1  0.625000  0.625000  0.625000  1
  C  C25  1  0.125000  0.625000  0.625000  1
  C  C26  1  0.625000  0.125000  0.625000  1
  C  C27  1  0.625000  0.625000  0.125000  1
