# generated using pymatgen
data_Lu2Hf3Zr(SnRh)6
_symmetry_space_group_name_H-M   'P 1'
_cell_length_a   7.46883024
_cell_length_b   7.47546665
_cell_length_c   7.29360900
_cell_angle_alpha   90.00000000
_cell_angle_beta   90.00000000
_cell_angle_gamma   119.87058348
_symmetry_Int_Tables_number   1
_chemical_formula_structural   Lu2Hf3Zr(SnRh)6
_chemical_formula_sum   'Lu2 Hf3 Zr1 Sn6 Rh6'
_cell_volume   353.12534360
_cell_formula_units_Z   1
loop_
 _symmetry_equiv_pos_site_id
 _symmetry_equiv_pos_as_xyz
  1  'x, y, z'
loop_
 _atom_site_type_symbol
 _atom_site_label
 _atom_site_symmetry_multiplicity
 _atom_site_fract_x
 _atom_site_fract_y
 _atom_site_fract_z
 _atom_site_occupancy
  Lu  Lu0  1  0.998788  0.401369  0.250000  1
  Lu  Lu1  1  0.599300  0.597112  0.250000  1
  Hf  Hf2  1  0.998804  0.391192  0.750000  1
  Hf  Hf3  1  0.604963  0.611183  0.750000  1
  Hf  Hf4  1  0.392566  0.997062  0.750000  1
  Zr  Zr5  1  0.400569  0.999312  0.250000  1
  Sn  Sn6  1  0.269949  0.268765  0.504739  1
  Sn  Sn7  1  0.998207  0.730177  0.505180  1
  Sn  Sn8  1  0.998207  0.730177  0.994820  1
  Sn  Sn9  1  0.731726  0.001176  0.497145  1
  Sn  Sn10  1  0.731726  0.001176  0.002855  1
  Sn  Sn11  1  0.269949  0.268765  0.995261  1
  Rh  Rh12  1  0.334364  0.670506  0.524016  1
  Rh  Rh13  1  0.664726  0.330497  0.531550  1
  Rh  Rh14  1  0.334364  0.670506  0.975984  1
  Rh  Rh15  1  0.997758  0.000482  0.750000  1
  Rh  Rh16  1  0.009308  0.000045  0.250000  1
  Rh  Rh17  1  0.664726  0.330497  0.968450  1
