# generated using pymatgen
data_Tb3Y(TiAl3)2
_symmetry_space_group_name_H-M   'P 1'
_cell_length_a   9.54741568
_cell_length_b   9.54741646
_cell_length_c   9.54741700
_cell_angle_alpha   34.83342936
_cell_angle_beta   34.83342265
_cell_angle_gamma   34.83342852
_symmetry_Int_Tables_number   1
_chemical_formula_structural   Tb3Y(TiAl3)2
_chemical_formula_sum   'Tb3 Y1 Ti2 Al6'
_cell_volume   253.45025148
_cell_formula_units_Z   1
loop_
 _symmetry_equiv_pos_site_id
 _symmetry_equiv_pos_as_xyz
  1  'x, y, z'
loop_
 _atom_site_type_symbol
 _atom_site_label
 _atom_site_symmetry_multiplicity
 _atom_site_fract_x
 _atom_site_fract_y
 _atom_site_fract_z
 _atom_site_occupancy
  Tb  Tb0  1  0.186781  0.186781  0.186781  1
  Tb  Tb1  1  0.813180  0.813180  0.813180  1
  Tb  Tb2  1  0.313235  0.313235  0.313235  1
  Y  Y3  1  0.686695  0.686695  0.686695  1
  Ti  Ti4  1  0.000027  0.000027  0.000027  1
  Ti  Ti5  1  0.500039  0.500039  0.500039  1
  Al  Al6  1  0.749788  0.250001  0.250001  1
  Al  Al7  1  0.250251  0.750000  0.750000  1
  Al  Al8  1  0.250001  0.749788  0.250001  1
  Al  Al9  1  0.750000  0.250251  0.750000  1
  Al  Al10  1  0.250001  0.250001  0.749788  1
  Al  Al11  1  0.750000  0.750000  0.250251  1
