# generated using pymatgen
data_Th2Rh5Pb
_symmetry_space_group_name_H-M   'P 1'
_cell_length_a   5.98196630
_cell_length_b   5.98196666
_cell_length_c   8.64731200
_cell_angle_alpha   90.00000000
_cell_angle_beta   90.00000000
_cell_angle_gamma   98.32173805
_symmetry_Int_Tables_number   1
_chemical_formula_structural   Th2Rh5Pb
_chemical_formula_sum   'Th4 Rh10 Pb2'
_cell_volume   306.17669209
_cell_formula_units_Z   2
loop_
 _symmetry_equiv_pos_site_id
 _symmetry_equiv_pos_as_xyz
  1  'x, y, z'
loop_
 _atom_site_type_symbol
 _atom_site_label
 _atom_site_symmetry_multiplicity
 _atom_site_fract_x
 _atom_site_fract_y
 _atom_site_fract_z
 _atom_site_occupancy
  Th  Th0  1  0.786082  0.213918  0.500000  1
  Th  Th1  1  0.213918  0.786082  0.000000  1
  Th  Th2  1  0.213918  0.786082  0.500000  1
  Th  Th3  1  0.786082  0.213918  0.000000  1
  Rh  Rh4  1  0.729154  0.729154  0.000880  1
  Rh  Rh5  1  0.729154  0.729154  0.499120  1
  Rh  Rh6  1  0.270846  0.270846  0.999120  1
  Rh  Rh7  1  0.270846  0.270846  0.500880  1
  Rh  Rh8  1  0.499770  0.000731  0.750000  1
  Rh  Rh9  1  0.500230  0.999269  0.250000  1
  Rh  Rh10  1  0.000353  0.000353  0.250000  1
  Rh  Rh11  1  0.999647  0.999647  0.750000  1
  Rh  Rh12  1  0.000731  0.499770  0.750000  1
  Rh  Rh13  1  0.999269  0.500230  0.250000  1
  Pb  Pb14  1  0.501804  0.501804  0.750000  1
  Pb  Pb15  1  0.498196  0.498196  0.250000  1
