# generated using pymatgen
data_Tb9Y5(Lu3Pb8)2
_symmetry_space_group_name_H-M   'P 1'
_cell_length_a   8.16486300
_cell_length_b   8.25228306
_cell_length_c   15.60850000
_cell_angle_alpha   89.99562590
_cell_angle_beta   89.99908774
_cell_angle_gamma   90.00502668
_symmetry_Int_Tables_number   1
_chemical_formula_structural   Tb9Y5(Lu3Pb8)2
_chemical_formula_sum   'Tb9 Y5 Lu6 Pb16'
_cell_volume   1051.68137752
_cell_formula_units_Z   1
loop_
 _symmetry_equiv_pos_site_id
 _symmetry_equiv_pos_as_xyz
  1  'x, y, z'
loop_
 _atom_site_type_symbol
 _atom_site_label
 _atom_site_symmetry_multiplicity
 _atom_site_fract_x
 _atom_site_fract_y
 _atom_site_fract_z
 _atom_site_occupancy
  Tb  Tb0  1  0.875137  0.657390  0.878719  1
  Tb  Tb1  1  0.533548  0.323389  0.901179  1
  Tb  Tb2  1  0.033647  0.176599  0.598806  1
  Tb  Tb3  1  0.466131  0.676830  0.401655  1
  Tb  Tb4  1  0.966163  0.823174  0.098441  1
  Tb  Tb5  1  0.468737  0.678650  0.096890  1
  Tb  Tb6  1  0.968681  0.821325  0.403099  1
  Tb  Tb7  1  0.532817  0.324939  0.599649  1
  Tb  Tb8  1  0.032812  0.175005  0.900316  1
  Y  Y9  1  0.626840  0.157254  0.380112  1
  Y  Y10  1  0.126944  0.342884  0.119781  1
  Y  Y11  1  0.624884  0.158932  0.121558  1
  Y  Y12  1  0.125017  0.341206  0.378496  1
  Y  Y13  1  0.375307  0.842589  0.621380  1
  Lu  Lu14  1  0.372296  0.843921  0.876337  1
  Lu  Lu15  1  0.872323  0.656058  0.623638  1
  Lu  Lu16  1  0.206215  0.505542  0.749854  1
  Lu  Lu17  1  0.706130  0.994451  0.749936  1
  Lu  Lu18  1  0.793901  0.495141  0.250746  1
  Lu  Lu19  1  0.293904  0.004862  0.249241  1
  Pb  Pb20  1  0.284336  0.032955  0.041991  1
  Pb  Pb21  1  0.784377  0.467118  0.458023  1
  Pb  Pb22  1  0.718950  0.961772  0.544307  1
  Pb  Pb23  1  0.219122  0.538050  0.955596  1
  Pb  Pb24  1  0.711628  0.964268  0.956139  1
  Pb  Pb25  1  0.211734  0.535915  0.543852  1
  Pb  Pb26  1  0.284211  0.034198  0.455498  1
  Pb  Pb27  1  0.784286  0.465684  0.044617  1
  Pb  Pb28  1  0.568058  0.626039  0.750440  1
  Pb  Pb29  1  0.068366  0.874033  0.749329  1
  Pb  Pb30  1  0.431607  0.375512  0.250755  1
  Pb  Pb31  1  0.931542  0.124571  0.249553  1
  Pb  Pb32  1  0.345848  0.156038  0.750228  1
  Pb  Pb33  1  0.845833  0.343820  0.749539  1
  Pb  Pb34  1  0.654322  0.843843  0.250318  1
  Pb  Pb35  1  0.154347  0.656045  0.249984  1
