# generated using pymatgen
data_Dy9Er2PaGa20
_symmetry_space_group_name_H-M   'P 1'
_cell_length_a   6.14745297
_cell_length_b   9.58213060
_cell_length_c   11.51287106
_cell_angle_alpha   90.01261434
_cell_angle_beta   89.92494811
_cell_angle_gamma   90.04748823
_symmetry_Int_Tables_number   1
_chemical_formula_structural   Dy9Er2PaGa20
_chemical_formula_sum   'Dy9 Er2 Pa1 Ga20'
_cell_volume   678.17286545
_cell_formula_units_Z   1
loop_
 _symmetry_equiv_pos_site_id
 _symmetry_equiv_pos_as_xyz
  1  'x, y, z'
loop_
 _atom_site_type_symbol
 _atom_site_label
 _atom_site_symmetry_multiplicity
 _atom_site_fract_x
 _atom_site_fract_y
 _atom_site_fract_z
 _atom_site_occupancy
  Dy  Dy0  1  0.149450  0.249890  0.923910  1
  Dy  Dy1  1  0.352734  0.252281  0.424963  1
  Dy  Dy2  1  0.610128  0.988434  0.851850  1
  Dy  Dy3  1  0.112232  0.010234  0.648515  1
  Dy  Dy4  1  0.389135  0.490184  0.149307  1
  Dy  Dy5  1  0.110802  0.489586  0.648824  1
  Dy  Dy6  1  0.388474  0.010775  0.149095  1
  Dy  Dy7  1  0.888821  0.989452  0.351496  1
  Dy  Dy8  1  0.610082  0.510624  0.850575  1
  Er  Er9  1  0.851376  0.748983  0.075420  1
  Er  Er10  1  0.650095  0.749453  0.575677  1
  Pa  Pa11  1  0.887338  0.510353  0.352499  1
  Ga  Ga12  1  0.873406  0.053043  0.091509  1
  Ga  Ga13  1  0.627899  0.445525  0.589270  1
  Ga  Ga14  1  0.126218  0.554338  0.908821  1
  Ga  Ga15  1  0.373904  0.947421  0.408533  1
  Ga  Ga16  1  0.126266  0.945846  0.909945  1
  Ga  Ga17  1  0.376647  0.554609  0.408703  1
  Ga  Ga18  1  0.874050  0.445948  0.090835  1
  Ga  Ga19  1  0.627497  0.053384  0.591702  1
  Ga  Ga20  1  0.171748  0.749260  0.254524  1
  Ga  Ga21  1  0.325108  0.749700  0.752855  1
  Ga  Ga22  1  0.824010  0.249365  0.747740  1
  Ga  Ga23  1  0.674831  0.250336  0.246329  1
  Ga  Ga24  1  0.375356  0.750205  0.005011  1
  Ga  Ga25  1  0.123087  0.749114  0.501931  1
  Ga  Ga26  1  0.624977  0.249555  0.994737  1
  Ga  Ga27  1  0.874561  0.250202  0.494475  1
  Ga  Ga28  1  0.602108  0.749990  0.298514  1
  Ga  Ga29  1  0.899588  0.750221  0.798049  1
  Ga  Ga30  1  0.399489  0.249621  0.700918  1
  Ga  Ga31  1  0.098578  0.252066  0.203464  1
