# generated using pymatgen
data_Pr16TlCd2InIr4
_symmetry_space_group_name_H-M   'P 1'
_cell_length_a   10.05338610
_cell_length_b   10.05338547
_cell_length_c   10.05388771
_cell_angle_alpha   60.05242735
_cell_angle_beta   60.05243254
_cell_angle_gamma   60.00796886
_symmetry_Int_Tables_number   1
_chemical_formula_structural   Pr16TlCd2InIr4
_chemical_formula_sum   'Pr16 Tl1 Cd2 In1 Ir4'
_cell_volume   719.14031072
_cell_formula_units_Z   1
loop_
 _symmetry_equiv_pos_site_id
 _symmetry_equiv_pos_as_xyz
  1  'x, y, z'
loop_
 _atom_site_type_symbol
 _atom_site_label
 _atom_site_symmetry_multiplicity
 _atom_site_fract_x
 _atom_site_fract_y
 _atom_site_fract_z
 _atom_site_occupancy
  Pr  Pr0  1  0.347638  0.347638  0.346746  1
  Pr  Pr1  1  0.348970  0.348970  0.954825  1
  Pr  Pr2  1  0.349768  0.954297  0.348715  1
  Pr  Pr3  1  0.954297  0.349768  0.348715  1
  Pr  Pr4  1  0.808672  0.190974  0.190422  1
  Pr  Pr5  1  0.188682  0.808728  0.808973  1
  Pr  Pr6  1  0.190974  0.808672  0.190422  1
  Pr  Pr7  1  0.808728  0.188682  0.808973  1
  Pr  Pr8  1  0.188470  0.188470  0.811093  1
  Pr  Pr9  1  0.807248  0.807248  0.190241  1
  Pr  Pr10  1  0.944280  0.560692  0.560142  1
  Pr  Pr11  1  0.560257  0.940228  0.938579  1
  Pr  Pr12  1  0.560692  0.944280  0.560142  1
  Pr  Pr13  1  0.940228  0.560257  0.938579  1
  Pr  Pr14  1  0.560710  0.560710  0.942130  1
  Pr  Pr15  1  0.939986  0.939986  0.559395  1
  Tl  Tl16  1  0.581490  0.581490  0.583650  1
  Cd  Cd17  1  0.578092  0.259253  0.580049  1
  Cd  Cd18  1  0.259253  0.578092  0.580049  1
  In  In19  1  0.580027  0.580027  0.256461  1
  Ir  Ir20  1  0.141710  0.141710  0.141630  1
  Ir  Ir21  1  0.141926  0.141926  0.575924  1
  Ir  Ir22  1  0.142102  0.575798  0.142070  1
  Ir  Ir23  1  0.575798  0.142102  0.142070  1
