# generated using pymatgen
data_Tc2Cl7F3
_symmetry_space_group_name_H-M   'P 1'
_cell_length_a   10.15566556
_cell_length_b   10.15566506
_cell_length_c   13.12789809
_cell_angle_alpha   49.46925988
_cell_angle_beta   49.46926343
_cell_angle_gamma   45.17555266
_symmetry_Int_Tables_number   1
_chemical_formula_structural   Tc2Cl7F3
_chemical_formula_sum   'Tc4 Cl14 F6'
_cell_volume   682.17730939
_cell_formula_units_Z   2
loop_
 _symmetry_equiv_pos_site_id
 _symmetry_equiv_pos_as_xyz
  1  'x, y, z'
loop_
 _atom_site_type_symbol
 _atom_site_label
 _atom_site_symmetry_multiplicity
 _atom_site_fract_x
 _atom_site_fract_y
 _atom_site_fract_z
 _atom_site_occupancy
  Tc  Tc0  1  0.258014  0.180701  0.827780  1
  Tc  Tc1  1  0.819299  0.741986  0.172220  1
  Tc  Tc2  1  0.988617  0.916394  0.268664  1
  Tc  Tc3  1  0.083606  0.011383  0.731336  1
  Cl  Cl4  1  0.098361  0.998628  0.311610  1
  Cl  Cl5  1  0.001372  0.901639  0.688390  1
  Cl  Cl6  1  0.713034  0.213079  0.234573  1
  Cl  Cl7  1  0.786921  0.286966  0.765427  1
  Cl  Cl8  1  0.358919  0.721896  0.776721  1
  Cl  Cl9  1  0.278104  0.641081  0.223279  1
  Cl  Cl10  1  0.337766  0.271401  0.888146  1
  Cl  Cl11  1  0.728599  0.662234  0.111854  1
  Cl  Cl12  1  0.396683  0.319859  0.591726  1
  Cl  Cl13  1  0.680141  0.603317  0.408274  1
  Cl  Cl14  1  0.848530  0.769931  0.499661  1
  Cl  Cl15  1  0.230069  0.151470  0.500339  1
  Cl  Cl16  1  0.517182  0.870448  0.846354  1
  Cl  Cl17  1  0.129552  0.482818  0.153646  1
  F  F18  1  0.155339  0.103292  0.788347  1
  F  F19  1  0.896708  0.844661  0.211653  1
  F  F20  1  0.998832  0.399063  0.841358  1
  F  F21  1  0.600937  0.001168  0.158642  1
  F  F22  1  0.112775  0.054361  0.043510  1
  F  F23  1  0.945639  0.887225  0.956490  1
