# generated using pymatgen
data_Th8Ti12Si15Au
_symmetry_space_group_name_H-M   'P 1'
_cell_length_a   7.25534451
_cell_length_b   7.17940136
_cell_length_c   13.31704193
_cell_angle_alpha   89.87931077
_cell_angle_beta   90.03313889
_cell_angle_gamma   89.87512806
_symmetry_Int_Tables_number   1
_chemical_formula_structural   Th8Ti12Si15Au
_chemical_formula_sum   'Th8 Ti12 Si15 Au1'
_cell_volume   693.66849561
_cell_formula_units_Z   1
loop_
 _symmetry_equiv_pos_site_id
 _symmetry_equiv_pos_as_xyz
  1  'x, y, z'
loop_
 _atom_site_type_symbol
 _atom_site_label
 _atom_site_symmetry_multiplicity
 _atom_site_fract_x
 _atom_site_fract_y
 _atom_site_fract_z
 _atom_site_occupancy
  Th  Th0  1  0.338742  0.001846  0.465198  1
  Th  Th1  1  0.503650  0.836724  0.718578  1
  Th  Th2  1  0.502791  0.163015  0.218205  1
  Th  Th3  1  0.838508  0.496718  0.281705  1
  Th  Th4  1  0.163674  0.504840  0.781616  1
  Th  Th5  1  0.662323  0.997722  0.969531  1
  Th  Th6  1  0.999125  0.338800  0.528757  1
  Th  Th7  1  0.997183  0.663959  0.031659  1
  Ti  Ti8  1  0.329143  0.329346  0.001261  1
  Ti  Ti9  1  0.172869  0.828555  0.249652  1
  Ti  Ti10  1  0.817242  0.171207  0.751523  1
  Ti  Ti11  1  0.672247  0.672223  0.499958  1
  Ti  Ti12  1  0.159740  0.006802  0.884048  1
  Ti  Ti13  1  0.493319  0.660979  0.126957  1
  Ti  Ti14  1  0.513576  0.342801  0.625683  1
  Ti  Ti15  1  0.660252  0.494586  0.874840  1
  Ti  Ti16  1  0.340124  0.505266  0.373564  1
  Ti  Ti17  1  0.839607  0.991732  0.376315  1
  Ti  Ti18  1  0.007728  0.160158  0.123590  1
  Ti  Ti19  1  0.981112  0.832505  0.617866  1
  Si  Si20  1  0.376282  0.698019  0.937807  1
  Si  Si21  1  0.622507  0.303199  0.436621  1
  Si  Si22  1  0.697702  0.378562  0.063193  1
  Si  Si23  1  0.303250  0.621926  0.562478  1
  Si  Si24  1  0.803518  0.876886  0.187417  1
  Si  Si25  1  0.123383  0.197156  0.311821  1
  Si  Si26  1  0.877565  0.804803  0.812970  1
  Si  Si27  1  0.287326  0.958210  0.067390  1
  Si  Si28  1  0.543062  0.784776  0.315281  1
  Si  Si29  1  0.460823  0.216101  0.817675  1
  Si  Si30  1  0.789073  0.539852  0.685215  1
  Si  Si31  1  0.213313  0.459223  0.184362  1
  Si  Si32  1  0.710790  0.043942  0.564942  1
  Si  Si33  1  0.956850  0.287366  0.934031  1
  Si  Si34  1  0.043908  0.714131  0.432542  1
  Au  Au35  1  0.197692  0.116063  0.685746  1
