# generated using pymatgen
data_Th2Zr2NbSi4
_symmetry_space_group_name_H-M   'P 1'
_cell_length_a   7.36819800
_cell_length_b   7.36819800
_cell_length_c   13.61546200
_cell_angle_alpha   90.00000000
_cell_angle_beta   90.00000000
_cell_angle_gamma   90.00000000
_symmetry_Int_Tables_number   1
_chemical_formula_structural   Th2Zr2NbSi4
_chemical_formula_sum   'Th8 Zr8 Nb4 Si16'
_cell_volume   739.18808530
_cell_formula_units_Z   4
loop_
 _symmetry_equiv_pos_site_id
 _symmetry_equiv_pos_as_xyz
  1  'x, y, z'
loop_
 _atom_site_type_symbol
 _atom_site_label
 _atom_site_symmetry_multiplicity
 _atom_site_fract_x
 _atom_site_fract_y
 _atom_site_fract_z
 _atom_site_occupancy
  Th  Th0  1  0.998943  0.343836  0.215324  1
  Th  Th1  1  0.001057  0.656164  0.715324  1
  Th  Th2  1  0.156164  0.498943  0.465324  1
  Th  Th3  1  0.501057  0.843836  0.034676  1
  Th  Th4  1  0.843836  0.501057  0.965324  1
  Th  Th5  1  0.498943  0.156164  0.534676  1
  Th  Th6  1  0.343836  0.998943  0.784676  1
  Th  Th7  1  0.656164  0.001057  0.284676  1
  Zr  Zr8  1  0.150712  0.995091  0.374249  1
  Zr  Zr9  1  0.849288  0.004909  0.874249  1
  Zr  Zr10  1  0.504909  0.650712  0.624249  1
  Zr  Zr11  1  0.349288  0.495091  0.875751  1
  Zr  Zr12  1  0.495091  0.349288  0.124249  1
  Zr  Zr13  1  0.650712  0.504909  0.375751  1
  Zr  Zr14  1  0.995091  0.150712  0.625751  1
  Zr  Zr15  1  0.004909  0.849288  0.125751  1
  Nb  Nb16  1  0.173199  0.173199  0.000000  1
  Nb  Nb17  1  0.826801  0.826801  0.500000  1
  Nb  Nb18  1  0.326801  0.673199  0.250000  1
  Nb  Nb19  1  0.673199  0.326801  0.750000  1
  Si  Si20  1  0.291830  0.048095  0.184899  1
  Si  Si21  1  0.708170  0.951905  0.684899  1
  Si  Si22  1  0.451905  0.791830  0.434899  1
  Si  Si23  1  0.208170  0.548095  0.065101  1
  Si  Si24  1  0.548095  0.208170  0.934899  1
  Si  Si25  1  0.791830  0.451905  0.565101  1
  Si  Si26  1  0.048095  0.291830  0.815101  1
  Si  Si27  1  0.951905  0.708170  0.315101  1
  Si  Si28  1  0.365119  0.298935  0.315217  1
  Si  Si29  1  0.634881  0.701065  0.815217  1
  Si  Si30  1  0.201065  0.865119  0.565217  1
  Si  Si31  1  0.134881  0.798935  0.934783  1
  Si  Si32  1  0.798935  0.134881  0.065217  1
  Si  Si33  1  0.865119  0.201065  0.434783  1
  Si  Si34  1  0.298935  0.365119  0.684783  1
  Si  Si35  1  0.701065  0.634881  0.184783  1
