# generated using pymatgen
data_Zr8Ta11Si16Rh
_symmetry_space_group_name_H-M   'P 1'
_cell_length_a   6.86670625
_cell_length_b   6.87785667
_cell_length_c   12.71510947
_cell_angle_alpha   90.26596558
_cell_angle_beta   90.01080638
_cell_angle_gamma   89.87285332
_symmetry_Int_Tables_number   1
_chemical_formula_structural   Zr8Ta11Si16Rh
_chemical_formula_sum   'Zr8 Ta11 Si16 Rh1'
_cell_volume   600.50404714
_cell_formula_units_Z   1
loop_
 _symmetry_equiv_pos_site_id
 _symmetry_equiv_pos_as_xyz
  1  'x, y, z'
loop_
 _atom_site_type_symbol
 _atom_site_label
 _atom_site_symmetry_multiplicity
 _atom_site_fract_x
 _atom_site_fract_y
 _atom_site_fract_z
 _atom_site_occupancy
  Zr  Zr0  1  0.000460  0.662795  0.031567  1
  Zr  Zr1  1  0.991512  0.339849  0.532620  1
  Zr  Zr2  1  0.661575  0.002803  0.969340  1
  Zr  Zr3  1  0.160895  0.500318  0.780028  1
  Zr  Zr4  1  0.837454  0.503765  0.277365  1
  Zr  Zr5  1  0.499354  0.153973  0.217311  1
  Zr  Zr6  1  0.502224  0.840287  0.719051  1
  Zr  Zr7  1  0.343049  0.994011  0.469631  1
  Ta  Ta8  1  0.846130  0.998638  0.372784  1
  Ta  Ta9  1  0.006882  0.161722  0.127180  1
  Ta  Ta10  1  0.999996  0.844844  0.624997  1
  Ta  Ta11  1  0.653854  0.496546  0.875296  1
  Ta  Ta12  1  0.505518  0.348174  0.624869  1
  Ta  Ta13  1  0.498257  0.661283  0.120715  1
  Ta  Ta14  1  0.153495  0.005381  0.872918  1
  Ta  Ta15  1  0.673494  0.669505  0.499946  1
  Ta  Ta16  1  0.832266  0.170587  0.749150  1
  Ta  Ta17  1  0.173792  0.833584  0.249168  1
  Ta  Ta18  1  0.331781  0.333667  0.000718  1
  Si  Si19  1  0.047482  0.698610  0.433757  1
  Si  Si20  1  0.956976  0.300281  0.936989  1
  Si  Si21  1  0.703450  0.044831  0.562118  1
  Si  Si22  1  0.211044  0.462376  0.192923  1
  Si  Si23  1  0.798505  0.546777  0.686561  1
  Si  Si24  1  0.456809  0.201550  0.813458  1
  Si  Si25  1  0.536524  0.778555  0.315355  1
  Si  Si26  1  0.296644  0.959748  0.062830  1
  Si  Si27  1  0.866741  0.792536  0.822090  1
  Si  Si28  1  0.135983  0.205219  0.322488  1
  Si  Si29  1  0.792103  0.873075  0.177813  1
  Si  Si30  1  0.296921  0.632733  0.569692  1
  Si  Si31  1  0.708032  0.368682  0.073259  1
  Si  Si32  1  0.625993  0.298879  0.425016  1
  Si  Si33  1  0.364716  0.709275  0.927062  1
  Si  Si34  1  0.210073  0.134746  0.676327  1
  Rh  Rh35  1  0.320017  0.470393  0.387610  1
