# generated using pymatgen
data_Tb2Tm3In4CoPt
_symmetry_space_group_name_H-M   'P 1'
_cell_length_a   3.60293100
_cell_length_b   8.06061571
_cell_length_c   18.02989982
_cell_angle_alpha   89.73182476
_cell_angle_beta   90.00000000
_cell_angle_gamma   90.00000000
_symmetry_Int_Tables_number   1
_chemical_formula_structural   Tb2Tm3In4CoPt
_chemical_formula_sum   'Tb4 Tm6 In8 Co2 Pt2'
_cell_volume   523.61576987
_cell_formula_units_Z   2
loop_
 _symmetry_equiv_pos_site_id
 _symmetry_equiv_pos_as_xyz
  1  'x, y, z'
loop_
 _atom_site_type_symbol
 _atom_site_label
 _atom_site_symmetry_multiplicity
 _atom_site_fract_x
 _atom_site_fract_y
 _atom_site_fract_z
 _atom_site_occupancy
  Tb  Tb0  1  0.000000  0.244833  0.719523  1
  Tb  Tb1  1  0.000000  0.755167  0.280477  1
  Tb  Tb2  1  0.000000  0.000000  0.000000  1
  Tb  Tb3  1  0.000000  0.500000  0.500000  1
  Tm  Tm4  1  0.000000  0.113907  0.409926  1
  Tm  Tm5  1  0.000000  0.886093  0.590074  1
  Tm  Tm6  1  0.000000  0.381716  0.912890  1
  Tm  Tm7  1  0.000000  0.618284  0.087110  1
  Tm  Tm8  1  0.000000  0.234256  0.224334  1
  Tm  Tm9  1  0.000000  0.765744  0.775666  1
  In  In10  1  0.500000  0.421565  0.351213  1
  In  In11  1  0.500000  0.578435  0.648787  1
  In  In12  1  0.500000  0.068520  0.847767  1
  In  In13  1  0.500000  0.931480  0.152233  1
  In  In14  1  0.500000  0.293348  0.067702  1
  In  In15  1  0.500000  0.706652  0.932298  1
  In  In16  1  0.500000  0.201218  0.568026  1
  In  In17  1  0.500000  0.798782  0.431974  1
  Co  Co18  1  0.500000  0.021382  0.305921  1
  Co  Co19  1  0.500000  0.978618  0.694079  1
  Pt  Pt20  1  0.500000  0.481280  0.803732  1
  Pt  Pt21  1  0.500000  0.518720  0.196268  1
