# generated using pymatgen
data_Sr20Cd3AgAu8
_symmetry_space_group_name_H-M   'P 1'
_cell_length_a   8.55066800
_cell_length_b   8.55066800
_cell_length_c   15.66938000
_cell_angle_alpha   90.00000000
_cell_angle_beta   90.00000000
_cell_angle_gamma   90.00000000
_symmetry_Int_Tables_number   1
_chemical_formula_structural   Sr20Cd3AgAu8
_chemical_formula_sum   'Sr20 Cd3 Ag1 Au8'
_cell_volume   1145.64984664
_cell_formula_units_Z   1
loop_
 _symmetry_equiv_pos_site_id
 _symmetry_equiv_pos_as_xyz
  1  'x, y, z'
loop_
 _atom_site_type_symbol
 _atom_site_label
 _atom_site_symmetry_multiplicity
 _atom_site_fract_x
 _atom_site_fract_y
 _atom_site_fract_z
 _atom_site_occupancy
  Sr  Sr0  1  0.000000  0.000000  0.755105  1
  Sr  Sr1  1  0.500000  0.500000  0.251325  1
  Sr  Sr2  1  0.000000  0.000000  0.244895  1
  Sr  Sr3  1  0.500000  0.500000  0.748675  1
  Sr  Sr4  1  0.169320  0.661122  0.109342  1
  Sr  Sr5  1  0.666432  0.165155  0.612213  1
  Sr  Sr6  1  0.830680  0.338878  0.109342  1
  Sr  Sr7  1  0.333568  0.834845  0.612213  1
  Sr  Sr8  1  0.338878  0.169320  0.109342  1
  Sr  Sr9  1  0.834845  0.666432  0.612213  1
  Sr  Sr10  1  0.661122  0.830680  0.109342  1
  Sr  Sr11  1  0.165155  0.333568  0.612213  1
  Sr  Sr12  1  0.338878  0.830680  0.890658  1
  Sr  Sr13  1  0.834845  0.333568  0.387787  1
  Sr  Sr14  1  0.661122  0.169320  0.890658  1
  Sr  Sr15  1  0.165155  0.666432  0.387787  1
  Sr  Sr16  1  0.169320  0.338878  0.890658  1
  Sr  Sr17  1  0.666432  0.834845  0.387787  1
  Sr  Sr18  1  0.830680  0.661122  0.890658  1
  Sr  Sr19  1  0.333568  0.165155  0.387787  1
  Cd  Cd20  1  0.000000  0.000000  0.500000  1
  Cd  Cd21  1  0.000000  0.000000  0.000000  1
  Cd  Cd22  1  0.500000  0.500000  0.500000  1
  Ag  Ag23  1  0.500000  0.500000  0.000000  1
  Au  Au24  1  0.628158  0.128710  0.248257  1
  Au  Au25  1  0.128710  0.628158  0.751743  1
  Au  Au26  1  0.871290  0.371842  0.751743  1
  Au  Au27  1  0.371842  0.871290  0.248257  1
  Au  Au28  1  0.371842  0.128710  0.751743  1
  Au  Au29  1  0.871290  0.628158  0.248257  1
  Au  Au30  1  0.128710  0.371842  0.248257  1
  Au  Au31  1  0.628158  0.871290  0.751743  1
