# generated using pymatgen
data_Nb12Co8MoOs3N4
_symmetry_space_group_name_H-M   'P 1'
_cell_length_a   8.09722764
_cell_length_b   8.09722758
_cell_length_c   8.09722815
_cell_angle_alpha   60.26762504
_cell_angle_beta   60.26762753
_cell_angle_gamma   60.26761856
_symmetry_Int_Tables_number   1
_chemical_formula_structural   Nb12Co8MoOs3N4
_chemical_formula_sum   'Nb12 Co8 Mo1 Os3 N4'
_cell_volume   377.67376925
_cell_formula_units_Z   1
loop_
 _symmetry_equiv_pos_site_id
 _symmetry_equiv_pos_as_xyz
  1  'x, y, z'
loop_
 _atom_site_type_symbol
 _atom_site_label
 _atom_site_symmetry_multiplicity
 _atom_site_fract_x
 _atom_site_fract_y
 _atom_site_fract_z
 _atom_site_occupancy
  Nb  Nb0  1  0.808706  0.808706  0.188536  1
  Nb  Nb1  1  0.193932  0.193932  0.806344  1
  Nb  Nb2  1  0.808706  0.188536  0.808706  1
  Nb  Nb3  1  0.193932  0.806344  0.193932  1
  Nb  Nb4  1  0.188536  0.808706  0.808706  1
  Nb  Nb5  1  0.806344  0.193932  0.193932  1
  Nb  Nb6  1  0.441294  0.441294  0.061464  1
  Nb  Nb7  1  0.056068  0.056068  0.443656  1
  Nb  Nb8  1  0.441294  0.061464  0.441294  1
  Nb  Nb9  1  0.056068  0.443656  0.056068  1
  Nb  Nb10  1  0.061464  0.441294  0.441294  1
  Nb  Nb11  1  0.443656  0.056068  0.056068  1
  Co  Co12  1  0.734617  0.421950  0.421950  1
  Co  Co13  1  0.421950  0.734617  0.421950  1
  Co  Co14  1  0.421950  0.421950  0.734617  1
  Co  Co15  1  0.423673  0.423673  0.423673  1
  Co  Co16  1  0.515383  0.828050  0.828050  1
  Co  Co17  1  0.828050  0.515383  0.828050  1
  Co  Co18  1  0.828050  0.828050  0.515383  1
  Co  Co19  1  0.826327  0.826327  0.826327  1
  Mo  Mo20  1  0.625000  0.625000  0.625000  1
  Os  Os21  1  0.125000  0.625000  0.625000  1
  Os  Os22  1  0.625000  0.125000  0.625000  1
  Os  Os23  1  0.625000  0.625000  0.125000  1
  N  N24  1  0.625000  0.125000  0.125000  1
  N  N25  1  0.125000  0.625000  0.125000  1
  N  N26  1  0.125000  0.125000  0.625000  1
  N  N27  1  0.125000  0.125000  0.125000  1
