# generated using pymatgen
data_EuFe3P12Ir
_symmetry_space_group_name_H-M   'P 1'
_cell_length_a   6.80968445
_cell_length_b   6.83046766
_cell_length_c   6.83046795
_cell_angle_alpha   109.53277783
_cell_angle_beta   109.40960207
_cell_angle_gamma   109.40959039
_symmetry_Int_Tables_number   1
_chemical_formula_structural   EuFe3P12Ir
_chemical_formula_sum   'Eu1 Fe3 P12 Ir1'
_cell_volume   244.75732904
_cell_formula_units_Z   1
loop_
 _symmetry_equiv_pos_site_id
 _symmetry_equiv_pos_as_xyz
  1  'x, y, z'
loop_
 _atom_site_type_symbol
 _atom_site_label
 _atom_site_symmetry_multiplicity
 _atom_site_fract_x
 _atom_site_fract_y
 _atom_site_fract_z
 _atom_site_occupancy
  Eu  Eu0  1  0.000000  0.000000  0.000000  1
  Fe  Fe1  1  0.000000  0.000000  0.500000  1
  Fe  Fe2  1  0.000000  0.500000  0.000000  1
  Fe  Fe3  1  0.500000  0.500000  0.500000  1
  P  P4  1  0.498033  0.843853  0.632503  1
  P  P5  1  0.200922  0.850393  0.351671  1
  P  P6  1  0.799078  0.149607  0.648329  1
  P  P7  1  0.150750  0.351671  0.501278  1
  P  P8  1  0.350528  0.501278  0.149607  1
  P  P9  1  0.501967  0.156147  0.367497  1
  P  P10  1  0.134470  0.632503  0.788649  1
  P  P11  1  0.345819  0.211351  0.843853  1
  P  P12  1  0.849250  0.648329  0.498722  1
  P  P13  1  0.654181  0.788649  0.156147  1
  P  P14  1  0.865530  0.367497  0.211351  1
  P  P15  1  0.649472  0.498722  0.850393  1
  Ir  Ir16  1  0.500000  0.000000  0.000000  1
