# generated using pymatgen
data_SmPuPBr2
_symmetry_space_group_name_H-M   'P 1'
_cell_length_a   4.08971500
_cell_length_b   4.08971518
_cell_length_c   10.73114400
_cell_angle_alpha   90.00000000
_cell_angle_beta   90.00000000
_cell_angle_gamma   120.00000666
_symmetry_Int_Tables_number   1
_chemical_formula_structural   SmPuPBr2
_chemical_formula_sum   'Sm1 Pu1 P1 Br2'
_cell_volume   155.43998038
_cell_formula_units_Z   1
loop_
 _symmetry_equiv_pos_site_id
 _symmetry_equiv_pos_as_xyz
  1  'x, y, z'
loop_
 _atom_site_type_symbol
 _atom_site_label
 _atom_site_symmetry_multiplicity
 _atom_site_fract_x
 _atom_site_fract_y
 _atom_site_fract_z
 _atom_site_occupancy
  Sm  Sm0  1  0.333333  0.666665  0.852557  1
  Pu  Pu1  1  0.666666  0.333333  0.147498  1
  P  P2  1  0.000000  0.000000  0.001043  1
  Br  Br3  1  0.333333  0.666665  0.318615  1
  Br  Br4  1  0.666666  0.333333  0.680287  1
