# generated using pymatgen
data_Ta8CrSi6W
_symmetry_space_group_name_H-M   'P 1'
_cell_length_a   7.56271083
_cell_length_b   7.56271131
_cell_length_c   7.56271056
_cell_angle_alpha   129.88815551
_cell_angle_beta   129.88814464
_cell_angle_gamma   73.58564021
_symmetry_Int_Tables_number   1
_chemical_formula_structural   Ta8CrSi6W
_chemical_formula_sum   'Ta8 Cr1 Si6 W1'
_cell_volume   248.50342258
_cell_formula_units_Z   1
loop_
 _symmetry_equiv_pos_site_id
 _symmetry_equiv_pos_as_xyz
  1  'x, y, z'
loop_
 _atom_site_type_symbol
 _atom_site_label
 _atom_site_symmetry_multiplicity
 _atom_site_fract_x
 _atom_site_fract_y
 _atom_site_fract_z
 _atom_site_occupancy
  Ta  Ta0  1  0.014219  0.182298  0.498968  1
  Ta  Ta1  1  0.683330  0.515251  0.501032  1
  Ta  Ta2  1  0.515251  0.014219  0.831922  1
  Ta  Ta3  1  0.182298  0.683330  0.168078  1
  Ta  Ta4  1  0.985781  0.817702  0.501032  1
  Ta  Ta5  1  0.316670  0.484749  0.498968  1
  Ta  Ta6  1  0.484749  0.985781  0.168078  1
  Ta  Ta7  1  0.817702  0.316670  0.831922  1
  Cr  Cr8  1  0.500000  0.500000  0.000000  1
  Si  Si9  1  0.750200  0.750200  0.000000  1
  Si  Si10  1  0.249800  0.249800  0.000000  1
  Si  Si11  1  0.373118  0.140204  0.513322  1
  Si  Si12  1  0.626882  0.859796  0.486678  1
  Si  Si13  1  0.859796  0.373118  0.232915  1
  Si  Si14  1  0.140204  0.626882  0.767085  1
  W  W15  1  0.000000  0.000000  0.000000  1
