# generated using pymatgen
data_SmBi5(RuO7)2
_symmetry_space_group_name_H-M   'P 1'
_cell_length_a   6.64509289
_cell_length_b   6.68253359
_cell_length_c   7.51596800
_cell_angle_alpha   90.00000000
_cell_angle_beta   90.00000000
_cell_angle_gamma   107.22210405
_symmetry_Int_Tables_number   1
_chemical_formula_structural   SmBi5(RuO7)2
_chemical_formula_sum   'Sm1 Bi5 Ru2 O14'
_cell_volume   318.79035236
_cell_formula_units_Z   1
loop_
 _symmetry_equiv_pos_site_id
 _symmetry_equiv_pos_as_xyz
  1  'x, y, z'
loop_
 _atom_site_type_symbol
 _atom_site_label
 _atom_site_symmetry_multiplicity
 _atom_site_fract_x
 _atom_site_fract_y
 _atom_site_fract_z
 _atom_site_occupancy
  Sm  Sm0  1  0.062274  0.525703  0.250000  1
  Bi  Bi1  1  0.500801  0.950546  0.750000  1
  Bi  Bi2  1  0.524639  0.044641  0.250000  1
  Bi  Bi3  1  0.947636  0.501065  0.750000  1
  Bi  Bi4  1  0.058170  0.059613  0.500042  1
  Bi  Bi5  1  0.058170  0.059613  0.999958  1
  Ru  Ru6  1  0.499121  0.500181  0.501633  1
  Ru  Ru7  1  0.499121  0.500181  0.998367  1
  O  O8  1  0.548508  0.544933  0.750000  1
  O  O9  1  0.403082  0.425320  0.250000  1
  O  O10  1  0.850157  0.140293  0.750000  1
  O  O11  1  0.170158  0.890676  0.250000  1
  O  O12  1  0.140703  0.843076  0.750000  1
  O  O13  1  0.909139  0.161513  0.250000  1
  O  O14  1  0.426638  0.177473  0.966856  1
  O  O15  1  0.527303  0.794672  0.467156  1
  O  O16  1  0.170675  0.427751  0.965473  1
  O  O17  1  0.789543  0.526428  0.460158  1
  O  O18  1  0.426638  0.177473  0.533144  1
  O  O19  1  0.527303  0.794672  0.032844  1
  O  O20  1  0.789543  0.526428  0.039842  1
  O  O21  1  0.170675  0.427751  0.534527  1
