# generated using pymatgen
data_Ho8Lu2Si5Ge
_symmetry_space_group_name_H-M   'P 1'
_cell_length_a   8.39825800
_cell_length_b   8.39825805
_cell_length_c   6.30725600
_cell_angle_alpha   89.99815797
_cell_angle_beta   89.99817161
_cell_angle_gamma   120.02165804
_symmetry_Int_Tables_number   1
_chemical_formula_structural   Ho8Lu2Si5Ge
_chemical_formula_sum   'Ho8 Lu2 Si5 Ge1'
_cell_volume   385.17198761
_cell_formula_units_Z   1
loop_
 _symmetry_equiv_pos_site_id
 _symmetry_equiv_pos_as_xyz
  1  'x, y, z'
loop_
 _atom_site_type_symbol
 _atom_site_label
 _atom_site_symmetry_multiplicity
 _atom_site_fract_x
 _atom_site_fract_y
 _atom_site_fract_z
 _atom_site_occupancy
  Ho  Ho0  1  0.667870  0.333071  0.500767  1
  Ho  Ho1  1  0.333071  0.667870  0.500767  1
  Ho  Ho2  1  0.757875  0.757875  0.249086  1
  Ho  Ho3  1  0.242907  0.998481  0.249077  1
  Ho  Ho4  1  0.998481  0.242907  0.249077  1
  Ho  Ho5  1  0.242782  0.242782  0.750989  1
  Ho  Ho6  1  0.756705  0.999706  0.751037  1
  Ho  Ho7  1  0.999706  0.756705  0.751037  1
  Lu  Lu8  1  0.333017  0.668050  0.999247  1
  Lu  Lu9  1  0.668050  0.333017  0.999247  1
  Si  Si10  1  0.605278  0.999789  0.246900  1
  Si  Si11  1  0.999789  0.605278  0.246900  1
  Si  Si12  1  0.605605  0.605605  0.753169  1
  Si  Si13  1  0.394484  0.000231  0.753307  1
  Si  Si14  1  0.000231  0.394484  0.753307  1
  Ge  Ge15  1  0.394147  0.394147  0.246085  1
