# generated using pymatgen
data_Dy4Ga24Co2Pt7
_symmetry_space_group_name_H-M   'P 1'
_cell_length_a   7.50407969
_cell_length_b   7.49777361
_cell_length_c   13.22379405
_cell_angle_alpha   84.51454562
_cell_angle_beta   79.17170665
_cell_angle_gamma   60.22118063
_symmetry_Int_Tables_number   1
_chemical_formula_structural   Dy4Ga24Co2Pt7
_chemical_formula_sum   'Dy4 Ga24 Co2 Pt7'
_cell_volume   634.27278498
_cell_formula_units_Z   1
loop_
 _symmetry_equiv_pos_site_id
 _symmetry_equiv_pos_as_xyz
  1  'x, y, z'
loop_
 _atom_site_type_symbol
 _atom_site_label
 _atom_site_symmetry_multiplicity
 _atom_site_fract_x
 _atom_site_fract_y
 _atom_site_fract_z
 _atom_site_occupancy
  Dy  Dy0  1  0.404124  0.159989  0.808154  1
  Dy  Dy1  1  0.600254  0.836973  0.190076  1
  Dy  Dy2  1  0.723942  0.499614  0.808393  1
  Dy  Dy3  1  0.272597  0.501179  0.190414  1
  Ga  Ga4  1  0.697652  0.820458  0.941292  1
  Ga  Ga5  1  0.305539  0.178429  0.056296  1
  Ga  Ga6  1  0.145553  0.823250  0.563311  1
  Ga  Ga7  1  0.852880  0.167645  0.441140  1
  Ga  Ga8  1  0.466996  0.178643  0.560491  1
  Ga  Ga9  1  0.520569  0.832641  0.443806  1
  Ga  Ga10  1  0.219498  0.165971  0.323964  1
  Ga  Ga11  1  0.795365  0.821359  0.672613  1
  Ga  Ga12  1  0.422566  0.506933  0.672008  1
  Ga  Ga13  1  0.564914  0.494553  0.324732  1
  Ga  Ga14  1  0.108301  0.178009  0.671119  1
  Ga  Ga15  1  0.892251  0.837886  0.325859  1
  Ga  Ga16  1  0.342499  0.498143  0.941921  1
  Ga  Ga17  1  0.655861  0.502652  0.055806  1
  Ga  Ga18  1  0.018857  0.183118  0.946838  1
  Ga  Ga19  1  0.981686  0.816462  0.051888  1
  Ga  Ga20  1  0.183271  0.498787  0.451925  1
  Ga  Ga21  1  0.824068  0.502440  0.560233  1
  Ga  Ga22  1  0.738428  0.165076  0.181598  1
  Ga  Ga23  1  0.259029  0.836016  0.818387  1
  Ga  Ga24  1  0.062057  0.610250  0.816244  1
  Ga  Ga25  1  0.940494  0.381061  0.176625  1
  Ga  Ga26  1  0.863265  0.034601  0.817572  1
  Ga  Ga27  1  0.139454  0.963744  0.182287  1
  Co  Co28  1  0.118011  0.496018  0.641069  1
  Co  Co29  1  0.000158  0.500026  0.998912  1
  Pt  Pt30  1  0.882385  0.505305  0.360257  1
  Pt  Pt31  1  0.659167  0.170412  0.999691  1
  Pt  Pt32  1  0.340771  0.829717  0.000990  1
  Pt  Pt33  1  0.538482  0.166785  0.361127  1
  Pt  Pt34  1  0.460732  0.835119  0.640903  1
  Pt  Pt35  1  0.777614  0.176650  0.639261  1
  Pt  Pt36  1  0.220715  0.824085  0.362796  1
