# generated using pymatgen
data_Y2Ho4C3Cl5
_symmetry_space_group_name_H-M   'P 1'
_cell_length_a   3.65169656
_cell_length_b   8.29834061
_cell_length_c   10.23602421
_cell_angle_alpha   85.47055492
_cell_angle_beta   79.66286623
_cell_angle_gamma   77.29991321
_symmetry_Int_Tables_number   1
_chemical_formula_structural   Y2Ho4C3Cl5
_chemical_formula_sum   'Y2 Ho4 C3 Cl5'
_cell_volume   297.42966420
_cell_formula_units_Z   1
loop_
 _symmetry_equiv_pos_site_id
 _symmetry_equiv_pos_as_xyz
  1  'x, y, z'
loop_
 _atom_site_type_symbol
 _atom_site_label
 _atom_site_symmetry_multiplicity
 _atom_site_fract_x
 _atom_site_fract_y
 _atom_site_fract_z
 _atom_site_occupancy
  Y  Y0  1  0.320892  0.818293  0.543753  1
  Y  Y1  1  0.431624  0.923592  0.217957  1
  Ho  Ho2  1  0.573827  0.075102  0.778924  1
  Ho  Ho3  1  0.959391  0.428373  0.656220  1
  Ho  Ho4  1  0.683623  0.179573  0.455857  1
  Ho  Ho5  1  0.046130  0.569215  0.342162  1
  C  C6  1  0.126714  0.123672  0.625737  1
  C  C7  1  0.877542  0.875525  0.373123  1
  C  C8  1  0.503266  0.497790  0.499212  1
  Cl  Cl9  1  0.752155  0.745289  0.755471  1
  Cl  Cl10  1  0.379688  0.378890  0.866571  1
  Cl  Cl11  1  0.251222  0.253851  0.244626  1
  Cl  Cl12  1  0.627551  0.616366  0.131861  1
  Cl  Cl13  1  0.003596  0.998058  0.997839  1
