# generated using pymatgen
data_K3V2BiS8
_symmetry_space_group_name_H-M   'P 1'
_cell_length_a   24.76234800
_cell_length_b   7.03635700
_cell_length_c   9.37926900
_cell_angle_alpha   90.00000000
_cell_angle_beta   90.00000000
_cell_angle_gamma   90.00000000
_symmetry_Int_Tables_number   1
_chemical_formula_structural   K3V2BiS8
_chemical_formula_sum   'K12 V8 Bi4 S32'
_cell_volume   1634.21307299
_cell_formula_units_Z   4
loop_
 _symmetry_equiv_pos_site_id
 _symmetry_equiv_pos_as_xyz
  1  'x, y, z'
loop_
 _atom_site_type_symbol
 _atom_site_label
 _atom_site_symmetry_multiplicity
 _atom_site_fract_x
 _atom_site_fract_y
 _atom_site_fract_z
 _atom_site_occupancy
  K  K0  1  0.185202  0.991577  0.025042  1
  K  K1  1  0.785701  0.003348  0.092719  1
  K  K2  1  0.578719  0.014851  0.250967  1
  K  K3  1  0.421281  0.514851  0.249034  1
  K  K4  1  0.214298  0.503348  0.407282  1
  K  K5  1  0.814797  0.491577  0.474959  1
  K  K6  1  0.314798  0.008423  0.525042  1
  K  K7  1  0.714299  0.996652  0.592718  1
  K  K8  1  0.921281  0.985150  0.750967  1
  K  K9  1  0.078719  0.485149  0.749033  1
  K  K10  1  0.285701  0.496652  0.907282  1
  K  K11  1  0.685202  0.508423  0.974958  1
  V  V12  1  0.345351  0.011572  0.112928  1
  V  V13  1  0.090656  0.464126  0.153640  1
  V  V14  1  0.909344  0.964126  0.346361  1
  V  V15  1  0.654648  0.511572  0.387071  1
  V  V16  1  0.154649  0.988426  0.612929  1
  V  V17  1  0.409344  0.535875  0.653640  1
  V  V18  1  0.590656  0.035875  0.846360  1
  V  V19  1  0.845351  0.488426  0.887071  1
  Bi  Bi20  1  0.945016  0.581381  0.128141  1
  Bi  Bi21  1  0.054984  0.081381  0.371858  1
  Bi  Bi22  1  0.554984  0.418619  0.628141  1
  Bi  Bi23  1  0.445016  0.918619  0.871858  1
  S  S24  1  0.048180  0.226157  0.068638  1
  S  S25  1  0.050539  0.721830  0.085725  1
  S  S26  1  0.171226  0.472777  0.078881  1
  S  S27  1  0.835129  0.469668  0.118416  1
  S  S28  1  0.914850  0.938122  0.109669  1
  S  S29  1  0.434310  0.991194  0.151674  1
  S  S30  1  0.305009  0.769832  0.196744  1
  S  S31  1  0.312491  0.254200  0.214602  1
  S  S32  1  0.687510  0.754200  0.285397  1
  S  S33  1  0.694991  0.269832  0.303256  1
  S  S34  1  0.565691  0.491193  0.348326  1
  S  S35  1  0.085150  0.438122  0.390331  1
  S  S36  1  0.164871  0.969668  0.381584  1
  S  S37  1  0.828774  0.972777  0.421119  1
  S  S38  1  0.949461  0.221830  0.414276  1
  S  S39  1  0.951819  0.726157  0.431361  1
  S  S40  1  0.451820  0.773843  0.568638  1
  S  S41  1  0.449461  0.278170  0.585725  1
  S  S42  1  0.328774  0.527223  0.578881  1
  S  S43  1  0.664871  0.530331  0.618416  1
  S  S44  1  0.585150  0.061879  0.609669  1
  S  S45  1  0.065691  0.008807  0.651674  1
  S  S46  1  0.194991  0.230168  0.696744  1
  S  S47  1  0.187510  0.745800  0.714602  1
  S  S48  1  0.812490  0.245800  0.785398  1
  S  S49  1  0.805010  0.730168  0.803256  1
  S  S50  1  0.934309  0.508807  0.848326  1
  S  S51  1  0.414850  0.561879  0.890331  1
  S  S52  1  0.335129  0.030330  0.881583  1
  S  S53  1  0.671226  0.027223  0.921119  1
  S  S54  1  0.550539  0.778170  0.914275  1
  S  S55  1  0.548181  0.273843  0.931362  1
