# generated using pymatgen
data_CsBaAsS3
_symmetry_space_group_name_H-M   'P 1'
_cell_length_a   9.11233000
_cell_length_b   9.23502638
_cell_length_c   9.82755423
_cell_angle_alpha   73.71268933
_cell_angle_beta   90.00000000
_cell_angle_gamma   90.00000000
_symmetry_Int_Tables_number   1
_chemical_formula_structural   CsBaAsS3
_chemical_formula_sum   'Cs4 Ba4 As4 S12'
_cell_volume   793.82410635
_cell_formula_units_Z   4
loop_
 _symmetry_equiv_pos_site_id
 _symmetry_equiv_pos_as_xyz
  1  'x, y, z'
loop_
 _atom_site_type_symbol
 _atom_site_label
 _atom_site_symmetry_multiplicity
 _atom_site_fract_x
 _atom_site_fract_y
 _atom_site_fract_z
 _atom_site_occupancy
  Cs  Cs0  1  0.579259  0.223040  0.404329  1
  Cs  Cs1  1  0.079259  0.276960  0.595671  1
  Cs  Cs2  1  0.420741  0.776960  0.595671  1
  Cs  Cs3  1  0.920741  0.723040  0.404329  1
  Ba  Ba4  1  0.217542  0.470469  0.071636  1
  Ba  Ba5  1  0.717542  0.029531  0.928364  1
  Ba  Ba6  1  0.782458  0.529531  0.928364  1
  Ba  Ba7  1  0.282458  0.970469  0.071636  1
  As  As8  1  0.961666  0.158938  0.230627  1
  As  As9  1  0.461666  0.341062  0.769373  1
  As  As10  1  0.038334  0.841062  0.769373  1
  As  As11  1  0.538334  0.658938  0.230627  1
  S  S12  1  0.691674  0.385572  0.680790  1
  S  S13  1  0.191674  0.114428  0.319210  1
  S  S14  1  0.308326  0.614428  0.319210  1
  S  S15  1  0.808326  0.885572  0.680790  1
  S  S16  1  0.504837  0.280408  0.009913  1
  S  S17  1  0.004837  0.219592  0.990087  1
  S  S18  1  0.495163  0.719592  0.990087  1
  S  S19  1  0.995163  0.780408  0.009913  1
  S  S20  1  0.910021  0.391742  0.251187  1
  S  S21  1  0.410021  0.108258  0.748813  1
  S  S22  1  0.089979  0.608258  0.748813  1
  S  S23  1  0.589979  0.891742  0.251187  1
