# generated using pymatgen
data_PrY4(CoO6)2
_symmetry_space_group_name_H-M   'P 1'
_cell_length_a   6.82897675
_cell_length_b   6.82897547
_cell_length_c   7.29075771
_cell_angle_alpha   74.60046711
_cell_angle_beta   74.60047178
_cell_angle_gamma   50.10703174
_symmetry_Int_Tables_number   1
_chemical_formula_structural   PrY4(CoO6)2
_chemical_formula_sum   'Pr1 Y4 Co2 O12'
_cell_volume   249.40689106
_cell_formula_units_Z   1
loop_
 _symmetry_equiv_pos_site_id
 _symmetry_equiv_pos_as_xyz
  1  'x, y, z'
loop_
 _atom_site_type_symbol
 _atom_site_label
 _atom_site_symmetry_multiplicity
 _atom_site_fract_x
 _atom_site_fract_y
 _atom_site_fract_z
 _atom_site_occupancy
  Pr  Pr0  1  0.000000  0.000000  0.500000  1
  Y  Y1  1  0.307065  0.307065  0.355142  1
  Y  Y2  1  0.692935  0.692935  0.644858  1
  Y  Y3  1  0.693843  0.693843  0.162408  1
  Y  Y4  1  0.306157  0.306157  0.837592  1
  Co  Co5  1  0.755256  0.244744  0.000000  1
  Co  Co6  1  0.244744  0.755256  0.000000  1
  O  O7  1  0.095807  0.587154  0.581441  1
  O  O8  1  0.998961  0.998961  0.165967  1
  O  O9  1  0.412846  0.904193  0.418559  1
  O  O10  1  0.500140  0.500140  0.173893  1
  O  O11  1  0.100724  0.584660  0.076453  1
  O  O12  1  0.904193  0.412846  0.418559  1
  O  O13  1  0.001039  0.001039  0.834033  1
  O  O14  1  0.587154  0.095806  0.581441  1
  O  O15  1  0.499860  0.499860  0.826107  1
  O  O16  1  0.584660  0.100724  0.076453  1
  O  O17  1  0.415340  0.899276  0.923547  1
  O  O18  1  0.899276  0.415340  0.923547  1
