# generated using pymatgen
data_RbGeBIr2
_symmetry_space_group_name_H-M   'P 1'
_cell_length_a   7.30436408
_cell_length_b   7.30436337
_cell_length_c   7.30436320
_cell_angle_alpha   147.94804004
_cell_angle_beta   147.94803017
_cell_angle_gamma   45.96208053
_symmetry_Int_Tables_number   1
_chemical_formula_structural   RbGeBIr2
_chemical_formula_sum   'Rb1 Ge1 B1 Ir2'
_cell_volume   109.38123266
_cell_formula_units_Z   1
loop_
 _symmetry_equiv_pos_site_id
 _symmetry_equiv_pos_as_xyz
  1  'x, y, z'
loop_
 _atom_site_type_symbol
 _atom_site_label
 _atom_site_symmetry_multiplicity
 _atom_site_fract_x
 _atom_site_fract_y
 _atom_site_fract_z
 _atom_site_occupancy
  Rb  Rb0  1  0.995724  0.995724  0.000000  1
  Ge  Ge1  1  0.659715  0.659715  0.000000  1
  B  B2  1  0.310107  0.310107  0.000000  1
  Ir  Ir3  1  0.267227  0.767227  0.500000  1
  Ir  Ir4  1  0.767227  0.267227  0.500000  1
