# generated using pymatgen
data_Gd2NiGeSe
_symmetry_space_group_name_H-M   'P 1'
_cell_length_a   4.10617600
_cell_length_b   4.10617674
_cell_length_c   14.97604400
_cell_angle_alpha   90.00000000
_cell_angle_beta   90.00000000
_cell_angle_gamma   120.00001019
_symmetry_Int_Tables_number   1
_chemical_formula_structural   Gd2NiGeSe
_chemical_formula_sum   'Gd4 Ni2 Ge2 Se2'
_cell_volume   218.67689202
_cell_formula_units_Z   2
loop_
 _symmetry_equiv_pos_site_id
 _symmetry_equiv_pos_as_xyz
  1  'x, y, z'
loop_
 _atom_site_type_symbol
 _atom_site_label
 _atom_site_symmetry_multiplicity
 _atom_site_fract_x
 _atom_site_fract_y
 _atom_site_fract_z
 _atom_site_occupancy
  Gd  Gd0  1  0.333333  0.666667  0.375669  1
  Gd  Gd1  1  0.666667  0.333333  0.624331  1
  Gd  Gd2  1  0.666667  0.333333  0.875669  1
  Gd  Gd3  1  0.333333  0.666667  0.124331  1
  Ni  Ni4  1  0.000000  0.000000  0.250000  1
  Ni  Ni5  1  0.000000  0.000000  0.750000  1
  Ge  Ge6  1  0.333333  0.666667  0.750000  1
  Ge  Ge7  1  0.666667  0.333333  0.250000  1
  Se  Se8  1  0.000000  0.000000  0.500000  1
  Se  Se9  1  0.000000  0.000000  0.000000  1
