# generated using pymatgen
data_Tm7Lu3(In2Sb)2
_symmetry_space_group_name_H-M   'P 1'
_cell_length_a   6.46904507
_cell_length_b   8.84545435
_cell_length_c   8.81249037
_cell_angle_alpha   119.79259381
_cell_angle_beta   89.99331504
_cell_angle_gamma   90.01644555
_symmetry_Int_Tables_number   1
_chemical_formula_structural   Tm7Lu3(In2Sb)2
_chemical_formula_sum   'Tm7 Lu3 In4 Sb2'
_cell_volume   437.61627167
_cell_formula_units_Z   1
loop_
 _symmetry_equiv_pos_site_id
 _symmetry_equiv_pos_as_xyz
  1  'x, y, z'
loop_
 _atom_site_type_symbol
 _atom_site_label
 _atom_site_symmetry_multiplicity
 _atom_site_fract_x
 _atom_site_fract_y
 _atom_site_fract_z
 _atom_site_occupancy
  Tm  Tm0  1  0.495484  0.333888  0.668492  1
  Tm  Tm1  1  0.750347  0.232576  0.995054  1
  Tm  Tm2  1  0.750289  0.766810  0.760500  1
  Tm  Tm3  1  0.750254  0.000280  0.235464  1
  Tm  Tm4  1  0.249881  0.764556  0.001015  1
  Tm  Tm5  1  0.249832  0.234597  0.235690  1
  Tm  Tm6  1  0.249625  0.999636  0.764761  1
  Lu  Lu7  1  0.495648  0.666705  0.335321  1
  Lu  Lu8  1  0.004227  0.666648  0.335294  1
  Lu  Lu9  1  0.004961  0.333644  0.668378  1
  In  In10  1  0.750517  0.999564  0.594658  1
  In  In11  1  0.248942  0.397839  0.002857  1
  In  In12  1  0.249619  0.602006  0.603644  1
  In  In13  1  0.248895  0.999833  0.400897  1
  Sb  Sb14  1  0.750712  0.605835  0.001800  1
  Sb  Sb15  1  0.750768  0.395585  0.396175  1
