# generated using pymatgen
data_La3P2Br
_symmetry_space_group_name_H-M   'P 1'
_cell_length_a   7.48466564
_cell_length_b   7.48466616
_cell_length_c   7.48466610
_cell_angle_alpha   146.89999174
_cell_angle_beta   132.32324120
_cell_angle_gamma   59.26746938
_symmetry_Int_Tables_number   1
_chemical_formula_structural   La3P2Br
_chemical_formula_sum   'La3 P2 Br1'
_cell_volume   167.82998406
_cell_formula_units_Z   1
loop_
 _symmetry_equiv_pos_site_id
 _symmetry_equiv_pos_as_xyz
  1  'x, y, z'
loop_
 _atom_site_type_symbol
 _atom_site_label
 _atom_site_symmetry_multiplicity
 _atom_site_fract_x
 _atom_site_fract_y
 _atom_site_fract_z
 _atom_site_occupancy
  La  La0  1  0.500000  0.000000  0.500000  1
  La  La1  1  0.184053  0.684053  0.500000  1
  La  La2  1  0.815947  0.315947  0.500000  1
  P  P3  1  0.661916  0.661916  0.000000  1
  P  P4  1  0.338084  0.338084  0.000000  1
  Br  Br5  1  0.000000  0.000000  0.000000  1
