# generated using pymatgen
data_Nd6ZrFe(Co4P3)4
_symmetry_space_group_name_H-M   'P 1'
_cell_length_a   3.76876600
_cell_length_b   10.72426900
_cell_length_c   12.50820900
_cell_angle_alpha   90.00000000
_cell_angle_beta   90.00000000
_cell_angle_gamma   90.00000000
_symmetry_Int_Tables_number   1
_chemical_formula_structural   Nd6ZrFe(Co4P3)4
_chemical_formula_sum   'Nd6 Zr1 Fe1 Co16 P12'
_cell_volume   505.54754007
_cell_formula_units_Z   1
loop_
 _symmetry_equiv_pos_site_id
 _symmetry_equiv_pos_as_xyz
  1  'x, y, z'
loop_
 _atom_site_type_symbol
 _atom_site_label
 _atom_site_symmetry_multiplicity
 _atom_site_fract_x
 _atom_site_fract_y
 _atom_site_fract_z
 _atom_site_occupancy
  Nd  Nd0  1  0.000000  0.500000  0.529147  1
  Nd  Nd1  1  0.500000  0.000000  0.478760  1
  Nd  Nd2  1  0.500000  0.820717  0.206968  1
  Nd  Nd3  1  0.500000  0.179283  0.206968  1
  Nd  Nd4  1  0.000000  0.682759  0.795330  1
  Nd  Nd5  1  0.000000  0.317241  0.795330  1
  Zr  Zr6  1  0.500000  0.500000  0.152797  1
  Fe  Fe7  1  0.000000  0.000000  0.841726  1
  Co  Co8  1  0.500000  0.500000  0.704678  1
  Co  Co9  1  0.000000  0.000000  0.294857  1
  Co  Co10  1  0.000000  0.500000  0.984264  1
  Co  Co11  1  0.500000  0.000000  0.010223  1
  Co  Co12  1  0.500000  0.327121  0.989269  1
  Co  Co13  1  0.500000  0.672879  0.989269  1
  Co  Co14  1  0.000000  0.162127  0.000743  1
  Co  Co15  1  0.000000  0.837873  0.000743  1
  Co  Co16  1  0.500000  0.295274  0.433913  1
  Co  Co17  1  0.500000  0.704726  0.433913  1
  Co  Co18  1  0.000000  0.202578  0.570186  1
  Co  Co19  1  0.000000  0.797422  0.570186  1
  Co  Co20  1  0.500000  0.881788  0.708628  1
  Co  Co21  1  0.500000  0.118212  0.708628  1
  Co  Co22  1  0.000000  0.620064  0.298753  1
  Co  Co23  1  0.000000  0.379936  0.298753  1
  P  P24  1  0.500000  0.500000  0.885169  1
  P  P25  1  0.000000  0.000000  0.112085  1
  P  P26  1  0.500000  0.500000  0.357668  1
  P  P27  1  0.000000  0.000000  0.660150  1
  P  P28  1  0.500000  0.304016  0.615977  1
  P  P29  1  0.500000  0.695984  0.615977  1
  P  P30  1  0.000000  0.193204  0.388245  1
  P  P31  1  0.000000  0.806796  0.388245  1
  P  P32  1  0.500000  0.852680  0.889882  1
  P  P33  1  0.500000  0.147320  0.889882  1
  P  P34  1  0.000000  0.663102  0.096344  1
  P  P35  1  0.000000  0.336898  0.096344  1
