# generated using pymatgen
data_Rb2Na(CO3)3
_symmetry_space_group_name_H-M   'P 1'
_cell_length_a   5.48061100
_cell_length_b   9.24204900
_cell_length_c   10.04991000
_cell_angle_alpha   90.00000000
_cell_angle_beta   90.00000000
_cell_angle_gamma   90.00000000
_symmetry_Int_Tables_number   1
_chemical_formula_structural   Rb2Na(CO3)3
_chemical_formula_sum   'Rb4 Na2 C6 O18'
_cell_volume   509.04879920
_cell_formula_units_Z   2
loop_
 _symmetry_equiv_pos_site_id
 _symmetry_equiv_pos_as_xyz
  1  'x, y, z'
loop_
 _atom_site_type_symbol
 _atom_site_label
 _atom_site_symmetry_multiplicity
 _atom_site_fract_x
 _atom_site_fract_y
 _atom_site_fract_z
 _atom_site_occupancy
  Rb  Rb0  1  0.500000  0.911093  0.839996  1
  Rb  Rb1  1  0.500000  0.088907  0.339996  1
  Rb  Rb2  1  0.500000  0.620214  0.167761  1
  Rb  Rb3  1  0.500000  0.379786  0.667761  1
  Na  Na4  1  0.000000  0.299330  0.114554  1
  Na  Na5  1  0.000000  0.700670  0.614554  1
  C  C6  1  0.000000  0.947560  0.126596  1
  C  C7  1  0.000000  0.052440  0.626596  1
  C  C8  1  0.000000  0.585479  0.915442  1
  C  C9  1  0.000000  0.414521  0.415442  1
  C  C10  1  0.500000  0.748468  0.483607  1
  C  C11  1  0.500000  0.251532  0.983607  1
  O  O12  1  0.000000  0.063816  0.196444  1
  O  O13  1  0.000000  0.936184  0.696444  1
  O  O14  1  0.797994  0.889486  0.091447  1
  O  O15  1  0.202006  0.889486  0.091447  1
  O  O16  1  0.202006  0.110514  0.591447  1
  O  O17  1  0.797994  0.110514  0.591447  1
  O  O18  1  0.000000  0.536457  0.034463  1
  O  O19  1  0.000000  0.463543  0.534463  1
  O  O20  1  0.200534  0.610863  0.853801  1
  O  O21  1  0.799466  0.610863  0.853801  1
  O  O22  1  0.799466  0.389137  0.353802  1
  O  O23  1  0.200534  0.389137  0.353802  1
  O  O24  1  0.500000  0.701696  0.603841  1
  O  O25  1  0.500000  0.298304  0.103841  1
  O  O26  1  0.702256  0.771865  0.423491  1
  O  O27  1  0.297744  0.771865  0.423491  1
  O  O28  1  0.297744  0.228135  0.923491  1
  O  O29  1  0.702256  0.228135  0.923491  1
