# generated using pymatgen
data_Dy4Ga4RuPt3
_symmetry_space_group_name_H-M   'P 1'
_cell_length_a   4.43629800
_cell_length_b   6.87943480
_cell_length_c   7.70416843
_cell_angle_alpha   89.81406815
_cell_angle_beta   90.00000000
_cell_angle_gamma   90.00000000
_symmetry_Int_Tables_number   1
_chemical_formula_structural   Dy4Ga4RuPt3
_chemical_formula_sum   'Dy4 Ga4 Ru1 Pt3'
_cell_volume   235.12399518
_cell_formula_units_Z   1
loop_
 _symmetry_equiv_pos_site_id
 _symmetry_equiv_pos_as_xyz
  1  'x, y, z'
loop_
 _atom_site_type_symbol
 _atom_site_label
 _atom_site_symmetry_multiplicity
 _atom_site_fract_x
 _atom_site_fract_y
 _atom_site_fract_z
 _atom_site_occupancy
  Dy  Dy0  1  0.250000  0.980488  0.306539  1
  Dy  Dy1  1  0.250000  0.477873  0.190153  1
  Dy  Dy2  1  0.750000  0.018098  0.698357  1
  Dy  Dy3  1  0.750000  0.514982  0.804270  1
  Ga  Ga4  1  0.250000  0.328728  0.577052  1
  Ga  Ga5  1  0.250000  0.839386  0.925567  1
  Ga  Ga6  1  0.750000  0.667545  0.427036  1
  Ga  Ga7  1  0.750000  0.172217  0.070735  1
  Ru  Ru8  1  0.250000  0.227368  0.899690  1
  Pt  Pt9  1  0.250000  0.721778  0.601485  1
  Pt  Pt10  1  0.750000  0.775636  0.100949  1
  Pt  Pt11  1  0.750000  0.275901  0.398168  1
