# generated using pymatgen
data_Th3In3Cu2Ir
_symmetry_space_group_name_H-M   'P 1'
_cell_length_a   7.56542900
_cell_length_b   7.56542851
_cell_length_c   4.15624600
_cell_angle_alpha   90.00000000
_cell_angle_beta   90.00000000
_cell_angle_gamma   119.99998904
_symmetry_Int_Tables_number   1
_chemical_formula_structural   Th3In3Cu2Ir
_chemical_formula_sum   'Th3 In3 Cu2 Ir1'
_cell_volume   206.01508210
_cell_formula_units_Z   1
loop_
 _symmetry_equiv_pos_site_id
 _symmetry_equiv_pos_as_xyz
  1  'x, y, z'
loop_
 _atom_site_type_symbol
 _atom_site_label
 _atom_site_symmetry_multiplicity
 _atom_site_fract_x
 _atom_site_fract_y
 _atom_site_fract_z
 _atom_site_occupancy
  Th  Th0  1  0.578138  0.588595  0.000000  1
  Th  Th1  1  0.411405  0.989542  0.000000  1
  Th  Th2  1  0.010458  0.421862  0.000000  1
  In  In3  1  0.991783  0.752178  0.500000  1
  In  In4  1  0.247822  0.239604  0.500000  1
  In  In5  1  0.760396  0.008217  0.500000  1
  Cu  Cu6  1  0.000000  0.000000  0.000000  1
  Cu  Cu7  1  0.666667  0.333333  0.500000  1
  Ir  Ir8  1  0.333333  0.666667  0.500000  1
