# generated using pymatgen
data_Ti4MnSi3C
_symmetry_space_group_name_H-M   'P 1'
_cell_length_a   7.31873800
_cell_length_b   7.31873797
_cell_length_c   5.04552000
_cell_angle_alpha   90.00000000
_cell_angle_beta   90.00000000
_cell_angle_gamma   120.00000012
_symmetry_Int_Tables_number   1
_chemical_formula_structural   Ti4MnSi3C
_chemical_formula_sum   'Ti8 Mn2 Si6 C2'
_cell_volume   234.05017071
_cell_formula_units_Z   2
loop_
 _symmetry_equiv_pos_site_id
 _symmetry_equiv_pos_as_xyz
  1  'x, y, z'
loop_
 _atom_site_type_symbol
 _atom_site_label
 _atom_site_symmetry_multiplicity
 _atom_site_fract_x
 _atom_site_fract_y
 _atom_site_fract_z
 _atom_site_occupancy
  Ti  Ti0  1  0.666667  0.333333  0.500000  1
  Ti  Ti1  1  0.333333  0.666667  0.500000  1
  Ti  Ti2  1  0.233543  0.000000  0.253563  1
  Ti  Ti3  1  0.766457  0.000000  0.746437  1
  Ti  Ti4  1  0.000000  0.233543  0.253563  1
  Ti  Ti5  1  0.000000  0.766457  0.746437  1
  Ti  Ti6  1  0.766457  0.766457  0.253563  1
  Ti  Ti7  1  0.233543  0.233543  0.746437  1
  Mn  Mn8  1  0.333333  0.666667  0.000000  1
  Mn  Mn9  1  0.666667  0.333333  0.000000  1
  Si  Si10  1  0.590591  0.000000  0.226574  1
  Si  Si11  1  0.409409  0.000000  0.773426  1
  Si  Si12  1  0.000000  0.590591  0.226574  1
  Si  Si13  1  0.000000  0.409409  0.773426  1
  Si  Si14  1  0.409409  0.409409  0.226574  1
  Si  Si15  1  0.590591  0.590591  0.773426  1
  C  C16  1  0.000000  0.000000  0.000000  1
  C  C17  1  0.000000  0.000000  0.500000  1
