# generated using pymatgen
data_Er8Sc12GaSn15
_symmetry_space_group_name_H-M   'P 1'
_cell_length_a   7.61827793
_cell_length_b   7.92882148
_cell_length_c   14.77716400
_cell_angle_alpha   90.00000000
_cell_angle_beta   90.00000000
_cell_angle_gamma   89.77333479
_symmetry_Int_Tables_number   1
_chemical_formula_structural   Er8Sc12GaSn15
_chemical_formula_sum   'Er8 Sc12 Ga1 Sn15'
_cell_volume   892.59232295
_cell_formula_units_Z   1
loop_
 _symmetry_equiv_pos_site_id
 _symmetry_equiv_pos_as_xyz
  1  'x, y, z'
loop_
 _atom_site_type_symbol
 _atom_site_label
 _atom_site_symmetry_multiplicity
 _atom_site_fract_x
 _atom_site_fract_y
 _atom_site_fract_z
 _atom_site_occupancy
  Er  Er0  1  0.996227  0.177878  0.093855  1
  Er  Er1  1  0.003305  0.824123  0.905616  1
  Er  Er2  1  0.503330  0.677784  0.905478  1
  Er  Er3  1  0.003305  0.824123  0.594384  1
  Er  Er4  1  0.496246  0.322815  0.093877  1
  Er  Er5  1  0.996227  0.177878  0.406145  1
  Er  Er6  1  0.496246  0.322815  0.406123  1
  Er  Er7  1  0.503330  0.677784  0.594522  1
  Sc  Sc8  1  0.163928  0.494576  0.750000  1
  Sc  Sc9  1  0.836402  0.502549  0.250000  1
  Sc  Sc10  1  0.336596  0.997053  0.250000  1
  Sc  Sc11  1  0.671944  0.006235  0.750000  1
  Sc  Sc12  1  0.328121  0.161177  0.628697  1
  Sc  Sc13  1  0.665316  0.838061  0.372814  1
  Sc  Sc14  1  0.165282  0.661481  0.373010  1
  Sc  Sc15  1  0.665316  0.838061  0.127186  1
  Sc  Sc16  1  0.840670  0.332990  0.630297  1
  Sc  Sc17  1  0.328121  0.161177  0.871303  1
  Sc  Sc18  1  0.840670  0.332990  0.869703  1
  Sc  Sc19  1  0.165282  0.661481  0.126990  1
  Ga  Ga20  1  0.025805  0.123551  0.750000  1
  Sn  Sn21  1  0.974540  0.876500  0.250000  1
  Sn  Sn22  1  0.474073  0.623660  0.250000  1
  Sn  Sn23  1  0.526833  0.376482  0.750000  1
  Sn  Sn24  1  0.299309  0.855612  0.750000  1
  Sn  Sn25  1  0.694736  0.150765  0.250000  1
  Sn  Sn26  1  0.194728  0.349541  0.250000  1
  Sn  Sn27  1  0.805366  0.650107  0.750000  1
  Sn  Sn28  1  0.180306  0.458773  0.542313  1
  Sn  Sn29  1  0.819636  0.541172  0.458388  1
  Sn  Sn30  1  0.320283  0.958501  0.457953  1
  Sn  Sn31  1  0.819636  0.541172  0.041612  1
  Sn  Sn32  1  0.679148  0.041928  0.542376  1
  Sn  Sn33  1  0.180306  0.458773  0.957687  1
  Sn  Sn34  1  0.679148  0.041928  0.957624  1
  Sn  Sn35  1  0.320283  0.958501  0.042047  1
