# generated using pymatgen
data_Zr2Sc3Bi2As
_symmetry_space_group_name_H-M   'P 1'
_cell_length_a   7.47627400
_cell_length_b   8.70834300
_cell_length_c   11.20114500
_cell_angle_alpha   90.00000000
_cell_angle_beta   90.00000000
_cell_angle_gamma   90.00000000
_symmetry_Int_Tables_number   1
_chemical_formula_structural   Zr2Sc3Bi2As
_chemical_formula_sum   'Zr8 Sc12 Bi8 As4'
_cell_volume   729.26127989
_cell_formula_units_Z   4
loop_
 _symmetry_equiv_pos_site_id
 _symmetry_equiv_pos_as_xyz
  1  'x, y, z'
loop_
 _atom_site_type_symbol
 _atom_site_label
 _atom_site_symmetry_multiplicity
 _atom_site_fract_x
 _atom_site_fract_y
 _atom_site_fract_z
 _atom_site_occupancy
  Zr  Zr0  1  0.822373  0.941303  0.056951  1
  Zr  Zr1  1  0.322373  0.058697  0.443049  1
  Zr  Zr2  1  0.177627  0.441303  0.943049  1
  Zr  Zr3  1  0.677627  0.558697  0.556951  1
  Zr  Zr4  1  0.177627  0.058697  0.943049  1
  Zr  Zr5  1  0.677627  0.941303  0.556951  1
  Zr  Zr6  1  0.822373  0.558697  0.056951  1
  Zr  Zr7  1  0.322373  0.441303  0.443049  1
  Sc  Sc8  1  0.155669  0.750000  0.210452  1
  Sc  Sc9  1  0.655669  0.250000  0.289548  1
  Sc  Sc10  1  0.844331  0.250000  0.789548  1
  Sc  Sc11  1  0.344331  0.750000  0.710452  1
  Sc  Sc12  1  0.471534  0.750000  0.001784  1
  Sc  Sc13  1  0.971534  0.250000  0.498216  1
  Sc  Sc14  1  0.528466  0.250000  0.998216  1
  Sc  Sc15  1  0.028466  0.750000  0.501784  1
  Sc  Sc16  1  0.639217  0.750000  0.294184  1
  Sc  Sc17  1  0.139217  0.250000  0.205816  1
  Sc  Sc18  1  0.360783  0.250000  0.705816  1
  Sc  Sc19  1  0.860783  0.750000  0.794184  1
  Bi  Bi20  1  0.929080  0.509203  0.325345  1
  Bi  Bi21  1  0.429080  0.490797  0.174655  1
  Bi  Bi22  1  0.070920  0.009203  0.674655  1
  Bi  Bi23  1  0.570920  0.990797  0.825345  1
  Bi  Bi24  1  0.070920  0.490797  0.674655  1
  Bi  Bi25  1  0.570920  0.509203  0.825345  1
  Bi  Bi26  1  0.929080  0.990797  0.325345  1
  Bi  Bi27  1  0.429080  0.009203  0.174655  1
  As  As28  1  0.399995  0.750000  0.474036  1
  As  As29  1  0.899995  0.250000  0.025964  1
  As  As30  1  0.600005  0.250000  0.525964  1
  As  As31  1  0.100005  0.750000  0.974036  1
