# generated using pymatgen
data_Tb5Y15(Ir2Ru)4
_symmetry_space_group_name_H-M   'P 1'
_cell_length_a   10.87301303
_cell_length_b   10.87483676
_cell_length_c   6.46593118
_cell_angle_alpha   90.00636362
_cell_angle_beta   89.97390046
_cell_angle_gamma   90.06492656
_symmetry_Int_Tables_number   1
_chemical_formula_structural   Tb5Y15(Ir2Ru)4
_chemical_formula_sum   'Tb5 Y15 Ir8 Ru4'
_cell_volume   764.54562280
_cell_formula_units_Z   1
loop_
 _symmetry_equiv_pos_site_id
 _symmetry_equiv_pos_as_xyz
  1  'x, y, z'
loop_
 _atom_site_type_symbol
 _atom_site_label
 _atom_site_symmetry_multiplicity
 _atom_site_fract_x
 _atom_site_fract_y
 _atom_site_fract_z
 _atom_site_occupancy
  Tb  Tb0  1  0.293761  0.086943  0.378698  1
  Tb  Tb1  1  0.000024  0.999895  0.500040  1
  Tb  Tb2  1  0.999947  0.000063  0.999725  1
  Tb  Tb3  1  0.499931  0.500069  0.000148  1
  Tb  Tb4  1  0.500101  0.500030  0.499845  1
  Y  Y5  1  0.293520  0.912438  0.878468  1
  Y  Y6  1  0.706355  0.087178  0.878374  1
  Y  Y7  1  0.706355  0.912808  0.378813  1
  Y  Y8  1  0.587015  0.793747  0.878762  1
  Y  Y9  1  0.587603  0.206760  0.378482  1
  Y  Y10  1  0.412861  0.793161  0.378529  1
  Y  Y11  1  0.413113  0.206619  0.878496  1
  Y  Y12  1  0.206387  0.413006  0.621523  1
  Y  Y13  1  0.206520  0.587213  0.121801  1
  Y  Y14  1  0.793478  0.412579  0.121643  1
  Y  Y15  1  0.793505  0.587002  0.621589  1
  Y  Y16  1  0.912890  0.706349  0.121354  1
  Y  Y17  1  0.912568  0.293507  0.621577  1
  Y  Y18  1  0.087392  0.706420  0.621803  1
  Y  Y19  1  0.087157  0.293443  0.121214  1
  Ir  Ir20  1  0.848209  0.152071  0.249945  1
  Ir  Ir21  1  0.848350  0.848086  0.749916  1
  Ir  Ir22  1  0.151847  0.151782  0.749554  1
  Ir  Ir23  1  0.151994  0.848229  0.250086  1
  Ir  Ir24  1  0.651940  0.348262  0.749947  1
  Ir  Ir25  1  0.651875  0.651874  0.249986  1
  Ir  Ir26  1  0.348252  0.348000  0.250285  1
  Ir  Ir27  1  0.348179  0.651845  0.750094  1
  Ru  Ru28  1  0.499383  0.000293  0.124562  1
  Ru  Ru29  1  0.499474  0.000266  0.623425  1
  Ru  Ru30  1  0.999970  0.500059  0.875714  1
  Ru  Ru31  1  0.000043  0.500005  0.375598  1
