# generated using pymatgen
data_Nd2Hf3Ni9As7
_symmetry_space_group_name_H-M   'P 1'
_cell_length_a   3.90251000
_cell_length_b   9.78779861
_cell_length_c   9.78779900
_cell_angle_alpha   119.99999702
_cell_angle_beta   90.00000000
_cell_angle_gamma   90.00000000
_symmetry_Int_Tables_number   1
_chemical_formula_structural   Nd2Hf3Ni9As7
_chemical_formula_sum   'Nd2 Hf3 Ni9 As7'
_cell_volume   323.77606198
_cell_formula_units_Z   1
loop_
 _symmetry_equiv_pos_site_id
 _symmetry_equiv_pos_as_xyz
  1  'x, y, z'
loop_
 _atom_site_type_symbol
 _atom_site_label
 _atom_site_symmetry_multiplicity
 _atom_site_fract_x
 _atom_site_fract_y
 _atom_site_fract_z
 _atom_site_occupancy
  Nd  Nd0  1  0.000000  0.666667  0.333333  1
  Nd  Nd1  1  0.500000  0.333333  0.666667  1
  Hf  Hf2  1  0.500000  0.771605  0.885780  1
  Hf  Hf3  1  0.500000  0.114174  0.228395  1
  Hf  Hf4  1  0.500000  0.114220  0.885826  1
  Ni  Ni5  1  0.000000  0.579055  0.929089  1
  Ni  Ni6  1  0.000000  0.350034  0.420945  1
  Ni  Ni7  1  0.000000  0.070911  0.649966  1
  Ni  Ni8  1  0.000000  0.868650  0.151198  1
  Ni  Ni9  1  0.000000  0.282549  0.131350  1
  Ni  Ni10  1  0.000000  0.848802  0.717451  1
  Ni  Ni11  1  0.500000  0.935503  0.367911  1
  Ni  Ni12  1  0.500000  0.432407  0.064497  1
  Ni  Ni13  1  0.500000  0.632089  0.567593  1
  As  As14  1  0.000000  0.000000  0.000000  1
  As  As15  1  0.500000  0.696725  0.110738  1
  As  As16  1  0.500000  0.414013  0.303275  1
  As  As17  1  0.500000  0.889262  0.585987  1
  As  As18  1  0.000000  0.579116  0.677839  1
  As  As19  1  0.000000  0.098724  0.420884  1
  As  As20  1  0.000000  0.322161  0.901276  1
