# generated using pymatgen
data_Sm6Cd22AgAs
_symmetry_space_group_name_H-M   'P 1'
_cell_length_a   10.00098965
_cell_length_b   10.00036588
_cell_length_c   10.00036655
_cell_angle_alpha   59.76410045
_cell_angle_beta   59.99793969
_cell_angle_gamma   59.99793623
_symmetry_Int_Tables_number   1
_chemical_formula_structural   Sm6Cd22AgAs
_chemical_formula_sum   'Sm6 Cd22 Ag1 As1'
_cell_volume   705.93717004
_cell_formula_units_Z   1
loop_
 _symmetry_equiv_pos_site_id
 _symmetry_equiv_pos_as_xyz
  1  'x, y, z'
loop_
 _atom_site_type_symbol
 _atom_site_label
 _atom_site_symmetry_multiplicity
 _atom_site_fract_x
 _atom_site_fract_y
 _atom_site_fract_z
 _atom_site_occupancy
  Sm  Sm0  1  0.793904  0.794005  0.205995  1
  Sm  Sm1  1  0.206096  0.794005  0.205995  1
  Sm  Sm2  1  0.793138  0.206862  0.206862  1
  Sm  Sm3  1  0.206096  0.205995  0.794005  1
  Sm  Sm4  1  0.793904  0.205995  0.794005  1
  Sm  Sm5  1  0.206862  0.793138  0.793138  1
  Cd  Cd6  1  0.834626  0.835170  0.495581  1
  Cd  Cd7  1  0.834626  0.495581  0.835170  1
  Cd  Cd8  1  0.494341  0.837221  0.837221  1
  Cd  Cd9  1  0.831218  0.837221  0.837221  1
  Cd  Cd10  1  0.165374  0.164830  0.504419  1
  Cd  Cd11  1  0.165374  0.504419  0.164830  1
  Cd  Cd12  1  0.505659  0.162779  0.162779  1
  Cd  Cd13  1  0.168782  0.162779  0.162779  1
  Cd  Cd14  1  0.619246  0.628104  0.133406  1
  Cd  Cd15  1  0.619246  0.133406  0.628104  1
  Cd  Cd16  1  0.135153  0.621889  0.621889  1
  Cd  Cd17  1  0.621072  0.621889  0.621889  1
  Cd  Cd18  1  0.380754  0.371896  0.866594  1
  Cd  Cd19  1  0.380754  0.866594  0.371896  1
  Cd  Cd20  1  0.864847  0.378111  0.378111  1
  Cd  Cd21  1  0.378928  0.378111  0.378111  1
  Cd  Cd22  1  0.000000  0.000000  0.500000  1
  Cd  Cd23  1  0.500000  0.000000  0.500000  1
  Cd  Cd24  1  0.000000  0.500000  0.500000  1
  Cd  Cd25  1  0.500000  0.500000  0.000000  1
  Cd  Cd26  1  0.000000  0.500000  0.000000  1
  Cd  Cd27  1  0.500000  0.500000  0.500000  1
  Ag  Ag28  1  0.500000  0.000000  0.000000  1
  As  As29  1  0.000000  0.000000  0.000000  1
