# generated using pymatgen
data_Nd3IrBr3
_symmetry_space_group_name_H-M   'P 1'
_cell_length_a   10.48174410
_cell_length_b   10.48174458
_cell_length_c   10.48174400
_cell_angle_alpha   109.47122145
_cell_angle_beta   109.47122238
_cell_angle_gamma   109.47121523
_symmetry_Int_Tables_number   1
_chemical_formula_structural   Nd3IrBr3
_chemical_formula_sum   'Nd12 Ir4 Br12'
_cell_volume   886.50011843
_cell_formula_units_Z   4
loop_
 _symmetry_equiv_pos_site_id
 _symmetry_equiv_pos_as_xyz
  1  'x, y, z'
loop_
 _atom_site_type_symbol
 _atom_site_label
 _atom_site_symmetry_multiplicity
 _atom_site_fract_x
 _atom_site_fract_y
 _atom_site_fract_z
 _atom_site_occupancy
  Nd  Nd0  1  0.265568  0.750000  0.234432  1
  Nd  Nd1  1  0.484432  0.750000  0.015568  1
  Nd  Nd2  1  0.234432  0.468863  0.484432  1
  Nd  Nd3  1  0.015568  0.031137  0.265568  1
  Nd  Nd4  1  0.234432  0.265568  0.750000  1
  Nd  Nd5  1  0.015568  0.484432  0.750000  1
  Nd  Nd6  1  0.484432  0.234432  0.468863  1
  Nd  Nd7  1  0.265568  0.015568  0.031137  1
  Nd  Nd8  1  0.750000  0.234432  0.265568  1
  Nd  Nd9  1  0.750000  0.015568  0.484432  1
  Nd  Nd10  1  0.468863  0.484432  0.234432  1
  Nd  Nd11  1  0.031137  0.265568  0.015568  1
  Ir  Ir12  1  0.500000  0.000000  0.250000  1
  Ir  Ir13  1  0.250000  0.500000  0.000000  1
  Ir  Ir14  1  0.000000  0.250000  0.500000  1
  Ir  Ir15  1  0.250000  0.250000  0.250000  1
  Br  Br16  1  0.250000  0.995717  0.504283  1
  Br  Br17  1  0.508565  0.504283  0.754283  1
  Br  Br18  1  0.250000  0.754283  0.745717  1
  Br  Br19  1  0.991435  0.745717  0.995717  1
  Br  Br20  1  0.995717  0.504283  0.250000  1
  Br  Br21  1  0.745717  0.995717  0.991435  1
  Br  Br22  1  0.754283  0.745717  0.250000  1
  Br  Br23  1  0.504283  0.754283  0.508565  1
  Br  Br24  1  0.504283  0.250000  0.995717  1
  Br  Br25  1  0.754283  0.508565  0.504283  1
  Br  Br26  1  0.745717  0.250000  0.754283  1
  Br  Br27  1  0.995717  0.991435  0.745717  1
