# generated using pymatgen
data_Ca2Mn4FeC4
_symmetry_space_group_name_H-M   'P 1'
_cell_length_a   7.04487497
_cell_length_b   5.75317083
_cell_length_c   5.40700983
_cell_angle_alpha   78.22822120
_cell_angle_beta   53.07649268
_cell_angle_gamma   48.71188308
_symmetry_Int_Tables_number   1
_chemical_formula_structural   Ca2Mn4FeC4
_chemical_formula_sum   'Ca2 Mn4 Fe1 C4'
_cell_volume   124.70779433
_cell_formula_units_Z   1
loop_
 _symmetry_equiv_pos_site_id
 _symmetry_equiv_pos_as_xyz
  1  'x, y, z'
loop_
 _atom_site_type_symbol
 _atom_site_label
 _atom_site_symmetry_multiplicity
 _atom_site_fract_x
 _atom_site_fract_y
 _atom_site_fract_z
 _atom_site_occupancy
  Ca  Ca0  1  0.845343  0.845087  0.154781  1
  Ca  Ca1  1  0.154787  0.154676  0.845192  1
  Mn  Mn2  1  0.501543  0.501532  0.998339  1
  Mn  Mn3  1  0.249936  0.249971  0.250058  1
  Mn  Mn4  1  0.998594  0.998484  0.501517  1
  Mn  Mn5  1  0.500051  0.499964  0.499933  1
  Fe  Fe6  1  0.749917  0.750065  0.750110  1
  C  C7  1  0.471014  0.798292  0.208153  1
  C  C8  1  0.208211  0.522573  0.470998  1
  C  C9  1  0.798244  0.470955  0.522618  1
  C  C10  1  0.522347  0.208408  0.798306  1
