# generated using pymatgen
data_Lu10Tl6Se
_symmetry_space_group_name_H-M   'P 1'
_cell_length_a   8.90794200
_cell_length_b   8.90794417
_cell_length_c   6.56073700
_cell_angle_alpha   90.00000000
_cell_angle_beta   90.00000000
_cell_angle_gamma   119.99999936
_symmetry_Int_Tables_number   1
_chemical_formula_structural   Lu10Tl6Se
_chemical_formula_sum   'Lu10 Tl6 Se1'
_cell_volume   450.85628728
_cell_formula_units_Z   1
loop_
 _symmetry_equiv_pos_site_id
 _symmetry_equiv_pos_as_xyz
  1  'x, y, z'
loop_
 _atom_site_type_symbol
 _atom_site_label
 _atom_site_symmetry_multiplicity
 _atom_site_fract_x
 _atom_site_fract_y
 _atom_site_fract_z
 _atom_site_occupancy
  Lu  Lu0  1  0.666667  0.333333  0.500000  1
  Lu  Lu1  1  0.333333  0.666667  0.500000  1
  Lu  Lu2  1  0.333333  0.666667  0.000000  1
  Lu  Lu3  1  0.666667  0.333333  0.000000  1
  Lu  Lu4  1  0.751161  0.751161  0.238636  1
  Lu  Lu5  1  0.248839  0.000000  0.238636  1
  Lu  Lu6  1  0.000000  0.248839  0.238636  1
  Lu  Lu7  1  0.248839  0.248839  0.761364  1
  Lu  Lu8  1  0.751161  0.000000  0.761364  1
  Lu  Lu9  1  0.000000  0.751161  0.761364  1
  Tl  Tl10  1  0.395804  0.395804  0.248032  1
  Tl  Tl11  1  0.604196  0.000000  0.248032  1
  Tl  Tl12  1  0.000000  0.604196  0.248032  1
  Tl  Tl13  1  0.604196  0.604196  0.751968  1
  Tl  Tl14  1  0.395804  0.000000  0.751968  1
  Tl  Tl15  1  0.000000  0.395804  0.751968  1
  Se  Se16  1  0.000000  0.000000  0.500000  1
