# generated using pymatgen
data_Hf2Nb4Co14Si7Ni2
_symmetry_space_group_name_H-M   'P 1'
_cell_length_a   7.97000474
_cell_length_b   7.95554282
_cell_length_c   7.94503345
_cell_angle_alpha   60.03010962
_cell_angle_beta   60.06526685
_cell_angle_gamma   59.96330621
_symmetry_Int_Tables_number   1
_chemical_formula_structural   Hf2Nb4Co14Si7Ni2
_chemical_formula_sum   'Hf2 Nb4 Co14 Si7 Ni2'
_cell_volume   356.36985518
_cell_formula_units_Z   1
loop_
 _symmetry_equiv_pos_site_id
 _symmetry_equiv_pos_as_xyz
  1  'x, y, z'
loop_
 _atom_site_type_symbol
 _atom_site_label
 _atom_site_symmetry_multiplicity
 _atom_site_fract_x
 _atom_site_fract_y
 _atom_site_fract_z
 _atom_site_occupancy
  Hf  Hf0  1  0.202717  0.792400  0.209208  1
  Hf  Hf1  1  0.201810  0.794969  0.794489  1
  Nb  Nb2  1  0.791673  0.203352  0.203212  1
  Nb  Nb3  1  0.793740  0.796075  0.204214  1
  Nb  Nb4  1  0.200436  0.213773  0.787862  1
  Nb  Nb5  1  0.796116  0.202246  0.798015  1
  Co  Co6  1  0.835491  0.499051  0.834168  1
  Co  Co7  1  0.834045  0.834221  0.500631  1
  Co  Co8  1  0.168744  0.498416  0.167005  1
  Co  Co9  1  0.168697  0.167088  0.499873  1
  Co  Co10  1  0.500022  0.166600  0.167281  1
  Co  Co11  1  0.832911  0.832170  0.832912  1
  Co  Co12  1  0.383518  0.378178  0.381731  1
  Co  Co13  1  0.140611  0.616989  0.620960  1
  Co  Co14  1  0.617464  0.146206  0.618114  1
  Co  Co15  1  0.621513  0.616749  0.143812  1
  Co  Co16  1  0.383457  0.859207  0.379081  1
  Co  Co17  1  0.382864  0.378058  0.856334  1
  Co  Co18  1  0.854327  0.380835  0.382202  1
  Co  Co19  1  0.621889  0.617032  0.618495  1
  Si  Si20  1  0.496524  0.503611  0.500326  1
  Si  Si21  1  0.997994  0.498487  0.004015  1
  Si  Si22  1  0.501840  0.001753  0.997578  1
  Si  Si23  1  0.994985  0.500421  0.499721  1
  Si  Si24  1  0.501950  0.999312  0.500138  1
  Si  Si25  1  0.995690  0.005241  0.500255  1
  Si  Si26  1  0.502538  0.498233  0.998172  1
  Ni  Ni27  1  0.170201  0.167556  0.167876  1
  Ni  Ni28  1  0.506233  0.831768  0.832320  1
