# generated using pymatgen
data_Ho8TaTi10Si16Au
_symmetry_space_group_name_H-M   'P 1'
_cell_length_a   7.05943860
_cell_length_b   7.06005214
_cell_length_c   12.88367568
_cell_angle_alpha   90.19015877
_cell_angle_beta   89.87104291
_cell_angle_gamma   89.54656659
_symmetry_Int_Tables_number   1
_chemical_formula_structural   Ho8TaTi10Si16Au
_chemical_formula_sum   'Ho8 Ta1 Ti10 Si16 Au1'
_cell_volume   642.09714641
_cell_formula_units_Z   1
loop_
 _symmetry_equiv_pos_site_id
 _symmetry_equiv_pos_as_xyz
  1  'x, y, z'
loop_
 _atom_site_type_symbol
 _atom_site_label
 _atom_site_symmetry_multiplicity
 _atom_site_fract_x
 _atom_site_fract_y
 _atom_site_fract_z
 _atom_site_occupancy
  Ho  Ho0  1  0.341254  0.001787  0.466824  1
  Ho  Ho1  1  0.497211  0.841339  0.716980  1
  Ho  Ho2  1  0.501637  0.157028  0.214535  1
  Ho  Ho3  1  0.841399  0.497742  0.283045  1
  Ho  Ho4  1  0.157155  0.501633  0.785599  1
  Ho  Ho5  1  0.656381  0.001379  0.968575  1
  Ho  Ho6  1  0.001874  0.340858  0.533152  1
  Ho  Ho7  1  0.001149  0.656400  0.031298  1
  Ta  Ta8  1  0.173994  0.825993  0.249534  1
  Ti  Ti9  1  0.825670  0.174840  0.750538  1
  Ti  Ti10  1  0.672493  0.672573  0.499910  1
  Ti  Ti11  1  0.147751  0.007354  0.877184  1
  Ti  Ti12  1  0.494861  0.651867  0.123422  1
  Ti  Ti13  1  0.506975  0.350833  0.625575  1
  Ti  Ti14  1  0.651315  0.495202  0.876943  1
  Ti  Ti15  1  0.350090  0.507247  0.374248  1
  Ti  Ti16  1  0.850186  0.991097  0.373854  1
  Ti  Ti17  1  0.007691  0.147063  0.123352  1
  Ti  Ti18  1  0.991807  0.849821  0.625735  1
  Si  Si19  1  0.201946  0.132498  0.684550  1
  Si  Si20  1  0.373762  0.719833  0.928356  1
  Si  Si21  1  0.631536  0.294042  0.432686  1
  Si  Si22  1  0.719958  0.373593  0.071187  1
  Si  Si23  1  0.294236  0.630939  0.567536  1
  Si  Si24  1  0.798475  0.866767  0.182724  1
  Si  Si25  1  0.132497  0.201817  0.315897  1
  Si  Si26  1  0.866743  0.798493  0.817266  1
  Si  Si27  1  0.287337  0.939054  0.064441  1
  Si  Si28  1  0.547340  0.791184  0.314648  1
  Si  Si29  1  0.454152  0.207865  0.809969  1
  Si  Si30  1  0.791024  0.547272  0.685372  1
  Si  Si31  1  0.207831  0.453465  0.189990  1
  Si  Si32  1  0.708619  0.047936  0.564411  1
  Si  Si33  1  0.937685  0.286010  0.934101  1
  Si  Si34  1  0.047228  0.708056  0.436310  1
  Au  Au35  1  0.328738  0.329118  0.000252  1
