# generated using pymatgen
data_MgSc4Mn(B2Rh5)2
_symmetry_space_group_name_H-M   'P 1'
_cell_length_a   9.44496800
_cell_length_b   9.44496800
_cell_length_c   3.05815800
_cell_angle_alpha   90.00000000
_cell_angle_beta   90.00000000
_cell_angle_gamma   90.00000000
_symmetry_Int_Tables_number   1
_chemical_formula_structural   MgSc4Mn(B2Rh5)2
_chemical_formula_sum   'Mg1 Sc4 Mn1 B4 Rh10'
_cell_volume   272.81038673
_cell_formula_units_Z   1
loop_
 _symmetry_equiv_pos_site_id
 _symmetry_equiv_pos_as_xyz
  1  'x, y, z'
loop_
 _atom_site_type_symbol
 _atom_site_label
 _atom_site_symmetry_multiplicity
 _atom_site_fract_x
 _atom_site_fract_y
 _atom_site_fract_z
 _atom_site_occupancy
  Mg  Mg0  1  0.000000  0.000000  0.000000  1
  Sc  Sc1  1  0.675680  0.175696  0.000000  1
  Sc  Sc2  1  0.175696  0.324319  0.000000  1
  Sc  Sc3  1  0.824304  0.675680  0.000000  1
  Sc  Sc4  1  0.324319  0.824304  0.000000  1
  Mn  Mn5  1  0.500000  0.500000  0.000000  1
  B  B6  1  0.374905  0.124822  0.000000  1
  B  B7  1  0.875178  0.374905  0.000000  1
  B  B8  1  0.124822  0.625096  0.000000  1
  B  B9  1  0.625096  0.875178  0.000000  1
  Rh  Rh10  1  0.500000  0.000000  0.500000  1
  Rh  Rh11  1  0.220946  0.072374  0.500000  1
  Rh  Rh12  1  0.927627  0.220946  0.500000  1
  Rh  Rh13  1  0.430949  0.281961  0.500000  1
  Rh  Rh14  1  0.718040  0.430949  0.500000  1
  Rh  Rh15  1  0.000000  0.500000  0.500000  1
  Rh  Rh16  1  0.281961  0.569050  0.500000  1
  Rh  Rh17  1  0.569050  0.718040  0.500000  1
  Rh  Rh18  1  0.072374  0.779054  0.500000  1
  Rh  Rh19  1  0.779054  0.927627  0.500000  1
