# generated using pymatgen
data_PrGd3HoIr3
_symmetry_space_group_name_H-M   'P 1'
_cell_length_a   11.04362400
_cell_length_b   11.07713300
_cell_length_c   6.39720500
_cell_angle_alpha   90.00000000
_cell_angle_beta   90.00000000
_cell_angle_gamma   90.00000000
_symmetry_Int_Tables_number   1
_chemical_formula_structural   PrGd3HoIr3
_chemical_formula_sum   'Pr4 Gd12 Ho4 Ir12'
_cell_volume   782.58091076
_cell_formula_units_Z   4
loop_
 _symmetry_equiv_pos_site_id
 _symmetry_equiv_pos_as_xyz
  1  'x, y, z'
loop_
 _atom_site_type_symbol
 _atom_site_label
 _atom_site_symmetry_multiplicity
 _atom_site_fract_x
 _atom_site_fract_y
 _atom_site_fract_z
 _atom_site_occupancy
  Pr  Pr0  1  0.909577  0.712366  0.121318  1
  Pr  Pr1  1  0.909577  0.287634  0.621318  1
  Pr  Pr2  1  0.090423  0.712366  0.621318  1
  Pr  Pr3  1  0.090423  0.287634  0.121318  1
  Gd  Gd4  1  0.291998  0.086504  0.382701  1
  Gd  Gd5  1  0.291998  0.913496  0.882701  1
  Gd  Gd6  1  0.708002  0.086504  0.882701  1
  Gd  Gd7  1  0.708002  0.913496  0.382701  1
  Gd  Gd8  1  0.587511  0.790426  0.881784  1
  Gd  Gd9  1  0.587511  0.209574  0.381784  1
  Gd  Gd10  1  0.412489  0.790426  0.381784  1
  Gd  Gd11  1  0.412489  0.209574  0.881784  1
  Gd  Gd12  1  0.210873  0.412488  0.617879  1
  Gd  Gd13  1  0.210873  0.587512  0.117879  1
  Gd  Gd14  1  0.789127  0.412488  0.117879  1
  Gd  Gd15  1  0.789127  0.587512  0.617879  1
  Ho  Ho16  1  0.000000  0.000000  0.496267  1
  Ho  Ho17  1  0.000000  0.000000  0.996267  1
  Ho  Ho18  1  0.500000  0.500000  0.999837  1
  Ho  Ho19  1  0.500000  0.500000  0.499837  1
  Ir  Ir20  1  0.845198  0.148022  0.246228  1
  Ir  Ir21  1  0.845198  0.851978  0.746228  1
  Ir  Ir22  1  0.154802  0.148022  0.746228  1
  Ir  Ir23  1  0.154802  0.851978  0.246228  1
  Ir  Ir24  1  0.648979  0.348703  0.751592  1
  Ir  Ir25  1  0.648979  0.651297  0.251592  1
  Ir  Ir26  1  0.351021  0.348703  0.251592  1
  Ir  Ir27  1  0.351021  0.651297  0.751592  1
  Ir  Ir28  1  0.500000  0.000000  0.122601  1
  Ir  Ir29  1  0.500000  0.000000  0.622601  1
  Ir  Ir30  1  0.000000  0.500000  0.878289  1
  Ir  Ir31  1  0.000000  0.500000  0.378289  1
