# generated using pymatgen
data_Er11TmLu8(CoBi2)4
_symmetry_space_group_name_H-M   'P 1'
_cell_length_a   7.83931522
_cell_length_b   8.84761500
_cell_length_c   12.32133403
_cell_angle_alpha   90.00000000
_cell_angle_beta   89.99020750
_cell_angle_gamma   90.00000000
_symmetry_Int_Tables_number   1
_chemical_formula_structural   Er11TmLu8(CoBi2)4
_chemical_formula_sum   'Er11 Tm1 Lu8 Co4 Bi8'
_cell_volume   854.59838734
_cell_formula_units_Z   1
loop_
 _symmetry_equiv_pos_site_id
 _symmetry_equiv_pos_as_xyz
  1  'x, y, z'
loop_
 _atom_site_type_symbol
 _atom_site_label
 _atom_site_symmetry_multiplicity
 _atom_site_fract_x
 _atom_site_fract_y
 _atom_site_fract_z
 _atom_site_occupancy
  Er  Er0  1  0.347054  0.250000  0.300534  1
  Er  Er1  1  0.153104  0.250000  0.800393  1
  Er  Er2  1  0.846941  0.750000  0.199688  1
  Er  Er3  1  0.118824  0.750000  0.814328  1
  Er  Er4  1  0.881072  0.250000  0.185613  1
  Er  Er5  1  0.619011  0.250000  0.685713  1
  Er  Er6  1  0.380881  0.750000  0.314187  1
  Er  Er7  1  0.554960  0.750000  0.997091  1
  Er  Er8  1  0.445298  0.250000  0.002640  1
  Er  Er9  1  0.055132  0.250000  0.502995  1
  Er  Er10  1  0.944556  0.750000  0.497251  1
  Tm  Tm11  1  0.652817  0.750000  0.699110  1
  Lu  Lu12  1  0.828010  0.463092  0.936385  1
  Lu  Lu13  1  0.171999  0.536741  0.063562  1
  Lu  Lu14  1  0.328163  0.537206  0.563741  1
  Lu  Lu15  1  0.171999  0.963259  0.063562  1
  Lu  Lu16  1  0.671938  0.463224  0.436541  1
  Lu  Lu17  1  0.828010  0.036908  0.936385  1
  Lu  Lu18  1  0.671938  0.036776  0.436541  1
  Lu  Lu19  1  0.328163  0.962794  0.563741  1
  Co  Co20  1  0.936564  0.750000  0.993241  1
  Co  Co21  1  0.063618  0.250000  0.006786  1
  Co  Co22  1  0.436431  0.250000  0.506958  1
  Co  Co23  1  0.563547  0.750000  0.493201  1
  Bi  Bi24  1  0.932485  0.007582  0.673231  1
  Bi  Bi25  1  0.067208  0.992193  0.326894  1
  Bi  Bi26  1  0.433152  0.991890  0.826683  1
  Bi  Bi27  1  0.067208  0.507807  0.326894  1
  Bi  Bi28  1  0.567139  0.007851  0.173097  1
  Bi  Bi29  1  0.932485  0.492418  0.673231  1
  Bi  Bi30  1  0.567139  0.492149  0.173097  1
  Bi  Bi31  1  0.433152  0.508110  0.826683  1
