# generated using pymatgen
data_La2Pr2CdOs
_symmetry_space_group_name_H-M   'P 1'
_cell_length_a   10.05752670
_cell_length_b   10.05752609
_cell_length_c   10.11141800
_cell_angle_alpha   59.82258779
_cell_angle_beta   59.82258982
_cell_angle_gamma   60.35482867
_symmetry_Int_Tables_number   1
_chemical_formula_structural   La2Pr2CdOs
_chemical_formula_sum   'La8 Pr8 Cd4 Os4'
_cell_volume   723.19326707
_cell_formula_units_Z   4
loop_
 _symmetry_equiv_pos_site_id
 _symmetry_equiv_pos_as_xyz
  1  'x, y, z'
loop_
 _atom_site_type_symbol
 _atom_site_label
 _atom_site_symmetry_multiplicity
 _atom_site_fract_x
 _atom_site_fract_y
 _atom_site_fract_z
 _atom_site_occupancy
  La  La0  1  0.345102  0.345102  0.346623  1
  La  La1  1  0.345102  0.345102  0.963171  1
  La  La2  1  0.346623  0.963171  0.345102  1
  La  La3  1  0.963171  0.346623  0.345102  1
  La  La4  1  0.810867  0.189133  0.189133  1
  La  La5  1  0.189133  0.810867  0.810867  1
  La  La6  1  0.189133  0.810867  0.189133  1
  La  La7  1  0.810867  0.189133  0.810867  1
  Pr  Pr8  1  0.191750  0.191750  0.808250  1
  Pr  Pr9  1  0.808250  0.808250  0.191750  1
  Pr  Pr10  1  0.938741  0.561259  0.561259  1
  Pr  Pr11  1  0.561259  0.938741  0.938741  1
  Pr  Pr12  1  0.561259  0.938741  0.561259  1
  Pr  Pr13  1  0.938741  0.561259  0.938741  1
  Pr  Pr14  1  0.559759  0.559759  0.940241  1
  Pr  Pr15  1  0.940241  0.940241  0.559759  1
  Cd  Cd16  1  0.580155  0.580155  0.578455  1
  Cd  Cd17  1  0.580155  0.580155  0.261234  1
  Cd  Cd18  1  0.578455  0.261234  0.580155  1
  Cd  Cd19  1  0.261234  0.578455  0.580155  1
  Os  Os20  1  0.134848  0.134848  0.143587  1
  Os  Os21  1  0.134848  0.134848  0.586716  1
  Os  Os22  1  0.143587  0.586716  0.134848  1
  Os  Os23  1  0.586716  0.143587  0.134848  1
