# generated using pymatgen
data_NdPa5MnCo17P12
_symmetry_space_group_name_H-M   'P 1'
_cell_length_a   3.76286200
_cell_length_b   10.42989700
_cell_length_c   12.30738000
_cell_angle_alpha   90.00000000
_cell_angle_beta   90.00000000
_cell_angle_gamma   90.00000000
_symmetry_Int_Tables_number   1
_chemical_formula_structural   NdPa5MnCo17P12
_chemical_formula_sum   'Nd1 Pa5 Mn1 Co17 P12'
_cell_volume   483.01867337
_cell_formula_units_Z   1
loop_
 _symmetry_equiv_pos_site_id
 _symmetry_equiv_pos_as_xyz
  1  'x, y, z'
loop_
 _atom_site_type_symbol
 _atom_site_label
 _atom_site_symmetry_multiplicity
 _atom_site_fract_x
 _atom_site_fract_y
 _atom_site_fract_z
 _atom_site_occupancy
  Nd  Nd0  1  0.500000  0.000000  0.480810  1
  Pa  Pa1  1  0.000000  0.500000  0.522053  1
  Pa  Pa2  1  0.500000  0.818544  0.208891  1
  Pa  Pa3  1  0.500000  0.181456  0.208891  1
  Pa  Pa4  1  0.000000  0.683566  0.792265  1
  Pa  Pa5  1  0.000000  0.316434  0.792265  1
  Mn  Mn6  1  0.500000  0.500000  0.155156  1
  Co  Co7  1  0.000000  0.000000  0.840948  1
  Co  Co8  1  0.500000  0.500000  0.702174  1
  Co  Co9  1  0.000000  0.000000  0.290950  1
  Co  Co10  1  0.000000  0.500000  0.982453  1
  Co  Co11  1  0.500000  0.000000  0.018917  1
  Co  Co12  1  0.500000  0.333152  0.993691  1
  Co  Co13  1  0.500000  0.666848  0.993691  1
  Co  Co14  1  0.000000  0.167661  0.005019  1
  Co  Co15  1  0.000000  0.832339  0.005019  1
  Co  Co16  1  0.500000  0.305631  0.428568  1
  Co  Co17  1  0.500000  0.694369  0.428568  1
  Co  Co18  1  0.000000  0.204425  0.573597  1
  Co  Co19  1  0.000000  0.795575  0.573597  1
  Co  Co20  1  0.500000  0.876420  0.715968  1
  Co  Co21  1  0.500000  0.123580  0.715968  1
  Co  Co22  1  0.000000  0.623479  0.286016  1
  Co  Co23  1  0.000000  0.376521  0.286016  1
  P  P24  1  0.500000  0.500000  0.882026  1
  P  P25  1  0.000000  0.000000  0.114601  1
  P  P26  1  0.500000  0.500000  0.338883  1
  P  P27  1  0.000000  0.000000  0.660144  1
  P  P28  1  0.500000  0.310335  0.613068  1
  P  P29  1  0.500000  0.689665  0.613068  1
  P  P30  1  0.000000  0.191264  0.387697  1
  P  P31  1  0.000000  0.808736  0.387697  1
  P  P32  1  0.500000  0.849596  0.896517  1
  P  P33  1  0.500000  0.150404  0.896517  1
  P  P34  1  0.000000  0.652184  0.104145  1
  P  P35  1  0.000000  0.347816  0.104145  1
