# generated using pymatgen
data_SrZn2Au5
_symmetry_space_group_name_H-M   'P 1'
_cell_length_a   7.58711000
_cell_length_b   8.88655100
_cell_length_c   9.75431900
_cell_angle_alpha   90.00000000
_cell_angle_beta   90.00000000
_cell_angle_gamma   90.00000000
_symmetry_Int_Tables_number   1
_chemical_formula_structural   SrZn2Au5
_chemical_formula_sum   'Sr4 Zn8 Au20'
_cell_volume   657.66779056
_cell_formula_units_Z   4
loop_
 _symmetry_equiv_pos_site_id
 _symmetry_equiv_pos_as_xyz
  1  'x, y, z'
loop_
 _atom_site_type_symbol
 _atom_site_label
 _atom_site_symmetry_multiplicity
 _atom_site_fract_x
 _atom_site_fract_y
 _atom_site_fract_z
 _atom_site_occupancy
  Sr  Sr0  1  0.250000  0.253880  0.116255  1
  Sr  Sr1  1  0.250000  0.753880  0.383745  1
  Sr  Sr2  1  0.750000  0.746120  0.883745  1
  Sr  Sr3  1  0.750000  0.246120  0.616255  1
  Zn  Zn4  1  0.250000  0.056138  0.615638  1
  Zn  Zn5  1  0.250000  0.556138  0.884362  1
  Zn  Zn6  1  0.750000  0.943862  0.384362  1
  Zn  Zn7  1  0.750000  0.443862  0.115638  1
  Zn  Zn8  1  0.250000  0.354481  0.480509  1
  Zn  Zn9  1  0.250000  0.854481  0.019491  1
  Zn  Zn10  1  0.750000  0.645519  0.519491  1
  Zn  Zn11  1  0.750000  0.145519  0.980509  1
  Au  Au12  1  0.062764  0.104557  0.390977  1
  Au  Au13  1  0.437236  0.604557  0.109023  1
  Au  Au14  1  0.562764  0.895443  0.609023  1
  Au  Au15  1  0.937236  0.395443  0.890977  1
  Au  Au16  1  0.937236  0.895443  0.609023  1
  Au  Au17  1  0.562764  0.395443  0.890977  1
  Au  Au18  1  0.437236  0.104557  0.390977  1
  Au  Au19  1  0.062764  0.604557  0.109023  1
  Au  Au20  1  0.041419  0.051146  0.862074  1
  Au  Au21  1  0.458581  0.551146  0.637926  1
  Au  Au22  1  0.541419  0.948854  0.137926  1
  Au  Au23  1  0.958581  0.448854  0.362074  1
  Au  Au24  1  0.958581  0.948854  0.137926  1
  Au  Au25  1  0.541419  0.448854  0.362074  1
  Au  Au26  1  0.458581  0.051146  0.862074  1
  Au  Au27  1  0.041419  0.551146  0.637926  1
  Au  Au28  1  0.250000  0.298844  0.755437  1
  Au  Au29  1  0.250000  0.798844  0.744563  1
  Au  Au30  1  0.750000  0.701156  0.244563  1
  Au  Au31  1  0.750000  0.201156  0.255437  1
