# generated using pymatgen
data_Hf6BeCuN2
_symmetry_space_group_name_H-M   'P 1'
_cell_length_a   5.76192403
_cell_length_b   5.76192338
_cell_length_c   8.67011700
_cell_angle_alpha   90.00000000
_cell_angle_beta   90.00000000
_cell_angle_gamma   146.71892028
_symmetry_Int_Tables_number   1
_chemical_formula_structural   Hf6BeCuN2
_chemical_formula_sum   'Hf6 Be1 Cu1 N2'
_cell_volume   157.95448237
_cell_formula_units_Z   1
loop_
 _symmetry_equiv_pos_site_id
 _symmetry_equiv_pos_as_xyz
  1  'x, y, z'
loop_
 _atom_site_type_symbol
 _atom_site_label
 _atom_site_symmetry_multiplicity
 _atom_site_fract_x
 _atom_site_fract_y
 _atom_site_fract_z
 _atom_site_occupancy
  Hf  Hf0  1  0.630361  0.369639  0.941022  1
  Hf  Hf1  1  0.368753  0.631247  0.451097  1
  Hf  Hf2  1  0.368753  0.631247  0.048903  1
  Hf  Hf3  1  0.630361  0.369639  0.558978  1
  Hf  Hf4  1  0.940237  0.059763  0.750000  1
  Hf  Hf5  1  0.054066  0.945934  0.250000  1
  Be  Be6  1  0.257338  0.742662  0.750000  1
  Cu  Cu7  1  0.748985  0.251015  0.250000  1
  N  N8  1  0.000575  0.999425  0.998244  1
  N  N9  1  0.000575  0.999425  0.501756  1
