# generated using pymatgen
data_Dy16Er4Ir11Pt
_symmetry_space_group_name_H-M   'P 1'
_cell_length_a   10.91047042
_cell_length_b   10.91047042
_cell_length_c   6.34827302
_cell_angle_alpha   89.99382273
_cell_angle_beta   89.99382273
_cell_angle_gamma   89.87579254
_symmetry_Int_Tables_number   1
_chemical_formula_structural   Dy16Er4Ir11Pt
_chemical_formula_sum   'Dy16 Er4 Ir11 Pt1'
_cell_volume   755.68625559
_cell_formula_units_Z   1
loop_
 _symmetry_equiv_pos_site_id
 _symmetry_equiv_pos_as_xyz
  1  'x, y, z'
loop_
 _atom_site_type_symbol
 _atom_site_label
 _atom_site_symmetry_multiplicity
 _atom_site_fract_x
 _atom_site_fract_y
 _atom_site_fract_z
 _atom_site_occupancy
  Dy  Dy0  1  0.290574  0.087851  0.377533  1
  Dy  Dy1  1  0.291163  0.911838  0.876953  1
  Dy  Dy2  1  0.707077  0.086601  0.873728  1
  Dy  Dy3  1  0.707774  0.909244  0.378711  1
  Dy  Dy4  1  0.587738  0.790745  0.877998  1
  Dy  Dy5  1  0.584577  0.209475  0.378421  1
  Dy  Dy6  1  0.411885  0.790738  0.377695  1
  Dy  Dy7  1  0.411838  0.209239  0.877809  1
  Dy  Dy8  1  0.209255  0.412262  0.622002  1
  Dy  Dy9  1  0.209262  0.588115  0.122305  1
  Dy  Dy10  1  0.790525  0.415423  0.121579  1
  Dy  Dy11  1  0.790761  0.588162  0.622191  1
  Dy  Dy12  1  0.912149  0.709426  0.122467  1
  Dy  Dy13  1  0.913399  0.292923  0.626272  1
  Dy  Dy14  1  0.088162  0.708837  0.623047  1
  Dy  Dy15  1  0.090756  0.292226  0.121289  1
  Er  Er16  1  0.001391  0.998331  0.501160  1
  Er  Er17  1  0.001669  0.998609  0.998840  1
  Er  Er18  1  0.499884  0.499927  0.999758  1
  Er  Er19  1  0.500073  0.500116  0.500242  1
  Ir  Ir20  1  0.847414  0.848252  0.750030  1
  Ir  Ir21  1  0.151748  0.152586  0.749970  1
  Ir  Ir22  1  0.152647  0.847353  0.250000  1
  Ir  Ir23  1  0.653502  0.346498  0.750000  1
  Ir  Ir24  1  0.652808  0.652580  0.249906  1
  Ir  Ir25  1  0.347420  0.347192  0.250094  1
  Ir  Ir26  1  0.347218  0.652782  0.750000  1
  Ir  Ir27  1  0.500464  0.000170  0.122644  1
  Ir  Ir28  1  0.500351  0.000302  0.621694  1
  Ir  Ir29  1  0.999698  0.499649  0.878306  1
  Ir  Ir30  1  0.999830  0.499536  0.377356  1
  Pt  Pt31  1  0.846990  0.153010  0.250000  1
