# generated using pymatgen
data_K6ScP3S14
_symmetry_space_group_name_H-M   'P 1'
_cell_length_a   11.28561024
_cell_length_b   11.28561020
_cell_length_c   13.04950800
_cell_angle_alpha   74.19977171
_cell_angle_beta   74.19977177
_cell_angle_gamma   58.27595271
_symmetry_Int_Tables_number   1
_chemical_formula_structural   K6ScP3S14
_chemical_formula_sum   'K12 Sc2 P6 S28'
_cell_volume   1343.27762418
_cell_formula_units_Z   2
loop_
 _symmetry_equiv_pos_site_id
 _symmetry_equiv_pos_as_xyz
  1  'x, y, z'
loop_
 _atom_site_type_symbol
 _atom_site_label
 _atom_site_symmetry_multiplicity
 _atom_site_fract_x
 _atom_site_fract_y
 _atom_site_fract_z
 _atom_site_occupancy
  K  K0  1  0.001295  0.800562  0.583961  1
  K  K1  1  0.199438  0.998705  0.916039  1
  K  K2  1  0.998705  0.199438  0.416039  1
  K  K3  1  0.800562  0.001295  0.083961  1
  K  K4  1  0.901664  0.671358  0.344022  1
  K  K5  1  0.328642  0.098336  0.155978  1
  K  K6  1  0.098336  0.328642  0.655978  1
  K  K7  1  0.671358  0.901664  0.844022  1
  K  K8  1  0.780042  0.453633  0.007213  1
  K  K9  1  0.546367  0.219958  0.492787  1
  K  K10  1  0.219958  0.546367  0.992787  1
  K  K11  1  0.453633  0.780042  0.507213  1
  Sc  Sc12  1  0.357626  0.642374  0.250000  1
  Sc  Sc13  1  0.642374  0.357626  0.750000  1
  P  P14  1  0.272121  0.342143  0.332205  1
  P  P15  1  0.657857  0.727879  0.167795  1
  P  P16  1  0.727879  0.657857  0.667795  1
  P  P17  1  0.342143  0.272121  0.832205  1
  P  P18  1  0.053391  0.946609  0.250000  1
  P  P19  1  0.946609  0.053391  0.750000  1
  S  S20  1  0.137924  0.791860  0.151150  1
  S  S21  1  0.208140  0.862076  0.348850  1
  S  S22  1  0.862076  0.208140  0.848850  1
  S  S23  1  0.791860  0.137924  0.651150  1
  S  S24  1  0.470646  0.446917  0.132316  1
  S  S25  1  0.553083  0.529354  0.367684  1
  S  S26  1  0.529354  0.553083  0.867684  1
  S  S27  1  0.446917  0.470646  0.632316  1
  S  S28  1  0.235443  0.507816  0.399922  1
  S  S29  1  0.492184  0.764557  0.100078  1
  S  S30  1  0.764557  0.492184  0.600078  1
  S  S31  1  0.507816  0.235443  0.899922  1
  S  S32  1  0.128691  0.400549  0.238661  1
  S  S33  1  0.599451  0.871309  0.261339  1
  S  S34  1  0.871309  0.599451  0.761339  1
  S  S35  1  0.400549  0.128691  0.738661  1
  S  S36  1  0.829317  0.699824  0.056385  1
  S  S37  1  0.300176  0.170683  0.443615  1
  S  S38  1  0.170683  0.300176  0.943615  1
  S  S39  1  0.699824  0.829317  0.556385  1
  S  S40  1  0.728787  0.519857  0.258524  1
  S  S41  1  0.480143  0.271213  0.241476  1
  S  S42  1  0.271213  0.480143  0.741476  1
  S  S43  1  0.519857  0.728787  0.758524  1
  S  S44  1  0.031181  0.129876  0.157328  1
  S  S45  1  0.870124  0.968819  0.342672  1
  S  S46  1  0.968819  0.870124  0.842672  1
  S  S47  1  0.129876  0.031181  0.657328  1
