# generated using pymatgen
data_La4CeP12Ru16Rh3
_symmetry_space_group_name_H-M   'P 1'
_cell_length_a   12.69243400
_cell_length_b   12.69243462
_cell_length_c   4.04022300
_cell_angle_alpha   90.00000000
_cell_angle_beta   90.00000000
_cell_angle_gamma   119.99999837
_symmetry_Int_Tables_number   1
_chemical_formula_structural   La4CeP12Ru16Rh3
_chemical_formula_sum   'La4 Ce1 P12 Ru16 Rh3'
_cell_volume   563.67117226
_cell_formula_units_Z   1
loop_
 _symmetry_equiv_pos_site_id
 _symmetry_equiv_pos_as_xyz
  1  'x, y, z'
loop_
 _atom_site_type_symbol
 _atom_site_label
 _atom_site_symmetry_multiplicity
 _atom_site_fract_x
 _atom_site_fract_y
 _atom_site_fract_z
 _atom_site_occupancy
  La  La0  1  0.183372  0.183455  0.500000  1
  La  La1  1  0.816545  0.999917  0.500000  1
  La  La2  1  0.000083  0.816628  0.500000  1
  La  La3  1  0.666667  0.333333  0.000000  1
  Ce  Ce4  1  0.333333  0.666667  0.000000  1
  P  P5  1  0.809212  0.809997  0.000000  1
  P  P6  1  0.190003  0.999215  0.000000  1
  P  P7  1  0.000785  0.190788  0.000000  1
  P  P8  1  0.177098  0.477603  0.500000  1
  P  P9  1  0.522397  0.699494  0.500000  1
  P  P10  1  0.300506  0.822902  0.500000  1
  P  P11  1  0.699889  0.524367  0.500000  1
  P  P12  1  0.824477  0.300111  0.500000  1
  P  P13  1  0.475633  0.175523  0.500000  1
  P  P14  1  0.373877  0.373001  0.000000  1
  P  P15  1  0.626999  0.000876  0.000000  1
  P  P16  1  0.999124  0.626123  0.000000  1
  Ru  Ru17  1  0.710395  0.711566  0.500000  1
  Ru  Ru18  1  0.288434  0.998829  0.500000  1
  Ru  Ru19  1  0.001171  0.289605  0.500000  1
  Ru  Ru20  1  0.187162  0.382676  0.000000  1
  Ru  Ru21  1  0.617324  0.804486  0.000000  1
  Ru  Ru22  1  0.195514  0.812838  0.000000  1
  Ru  Ru23  1  0.805156  0.620671  0.000000  1
  Ru  Ru24  1  0.815515  0.194844  0.000000  1
  Ru  Ru25  1  0.379329  0.184485  0.000000  1
  Ru  Ru26  1  0.370008  0.496322  0.500000  1
  Ru  Ru27  1  0.503678  0.873687  0.500000  1
  Ru  Ru28  1  0.126313  0.629992  0.500000  1
  Ru  Ru29  1  0.878628  0.508697  0.500000  1
  Ru  Ru30  1  0.630070  0.121372  0.500000  1
  Ru  Ru31  1  0.491303  0.369930  0.500000  1
  Ru  Ru32  1  0.000000  0.000000  0.000000  1
  Rh  Rh33  1  0.552393  0.553580  0.000000  1
  Rh  Rh34  1  0.446420  0.998813  0.000000  1
  Rh  Rh35  1  0.001187  0.447607  0.000000  1
