# generated using pymatgen
data_LiHf3(Nb3B10)2
_symmetry_space_group_name_H-M   'P 1'
_cell_length_a   6.21462655
_cell_length_b   7.07949091
_cell_length_c   7.45528088
_cell_angle_alpha   94.09552650
_cell_angle_beta   102.08029709
_cell_angle_gamma   116.06847545
_symmetry_Int_Tables_number   1
_chemical_formula_structural   LiHf3(Nb3B10)2
_chemical_formula_sum   'Li1 Hf3 Nb6 B20'
_cell_volume   283.08441205
_cell_formula_units_Z   1
loop_
 _symmetry_equiv_pos_site_id
 _symmetry_equiv_pos_as_xyz
  1  'x, y, z'
loop_
 _atom_site_type_symbol
 _atom_site_label
 _atom_site_symmetry_multiplicity
 _atom_site_fract_x
 _atom_site_fract_y
 _atom_site_fract_z
 _atom_site_occupancy
  Li  Li0  1  0.999974  0.000157  0.000158  1
  Hf  Hf1  1  0.500588  0.800386  0.399326  1
  Hf  Hf2  1  0.999974  0.397670  0.198274  1
  Hf  Hf3  1  0.499447  0.199502  0.601078  1
  Nb  Nb4  1  0.499232  0.999366  0.999170  1
  Nb  Nb5  1  0.998162  0.795961  0.400473  1
  Nb  Nb6  1  0.503964  0.601476  0.800734  1
  Nb  Nb7  1  0.497757  0.399648  0.199400  1
  Nb  Nb8  1  0.002111  0.203204  0.600769  1
  Nb  Nb9  1  0.998424  0.603444  0.800870  1
  B  B10  1  0.330261  0.230808  0.869802  1
  B  B11  1  0.333667  0.633293  0.065972  1
  B  B12  1  0.164791  0.362194  0.935017  1
  B  B13  1  0.329902  0.032904  0.262985  1
  B  B14  1  0.165214  0.769345  0.130034  1
  B  B15  1  0.835676  0.230795  0.869286  1
  B  B16  1  0.164526  0.164760  0.328332  1
  B  B17  1  0.834211  0.637842  0.063107  1
  B  B18  1  0.333496  0.432755  0.466127  1
  B  B19  1  0.666111  0.367434  0.932674  1
  B  B20  1  0.835595  0.033005  0.263132  1
  B  B21  1  0.669859  0.769497  0.129926  1
  B  B22  1  0.334436  0.834742  0.667468  1
  B  B23  1  0.167399  0.566912  0.534189  1
  B  B24  1  0.664867  0.164986  0.332596  1
  B  B25  1  0.832664  0.432457  0.466603  1
  B  B26  1  0.165011  0.966787  0.737510  1
  B  B27  1  0.835459  0.834641  0.672547  1
  B  B28  1  0.667553  0.567382  0.535260  1
  B  B29  1  0.669668  0.966647  0.737179  1
