# generated using pymatgen
data_Ga2CuAgBr8
_symmetry_space_group_name_H-M   'P 1'
_cell_length_a   6.07305800
_cell_length_b   6.07305800
_cell_length_c   11.00090100
_cell_angle_alpha   90.00000000
_cell_angle_beta   90.00000000
_cell_angle_gamma   90.00000000
_symmetry_Int_Tables_number   1
_chemical_formula_structural   Ga2CuAgBr8
_chemical_formula_sum   'Ga2 Cu1 Ag1 Br8'
_cell_volume   405.73559890
_cell_formula_units_Z   1
loop_
 _symmetry_equiv_pos_site_id
 _symmetry_equiv_pos_as_xyz
  1  'x, y, z'
loop_
 _atom_site_type_symbol
 _atom_site_label
 _atom_site_symmetry_multiplicity
 _atom_site_fract_x
 _atom_site_fract_y
 _atom_site_fract_z
 _atom_site_occupancy
  Ga  Ga0  1  0.000000  0.500000  0.256149  1
  Ga  Ga1  1  0.500000  0.000000  0.743851  1
  Cu  Cu2  1  0.000000  0.000000  0.500000  1
  Ag  Ag3  1  0.000000  0.000000  0.000000  1
  Br  Br4  1  0.245555  0.289903  0.134364  1
  Br  Br5  1  0.754445  0.710098  0.134364  1
  Br  Br6  1  0.289903  0.754445  0.865636  1
  Br  Br7  1  0.778219  0.262329  0.378413  1
  Br  Br8  1  0.710098  0.245555  0.865636  1
  Br  Br9  1  0.221781  0.737672  0.378413  1
  Br  Br10  1  0.737672  0.778219  0.621587  1
  Br  Br11  1  0.262329  0.221781  0.621587  1
