# generated using pymatgen
data_YHf5Co16(MoP6)2
_symmetry_space_group_name_H-M   'P 1'
_cell_length_a   11.98398652
_cell_length_b   11.96003323
_cell_length_c   3.66720300
_cell_angle_alpha   90.00000000
_cell_angle_beta   90.00000000
_cell_angle_gamma   120.02792421
_symmetry_Int_Tables_number   1
_chemical_formula_structural   YHf5Co16(MoP6)2
_chemical_formula_sum   'Y1 Hf5 Co16 Mo2 P12'
_cell_volume   455.06874628
_cell_formula_units_Z   1
loop_
 _symmetry_equiv_pos_site_id
 _symmetry_equiv_pos_as_xyz
  1  'x, y, z'
loop_
 _atom_site_type_symbol
 _atom_site_label
 _atom_site_symmetry_multiplicity
 _atom_site_fract_x
 _atom_site_fract_y
 _atom_site_fract_z
 _atom_site_occupancy
  Y  Y0  1  0.334774  0.667041  0.000000  1
  Hf  Hf1  1  0.820952  0.820423  0.500000  1
  Hf  Hf2  1  0.000931  0.175573  0.500000  1
  Hf  Hf3  1  0.665402  0.333276  0.000000  1
  Hf  Hf4  1  0.997543  0.555046  0.000000  1
  Hf  Hf5  1  0.177712  0.997882  0.500000  1
  Co  Co6  1  0.631167  0.826826  0.000000  1
  Co  Co7  1  0.374525  0.195001  0.000000  1
  Co  Co8  1  0.996847  0.721372  0.500000  1
  Co  Co9  1  0.280168  0.276132  0.500000  1
  Co  Co10  1  0.867007  0.351245  0.500000  1
  Co  Co11  1  0.723331  0.002794  0.500000  1
  Co  Co12  1  0.815971  0.627322  0.000000  1
  Co  Co13  1  0.178331  0.810759  0.000000  1
  Co  Co14  1  0.356257  0.879651  0.500000  1
  Co  Co15  1  0.123208  0.471530  0.500000  1
  Co  Co16  1  0.642513  0.515654  0.500000  1
  Co  Co17  1  0.000045  0.999872  0.000000  1
  Co  Co18  1  0.521811  0.648206  0.500000  1
  Co  Co19  1  0.486840  0.133152  0.500000  1
  Co  Co20  1  0.194948  0.365955  0.000000  1
  Co  Co21  1  0.806472  0.176904  0.000000  1
  Mo  Mo22  1  0.447931  0.447709  0.000000  1
  Mo  Mo23  1  0.553862  0.003316  0.000000  1
  P  P24  1  0.002055  0.346552  0.000000  1
  P  P25  1  0.824557  0.516480  0.500000  1
  P  P26  1  0.686058  0.167651  0.500000  1
  P  P27  1  0.176924  0.172039  0.000000  1
  P  P28  1  0.641371  0.646339  0.000000  1
  P  P29  1  0.826056  0.000196  0.000000  1
  P  P30  1  0.522506  0.838118  0.500000  1
  P  P31  1  0.169992  0.692328  0.500000  1
  P  P32  1  0.357697  0.002391  0.000000  1
  P  P33  1  0.482089  0.314630  0.500000  1
  P  P34  1  0.997589  0.823984  0.000000  1
  P  P35  1  0.314560  0.476654  0.500000  1
