# generated using pymatgen
data_Ca2Gd(AlH4)6
_symmetry_space_group_name_H-M   'P 1'
_cell_length_a   3.61314100
_cell_length_b   10.34781748
_cell_length_c   10.34834314
_cell_angle_alpha   120.02054886
_cell_angle_beta   90.00000000
_cell_angle_gamma   90.00000000
_symmetry_Int_Tables_number   1
_chemical_formula_structural   Ca2Gd(AlH4)6
_chemical_formula_sum   'Ca2 Gd1 Al6 H24'
_cell_volume   335.00027102
_cell_formula_units_Z   1
loop_
 _symmetry_equiv_pos_site_id
 _symmetry_equiv_pos_as_xyz
  1  'x, y, z'
loop_
 _atom_site_type_symbol
 _atom_site_label
 _atom_site_symmetry_multiplicity
 _atom_site_fract_x
 _atom_site_fract_y
 _atom_site_fract_z
 _atom_site_occupancy
  Ca  Ca0  1  0.000000  0.000002  0.999983  1
  Ca  Ca1  1  0.500000  0.333334  0.666716  1
  Gd  Gd2  1  0.500000  0.667553  0.333777  1
  Al  Al3  1  0.500000  0.718249  0.719583  1
  Al  Al4  1  0.500000  0.001332  0.281599  1
  Al  Al5  1  0.500000  0.280522  0.998874  1
  Al  Al6  1  0.000000  0.389756  0.390134  1
  Al  Al7  1  0.000000  0.000352  0.610255  1
  Al  Al8  1  0.000000  0.609803  0.999605  1
  H  H9  1  0.500000  0.838355  0.268790  1
  H  H10  1  0.500000  0.430912  0.161875  1
  H  H11  1  0.500000  0.568547  0.730351  1
  H  H12  1  0.500000  0.731105  0.569442  1
  H  H13  1  0.500000  0.269563  0.838282  1
  H  H14  1  0.500000  0.161762  0.431444  1
  H  H15  1  0.000000  0.728119  0.726781  1
  H  H16  1  0.000000  0.998591  0.271732  1
  H  H17  1  0.000000  0.273106  0.001354  1
  H  H18  1  0.500000  0.876692  0.876155  1
  H  H19  1  0.500000  0.999346  0.123173  1
  H  H20  1  0.500000  0.123866  0.000561  1
  H  H21  1  0.500000  0.411668  0.407382  1
  H  H22  1  0.500000  0.995290  0.587986  1
  H  H23  1  0.500000  0.592534  0.004351  1
  H  H24  1  0.000000  0.232718  0.233096  1
  H  H25  1  0.000000  0.000239  0.767113  1
  H  H26  1  0.000000  0.766767  0.999685  1
  H  H27  1  0.000000  0.827560  0.451011  1
  H  H28  1  0.000000  0.623567  0.172498  1
  H  H29  1  0.000000  0.378663  0.546286  1
  H  H30  1  0.000000  0.549098  0.376637  1
  H  H31  1  0.000000  0.453541  0.832309  1
  H  H32  1  0.000000  0.167487  0.621180  1
