# generated using pymatgen
data_NdHo9In8(PdAu)2
_symmetry_space_group_name_H-M   'P 1'
_cell_length_a   3.65290800
_cell_length_b   8.18726417
_cell_length_c   18.36126312
_cell_angle_alpha   90.15680785
_cell_angle_beta   90.00000000
_cell_angle_gamma   90.00000000
_symmetry_Int_Tables_number   1
_chemical_formula_structural   NdHo9In8(PdAu)2
_chemical_formula_sum   'Nd1 Ho9 In8 Pd2 Au2'
_cell_volume   549.13416627
_cell_formula_units_Z   1
loop_
 _symmetry_equiv_pos_site_id
 _symmetry_equiv_pos_as_xyz
  1  'x, y, z'
loop_
 _atom_site_type_symbol
 _atom_site_label
 _atom_site_symmetry_multiplicity
 _atom_site_fract_x
 _atom_site_fract_y
 _atom_site_fract_z
 _atom_site_occupancy
  Nd  Nd0  1  0.000000  0.500000  0.500000  1
  Ho  Ho1  1  0.000000  0.000000  0.000000  1
  Ho  Ho2  1  0.000000  0.747644  0.282653  1
  Ho  Ho3  1  0.000000  0.252356  0.717347  1
  Ho  Ho4  1  0.000000  0.767188  0.781195  1
  Ho  Ho5  1  0.000000  0.232812  0.218805  1
  Ho  Ho6  1  0.000000  0.620251  0.080253  1
  Ho  Ho7  1  0.000000  0.379749  0.919747  1
  Ho  Ho8  1  0.000000  0.881806  0.583648  1
  Ho  Ho9  1  0.000000  0.118194  0.416352  1
  In  In10  1  0.500000  0.709396  0.932823  1
  In  In11  1  0.500000  0.290604  0.067177  1
  In  In12  1  0.500000  0.798234  0.432039  1
  In  In13  1  0.500000  0.201766  0.567961  1
  In  In14  1  0.500000  0.583610  0.650679  1
  In  In15  1  0.500000  0.416390  0.349321  1
  In  In16  1  0.500000  0.922270  0.148323  1
  In  In17  1  0.500000  0.077730  0.851677  1
  Pd  Pd18  1  0.500000  0.973838  0.697226  1
  Pd  Pd19  1  0.500000  0.026162  0.302774  1
  Au  Au20  1  0.500000  0.528151  0.196465  1
  Au  Au21  1  0.500000  0.471849  0.803535  1
