# generated using pymatgen
data_Pr9LuGa6
_symmetry_space_group_name_H-M   'P 1'
_cell_length_a   7.83673300
_cell_length_b   7.83673300
_cell_length_c   14.90957700
_cell_angle_alpha   90.00000000
_cell_angle_beta   90.00000000
_cell_angle_gamma   90.00000000
_symmetry_Int_Tables_number   1
_chemical_formula_structural   Pr9LuGa6
_chemical_formula_sum   'Pr18 Lu2 Ga12'
_cell_volume   915.66248884
_cell_formula_units_Z   2
loop_
 _symmetry_equiv_pos_site_id
 _symmetry_equiv_pos_as_xyz
  1  'x, y, z'
loop_
 _atom_site_type_symbol
 _atom_site_label
 _atom_site_symmetry_multiplicity
 _atom_site_fract_x
 _atom_site_fract_y
 _atom_site_fract_z
 _atom_site_occupancy
  Pr  Pr0  1  0.500001  0.000000  0.710716  1
  Pr  Pr1  1  0.000000  0.500001  0.789284  1
  Pr  Pr2  1  0.162851  0.181763  0.105164  1
  Pr  Pr3  1  0.837149  0.818236  0.105164  1
  Pr  Pr4  1  0.662851  0.318238  0.394836  1
  Pr  Pr5  1  0.337150  0.681763  0.394836  1
  Pr  Pr6  1  0.818236  0.837149  0.394836  1
  Pr  Pr7  1  0.181763  0.162851  0.394836  1
  Pr  Pr8  1  0.681763  0.337150  0.105164  1
  Pr  Pr9  1  0.318238  0.662851  0.105164  1
  Pr  Pr10  1  0.342163  0.312590  0.897055  1
  Pr  Pr11  1  0.657838  0.687411  0.897055  1
  Pr  Pr12  1  0.842162  0.187411  0.602945  1
  Pr  Pr13  1  0.157838  0.812588  0.602945  1
  Pr  Pr14  1  0.687411  0.657838  0.602945  1
  Pr  Pr15  1  0.312590  0.342163  0.602945  1
  Pr  Pr16  1  0.812588  0.157838  0.897055  1
  Pr  Pr17  1  0.187411  0.842162  0.897055  1
  Lu  Lu18  1  0.000000  0.500001  0.271551  1
  Lu  Lu19  1  0.500001  0.000000  0.228449  1
  Ga  Ga20  1  0.122190  0.877812  0.250000  1
  Ga  Ga21  1  0.877812  0.122190  0.250000  1
  Ga  Ga22  1  0.622189  0.622189  0.250000  1
  Ga  Ga23  1  0.377811  0.377811  0.250000  1
  Ga  Ga24  1  0.118880  0.118880  0.750000  1
  Ga  Ga25  1  0.881122  0.881122  0.750000  1
  Ga  Ga26  1  0.618879  0.381121  0.750000  1
  Ga  Ga27  1  0.381121  0.618879  0.750000  1
  Ga  Ga28  1  0.000000  0.500001  0.998056  1
  Ga  Ga29  1  0.500001  0.000000  0.501944  1
  Ga  Ga30  1  0.500001  0.000000  0.018271  1
  Ga  Ga31  1  0.000000  0.500001  0.481729  1
