# generated using pymatgen
data_Yb12Er7ScSn16
_symmetry_space_group_name_H-M   'P 1'
_cell_length_a   7.78999619
_cell_length_b   8.39268394
_cell_length_c   15.92112169
_cell_angle_alpha   90.21721049
_cell_angle_beta   90.04101559
_cell_angle_gamma   90.09509732
_symmetry_Int_Tables_number   1
_chemical_formula_structural   Yb12Er7ScSn16
_chemical_formula_sum   'Yb12 Er7 Sc1 Sn16'
_cell_volume   1040.89744604
_cell_formula_units_Z   1
loop_
 _symmetry_equiv_pos_site_id
 _symmetry_equiv_pos_as_xyz
  1  'x, y, z'
loop_
 _atom_site_type_symbol
 _atom_site_label
 _atom_site_symmetry_multiplicity
 _atom_site_fract_x
 _atom_site_fract_y
 _atom_site_fract_z
 _atom_site_occupancy
  Yb  Yb0  1  0.502728  0.686974  0.592553  1
  Yb  Yb1  1  0.002234  0.813152  0.906395  1
  Yb  Yb2  1  0.497338  0.312880  0.092909  1
  Yb  Yb3  1  0.997924  0.187078  0.407305  1
  Yb  Yb4  1  0.498107  0.313050  0.408956  1
  Yb  Yb5  1  0.997296  0.187087  0.092919  1
  Yb  Yb6  1  0.502673  0.687163  0.906398  1
  Yb  Yb7  1  0.002136  0.813899  0.592848  1
  Yb  Yb8  1  0.833064  0.511101  0.749012  1
  Yb  Yb9  1  0.332371  0.989887  0.749302  1
  Yb  Yb10  1  0.166517  0.489313  0.250315  1
  Yb  Yb11  1  0.666973  0.011180  0.250971  1
  Er  Er12  1  0.172445  0.332864  0.876589  1
  Er  Er13  1  0.327912  0.833661  0.122176  1
  Er  Er14  1  0.827042  0.666917  0.379789  1
  Er  Er15  1  0.328662  0.834268  0.379277  1
  Er  Er16  1  0.828023  0.666527  0.122205  1
  Er  Er17  1  0.672179  0.166079  0.877169  1
  Er  Er18  1  0.171623  0.333448  0.621265  1
  Sc  Sc19  1  0.672086  0.165310  0.622975  1
  Sn  Sn20  1  0.673965  0.966494  0.462714  1
  Sn  Sn21  1  0.171680  0.536669  0.040140  1
  Sn  Sn22  1  0.327924  0.036829  0.959473  1
  Sn  Sn23  1  0.823178  0.458775  0.541574  1
  Sn  Sn24  1  0.334196  0.038197  0.542274  1
  Sn  Sn25  1  0.828894  0.463169  0.959150  1
  Sn  Sn26  1  0.671133  0.962952  0.040215  1
  Sn  Sn27  1  0.170262  0.535898  0.459672  1
  Sn  Sn28  1  0.471018  0.368359  0.747493  1
  Sn  Sn29  1  0.965237  0.129129  0.746355  1
  Sn  Sn30  1  0.531071  0.628557  0.250762  1
  Sn  Sn31  1  0.031098  0.871871  0.250678  1
  Sn  Sn32  1  0.714524  0.875109  0.747832  1
  Sn  Sn33  1  0.218345  0.625620  0.749577  1
  Sn  Sn34  1  0.284528  0.127334  0.250393  1
  Sn  Sn35  1  0.783610  0.373199  0.250368  1
