# generated using pymatgen
data_Ho8SnHg2PbAu8
_symmetry_space_group_name_H-M   'P 1'
_cell_length_a   8.03063100
_cell_length_b   8.03063100
_cell_length_c   7.29786300
_cell_angle_alpha   90.00000000
_cell_angle_beta   90.00000000
_cell_angle_gamma   90.00000000
_symmetry_Int_Tables_number   1
_chemical_formula_structural   Ho8SnHg2PbAu8
_chemical_formula_sum   'Ho8 Sn1 Hg2 Pb1 Au8'
_cell_volume   470.64673274
_cell_formula_units_Z   1
loop_
 _symmetry_equiv_pos_site_id
 _symmetry_equiv_pos_as_xyz
  1  'x, y, z'
loop_
 _atom_site_type_symbol
 _atom_site_label
 _atom_site_symmetry_multiplicity
 _atom_site_fract_x
 _atom_site_fract_y
 _atom_site_fract_z
 _atom_site_occupancy
  Ho  Ho0  1  0.842985  0.159195  0.499297  1
  Ho  Ho1  1  0.157015  0.840805  0.499297  1
  Ho  Ho2  1  0.340805  0.342985  0.000703  1
  Ho  Ho3  1  0.659195  0.657015  0.000703  1
  Ho  Ho4  1  0.684767  0.682717  0.499239  1
  Ho  Ho5  1  0.315233  0.317283  0.499239  1
  Ho  Ho6  1  0.182717  0.815233  0.000761  1
  Ho  Ho7  1  0.817283  0.184767  0.000761  1
  Sn  Sn8  1  0.000000  0.500000  0.250000  1
  Hg  Hg9  1  0.500000  0.000000  0.250000  1
  Hg  Hg10  1  0.000000  0.500000  0.750000  1
  Pb  Pb11  1  0.500000  0.000000  0.750000  1
  Au  Au12  1  0.626719  0.371803  0.275548  1
  Au  Au13  1  0.373281  0.628197  0.275548  1
  Au  Au14  1  0.125136  0.128861  0.775530  1
  Au  Au15  1  0.874864  0.871139  0.775530  1
  Au  Au16  1  0.371139  0.625136  0.724470  1
  Au  Au17  1  0.628861  0.374864  0.724470  1
  Au  Au18  1  0.871803  0.873281  0.224452  1
  Au  Au19  1  0.128197  0.126719  0.224452  1
