# generated using pymatgen
data_TmLuPa2Ge6Os7
_symmetry_space_group_name_H-M   'P 1'
_cell_length_a   7.23746281
_cell_length_b   7.24252711
_cell_length_c   7.25364396
_cell_angle_alpha   109.48779938
_cell_angle_beta   109.52377443
_cell_angle_gamma   109.46152750
_symmetry_Int_Tables_number   1
_chemical_formula_structural   TmLuPa2Ge6Os7
_chemical_formula_sum   'Tm1 Lu1 Pa2 Ge6 Os7'
_cell_volume   292.47700728
_cell_formula_units_Z   1
loop_
 _symmetry_equiv_pos_site_id
 _symmetry_equiv_pos_as_xyz
  1  'x, y, z'
loop_
 _atom_site_type_symbol
 _atom_site_label
 _atom_site_symmetry_multiplicity
 _atom_site_fract_x
 _atom_site_fract_y
 _atom_site_fract_z
 _atom_site_occupancy
  Tm  Tm0  1  0.000000  0.500000  0.000000  1
  Lu  Lu1  1  0.000000  0.000000  0.500000  1
  Pa  Pa2  1  0.500000  0.000000  0.000000  1
  Pa  Pa3  1  0.500000  0.500000  0.500000  1
  Ge  Ge4  1  0.695490  0.690082  0.005756  1
  Ge  Ge5  1  0.304510  0.994592  0.310266  1
  Ge  Ge6  1  0.000000  0.310447  0.310730  1
  Ge  Ge7  1  0.304510  0.309918  0.994244  1
  Ge  Ge8  1  0.695490  0.005408  0.689734  1
  Ge  Ge9  1  0.000000  0.689553  0.689270  1
  Os  Os10  1  0.746408  0.249283  0.496279  1
  Os  Os11  1  0.746408  0.497127  0.250131  1
  Os  Os12  1  0.499134  0.249567  0.749567  1
  Os  Os13  1  0.253592  0.502873  0.749869  1
  Os  Os14  1  0.253592  0.750717  0.503721  1
  Os  Os15  1  0.500866  0.750433  0.250433  1
  Os  Os16  1  0.000000  0.000000  0.000000  1
