# generated using pymatgen
data_Yb12Tm8Si15Hg
_symmetry_space_group_name_H-M   'P 1'
_cell_length_a   7.39443279
_cell_length_b   7.77475436
_cell_length_c   15.08840092
_cell_angle_alpha   89.22935916
_cell_angle_beta   90.82511416
_cell_angle_gamma   90.26780517
_symmetry_Int_Tables_number   1
_chemical_formula_structural   Yb12Tm8Si15Hg
_chemical_formula_sum   'Yb12 Tm8 Si15 Hg1'
_cell_volume   867.25353118
_cell_formula_units_Z   1
loop_
 _symmetry_equiv_pos_site_id
 _symmetry_equiv_pos_as_xyz
  1  'x, y, z'
loop_
 _atom_site_type_symbol
 _atom_site_label
 _atom_site_symmetry_multiplicity
 _atom_site_fract_x
 _atom_site_fract_y
 _atom_site_fract_z
 _atom_site_occupancy
  Yb  Yb0  1  0.986965  0.820162  0.402724  1
  Yb  Yb1  1  0.474179  0.682445  0.095382  1
  Yb  Yb2  1  0.504646  0.318951  0.595108  1
  Yb  Yb3  1  0.024360  0.183720  0.905281  1
  Yb  Yb4  1  0.023931  0.174838  0.594127  1
  Yb  Yb5  1  0.525451  0.319628  0.904728  1
  Yb  Yb6  1  0.477806  0.676260  0.404231  1
  Yb  Yb7  1  0.975037  0.816734  0.095287  1
  Yb  Yb8  1  0.347605  0.022768  0.753130  1
  Yb  Yb9  1  0.847331  0.485540  0.751336  1
  Yb  Yb10  1  0.152495  0.518667  0.250232  1
  Yb  Yb11  1  0.651016  0.976410  0.249126  1
  Tm  Tm12  1  0.317495  0.175144  0.120032  1
  Tm  Tm13  1  0.823334  0.316044  0.373056  1
  Tm  Tm14  1  0.183150  0.679094  0.880345  1
  Tm  Tm15  1  0.674013  0.833927  0.629028  1
  Tm  Tm16  1  0.322974  0.176525  0.376147  1
  Tm  Tm17  1  0.816888  0.322408  0.119983  1
  Tm  Tm18  1  0.187322  0.678520  0.621183  1
  Tm  Tm19  1  0.685127  0.826043  0.880076  1
  Si  Si20  1  0.357091  0.967495  0.962290  1
  Si  Si21  1  0.651574  0.028434  0.464532  1
  Si  Si22  1  0.142898  0.466628  0.039028  1
  Si  Si23  1  0.155783  0.457484  0.460794  1
  Si  Si24  1  0.643829  0.033756  0.038267  1
  Si  Si25  1  0.357797  0.965889  0.535987  1
  Si  Si26  1  0.857640  0.533303  0.961619  1
  Si  Si27  1  0.974672  0.882300  0.751762  1
  Si  Si28  1  0.471106  0.623300  0.754549  1
  Si  Si29  1  0.527825  0.376598  0.245962  1
  Si  Si30  1  0.027385  0.116212  0.248887  1
  Si  Si31  1  0.242645  0.398705  0.752096  1
  Si  Si32  1  0.747606  0.109487  0.751170  1
  Si  Si33  1  0.255736  0.894495  0.248695  1
  Si  Si34  1  0.754513  0.600679  0.248261  1
  Hg  Hg35  1  0.830774  0.541403  0.535556  1
