# generated using pymatgen
data_Hf2U(Co3B2)3
_symmetry_space_group_name_H-M   'P 1'
_cell_length_a   5.71297314
_cell_length_b   5.71297304
_cell_length_c   5.71297304
_cell_angle_alpha   94.51467917
_cell_angle_beta   94.51468373
_cell_angle_gamma   94.51467845
_symmetry_Int_Tables_number   1
_chemical_formula_structural   Hf2U(Co3B2)3
_chemical_formula_sum   'Hf2 U1 Co9 B6'
_cell_volume   184.62746116
_cell_formula_units_Z   1
loop_
 _symmetry_equiv_pos_site_id
 _symmetry_equiv_pos_as_xyz
  1  'x, y, z'
loop_
 _atom_site_type_symbol
 _atom_site_label
 _atom_site_symmetry_multiplicity
 _atom_site_fract_x
 _atom_site_fract_y
 _atom_site_fract_z
 _atom_site_occupancy
  Hf  Hf0  1  0.670014  0.670014  0.670014  1
  Hf  Hf1  1  0.329986  0.329986  0.329986  1
  U  U2  1  0.000000  0.000000  0.000000  1
  Co  Co3  1  0.500000  0.000000  0.000000  1
  Co  Co4  1  0.000000  0.500000  0.000000  1
  Co  Co5  1  0.000000  0.000000  0.500000  1
  Co  Co6  1  0.694420  0.197012  0.694420  1
  Co  Co7  1  0.694420  0.694420  0.197012  1
  Co  Co8  1  0.197012  0.694420  0.694420  1
  Co  Co9  1  0.305580  0.802988  0.305580  1
  Co  Co10  1  0.305580  0.305580  0.802988  1
  Co  Co11  1  0.802988  0.305580  0.305580  1
  B  B12  1  0.377955  0.000000  0.622045  1
  B  B13  1  0.622045  0.377955  0.000000  1
  B  B14  1  0.000000  0.622045  0.377955  1
  B  B15  1  0.622045  0.000000  0.377955  1
  B  B16  1  0.377955  0.622045  0.000000  1
  B  B17  1  0.000000  0.377955  0.622045  1
