# generated using pymatgen
data_Ba4Pa(BiO4)3
_symmetry_space_group_name_H-M   'P 1'
_cell_length_a   6.27475104
_cell_length_b   6.27475110
_cell_length_c   10.90582960
_cell_angle_alpha   73.60697082
_cell_angle_beta   73.60697032
_cell_angle_gamma   60.03781180
_symmetry_Int_Tables_number   1
_chemical_formula_structural   Ba4Pa(BiO4)3
_chemical_formula_sum   'Ba4 Pa1 Bi3 O12'
_cell_volume   351.68817533
_cell_formula_units_Z   1
loop_
 _symmetry_equiv_pos_site_id
 _symmetry_equiv_pos_as_xyz
  1  'x, y, z'
loop_
 _atom_site_type_symbol
 _atom_site_label
 _atom_site_symmetry_multiplicity
 _atom_site_fract_x
 _atom_site_fract_y
 _atom_site_fract_z
 _atom_site_occupancy
  Ba  Ba0  1  0.128390  0.128390  0.627837  1
  Ba  Ba1  1  0.630910  0.630910  0.112807  1
  Ba  Ba2  1  0.369090  0.369090  0.887193  1
  Ba  Ba3  1  0.871610  0.871610  0.372163  1
  Pa  Pa4  1  0.500000  0.500000  0.500000  1
  Bi  Bi5  1  0.748677  0.748677  0.749386  1
  Bi  Bi6  1  0.251323  0.251323  0.250614  1
  Bi  Bi7  1  0.000000  0.000000  0.000000  1
  O  O8  1  0.917347  0.917347  0.842940  1
  O  O9  1  0.420559  0.420559  0.339069  1
  O  O10  1  0.579441  0.579441  0.660931  1
  O  O11  1  0.082653  0.082653  0.157060  1
  O  O12  1  0.114537  0.599848  0.595599  1
  O  O13  1  0.616890  0.099956  0.100316  1
  O  O14  1  0.900044  0.383110  0.899684  1
  O  O15  1  0.400152  0.885463  0.404401  1
  O  O16  1  0.599848  0.114537  0.595599  1
  O  O17  1  0.099956  0.616890  0.100316  1
  O  O18  1  0.383110  0.900044  0.899684  1
  O  O19  1  0.885463  0.400152  0.404401  1
