# generated using pymatgen
data_Cd3Ir4PbO14
_symmetry_space_group_name_H-M   'P 1'
_cell_length_a   7.29981261
_cell_length_b   7.26113985
_cell_length_c   7.26114100
_cell_angle_alpha   59.99999932
_cell_angle_beta   60.17509410
_cell_angle_gamma   60.17509662
_symmetry_Int_Tables_number   1
_chemical_formula_structural   Cd3Ir4PbO14
_chemical_formula_sum   'Cd3 Ir4 Pb1 O14'
_cell_volume   272.86681169
_cell_formula_units_Z   1
loop_
 _symmetry_equiv_pos_site_id
 _symmetry_equiv_pos_as_xyz
  1  'x, y, z'
loop_
 _atom_site_type_symbol
 _atom_site_label
 _atom_site_symmetry_multiplicity
 _atom_site_fract_x
 _atom_site_fract_y
 _atom_site_fract_z
 _atom_site_occupancy
  Cd  Cd0  1  0.125000  0.625000  0.125000  1
  Cd  Cd1  1  0.125000  0.125000  0.625000  1
  Cd  Cd2  1  0.125000  0.125000  0.125000  1
  Ir  Ir3  1  0.125000  0.625000  0.625000  1
  Ir  Ir4  1  0.625000  0.125000  0.625000  1
  Ir  Ir5  1  0.625000  0.625000  0.125000  1
  Ir  Ir6  1  0.625000  0.625000  0.625000  1
  Pb  Pb7  1  0.625000  0.125000  0.125000  1
  O  O8  1  0.694085  0.709579  0.298168  1
  O  O9  1  0.304723  0.301466  0.696905  1
  O  O10  1  0.694085  0.298168  0.709579  1
  O  O11  1  0.304723  0.696905  0.301466  1
  O  O12  1  0.304723  0.696905  0.696905  1
  O  O13  1  0.694085  0.298168  0.298168  1
  O  O14  1  0.555915  0.540421  0.951832  1
  O  O15  1  0.945277  0.948534  0.553095  1
  O  O16  1  0.555915  0.951832  0.540421  1
  O  O17  1  0.945277  0.553095  0.948534  1
  O  O18  1  0.945277  0.553095  0.553095  1
  O  O19  1  0.555915  0.951832  0.951832  1
  O  O20  1  0.238535  0.253822  0.253822  1
  O  O21  1  0.011465  0.996178  0.996178  1
