# generated using pymatgen
data_Y4Lu12CdCo4Ag3
_symmetry_space_group_name_H-M   'P 1'
_cell_length_a   9.31170344
_cell_length_b   9.30086760
_cell_length_c   9.30086724
_cell_angle_alpha   60.05281280
_cell_angle_beta   59.96202401
_cell_angle_gamma   59.96201635
_symmetry_Int_Tables_number   1
_chemical_formula_structural   Y4Lu12CdCo4Ag3
_chemical_formula_sum   'Y4 Lu12 Cd1 Co4 Ag3'
_cell_volume   569.48768348
_cell_formula_units_Z   1
loop_
 _symmetry_equiv_pos_site_id
 _symmetry_equiv_pos_as_xyz
  1  'x, y, z'
loop_
 _atom_site_type_symbol
 _atom_site_label
 _atom_site_symmetry_multiplicity
 _atom_site_fract_x
 _atom_site_fract_y
 _atom_site_fract_z
 _atom_site_occupancy
  Y  Y0  1  0.562706  0.937191  0.562930  1
  Y  Y1  1  0.936316  0.562607  0.937484  1
  Y  Y2  1  0.562706  0.562930  0.937191  1
  Y  Y3  1  0.936316  0.937484  0.562607  1
  Lu  Lu4  1  0.348223  0.345990  0.345990  1
  Lu  Lu5  1  0.345181  0.347819  0.961306  1
  Lu  Lu6  1  0.345181  0.961306  0.347819  1
  Lu  Lu7  1  0.955155  0.347103  0.347103  1
  Lu  Lu8  1  0.813194  0.186316  0.186316  1
  Lu  Lu9  1  0.185195  0.814627  0.814627  1
  Lu  Lu10  1  0.186867  0.813135  0.187185  1
  Lu  Lu11  1  0.811495  0.187696  0.812357  1
  Lu  Lu12  1  0.186867  0.187185  0.813135  1
  Lu  Lu13  1  0.811495  0.812357  0.187696  1
  Lu  Lu14  1  0.941245  0.556582  0.556582  1
  Lu  Lu15  1  0.557476  0.942456  0.942456  1
  Cd  Cd16  1  0.268920  0.577021  0.577021  1
  Co  Co17  1  0.142850  0.140536  0.140536  1
  Co  Co18  1  0.137853  0.147180  0.575453  1
  Co  Co19  1  0.137853  0.575453  0.147180  1
  Co  Co20  1  0.575164  0.139730  0.139730  1
  Ag  Ag21  1  0.585996  0.580108  0.580108  1
  Ag  Ag22  1  0.582874  0.583758  0.253433  1
  Ag  Ag23  1  0.582874  0.253433  0.583758  1
