# generated using pymatgen
data_Dy3LuGa12Fe
_symmetry_space_group_name_H-M   'P 1'
_cell_length_a   7.36838784
_cell_length_b   7.41480617
_cell_length_c   7.36838729
_cell_angle_alpha   109.59888886
_cell_angle_beta   109.34324929
_cell_angle_gamma   109.59889105
_symmetry_Int_Tables_number   1
_chemical_formula_structural   Dy3LuGa12Fe
_chemical_formula_sum   'Dy3 Lu1 Ga12 Fe1'
_cell_volume   309.41127302
_cell_formula_units_Z   1
loop_
 _symmetry_equiv_pos_site_id
 _symmetry_equiv_pos_as_xyz
  1  'x, y, z'
loop_
 _atom_site_type_symbol
 _atom_site_label
 _atom_site_symmetry_multiplicity
 _atom_site_fract_x
 _atom_site_fract_y
 _atom_site_fract_z
 _atom_site_occupancy
  Dy  Dy0  1  0.000000  0.000000  0.500000  1
  Dy  Dy1  1  0.500000  0.000000  0.000000  1
  Dy  Dy2  1  0.500000  0.500000  0.500000  1
  Lu  Lu3  1  0.000000  0.500000  0.000000  1
  Ga  Ga4  1  0.750827  0.250827  0.501655  1
  Ga  Ga5  1  0.750827  0.500000  0.249173  1
  Ga  Ga6  1  0.501655  0.250827  0.750827  1
  Ga  Ga7  1  0.249173  0.500000  0.750827  1
  Ga  Ga8  1  0.249173  0.749173  0.498345  1
  Ga  Ga9  1  0.498345  0.749173  0.249173  1
  Ga  Ga10  1  0.716238  0.715052  0.000000  1
  Ga  Ga11  1  0.283762  0.998814  0.283762  1
  Ga  Ga12  1  0.000000  0.284948  0.283762  1
  Ga  Ga13  1  0.283762  0.284948  0.000000  1
  Ga  Ga14  1  0.716238  0.001186  0.716238  1
  Ga  Ga15  1  0.000000  0.715052  0.716238  1
  Fe  Fe16  1  0.000000  0.000000  0.000000  1
