# generated using pymatgen
data_Lu11ThFe3Ru
_symmetry_space_group_name_H-M   'P 1'
_cell_length_a   6.15235210
_cell_length_b   7.00321148
_cell_length_c   8.97420000
_cell_angle_alpha   90.00000000
_cell_angle_beta   90.00000000
_cell_angle_gamma   90.75012513
_symmetry_Int_Tables_number   1
_chemical_formula_structural   Lu11ThFe3Ru
_chemical_formula_sum   'Lu11 Th1 Fe3 Ru1'
_cell_volume   386.63124385
_cell_formula_units_Z   1
loop_
 _symmetry_equiv_pos_site_id
 _symmetry_equiv_pos_as_xyz
  1  'x, y, z'
loop_
 _atom_site_type_symbol
 _atom_site_label
 _atom_site_symmetry_multiplicity
 _atom_site_fract_x
 _atom_site_fract_y
 _atom_site_fract_z
 _atom_site_occupancy
  Lu  Lu0  1  0.329700  0.675905  0.065143  1
  Lu  Lu1  1  0.172853  0.174745  0.433876  1
  Lu  Lu2  1  0.672212  0.317528  0.565992  1
  Lu  Lu3  1  0.830036  0.831620  0.932879  1
  Lu  Lu4  1  0.672212  0.317528  0.934008  1
  Lu  Lu5  1  0.830036  0.831620  0.567121  1
  Lu  Lu6  1  0.329700  0.675905  0.434857  1
  Lu  Lu7  1  0.172853  0.174745  0.066124  1
  Lu  Lu8  1  0.634641  0.044653  0.250000  1
  Lu  Lu9  1  0.127711  0.455207  0.750000  1
  Lu  Lu10  1  0.360033  0.958761  0.750000  1
  Th  Th11  1  0.854502  0.554437  0.250000  1
  Fe  Fe12  1  0.027497  0.870573  0.250000  1
  Fe  Fe13  1  0.484651  0.391081  0.250000  1
  Fe  Fe14  1  0.965828  0.114285  0.750000  1
  Ru  Ru15  1  0.535535  0.611405  0.750000  1
