# generated using pymatgen
data_Ti2Ag(AsO4)3
_symmetry_space_group_name_H-M   'P 1'
_cell_length_a   9.21189290
_cell_length_b   9.21189320
_cell_length_c   9.21189428
_cell_angle_alpha   58.61200486
_cell_angle_beta   58.61200367
_cell_angle_gamma   58.61201184
_symmetry_Int_Tables_number   1
_chemical_formula_structural   Ti2Ag(AsO4)3
_chemical_formula_sum   'Ti4 Ag2 As6 O24'
_cell_volume   535.21407745
_cell_formula_units_Z   2
loop_
 _symmetry_equiv_pos_site_id
 _symmetry_equiv_pos_as_xyz
  1  'x, y, z'
loop_
 _atom_site_type_symbol
 _atom_site_label
 _atom_site_symmetry_multiplicity
 _atom_site_fract_x
 _atom_site_fract_y
 _atom_site_fract_z
 _atom_site_occupancy
  Ti  Ti0  1  0.355814  0.355814  0.355814  1
  Ti  Ti1  1  0.855814  0.855814  0.855814  1
  Ti  Ti2  1  0.644186  0.644186  0.644186  1
  Ti  Ti3  1  0.144186  0.144186  0.144186  1
  Ag  Ag4  1  0.500000  0.500000  0.500000  1
  Ag  Ag5  1  0.000000  0.000000  0.000000  1
  As  As6  1  0.964069  0.535931  0.250000  1
  As  As7  1  0.250000  0.964069  0.535931  1
  As  As8  1  0.535931  0.250000  0.964069  1
  As  As9  1  0.750000  0.035931  0.464069  1
  As  As10  1  0.464069  0.750000  0.035931  1
  As  As11  1  0.035931  0.464069  0.750000  1
  O  O12  1  0.145888  0.502792  0.285439  1
  O  O13  1  0.285439  0.145888  0.502792  1
  O  O14  1  0.502792  0.285439  0.145888  1
  O  O15  1  0.785439  0.002792  0.645888  1
  O  O16  1  0.645888  0.785439  0.002792  1
  O  O17  1  0.002792  0.645888  0.785439  1
  O  O18  1  0.854112  0.497208  0.714561  1
  O  O19  1  0.714561  0.854112  0.497208  1
  O  O20  1  0.497208  0.714561  0.854112  1
  O  O21  1  0.214561  0.997208  0.354112  1
  O  O22  1  0.354112  0.214561  0.997208  1
  O  O23  1  0.997208  0.354112  0.214561  1
  O  O24  1  0.229703  0.442227  0.567116  1
  O  O25  1  0.567116  0.229703  0.442227  1
  O  O26  1  0.442227  0.567116  0.229703  1
  O  O27  1  0.067116  0.942227  0.729703  1
  O  O28  1  0.729703  0.067116  0.942227  1
  O  O29  1  0.942227  0.729703  0.067116  1
  O  O30  1  0.770297  0.557773  0.432884  1
  O  O31  1  0.432884  0.770297  0.557773  1
  O  O32  1  0.557773  0.432884  0.770297  1
  O  O33  1  0.932884  0.057773  0.270297  1
  O  O34  1  0.270297  0.932884  0.057773  1
  O  O35  1  0.057773  0.270297  0.932884  1
