# generated using pymatgen
data_Pr3In3CuNi2
_symmetry_space_group_name_H-M   'P 1'
_cell_length_a   7.59418300
_cell_length_b   7.59418204
_cell_length_c   4.06422800
_cell_angle_alpha   90.00000000
_cell_angle_beta   90.00000000
_cell_angle_gamma   120.00000854
_symmetry_Int_Tables_number   1
_chemical_formula_structural   Pr3In3CuNi2
_chemical_formula_sum   'Pr3 In3 Cu1 Ni2'
_cell_volume   202.98816586
_cell_formula_units_Z   1
loop_
 _symmetry_equiv_pos_site_id
 _symmetry_equiv_pos_as_xyz
  1  'x, y, z'
loop_
 _atom_site_type_symbol
 _atom_site_label
 _atom_site_symmetry_multiplicity
 _atom_site_fract_x
 _atom_site_fract_y
 _atom_site_fract_z
 _atom_site_occupancy
  Pr  Pr0  1  0.416091  0.416091  0.500000  1
  Pr  Pr1  1  0.583909  0.000000  0.500000  1
  Pr  Pr2  1  0.000000  0.583909  0.500000  1
  In  In3  1  0.750841  0.750841  0.000000  1
  In  In4  1  0.249159  0.000000  0.000000  1
  In  In5  1  0.000000  0.249159  0.000000  1
  Cu  Cu6  1  0.000000  0.000000  0.500000  1
  Ni  Ni7  1  0.666667  0.333333  0.000000  1
  Ni  Ni8  1  0.333333  0.666667  0.000000  1
