# generated using pymatgen
data_Ba4H12PdAu
_symmetry_space_group_name_H-M   'P 1'
_cell_length_a   8.05977537
_cell_length_b   8.05977645
_cell_length_c   6.10347500
_cell_angle_alpha   89.98261174
_cell_angle_beta   89.98259752
_cell_angle_gamma   135.54286583
_symmetry_Int_Tables_number   1
_chemical_formula_structural   Ba4H12PdAu
_chemical_formula_sum   'Ba4 H12 Pd1 Au1'
_cell_volume   277.68593238
_cell_formula_units_Z   1
loop_
 _symmetry_equiv_pos_site_id
 _symmetry_equiv_pos_as_xyz
  1  'x, y, z'
loop_
 _atom_site_type_symbol
 _atom_site_label
 _atom_site_symmetry_multiplicity
 _atom_site_fract_x
 _atom_site_fract_y
 _atom_site_fract_z
 _atom_site_occupancy
  Ba  Ba0  1  0.357800  0.642200  0.000000  1
  Ba  Ba1  1  0.856501  0.143499  0.500000  1
  Ba  Ba2  1  0.642200  0.357800  0.000000  1
  Ba  Ba3  1  0.143499  0.856501  0.500000  1
  H  H4  1  0.000064  0.500483  0.246606  1
  H  H5  1  0.499517  0.999936  0.753394  1
  H  H6  1  0.999936  0.499517  0.753394  1
  H  H7  1  0.500483  0.000064  0.246606  1
  H  H8  1  0.112456  0.887544  0.000000  1
  H  H9  1  0.612403  0.387597  0.500000  1
  H  H10  1  0.887544  0.112456  0.000000  1
  H  H11  1  0.387597  0.612403  0.500000  1
  H  H12  1  0.702682  0.702682  0.297502  1
  H  H13  1  0.297318  0.297318  0.702498  1
  H  H14  1  0.702708  0.702708  0.702207  1
  H  H15  1  0.297292  0.297292  0.297793  1
  Pd  Pd16  1  0.500000  0.500000  0.500000  1
  Au  Au17  1  0.000000  0.000000  0.000000  1
