# generated using pymatgen
data_Dy2LuSc2Sn3
_symmetry_space_group_name_H-M   'P 1'
_cell_length_a   8.74602305
_cell_length_b   8.77704029
_cell_length_c   6.25989800
_cell_angle_alpha   90.00000000
_cell_angle_beta   90.00000000
_cell_angle_gamma   120.11738697
_symmetry_Int_Tables_number   1
_chemical_formula_structural   Dy2LuSc2Sn3
_chemical_formula_sum   'Dy4 Lu2 Sc4 Sn6'
_cell_volume   415.66328773
_cell_formula_units_Z   2
loop_
 _symmetry_equiv_pos_site_id
 _symmetry_equiv_pos_as_xyz
  1  'x, y, z'
loop_
 _atom_site_type_symbol
 _atom_site_label
 _atom_site_symmetry_multiplicity
 _atom_site_fract_x
 _atom_site_fract_y
 _atom_site_fract_z
 _atom_site_occupancy
  Dy  Dy0  1  0.763453  0.762514  0.250000  1
  Dy  Dy1  1  0.763453  0.000939  0.750000  1
  Dy  Dy2  1  0.236547  0.237486  0.750000  1
  Dy  Dy3  1  0.236547  0.999061  0.250000  1
  Lu  Lu4  1  0.000000  0.758632  0.750000  1
  Lu  Lu5  1  0.000000  0.241368  0.250000  1
  Sc  Sc6  1  0.334857  0.667428  0.500000  1
  Sc  Sc7  1  0.665143  0.332572  0.000000  1
  Sc  Sc8  1  0.665143  0.332572  0.500000  1
  Sc  Sc9  1  0.334857  0.667428  0.000000  1
  Sn  Sn10  1  0.397673  0.997962  0.750000  1
  Sn  Sn11  1  0.397673  0.399711  0.250000  1
  Sn  Sn12  1  0.000000  0.598033  0.250000  1
  Sn  Sn13  1  0.000000  0.401967  0.750000  1
  Sn  Sn14  1  0.602327  0.600289  0.750000  1
  Sn  Sn15  1  0.602327  0.002038  0.250000  1
