# generated using pymatgen
data_La8Al2OsRu
_symmetry_space_group_name_H-M   'P 1'
_cell_length_a   9.96901787
_cell_length_b   9.96901781
_cell_length_c   10.00607500
_cell_angle_alpha   59.87695513
_cell_angle_beta   59.87695532
_cell_angle_gamma   59.72311214
_symmetry_Int_Tables_number   1
_chemical_formula_structural   La8Al2OsRu
_chemical_formula_sum   'La16 Al4 Os2 Ru2'
_cell_volume   700.37335943
_cell_formula_units_Z   2
loop_
 _symmetry_equiv_pos_site_id
 _symmetry_equiv_pos_as_xyz
  1  'x, y, z'
loop_
 _atom_site_type_symbol
 _atom_site_label
 _atom_site_symmetry_multiplicity
 _atom_site_fract_x
 _atom_site_fract_y
 _atom_site_fract_z
 _atom_site_occupancy
  La  La0  1  0.901722  0.901722  0.902237  1
  La  La1  1  0.443690  0.443690  0.056310  1
  La  La2  1  0.055845  0.055845  0.444155  1
  La  La3  1  0.445043  0.057011  0.055134  1
  La  La4  1  0.309400  0.692259  0.308670  1
  La  La5  1  0.688512  0.688512  0.311488  1
  La  La6  1  0.692259  0.309400  0.308670  1
  La  La7  1  0.295402  0.901273  0.901663  1
  La  La8  1  0.901273  0.295402  0.901663  1
  La  La9  1  0.309400  0.692259  0.689671  1
  La  La10  1  0.901722  0.901722  0.294320  1
  La  La11  1  0.057011  0.445043  0.055134  1
  La  La12  1  0.306759  0.306759  0.693241  1
  La  La13  1  0.057011  0.445043  0.442812  1
  La  La14  1  0.445043  0.057011  0.442812  1
  La  La15  1  0.692259  0.309400  0.689671  1
  Al  Al16  1  0.676349  0.676349  0.972021  1
  Al  Al17  1  0.971588  0.676729  0.675840  1
  Al  Al18  1  0.676729  0.971588  0.675840  1
  Al  Al19  1  0.676349  0.676349  0.675279  1
  Os  Os20  1  0.111727  0.111727  0.664360  1
  Os  Os21  1  0.111727  0.111727  0.112184  1
  Ru  Ru22  1  0.113432  0.659745  0.113411  1
  Ru  Ru23  1  0.659745  0.113432  0.113411  1
