# generated using pymatgen
data_Gd5LuOsO12
_symmetry_space_group_name_H-M   'P 1'
_cell_length_a   6.48602485
_cell_length_b   6.52651494
_cell_length_c   6.58811260
_cell_angle_alpha   99.01684475
_cell_angle_beta   98.31658602
_cell_angle_gamma   98.69222840
_symmetry_Int_Tables_number   1
_chemical_formula_structural   Gd5LuOsO12
_chemical_formula_sum   'Gd5 Lu1 Os1 O12'
_cell_volume   268.19499846
_cell_formula_units_Z   1
loop_
 _symmetry_equiv_pos_site_id
 _symmetry_equiv_pos_as_xyz
  1  'x, y, z'
loop_
 _atom_site_type_symbol
 _atom_site_label
 _atom_site_symmetry_multiplicity
 _atom_site_fract_x
 _atom_site_fract_y
 _atom_site_fract_z
 _atom_site_occupancy
  Gd  Gd0  1  0.613369  0.309359  0.140341  1
  Gd  Gd1  1  0.306998  0.142076  0.607850  1
  Gd  Gd2  1  0.696511  0.860225  0.394600  1
  Gd  Gd3  1  0.389743  0.687287  0.858576  1
  Gd  Gd4  1  0.146454  0.608806  0.319105  1
  Lu  Lu5  1  0.849409  0.389296  0.675548  1
  Os  Os6  1  0.998446  0.999057  0.997161  1
  O  O7  1  0.927454  0.051435  0.704472  1
  O  O8  1  0.973847  0.291428  0.078258  1
  O  O9  1  0.595136  0.180583  0.435282  1
  O  O10  1  0.821277  0.560894  0.414798  1
  O  O11  1  0.293342  0.069521  0.963932  1
  O  O12  1  0.574300  0.410247  0.820541  1
  O  O13  1  0.435955  0.589798  0.176089  1
  O  O14  1  0.705558  0.931119  0.035181  1
  O  O15  1  0.170690  0.435696  0.600365  1
  O  O16  1  0.411778  0.821709  0.569035  1
  O  O17  1  0.018461  0.706095  0.914706  1
  O  O18  1  0.071271  0.955369  0.294161  1
