# generated using pymatgen
data_NaCrNi4P3
_symmetry_space_group_name_H-M   'P 1'
_cell_length_a   3.63484300
_cell_length_b   10.41317700
_cell_length_c   11.92869700
_cell_angle_alpha   90.00000000
_cell_angle_beta   90.00000000
_cell_angle_gamma   90.00000000
_symmetry_Int_Tables_number   1
_chemical_formula_structural   NaCrNi4P3
_chemical_formula_sum   'Na4 Cr4 Ni16 P12'
_cell_volume   451.50432497
_cell_formula_units_Z   4
loop_
 _symmetry_equiv_pos_site_id
 _symmetry_equiv_pos_as_xyz
  1  'x, y, z'
loop_
 _atom_site_type_symbol
 _atom_site_label
 _atom_site_symmetry_multiplicity
 _atom_site_fract_x
 _atom_site_fract_y
 _atom_site_fract_z
 _atom_site_occupancy
  Na  Na0  1  0.250000  0.582766  0.705309  1
  Na  Na1  1  0.250000  0.917234  0.205309  1
  Na  Na2  1  0.750000  0.417234  0.294691  1
  Na  Na3  1  0.750000  0.082766  0.794691  1
  Cr  Cr4  1  0.250000  0.711195  0.989413  1
  Cr  Cr5  1  0.250000  0.788805  0.489413  1
  Cr  Cr6  1  0.750000  0.288805  0.010587  1
  Cr  Cr7  1  0.750000  0.211195  0.510587  1
  Ni  Ni8  1  0.250000  0.409113  0.488436  1
  Ni  Ni9  1  0.250000  0.090887  0.988436  1
  Ni  Ni10  1  0.750000  0.590887  0.511564  1
  Ni  Ni11  1  0.750000  0.909113  0.011564  1
  Ni  Ni12  1  0.250000  0.218929  0.177919  1
  Ni  Ni13  1  0.250000  0.281071  0.677919  1
  Ni  Ni14  1  0.750000  0.781071  0.822081  1
  Ni  Ni15  1  0.750000  0.718929  0.322081  1
  Ni  Ni16  1  0.250000  0.883494  0.701548  1
  Ni  Ni17  1  0.250000  0.616506  0.201548  1
  Ni  Ni18  1  0.750000  0.116506  0.298452  1
  Ni  Ni19  1  0.750000  0.383494  0.798452  1
  Ni  Ni20  1  0.250000  0.466940  0.929401  1
  Ni  Ni21  1  0.250000  0.033060  0.429401  1
  Ni  Ni22  1  0.750000  0.533060  0.070599  1
  Ni  Ni23  1  0.750000  0.966940  0.570599  1
  P  P24  1  0.250000  0.415632  0.111721  1
  P  P25  1  0.250000  0.084368  0.611721  1
  P  P26  1  0.750000  0.584368  0.888279  1
  P  P27  1  0.750000  0.915632  0.388279  1
  P  P28  1  0.250000  0.266877  0.870220  1
  P  P29  1  0.250000  0.233123  0.370220  1
  P  P30  1  0.750000  0.733123  0.129780  1
  P  P31  1  0.750000  0.766877  0.629780  1
  P  P32  1  0.250000  0.599546  0.391007  1
  P  P33  1  0.250000  0.900454  0.891007  1
  P  P34  1  0.750000  0.400454  0.608993  1
  P  P35  1  0.750000  0.099546  0.108993  1
