# generated using pymatgen
data_Rb2TbV(SiO3)4
_symmetry_space_group_name_H-M   'P 1'
_cell_length_a   7.37656262
_cell_length_b   14.11918286
_cell_length_c   14.18945200
_cell_angle_alpha   64.28678558
_cell_angle_beta   74.93401835
_cell_angle_gamma   74.85724806
_symmetry_Int_Tables_number   1
_chemical_formula_structural   Rb2TbV(SiO3)4
_chemical_formula_sum   'Rb8 Tb4 V4 Si16 O48'
_cell_volume   1266.88260627
_cell_formula_units_Z   4
loop_
 _symmetry_equiv_pos_site_id
 _symmetry_equiv_pos_as_xyz
  1  'x, y, z'
loop_
 _atom_site_type_symbol
 _atom_site_label
 _atom_site_symmetry_multiplicity
 _atom_site_fract_x
 _atom_site_fract_y
 _atom_site_fract_z
 _atom_site_occupancy
  Rb  Rb0  1  0.798755  0.379480  0.050255  1
  Rb  Rb1  1  0.814209  0.415304  0.466270  1
  Rb  Rb2  1  0.271509  0.879480  0.550255  1
  Rb  Rb3  1  0.728491  0.120520  0.449745  1
  Rb  Rb4  1  0.804218  0.915304  0.966270  1
  Rb  Rb5  1  0.185791  0.584696  0.533730  1
  Rb  Rb6  1  0.195782  0.084696  0.033730  1
  Rb  Rb7  1  0.201245  0.620520  0.949745  1
  Tb  Tb8  1  0.448093  0.789124  0.249863  1
  Tb  Tb9  1  0.551907  0.210876  0.750137  1
  Tb  Tb10  1  0.012920  0.289124  0.749863  1
  Tb  Tb11  1  0.987080  0.710876  0.250137  1
  V  V12  1  0.137109  0.410090  0.224751  1
  V  V13  1  0.862891  0.589910  0.775249  1
  V  V14  1  0.271950  0.089910  0.275249  1
  V  V15  1  0.728050  0.910090  0.724751  1
  Si  Si16  1  0.698158  0.171419  0.988949  1
  Si  Si17  1  0.301842  0.828581  0.011051  1
  Si  Si18  1  0.977478  0.922295  0.334570  1
  Si  Si19  1  0.734343  0.577705  0.165430  1
  Si  Si20  1  0.022522  0.077705  0.665430  1
  Si  Si21  1  0.787580  0.801019  0.571178  1
  Si  Si22  1  0.687396  0.968535  0.200659  1
  Si  Si23  1  0.643411  0.468535  0.700659  1
  Si  Si24  1  0.659776  0.698981  0.928822  1
  Si  Si25  1  0.212420  0.198981  0.428822  1
  Si  Si26  1  0.641475  0.671419  0.488949  1
  Si  Si27  1  0.265657  0.422295  0.834570  1
  Si  Si28  1  0.340224  0.301019  0.071178  1
  Si  Si29  1  0.356589  0.531465  0.299341  1
  Si  Si30  1  0.312604  0.031465  0.799341  1
  Si  Si31  1  0.358525  0.328581  0.511051  1
  O  O32  1  0.563171  0.243091  0.058283  1
  O  O33  1  0.924494  0.715710  0.656080  1
  O  O34  1  0.768381  0.976414  0.294112  1
  O  O35  1  0.661011  0.895688  0.609832  1
  O  O36  1  0.413263  0.444918  0.415086  1
  O  O37  1  0.165825  0.513716  0.273739  1
  O  O38  1  0.532050  0.270551  0.577281  1
  O  O39  1  0.425787  0.849426  0.076501  1
  O  O40  1  0.231619  0.023586  0.705888  1
  O  O41  1  0.666531  0.604312  0.890168  1
  O  O42  1  0.148287  0.349426  0.576501  1
  O  O43  1  0.075506  0.284290  0.343920  1
  O  O44  1  0.364545  0.256909  0.441717  1
  O  O45  1  0.834175  0.486284  0.726261  1
  O  O46  1  0.203716  0.215710  0.156080  1
  O  O47  1  0.226735  0.944918  0.915086  1
  O  O48  1  0.879881  0.229449  0.922719  1
  O  O49  1  0.851713  0.650574  0.423499  1
  O  O50  1  0.942307  0.979567  0.667593  1
  O  O51  1  0.773265  0.055082  0.084914  1
  O  O52  1  0.546720  0.013716  0.773739  1
  O  O53  1  0.112676  0.852596  0.269448  1
  O  O54  1  0.704846  0.349372  0.701355  1
  O  O55  1  0.910532  0.479567  0.167593  1
  O  O56  1  0.467950  0.729449  0.422719  1
  O  O57  1  0.745804  0.653079  0.038056  1
  O  O58  1  0.734720  0.647404  0.230552  1
  O  O59  1  0.333469  0.395688  0.109832  1
  O  O60  1  0.461093  0.476414  0.794112  1
  O  O61  1  0.255573  0.150628  0.798645  1
  O  O62  1  0.887324  0.147404  0.730552  1
  O  O63  1  0.436829  0.756909  0.941717  1
  O  O64  1  0.936939  0.846921  0.461944  1
  O  O65  1  0.635455  0.743091  0.558283  1
  O  O66  1  0.744427  0.849372  0.201355  1
  O  O67  1  0.574213  0.150574  0.923499  1
  O  O68  1  0.586737  0.555082  0.584914  1
  O  O69  1  0.338989  0.104312  0.390168  1
  O  O70  1  0.254196  0.346921  0.961944  1
  O  O71  1  0.057693  0.020433  0.332407  1
  O  O72  1  0.089468  0.520433  0.832407  1
  O  O73  1  0.265280  0.352596  0.769448  1
  O  O74  1  0.538907  0.523586  0.205888  1
  O  O75  1  0.120119  0.770551  0.077281  1
  O  O76  1  0.453280  0.986284  0.226261  1
  O  O77  1  0.063061  0.153079  0.538056  1
  O  O78  1  0.295154  0.650628  0.298645  1
  O  O79  1  0.796284  0.784290  0.843920  1
