# generated using pymatgen
data_ScPa3(CoGe)4
_symmetry_space_group_name_H-M   'P 1'
_cell_length_a   4.20674500
_cell_length_b   6.75482452
_cell_length_c   7.20032887
_cell_angle_alpha   90.24059896
_cell_angle_beta   90.00000000
_cell_angle_gamma   90.00000000
_symmetry_Int_Tables_number   1
_chemical_formula_structural   ScPa3(CoGe)4
_chemical_formula_sum   'Sc1 Pa3 Co4 Ge4'
_cell_volume   204.60147592
_cell_formula_units_Z   1
loop_
 _symmetry_equiv_pos_site_id
 _symmetry_equiv_pos_as_xyz
  1  'x, y, z'
loop_
 _atom_site_type_symbol
 _atom_site_label
 _atom_site_symmetry_multiplicity
 _atom_site_fract_x
 _atom_site_fract_y
 _atom_site_fract_z
 _atom_site_occupancy
  Sc  Sc0  1  0.750000  0.514396  0.794035  1
  Pa  Pa1  1  0.250000  0.989496  0.298383  1
  Pa  Pa2  1  0.250000  0.489320  0.204596  1
  Pa  Pa3  1  0.750000  0.013170  0.701978  1
  Co  Co4  1  0.250000  0.205160  0.918636  1
  Co  Co5  1  0.250000  0.725261  0.575256  1
  Co  Co6  1  0.750000  0.778706  0.083962  1
  Co  Co7  1  0.750000  0.280282  0.416131  1
  Ge  Ge8  1  0.250000  0.323597  0.598656  1
  Ge  Ge9  1  0.250000  0.800096  0.908113  1
  Ge  Ge10  1  0.750000  0.684365  0.421135  1
  Ge  Ge11  1  0.750000  0.196151  0.079119  1
