# generated using pymatgen
data_V3Ir(SeO3)8
_symmetry_space_group_name_H-M   'P 1'
_cell_length_a   8.10935076
_cell_length_b   8.10935069
_cell_length_c   8.10935219
_cell_angle_alpha   89.50603482
_cell_angle_beta   90.49397019
_cell_angle_gamma   90.49396873
_symmetry_Int_Tables_number   1
_chemical_formula_structural   V3Ir(SeO3)8
_chemical_formula_sum   'V3 Ir1 Se8 O24'
_cell_volume   533.22460816
_cell_formula_units_Z   1
loop_
 _symmetry_equiv_pos_site_id
 _symmetry_equiv_pos_as_xyz
  1  'x, y, z'
loop_
 _atom_site_type_symbol
 _atom_site_label
 _atom_site_symmetry_multiplicity
 _atom_site_fract_x
 _atom_site_fract_y
 _atom_site_fract_z
 _atom_site_occupancy
  V  V0  1  0.500000  0.500000  0.500000  1
  V  V1  1  0.500000  0.000000  0.000000  1
  V  V2  1  0.000000  0.500000  0.000000  1
  Ir  Ir3  1  0.000000  0.000000  0.500000  1
  Se  Se4  1  0.836095  0.679921  0.319917  1
  Se  Se5  1  0.180083  0.163905  0.179921  1
  Se  Se6  1  0.674886  0.325114  0.825114  1
  Se  Se7  1  0.320079  0.819917  0.663905  1
  Se  Se8  1  0.163905  0.320079  0.680083  1
  Se  Se9  1  0.819917  0.836095  0.820079  1
  Se  Se10  1  0.325114  0.674886  0.174886  1
  Se  Se11  1  0.679921  0.180083  0.336095  1
  O  O12  1  0.730818  0.538790  0.440850  1
  O  O13  1  0.264372  0.023266  0.043614  1
  O  O14  1  0.767327  0.431266  0.988011  1
  O  O15  1  0.244449  0.974100  0.528406  1
  O  O16  1  0.456386  0.735628  0.523266  1
  O  O17  1  0.059150  0.269182  0.038790  1
  O  O18  1  0.971594  0.755551  0.474100  1
  O  O19  1  0.511989  0.232673  0.931266  1
  O  O20  1  0.568734  0.488011  0.732673  1
  O  O21  1  0.025900  0.028406  0.255551  1
  O  O22  1  0.461210  0.940850  0.769182  1
  O  O23  1  0.976734  0.543614  0.235628  1
  O  O24  1  0.269182  0.461210  0.559150  1
  O  O25  1  0.735628  0.976734  0.956386  1
  O  O26  1  0.232673  0.568734  0.011989  1
  O  O27  1  0.755551  0.025900  0.471594  1
  O  O28  1  0.543614  0.264372  0.476734  1
  O  O29  1  0.940850  0.730818  0.961210  1
  O  O30  1  0.028406  0.244449  0.525900  1
  O  O31  1  0.488011  0.767327  0.068734  1
  O  O32  1  0.431266  0.511989  0.267327  1
  O  O33  1  0.974100  0.971594  0.744449  1
  O  O34  1  0.538790  0.059150  0.230818  1
  O  O35  1  0.023266  0.456386  0.764372  1
