# generated using pymatgen
data_Dy6YFeO12
_symmetry_space_group_name_H-M   'P 1'
_cell_length_a   6.63790964
_cell_length_b   6.63791116
_cell_length_c   6.63791028
_cell_angle_alpha   93.43849376
_cell_angle_beta   93.43849764
_cell_angle_gamma   93.43849876
_symmetry_Int_Tables_number   1
_chemical_formula_structural   Dy6YFeO12
_chemical_formula_sum   'Dy6 Y1 Fe1 O12'
_cell_volume   290.83272463
_cell_formula_units_Z   1
loop_
 _symmetry_equiv_pos_site_id
 _symmetry_equiv_pos_as_xyz
  1  'x, y, z'
loop_
 _atom_site_type_symbol
 _atom_site_label
 _atom_site_symmetry_multiplicity
 _atom_site_fract_x
 _atom_site_fract_y
 _atom_site_fract_z
 _atom_site_occupancy
  Dy  Dy0  1  0.738621  0.923822  0.436116  1
  Dy  Dy1  1  0.436116  0.738621  0.923822  1
  Dy  Dy2  1  0.076178  0.563884  0.261379  1
  Dy  Dy3  1  0.923822  0.436116  0.738621  1
  Dy  Dy4  1  0.563884  0.261379  0.076178  1
  Dy  Dy5  1  0.261379  0.076178  0.563884  1
  Y  Y6  1  0.000000  0.000000  0.000000  1
  Fe  Fe7  1  0.500000  0.500000  0.500000  1
  O  O8  1  0.067592  0.905463  0.319464  1
  O  O9  1  0.680536  0.932408  0.094537  1
  O  O10  1  0.462743  0.799793  0.588685  1
  O  O11  1  0.094537  0.680536  0.932408  1
  O  O12  1  0.799793  0.588685  0.462743  1
  O  O13  1  0.411315  0.537257  0.200207  1
  O  O14  1  0.588685  0.462743  0.799793  1
  O  O15  1  0.200207  0.411315  0.537257  1
  O  O16  1  0.905463  0.319464  0.067592  1
  O  O17  1  0.537257  0.200207  0.411315  1
  O  O18  1  0.319464  0.067592  0.905463  1
  O  O19  1  0.932408  0.094537  0.680536  1
