# generated using pymatgen
data_Sc10CuSb6P
_symmetry_space_group_name_H-M   'P 1'
_cell_length_a   8.60861300
_cell_length_b   8.60861264
_cell_length_c   6.01635300
_cell_angle_alpha   90.00000000
_cell_angle_beta   90.00000000
_cell_angle_gamma   119.99998985
_symmetry_Int_Tables_number   1
_chemical_formula_structural   Sc10CuSb6P
_chemical_formula_sum   'Sc10 Cu1 Sb6 P1'
_cell_volume   386.12714771
_cell_formula_units_Z   1
loop_
 _symmetry_equiv_pos_site_id
 _symmetry_equiv_pos_as_xyz
  1  'x, y, z'
loop_
 _atom_site_type_symbol
 _atom_site_label
 _atom_site_symmetry_multiplicity
 _atom_site_fract_x
 _atom_site_fract_y
 _atom_site_fract_z
 _atom_site_occupancy
  Sc  Sc0  1  0.666667  0.333333  0.000000  1
  Sc  Sc1  1  0.333333  0.666667  0.000000  1
  Sc  Sc2  1  0.333333  0.666667  0.500000  1
  Sc  Sc3  1  0.666667  0.333333  0.500000  1
  Sc  Sc4  1  0.745100  0.745100  0.742595  1
  Sc  Sc5  1  0.254900  0.000000  0.742595  1
  Sc  Sc6  1  0.000000  0.254900  0.742595  1
  Sc  Sc7  1  0.254900  0.254900  0.257405  1
  Sc  Sc8  1  0.745100  0.000000  0.257405  1
  Sc  Sc9  1  0.000000  0.745100  0.257405  1
  Cu  Cu10  1  0.000000  0.000000  0.000000  1
  Sb  Sb11  1  0.390118  0.390118  0.752753  1
  Sb  Sb12  1  0.609882  0.000000  0.752753  1
  Sb  Sb13  1  0.000000  0.609882  0.752753  1
  Sb  Sb14  1  0.609882  0.609882  0.247247  1
  Sb  Sb15  1  0.390118  0.000000  0.247247  1
  Sb  Sb16  1  0.000000  0.390118  0.247247  1
  P  P17  1  0.000000  0.000000  0.500000  1
