# generated using pymatgen
data_TmZr3(Nb3Si4)2
_symmetry_space_group_name_H-M   'P 1'
_cell_length_a   6.92874310
_cell_length_b   6.92906745
_cell_length_c   12.84809300
_cell_angle_alpha   90.00000000
_cell_angle_beta   90.00000000
_cell_angle_gamma   90.24490045
_symmetry_Int_Tables_number   1
_chemical_formula_structural   TmZr3(Nb3Si4)2
_chemical_formula_sum   'Tm2 Zr6 Nb12 Si16'
_cell_volume   616.82781963
_cell_formula_units_Z   2
loop_
 _symmetry_equiv_pos_site_id
 _symmetry_equiv_pos_as_xyz
  1  'x, y, z'
loop_
 _atom_site_type_symbol
 _atom_site_label
 _atom_site_symmetry_multiplicity
 _atom_site_fract_x
 _atom_site_fract_y
 _atom_site_fract_z
 _atom_site_occupancy
  Tm  Tm0  1  0.338462  0.997909  0.781179  1
  Tm  Tm1  1  0.661538  0.002091  0.281179  1
  Zr  Zr2  1  0.003944  0.342688  0.217167  1
  Zr  Zr3  1  0.996056  0.657312  0.717167  1
  Zr  Zr4  1  0.159630  0.502234  0.468519  1
  Zr  Zr5  1  0.498178  0.840193  0.033016  1
  Zr  Zr6  1  0.840370  0.497766  0.968519  1
  Zr  Zr7  1  0.501822  0.159807  0.533016  1
  Nb  Nb8  1  0.169515  0.170389  0.000256  1
  Nb  Nb9  1  0.830485  0.829611  0.500256  1
  Nb  Nb10  1  0.327962  0.667590  0.250408  1
  Nb  Nb11  1  0.672038  0.332410  0.750408  1
  Nb  Nb12  1  0.152131  0.993745  0.376101  1
  Nb  Nb13  1  0.847869  0.006255  0.876101  1
  Nb  Nb14  1  0.506608  0.653897  0.625377  1
  Nb  Nb15  1  0.347819  0.496937  0.874405  1
  Nb  Nb16  1  0.493392  0.346103  0.125377  1
  Nb  Nb17  1  0.652181  0.503063  0.374405  1
  Nb  Nb18  1  0.996992  0.156087  0.623202  1
  Nb  Nb19  1  0.003008  0.843913  0.123202  1
  Si  Si20  1  0.294123  0.043871  0.186807  1
  Si  Si21  1  0.705877  0.956129  0.686807  1
  Si  Si22  1  0.454922  0.797315  0.437293  1
  Si  Si23  1  0.202461  0.544442  0.062822  1
  Si  Si24  1  0.545078  0.202685  0.937293  1
  Si  Si25  1  0.797539  0.455558  0.562822  1
  Si  Si26  1  0.045169  0.299937  0.813201  1
  Si  Si27  1  0.954831  0.700063  0.313201  1
  Si  Si28  1  0.362341  0.293370  0.322430  1
  Si  Si29  1  0.637659  0.706630  0.822430  1
  Si  Si30  1  0.206050  0.864952  0.570444  1
  Si  Si31  1  0.132276  0.790442  0.929945  1
  Si  Si32  1  0.793950  0.135048  0.070444  1
  Si  Si33  1  0.867724  0.209558  0.429945  1
  Si  Si34  1  0.293225  0.368586  0.677428  1
  Si  Si35  1  0.706775  0.631414  0.177428  1
