# generated using pymatgen
data_Sc4Mn4CrOs3
_symmetry_space_group_name_H-M   'P 1'
_cell_length_a   5.12122553
_cell_length_b   4.94322735
_cell_length_c   8.48577500
_cell_angle_alpha   90.00000000
_cell_angle_beta   90.00000000
_cell_angle_gamma   120.64643197
_symmetry_Int_Tables_number   1
_chemical_formula_structural   Sc4Mn4CrOs3
_chemical_formula_sum   'Sc4 Mn4 Cr1 Os3'
_cell_volume   184.81647125
_cell_formula_units_Z   1
loop_
 _symmetry_equiv_pos_site_id
 _symmetry_equiv_pos_as_xyz
  1  'x, y, z'
loop_
 _atom_site_type_symbol
 _atom_site_label
 _atom_site_symmetry_multiplicity
 _atom_site_fract_x
 _atom_site_fract_y
 _atom_site_fract_z
 _atom_site_occupancy
  Sc  Sc0  1  0.666581  0.334575  0.685984  1
  Sc  Sc1  1  0.332689  0.668408  0.812981  1
  Sc  Sc2  1  0.332689  0.668408  0.187019  1
  Sc  Sc3  1  0.666581  0.334575  0.314016  1
  Mn  Mn4  1  0.168782  0.826746  0.500000  1
  Mn  Mn5  1  0.347889  0.181978  0.000000  1
  Mn  Mn6  1  0.823192  0.642935  0.000000  1
  Mn  Mn7  1  0.837875  0.178979  0.000000  1
  Cr  Cr8  1  0.169527  0.337359  0.500000  1
  Os  Os9  1  0.002111  0.002019  0.243438  1
  Os  Os10  1  0.002111  0.002019  0.756562  1
  Os  Os11  1  0.650531  0.821441  0.500000  1
