# generated using pymatgen
data_TbNd11CoSi8Ni3
_symmetry_space_group_name_H-M   'P 1'
_cell_length_a   4.21721200
_cell_length_b   11.60677104
_cell_length_c   11.64179997
_cell_angle_alpha   89.93876202
_cell_angle_beta   90.00000000
_cell_angle_gamma   90.00000000
_symmetry_Int_Tables_number   1
_chemical_formula_structural   TbNd11CoSi8Ni3
_chemical_formula_sum   'Tb1 Nd11 Co1 Si8 Ni3'
_cell_volume   569.84499184
_cell_formula_units_Z   1
loop_
 _symmetry_equiv_pos_site_id
 _symmetry_equiv_pos_as_xyz
  1  'x, y, z'
loop_
 _atom_site_type_symbol
 _atom_site_label
 _atom_site_symmetry_multiplicity
 _atom_site_fract_x
 _atom_site_fract_y
 _atom_site_fract_z
 _atom_site_occupancy
  Tb  Tb0  1  0.750000  0.306396  0.788096  1
  Nd  Nd1  1  0.250000  0.061064  0.881655  1
  Nd  Nd2  1  0.250000  0.441989  0.385463  1
  Nd  Nd3  1  0.750000  0.941467  0.114776  1
  Nd  Nd4  1  0.750000  0.560234  0.616611  1
  Nd  Nd5  1  0.250000  0.122253  0.560198  1
  Nd  Nd6  1  0.250000  0.375921  0.057506  1
  Nd  Nd7  1  0.750000  0.874851  0.439683  1
  Nd  Nd8  1  0.750000  0.622344  0.940719  1
  Nd  Nd9  1  0.250000  0.803126  0.709853  1
  Nd  Nd10  1  0.250000  0.698434  0.212676  1
  Nd  Nd11  1  0.750000  0.199063  0.288067  1
  Co  Co12  1  0.750000  0.634952  0.369762  1
  Si  Si13  1  0.250000  0.813946  0.968851  1
  Si  Si14  1  0.250000  0.685086  0.469360  1
  Si  Si15  1  0.750000  0.187810  0.026789  1
  Si  Si16  1  0.750000  0.313520  0.534769  1
  Si  Si17  1  0.250000  0.487285  0.802060  1
  Si  Si18  1  0.250000  0.009730  0.300097  1
  Si  Si19  1  0.750000  0.508464  0.201329  1
  Si  Si20  1  0.750000  0.991105  0.699627  1
  Ni  Ni21  1  0.250000  0.361482  0.634189  1
  Ni  Ni22  1  0.250000  0.135096  0.128432  1
  Ni  Ni23  1  0.750000  0.864378  0.869432  1
