# generated using pymatgen
data_DyHo3(Si5Os3)2
_symmetry_space_group_name_H-M   'P 1'
_cell_length_a   8.13092419
_cell_length_b   8.13163102
_cell_length_c   5.78854606
_cell_angle_alpha   70.57070489
_cell_angle_beta   70.52015907
_cell_angle_gamma   93.99394182
_symmetry_Int_Tables_number   1
_chemical_formula_structural   DyHo3(Si5Os3)2
_chemical_formula_sum   'Dy1 Ho3 Si10 Os6'
_cell_volume   333.17738787
_cell_formula_units_Z   1
loop_
 _symmetry_equiv_pos_site_id
 _symmetry_equiv_pos_as_xyz
  1  'x, y, z'
loop_
 _atom_site_type_symbol
 _atom_site_label
 _atom_site_symmetry_multiplicity
 _atom_site_fract_x
 _atom_site_fract_y
 _atom_site_fract_z
 _atom_site_occupancy
  Dy  Dy0  1  0.868209  0.602453  0.752489  1
  Ho  Ho1  1  0.399216  0.130317  0.747218  1
  Ho  Ho2  1  0.130566  0.398487  0.247281  1
  Ho  Ho3  1  0.601695  0.868558  0.253354  1
  Si  Si4  1  0.069193  0.261484  0.833528  1
  Si  Si5  1  0.737608  0.933082  0.667122  1
  Si  Si6  1  0.932149  0.738553  0.166178  1
  Si  Si7  1  0.261994  0.068511  0.333578  1
  Si  Si8  1  0.206382  0.793892  0.749609  1
  Si  Si9  1  0.793392  0.205807  0.251480  1
  Si  Si10  1  0.512002  0.486574  0.749813  1
  Si  Si11  1  0.486963  0.512021  0.250130  1
  Si  Si12  1  0.774820  0.225190  0.749290  1
  Si  Si13  1  0.225217  0.774818  0.249934  1
  Os  Os14  1  0.255361  0.543798  0.631247  1
  Os  Os15  1  0.455916  0.743931  0.868751  1
  Os  Os16  1  0.744412  0.456436  0.368268  1
  Os  Os17  1  0.544419  0.255241  0.130930  1
  Os  Os18  1  0.002534  0.998153  0.749872  1
  Os  Os19  1  0.997953  0.002694  0.249930  1
