# generated using pymatgen
data_KSb8
_symmetry_space_group_name_H-M   'P 1'
_cell_length_a   4.39261600
_cell_length_b   4.39261683
_cell_length_c   17.26509300
_cell_angle_alpha   90.00000000
_cell_angle_beta   90.00000000
_cell_angle_gamma   119.99999377
_symmetry_Int_Tables_number   1
_chemical_formula_structural   KSb8
_chemical_formula_sum   'K1 Sb8'
_cell_volume   288.50021495
_cell_formula_units_Z   1
loop_
 _symmetry_equiv_pos_site_id
 _symmetry_equiv_pos_as_xyz
  1  'x, y, z'
loop_
 _atom_site_type_symbol
 _atom_site_label
 _atom_site_symmetry_multiplicity
 _atom_site_fract_x
 _atom_site_fract_y
 _atom_site_fract_z
 _atom_site_occupancy
  K  K0  1  0.000000  0.000000  0.000000  1
  Sb  Sb1  1  0.333333  0.666667  0.563021  1
  Sb  Sb2  1  0.666667  0.333333  0.436979  1
  Sb  Sb3  1  0.666667  0.333333  0.771235  1
  Sb  Sb4  1  0.333333  0.666667  0.228765  1
  Sb  Sb5  1  0.333333  0.666667  0.855579  1
  Sb  Sb6  1  0.666667  0.333333  0.144421  1
  Sb  Sb7  1  0.000000  0.000000  0.648144  1
  Sb  Sb8  1  0.000000  0.000000  0.351856  1
