# generated using pymatgen
data_Ho2Mn3Cr3P7Ir6
_symmetry_space_group_name_H-M   'P 1'
_cell_length_a   9.39287700
_cell_length_b   9.39287767
_cell_length_c   3.81137900
_cell_angle_alpha   90.00000000
_cell_angle_beta   90.00000000
_cell_angle_gamma   120.00000212
_symmetry_Int_Tables_number   1
_chemical_formula_structural   Ho2Mn3Cr3P7Ir6
_chemical_formula_sum   'Ho2 Mn3 Cr3 P7 Ir6'
_cell_volume   291.21253209
_cell_formula_units_Z   1
loop_
 _symmetry_equiv_pos_site_id
 _symmetry_equiv_pos_as_xyz
  1  'x, y, z'
loop_
 _atom_site_type_symbol
 _atom_site_label
 _atom_site_symmetry_multiplicity
 _atom_site_fract_x
 _atom_site_fract_y
 _atom_site_fract_z
 _atom_site_occupancy
  Ho  Ho0  1  0.666667  0.333333  0.000000  1
  Ho  Ho1  1  0.333333  0.666667  0.500000  1
  Mn  Mn2  1  0.269500  0.157672  0.000000  1
  Mn  Mn3  1  0.842328  0.111828  0.000000  1
  Mn  Mn4  1  0.888172  0.730500  0.000000  1
  Cr  Cr5  1  0.095724  0.206576  0.500000  1
  Cr  Cr6  1  0.793424  0.889148  0.500000  1
  Cr  Cr7  1  0.110852  0.904276  0.500000  1
  P  P8  1  0.297644  0.407177  0.000000  1
  P  P9  1  0.592823  0.890468  0.000000  1
  P  P10  1  0.109532  0.702356  0.000000  1
  P  P11  1  0.392641  0.116880  0.500000  1
  P  P12  1  0.883120  0.275760  0.500000  1
  P  P13  1  0.724240  0.607359  0.500000  1
  P  P14  1  0.000000  0.000000  0.000000  1
  Ir  Ir15  1  0.065443  0.427373  0.000000  1
  Ir  Ir16  1  0.572627  0.638070  0.000000  1
  Ir  Ir17  1  0.361930  0.934557  0.000000  1
  Ir  Ir18  1  0.442967  0.386582  0.500000  1
  Ir  Ir19  1  0.613418  0.056385  0.500000  1
  Ir  Ir20  1  0.943615  0.557033  0.500000  1
