# generated using pymatgen
data_LuZr15(CoIr)4
_symmetry_space_group_name_H-M   'P 1'
_cell_length_a   8.67304003
_cell_length_b   8.66712941
_cell_length_c   8.66712900
_cell_angle_alpha   59.61712183
_cell_angle_beta   59.97744103
_cell_angle_gamma   59.97744154
_symmetry_Int_Tables_number   1
_chemical_formula_structural   LuZr15(CoIr)4
_chemical_formula_sum   'Lu1 Zr15 Co4 Ir4'
_cell_volume   459.18440207
_cell_formula_units_Z   1
loop_
 _symmetry_equiv_pos_site_id
 _symmetry_equiv_pos_as_xyz
  1  'x, y, z'
loop_
 _atom_site_type_symbol
 _atom_site_label
 _atom_site_symmetry_multiplicity
 _atom_site_fract_x
 _atom_site_fract_y
 _atom_site_fract_z
 _atom_site_occupancy
  Lu  Lu0  1  0.437224  0.062776  0.062776  1
  Zr  Zr1  1  0.062446  0.645783  0.645783  1
  Zr  Zr2  1  0.646456  0.061799  0.645289  1
  Zr  Zr3  1  0.646456  0.645289  0.061799  1
  Zr  Zr4  1  0.645988  0.645783  0.645783  1
  Zr  Zr5  1  0.803721  0.803841  0.196503  1
  Zr  Zr6  1  0.195934  0.196503  0.803841  1
  Zr  Zr7  1  0.803721  0.196503  0.803841  1
  Zr  Zr8  1  0.195934  0.803841  0.196503  1
  Zr  Zr9  1  0.194910  0.805090  0.805090  1
  Zr  Zr10  1  0.803329  0.196671  0.196671  1
  Zr  Zr11  1  0.436111  0.437087  0.063456  1
  Zr  Zr12  1  0.063345  0.063456  0.437087  1
  Zr  Zr13  1  0.436111  0.063456  0.437087  1
  Zr  Zr14  1  0.063345  0.437087  0.063456  1
  Zr  Zr15  1  0.062909  0.437091  0.437091  1
  Co  Co16  1  0.426363  0.856301  0.856301  1
  Co  Co17  1  0.858173  0.426549  0.857105  1
  Co  Co18  1  0.858173  0.857105  0.426549  1
  Co  Co19  1  0.861033  0.856301  0.856301  1
  Ir  Ir20  1  0.749509  0.417328  0.417328  1
  Ir  Ir21  1  0.416485  0.748078  0.418950  1
  Ir  Ir22  1  0.416485  0.418950  0.748078  1
  Ir  Ir23  1  0.415835  0.417328  0.417328  1
