# generated using pymatgen
data_TbGdU2(ReB6)2
_symmetry_space_group_name_H-M   'P 1'
_cell_length_a   3.64694300
_cell_length_b   9.32355001
_cell_length_c   11.44240001
_cell_angle_alpha   89.99985385
_cell_angle_beta   90.00000000
_cell_angle_gamma   90.00000000
_symmetry_Int_Tables_number   1
_chemical_formula_structural   TbGdU2(ReB6)2
_chemical_formula_sum   'Tb2 Gd2 U4 Re4 B24'
_cell_volume   389.06969653
_cell_formula_units_Z   2
loop_
 _symmetry_equiv_pos_site_id
 _symmetry_equiv_pos_as_xyz
  1  'x, y, z'
loop_
 _atom_site_type_symbol
 _atom_site_label
 _atom_site_symmetry_multiplicity
 _atom_site_fract_x
 _atom_site_fract_y
 _atom_site_fract_z
 _atom_site_occupancy
  Tb  Tb0  1  0.000000  0.336821  0.407914  1
  Tb  Tb1  1  0.000000  0.663179  0.592086  1
  Gd  Gd2  1  0.000000  0.836703  0.092144  1
  Gd  Gd3  1  0.000000  0.163297  0.907856  1
  U  U4  1  0.000000  0.956704  0.396676  1
  U  U5  1  0.000000  0.043296  0.603324  1
  U  U6  1  0.000000  0.456625  0.103440  1
  U  U7  1  0.000000  0.543375  0.896560  1
  Re  Re8  1  0.000000  0.646010  0.318341  1
  Re  Re9  1  0.000000  0.353990  0.681659  1
  Re  Re10  1  0.000000  0.146447  0.181972  1
  Re  Re11  1  0.000000  0.853553  0.818028  1
  B  B12  1  0.500000  0.552455  0.430557  1
  B  B13  1  0.500000  0.447545  0.569443  1
  B  B14  1  0.500000  0.052638  0.069629  1
  B  B15  1  0.500000  0.947362  0.930371  1
  B  B16  1  0.500000  0.743350  0.422835  1
  B  B17  1  0.500000  0.256650  0.577165  1
  B  B18  1  0.500000  0.243411  0.077244  1
  B  B19  1  0.500000  0.756589  0.922756  1
  B  B20  1  0.500000  0.801919  0.275345  1
  B  B21  1  0.500000  0.198081  0.724655  1
  B  B22  1  0.500000  0.302014  0.224665  1
  B  B23  1  0.500000  0.697986  0.775335  1
  B  B24  1  0.500000  0.644365  0.188660  1
  B  B25  1  0.500000  0.355635  0.811340  1
  B  B26  1  0.500000  0.144440  0.311408  1
  B  B27  1  0.500000  0.855560  0.688592  1
  B  B28  1  0.500000  0.990098  0.219788  1
  B  B29  1  0.500000  0.009902  0.780212  1
  B  B30  1  0.500000  0.489966  0.280216  1
  B  B31  1  0.500000  0.510034  0.719784  1
  B  B32  1  0.500000  0.639075  0.038529  1
  B  B33  1  0.500000  0.360925  0.961471  1
  B  B34  1  0.500000  0.139201  0.461454  1
  B  B35  1  0.500000  0.860799  0.538546  1
