# generated using pymatgen
data_V12Ni8As4C3N
_symmetry_space_group_name_H-M   'P 1'
_cell_length_a   7.69193383
_cell_length_b   7.69177616
_cell_length_c   7.65678201
_cell_angle_alpha   59.85297285
_cell_angle_beta   59.85708746
_cell_angle_gamma   60.00532472
_symmetry_Int_Tables_number   1
_chemical_formula_structural   V12Ni8As4C3N
_chemical_formula_sum   'V12 Ni8 As4 C3 N1'
_cell_volume   319.63603862
_cell_formula_units_Z   1
loop_
 _symmetry_equiv_pos_site_id
 _symmetry_equiv_pos_as_xyz
  1  'x, y, z'
loop_
 _atom_site_type_symbol
 _atom_site_label
 _atom_site_symmetry_multiplicity
 _atom_site_fract_x
 _atom_site_fract_y
 _atom_site_fract_z
 _atom_site_occupancy
  V  V0  1  0.816963  0.816931  0.183448  1
  V  V1  1  0.180859  0.180889  0.817773  1
  V  V2  1  0.820563  0.180922  0.817761  1
  V  V3  1  0.182793  0.817007  0.183155  1
  V  V4  1  0.180934  0.820590  0.817767  1
  V  V5  1  0.816995  0.182818  0.183177  1
  V  V6  1  0.433037  0.433069  0.066552  1
  V  V7  1  0.069141  0.069111  0.432227  1
  V  V8  1  0.429437  0.069078  0.432239  1
  V  V9  1  0.067207  0.432993  0.066845  1
  V  V10  1  0.069066  0.429410  0.432233  1
  V  V11  1  0.433005  0.067182  0.066823  1
  Ni  Ni12  1  0.754647  0.414814  0.415901  1
  Ni  Ni13  1  0.414831  0.754681  0.415876  1
  Ni  Ni14  1  0.414455  0.414429  0.756435  1
  Ni  Ni15  1  0.414586  0.414751  0.415632  1
  Ni  Ni16  1  0.495353  0.835186  0.834099  1
  Ni  Ni17  1  0.835169  0.495319  0.834124  1
  Ni  Ni18  1  0.835545  0.835571  0.493565  1
  Ni  Ni19  1  0.835414  0.835249  0.834368  1
  As  As20  1  0.125000  0.625000  0.625000  1
  As  As21  1  0.625000  0.125000  0.625000  1
  As  As22  1  0.625000  0.625000  0.125000  1
  As  As23  1  0.625000  0.625000  0.625000  1
  C  C24  1  0.625000  0.125000  0.125000  1
  C  C25  1  0.125000  0.625000  0.125000  1
  C  C26  1  0.125000  0.125000  0.125000  1
  N  N27  1  0.125000  0.125000  0.625000  1
