# generated using pymatgen
data_DyTm2Lu3(Al3Os)8
_symmetry_space_group_name_H-M   'P 1'
_cell_length_a   8.75979402
_cell_length_b   8.75979365
_cell_length_c   9.57753800
_cell_angle_alpha   90.00000000
_cell_angle_beta   90.00000000
_cell_angle_gamma   119.95729018
_symmetry_Int_Tables_number   1
_chemical_formula_structural   DyTm2Lu3(Al3Os)8
_chemical_formula_sum   'Dy1 Tm2 Lu3 Al24 Os8'
_cell_volume   636.73545479
_cell_formula_units_Z   1
loop_
 _symmetry_equiv_pos_site_id
 _symmetry_equiv_pos_as_xyz
  1  'x, y, z'
loop_
 _atom_site_type_symbol
 _atom_site_label
 _atom_site_symmetry_multiplicity
 _atom_site_fract_x
 _atom_site_fract_y
 _atom_site_fract_z
 _atom_site_occupancy
  Dy  Dy0  1  0.806696  0.193304  0.750000  1
  Tm  Tm1  1  0.804633  0.609371  0.750000  1
  Tm  Tm2  1  0.390629  0.195367  0.750000  1
  Lu  Lu3  1  0.195358  0.391189  0.250000  1
  Lu  Lu4  1  0.608811  0.804642  0.250000  1
  Lu  Lu5  1  0.195410  0.804590  0.250000  1
  Al  Al6  1  0.333261  0.666739  0.021864  1
  Al  Al7  1  0.666644  0.333356  0.979617  1
  Al  Al8  1  0.666644  0.333356  0.520383  1
  Al  Al9  1  0.333261  0.666739  0.478136  1
  Al  Al10  1  0.164032  0.327455  0.576139  1
  Al  Al11  1  0.836527  0.673302  0.422927  1
  Al  Al12  1  0.672545  0.835968  0.576139  1
  Al  Al13  1  0.836527  0.673302  0.077073  1
  Al  Al14  1  0.326698  0.163473  0.422927  1
  Al  Al15  1  0.164032  0.327455  0.923861  1
  Al  Al16  1  0.163407  0.836593  0.576133  1
  Al  Al17  1  0.326698  0.163473  0.077073  1
  Al  Al18  1  0.836446  0.163554  0.422308  1
  Al  Al19  1  0.672545  0.835968  0.923861  1
  Al  Al20  1  0.836446  0.163554  0.077692  1
  Al  Al21  1  0.163407  0.836593  0.923867  1
  Al  Al22  1  0.561197  0.123002  0.250000  1
  Al  Al23  1  0.437470  0.875951  0.750000  1
  Al  Al24  1  0.876998  0.438803  0.250000  1
  Al  Al25  1  0.124049  0.562530  0.750000  1
  Al  Al26  1  0.561345  0.438655  0.250000  1
  Al  Al27  1  0.438279  0.561721  0.750000  1
  Al  Al28  1  0.999845  0.000155  0.250000  1
  Al  Al29  1  0.001515  0.998485  0.750000  1
  Os  Os30  1  0.499139  0.999315  0.000959  1
  Os  Os31  1  0.000685  0.500861  0.000959  1
  Os  Os32  1  0.499139  0.999315  0.499041  1
  Os  Os33  1  0.499724  0.500276  0.000526  1
  Os  Os34  1  0.000685  0.500861  0.499041  1
  Os  Os35  1  0.499724  0.500276  0.499474  1
  Os  Os36  1  0.999773  0.000227  0.000123  1
  Os  Os37  1  0.999773  0.000227  0.499877  1
