# generated using pymatgen
data_YbPa2(Si3Pd10)2
_symmetry_space_group_name_H-M   'P 1'
_cell_length_a   8.69836110
_cell_length_b   8.69836058
_cell_length_c   8.69836100
_cell_angle_alpha   60.00000222
_cell_angle_beta   60.00000418
_cell_angle_gamma   60.00000522
_symmetry_Int_Tables_number   1
_chemical_formula_structural   YbPa2(Si3Pd10)2
_chemical_formula_sum   'Yb1 Pa2 Si6 Pd20'
_cell_volume   465.36884780
_cell_formula_units_Z   1
loop_
 _symmetry_equiv_pos_site_id
 _symmetry_equiv_pos_as_xyz
  1  'x, y, z'
loop_
 _atom_site_type_symbol
 _atom_site_label
 _atom_site_symmetry_multiplicity
 _atom_site_fract_x
 _atom_site_fract_y
 _atom_site_fract_z
 _atom_site_occupancy
  Yb  Yb0  1  0.750000  0.750000  0.750000  1
  Pa  Pa1  1  0.250000  0.250000  0.250000  1
  Pa  Pa2  1  0.000000  0.000000  0.000000  1
  Si  Si3  1  0.729751  0.270249  0.270249  1
  Si  Si4  1  0.270249  0.729751  0.729751  1
  Si  Si5  1  0.270249  0.729751  0.270249  1
  Si  Si6  1  0.729751  0.270249  0.729751  1
  Si  Si7  1  0.270249  0.270249  0.729751  1
  Si  Si8  1  0.729751  0.729751  0.270249  1
  Pd  Pd9  1  0.381703  0.381703  0.381703  1
  Pd  Pd10  1  0.616586  0.616586  0.616586  1
  Pd  Pd11  1  0.381703  0.381703  0.854893  1
  Pd  Pd12  1  0.381703  0.854893  0.381703  1
  Pd  Pd13  1  0.616586  0.616586  0.150243  1
  Pd  Pd14  1  0.616586  0.150243  0.616586  1
  Pd  Pd15  1  0.854893  0.381703  0.381703  1
  Pd  Pd16  1  0.150243  0.616586  0.616586  1
  Pd  Pd17  1  0.341409  0.002461  0.002461  1
  Pd  Pd18  1  0.653669  0.002461  0.002461  1
  Pd  Pd19  1  0.002461  0.341409  0.653669  1
  Pd  Pd20  1  0.002461  0.653669  0.341409  1
  Pd  Pd21  1  0.002461  0.341409  0.002461  1
  Pd  Pd22  1  0.653669  0.002461  0.341409  1
  Pd  Pd23  1  0.002461  0.653669  0.002461  1
  Pd  Pd24  1  0.341409  0.002461  0.653669  1
  Pd  Pd25  1  0.002461  0.002461  0.341409  1
  Pd  Pd26  1  0.002461  0.002461  0.653669  1
  Pd  Pd27  1  0.653669  0.341409  0.002461  1
  Pd  Pd28  1  0.341409  0.653669  0.002461  1
