# generated using pymatgen
data_YLu3(Si2Tc)2
_symmetry_space_group_name_H-M   'P 1'
_cell_length_a   5.71572418
_cell_length_b   5.71572444
_cell_length_c   9.95922699
_cell_angle_alpha   63.98821228
_cell_angle_beta   63.98821286
_cell_angle_gamma   42.60995950
_symmetry_Int_Tables_number   1
_chemical_formula_structural   YLu3(Si2Tc)2
_chemical_formula_sum   'Y1 Lu3 Si4 Tc2'
_cell_volume   194.34153384
_cell_formula_units_Z   1
loop_
 _symmetry_equiv_pos_site_id
 _symmetry_equiv_pos_as_xyz
  1  'x, y, z'
loop_
 _atom_site_type_symbol
 _atom_site_label
 _atom_site_symmetry_multiplicity
 _atom_site_fract_x
 _atom_site_fract_y
 _atom_site_fract_z
 _atom_site_occupancy
  Y  Y0  1  0.810811  0.810811  0.108260  1
  Lu  Lu1  1  0.003577  0.003577  0.324368  1
  Lu  Lu2  1  0.186945  0.186945  0.887432  1
  Lu  Lu3  1  0.995757  0.995757  0.676428  1
  Si  Si4  1  0.361052  0.361052  0.560237  1
  Si  Si5  1  0.497312  0.497312  0.877322  1
  Si  Si6  1  0.639429  0.639429  0.441799  1
  Si  Si7  1  0.504222  0.504222  0.121516  1
  Tc  Tc8  1  0.728803  0.728803  0.631308  1
  Tc  Tc9  1  0.272092  0.272092  0.371329  1
