# generated using pymatgen
data_Hf9AlRe3P
_symmetry_space_group_name_H-M   'P 1'
_cell_length_a   8.59828900
_cell_length_b   8.59828951
_cell_length_c   8.49667800
_cell_angle_alpha   90.00000000
_cell_angle_beta   90.00000000
_cell_angle_gamma   120.00000190
_symmetry_Int_Tables_number   1
_chemical_formula_structural   Hf9AlRe3P
_chemical_formula_sum   'Hf18 Al2 Re6 P2'
_cell_volume   544.00624533
_cell_formula_units_Z   2
loop_
 _symmetry_equiv_pos_site_id
 _symmetry_equiv_pos_as_xyz
  1  'x, y, z'
loop_
 _atom_site_type_symbol
 _atom_site_label
 _atom_site_symmetry_multiplicity
 _atom_site_fract_x
 _atom_site_fract_y
 _atom_site_fract_z
 _atom_site_occupancy
  Hf  Hf0  1  0.195208  0.804792  0.448148  1
  Hf  Hf1  1  0.195208  0.390414  0.448148  1
  Hf  Hf2  1  0.609586  0.804792  0.448148  1
  Hf  Hf3  1  0.804792  0.195208  0.551852  1
  Hf  Hf4  1  0.804792  0.609586  0.551852  1
  Hf  Hf5  1  0.390414  0.195208  0.551852  1
  Hf  Hf6  1  0.804792  0.195208  0.948148  1
  Hf  Hf7  1  0.804792  0.609586  0.948148  1
  Hf  Hf8  1  0.390414  0.195208  0.948148  1
  Hf  Hf9  1  0.195208  0.804792  0.051852  1
  Hf  Hf10  1  0.195208  0.390414  0.051852  1
  Hf  Hf11  1  0.609586  0.804792  0.051852  1
  Hf  Hf12  1  0.543214  0.456786  0.250000  1
  Hf  Hf13  1  0.543214  0.086427  0.250000  1
  Hf  Hf14  1  0.913573  0.456786  0.250000  1
  Hf  Hf15  1  0.456786  0.543214  0.750000  1
  Hf  Hf16  1  0.456786  0.913573  0.750000  1
  Hf  Hf17  1  0.086427  0.543214  0.750000  1
  Al  Al18  1  0.000000  0.000000  0.500000  1
  Al  Al19  1  0.000000  0.000000  0.000000  1
  Re  Re20  1  0.887810  0.112190  0.250000  1
  Re  Re21  1  0.887810  0.775619  0.250000  1
  Re  Re22  1  0.224381  0.112190  0.250000  1
  Re  Re23  1  0.112190  0.887810  0.750000  1
  Re  Re24  1  0.112190  0.224381  0.750000  1
  Re  Re25  1  0.775619  0.887810  0.750000  1
  P  P26  1  0.333333  0.666667  0.250000  1
  P  P27  1  0.666667  0.333333  0.750000  1
