# generated using pymatgen
data_Yb3Er(In2Pd3)4
_symmetry_space_group_name_H-M   'P 1'
_cell_length_a   4.58058700
_cell_length_b   9.75277746
_cell_length_c   10.50818974
_cell_angle_alpha   90.14933153
_cell_angle_beta   90.00000000
_cell_angle_gamma   90.00000000
_symmetry_Int_Tables_number   1
_chemical_formula_structural   Yb3Er(In2Pd3)4
_chemical_formula_sum   'Yb3 Er1 In8 Pd12'
_cell_volume   469.43544842
_cell_formula_units_Z   1
loop_
 _symmetry_equiv_pos_site_id
 _symmetry_equiv_pos_as_xyz
  1  'x, y, z'
loop_
 _atom_site_type_symbol
 _atom_site_label
 _atom_site_symmetry_multiplicity
 _atom_site_fract_x
 _atom_site_fract_y
 _atom_site_fract_z
 _atom_site_occupancy
  Yb  Yb0  1  0.250000  0.052793  0.223630  1
  Yb  Yb1  1  0.750000  0.552843  0.275744  1
  Yb  Yb2  1  0.750000  0.949076  0.774769  1
  Er  Er3  1  0.250000  0.447958  0.723423  1
  In  In4  1  0.250000  0.890896  0.514360  1
  In  In5  1  0.250000  0.609764  0.016800  1
  In  In6  1  0.750000  0.109670  0.483126  1
  In  In7  1  0.750000  0.391189  0.986359  1
  In  In8  1  0.250000  0.160635  0.890869  1
  In  In9  1  0.250000  0.339498  0.389734  1
  In  In10  1  0.750000  0.838001  0.108811  1
  In  In11  1  0.750000  0.662388  0.608544  1
  Pd  Pd12  1  0.250000  0.157085  0.620508  1
  Pd  Pd13  1  0.250000  0.342360  0.118251  1
  Pd  Pd14  1  0.750000  0.842654  0.381434  1
  Pd  Pd15  1  0.750000  0.651505  0.877301  1
  Pd  Pd16  1  0.250000  0.743335  0.738451  1
  Pd  Pd17  1  0.250000  0.756838  0.241287  1
  Pd  Pd18  1  0.750000  0.257279  0.260309  1
  Pd  Pd19  1  0.750000  0.249411  0.762146  1
  Pd  Pd20  1  0.250000  0.891882  0.972123  1
  Pd  Pd21  1  0.250000  0.604644  0.475468  1
  Pd  Pd22  1  0.750000  0.106061  0.026767  1
  Pd  Pd23  1  0.750000  0.392233  0.529785  1
