# generated using pymatgen
data_Pr3ScIn2Pt3
_symmetry_space_group_name_H-M   'P 1'
_cell_length_a   7.56064900
_cell_length_b   7.64776287
_cell_length_c   4.29771000
_cell_angle_alpha   90.00000000
_cell_angle_beta   90.00000000
_cell_angle_gamma   119.62391080
_symmetry_Int_Tables_number   1
_chemical_formula_structural   Pr3ScIn2Pt3
_chemical_formula_sum   'Pr3 Sc1 In2 Pt3'
_cell_volume   216.02033811
_cell_formula_units_Z   1
loop_
 _symmetry_equiv_pos_site_id
 _symmetry_equiv_pos_as_xyz
  1  'x, y, z'
loop_
 _atom_site_type_symbol
 _atom_site_label
 _atom_site_symmetry_multiplicity
 _atom_site_fract_x
 _atom_site_fract_y
 _atom_site_fract_z
 _atom_site_occupancy
  Pr  Pr0  1  0.603457  0.000000  0.000000  1
  Pr  Pr1  1  0.992184  0.580638  0.000000  1
  Pr  Pr2  1  0.411546  0.419362  0.000000  1
  Sc  Sc3  1  0.241154  0.000000  0.500000  1
  In  In4  1  0.000544  0.247306  0.500000  1
  In  In5  1  0.753239  0.752694  0.500000  1
  Pt  Pt6  1  0.327456  0.681442  0.500000  1
  Pt  Pt7  1  0.646015  0.318558  0.500000  1
  Pt  Pt8  1  0.024406  0.000000  0.000000  1
