# generated using pymatgen
data_Ho5Mn2Co17P12
_symmetry_space_group_name_H-M   'P 1'
_cell_length_a   12.00050417
_cell_length_b   11.99133548
_cell_length_c   3.65623200
_cell_angle_alpha   90.00000000
_cell_angle_beta   90.00000000
_cell_angle_gamma   119.97473028
_symmetry_Int_Tables_number   1
_chemical_formula_structural   Ho5Mn2Co17P12
_chemical_formula_sum   'Ho5 Mn2 Co17 P12'
_cell_volume   455.76603007
_cell_formula_units_Z   1
loop_
 _symmetry_equiv_pos_site_id
 _symmetry_equiv_pos_as_xyz
  1  'x, y, z'
loop_
 _atom_site_type_symbol
 _atom_site_label
 _atom_site_symmetry_multiplicity
 _atom_site_fract_x
 _atom_site_fract_y
 _atom_site_fract_z
 _atom_site_occupancy
  Ho  Ho0  1  0.666639  0.333143  0.000000  1
  Ho  Ho1  1  0.333361  0.666505  0.000000  1
  Ho  Ho2  1  0.813296  0.813911  0.500000  1
  Ho  Ho3  1  0.186704  0.000614  0.500000  1
  Ho  Ho4  1  0.000000  0.187936  0.500000  1
  Mn  Mn5  1  0.443443  0.443169  0.000000  1
  Mn  Mn6  1  0.556557  0.999726  0.000000  1
  Co  Co7  1  0.875003  0.358955  0.500000  1
  Co  Co8  1  0.643132  0.517221  0.500000  1
  Co  Co9  1  0.483237  0.125957  0.500000  1
  Co  Co10  1  0.356868  0.874089  0.500000  1
  Co  Co11  1  0.516763  0.642720  0.500000  1
  Co  Co12  1  0.124997  0.483952  0.500000  1
  Co  Co13  1  0.000000  0.552050  0.000000  1
  Co  Co14  1  0.801081  0.179042  0.000000  1
  Co  Co15  1  0.822975  0.622463  0.000000  1
  Co  Co16  1  0.376778  0.198684  0.000000  1
  Co  Co17  1  0.177025  0.799488  0.000000  1
  Co  Co18  1  0.623222  0.821906  0.000000  1
  Co  Co19  1  0.198919  0.377962  0.000000  1
  Co  Co20  1  0.283312  0.283572  0.500000  1
  Co  Co21  1  0.716688  0.000260  0.500000  1
  Co  Co22  1  0.000000  0.715147  0.500000  1
  Co  Co23  1  0.000000  0.998998  0.000000  1
  P  P24  1  0.685886  0.166270  0.500000  1
  P  P25  1  0.834503  0.519993  0.500000  1
  P  P26  1  0.479967  0.314064  0.500000  1
  P  P27  1  0.165497  0.685490  0.500000  1
  P  P28  1  0.520033  0.834097  0.500000  1
  P  P29  1  0.314114  0.480384  0.500000  1
  P  P30  1  0.179823  0.180351  0.000000  1
  P  P31  1  0.820177  0.000527  0.000000  1
  P  P32  1  0.000000  0.818913  0.000000  1
  P  P33  1  0.635508  0.635154  0.000000  1
  P  P34  1  0.364492  0.999646  0.000000  1
  P  P35  1  0.000000  0.367640  0.000000  1
