# generated using pymatgen
data_Zr6Si12RuRh5
_symmetry_space_group_name_H-M   'P 1'
_cell_length_a   10.01759438
_cell_length_b   10.00726716
_cell_length_c   9.99958006
_cell_angle_alpha   148.53661533
_cell_angle_beta   133.84565880
_cell_angle_gamma   56.99046950
_symmetry_Int_Tables_number   1
_chemical_formula_structural   Zr6Si12RuRh5
_chemical_formula_sum   'Zr6 Si12 Ru1 Rh5'
_cell_volume   374.51844196
_cell_formula_units_Z   1
loop_
 _symmetry_equiv_pos_site_id
 _symmetry_equiv_pos_as_xyz
  1  'x, y, z'
loop_
 _atom_site_type_symbol
 _atom_site_label
 _atom_site_symmetry_multiplicity
 _atom_site_fract_x
 _atom_site_fract_y
 _atom_site_fract_z
 _atom_site_occupancy
  Zr  Zr0  1  0.347597  0.093101  0.252973  1
  Zr  Zr1  1  0.652403  0.906899  0.747027  1
  Zr  Zr2  1  0.160307  0.903628  0.251902  1
  Zr  Zr3  1  0.839693  0.096372  0.748098  1
  Zr  Zr4  1  0.637939  0.638944  0.999797  1
  Zr  Zr5  1  0.362061  0.361056  0.000203  1
  Si  Si6  1  0.000331  0.780145  0.780987  1
  Si  Si7  1  0.999669  0.219855  0.219013  1
  Si  Si8  1  0.500336  0.227876  0.727731  1
  Si  Si9  1  0.499664  0.772124  0.272269  1
  Si  Si10  1  0.203513  0.209073  0.007757  1
  Si  Si11  1  0.796487  0.790927  0.992243  1
  Si  Si12  1  0.295591  0.791396  0.498414  1
  Si  Si13  1  0.704409  0.208604  0.501586  1
  Si  Si14  1  0.714547  0.364008  0.355756  1
  Si  Si15  1  0.285453  0.635992  0.644244  1
  Si  Si16  1  0.987989  0.638551  0.354123  1
  Si  Si17  1  0.012011  0.361449  0.645877  1
  Ru  Ru18  1  0.500000  0.500000  0.500000  1
  Rh  Rh19  1  0.500000  0.000000  0.000000  1
  Rh  Rh20  1  0.000000  0.000000  0.500000  1
  Rh  Rh21  1  0.000000  0.500000  0.000000  1
  Rh  Rh22  1  0.245388  0.498391  0.741440  1
  Rh  Rh23  1  0.754612  0.501609  0.258560  1
