# generated using pymatgen
data_La5Sm(In4Se)2
_symmetry_space_group_name_H-M   'P 1'
_cell_length_a   8.59323004
_cell_length_b   8.59322968
_cell_length_c   8.59323100
_cell_angle_alpha   119.30192055
_cell_angle_beta   119.30191919
_cell_angle_gamma   91.21342773
_symmetry_Int_Tables_number   1
_chemical_formula_structural   La5Sm(In4Se)2
_chemical_formula_sum   'La5 Sm1 In8 Se2'
_cell_volume   453.32259626
_cell_formula_units_Z   1
loop_
 _symmetry_equiv_pos_site_id
 _symmetry_equiv_pos_as_xyz
  1  'x, y, z'
loop_
 _atom_site_type_symbol
 _atom_site_label
 _atom_site_symmetry_multiplicity
 _atom_site_fract_x
 _atom_site_fract_y
 _atom_site_fract_z
 _atom_site_occupancy
  La  La0  1  0.250000  0.250000  0.000000  1
  La  La1  1  0.662365  0.162365  0.824730  1
  La  La2  1  0.337635  0.837635  0.175270  1
  La  La3  1  0.162365  0.337635  0.500000  1
  La  La4  1  0.837635  0.662365  0.500000  1
  Sm  Sm5  1  0.750000  0.750000  0.000000  1
  In  In6  1  0.333747  0.832004  0.790073  1
  In  In7  1  0.667996  0.166253  0.209927  1
  In  In8  1  0.041930  0.543673  0.209927  1
  In  In9  1  0.832004  0.041930  0.498257  1
  In  In10  1  0.458070  0.667996  0.501743  1
  In  In11  1  0.956327  0.458070  0.790073  1
  In  In12  1  0.166253  0.956327  0.498257  1
  In  In13  1  0.543673  0.333747  0.501743  1
  Se  Se14  1  0.503057  0.503057  0.000000  1
  Se  Se15  1  0.996943  0.996943  0.000000  1
