# generated using pymatgen
data_Hf2U6SnSb9
_symmetry_space_group_name_H-M   'P 1'
_cell_length_a   9.23646900
_cell_length_b   9.23646943
_cell_length_c   6.15302600
_cell_angle_alpha   90.00000000
_cell_angle_beta   90.00000000
_cell_angle_gamma   120.00000205
_symmetry_Int_Tables_number   1
_chemical_formula_structural   Hf2U6SnSb9
_chemical_formula_sum   'Hf2 U6 Sn1 Sb9'
_cell_volume   454.60200516
_cell_formula_units_Z   1
loop_
 _symmetry_equiv_pos_site_id
 _symmetry_equiv_pos_as_xyz
  1  'x, y, z'
loop_
 _atom_site_type_symbol
 _atom_site_label
 _atom_site_symmetry_multiplicity
 _atom_site_fract_x
 _atom_site_fract_y
 _atom_site_fract_z
 _atom_site_occupancy
  Hf  Hf0  1  0.000000  0.000000  0.500000  1
  Hf  Hf1  1  0.000000  0.000000  0.000000  1
  U  U2  1  0.386543  0.000056  0.750261  1
  U  U3  1  0.386543  0.386488  0.249739  1
  U  U4  1  0.999944  0.613457  0.249739  1
  U  U5  1  0.999944  0.386488  0.750261  1
  U  U6  1  0.613512  0.613457  0.750261  1
  U  U7  1  0.613512  0.000056  0.249739  1
  Sn  Sn8  1  0.333333  0.666667  0.500000  1
  Sb  Sb9  1  0.666667  0.333333  0.000000  1
  Sb  Sb10  1  0.666667  0.333333  0.500000  1
  Sb  Sb11  1  0.333333  0.666667  0.000000  1
  Sb  Sb12  1  0.728646  0.999253  0.749110  1
  Sb  Sb13  1  0.728646  0.729392  0.250890  1
  Sb  Sb14  1  0.000747  0.271354  0.250890  1
  Sb  Sb15  1  0.000747  0.729392  0.749110  1
  Sb  Sb16  1  0.270608  0.999253  0.250890  1
  Sb  Sb17  1  0.270608  0.271354  0.749110  1
