# generated using pymatgen
data_CeCu4Pd
_symmetry_space_group_name_H-M   'P 1'
_cell_length_a   5.03248178
_cell_length_b   5.03248241
_cell_length_c   5.03248300
_cell_angle_alpha   60.00000271
_cell_angle_beta   59.99999854
_cell_angle_gamma   60.00000699
_symmetry_Int_Tables_number   1
_chemical_formula_structural   CeCu4Pd
_chemical_formula_sum   'Ce1 Cu4 Pd1'
_cell_volume   90.12220783
_cell_formula_units_Z   1
loop_
 _symmetry_equiv_pos_site_id
 _symmetry_equiv_pos_as_xyz
  1  'x, y, z'
loop_
 _atom_site_type_symbol
 _atom_site_label
 _atom_site_symmetry_multiplicity
 _atom_site_fract_x
 _atom_site_fract_y
 _atom_site_fract_z
 _atom_site_occupancy
  Ce  Ce0  1  0.000000  0.000000  0.000000  1
  Cu  Cu1  1  0.623988  0.623988  0.128037  1
  Cu  Cu2  1  0.623988  0.128037  0.623988  1
  Cu  Cu3  1  0.128037  0.623988  0.623988  1
  Cu  Cu4  1  0.623988  0.623988  0.623988  1
  Pd  Pd5  1  0.250000  0.250000  0.250000  1
