# generated using pymatgen
data_Lu3Zr4ScRu8
_symmetry_space_group_name_H-M   'P 1'
_cell_length_a   6.57264200
_cell_length_b   4.64235400
_cell_length_c   9.34041400
_cell_angle_alpha   90.00000000
_cell_angle_beta   89.99927196
_cell_angle_gamma   90.00000000
_symmetry_Int_Tables_number   1
_chemical_formula_structural   Lu3Zr4ScRu8
_chemical_formula_sum   'Lu3 Zr4 Sc1 Ru8'
_cell_volume   284.99967059
_cell_formula_units_Z   1
loop_
 _symmetry_equiv_pos_site_id
 _symmetry_equiv_pos_as_xyz
  1  'x, y, z'
loop_
 _atom_site_type_symbol
 _atom_site_label
 _atom_site_symmetry_multiplicity
 _atom_site_fract_x
 _atom_site_fract_y
 _atom_site_fract_z
 _atom_site_occupancy
  Lu  Lu0  1  0.249856  0.250000  0.124737  1
  Lu  Lu1  1  0.749894  0.750000  0.375004  1
  Lu  Lu2  1  0.250118  0.250000  0.625249  1
  Zr  Zr3  1  0.749874  0.250000  0.121891  1
  Zr  Zr4  1  0.249875  0.750000  0.374987  1
  Zr  Zr5  1  0.750128  0.250000  0.628125  1
  Zr  Zr6  1  0.250126  0.750000  0.874982  1
  Sc  Sc7  1  0.750141  0.750000  0.875019  1
  Ru  Ru8  1  0.501551  0.750000  0.122740  1
  Ru  Ru9  1  0.998254  0.750000  0.122733  1
  Ru  Ru10  1  0.499726  0.250000  0.375035  1
  Ru  Ru11  1  0.000095  0.250000  0.375064  1
  Ru  Ru12  1  0.998442  0.750000  0.627177  1
  Ru  Ru13  1  0.501762  0.750000  0.627193  1
  Ru  Ru14  1  0.996505  0.250000  0.875022  1
  Ru  Ru15  1  0.503652  0.250000  0.875044  1
