# generated using pymatgen
data_Zr16Ir5Rh3O4
_symmetry_space_group_name_H-M   'P 1'
_cell_length_a   8.82287009
_cell_length_b   8.84469627
_cell_length_c   8.84469500
_cell_angle_alpha   59.99999351
_cell_angle_beta   59.91812647
_cell_angle_gamma   59.91813110
_symmetry_Int_Tables_number   1
_chemical_formula_structural   Zr16Ir5Rh3O4
_chemical_formula_sum   'Zr16 Ir5 Rh3 O4'
_cell_volume   487.44105887
_cell_formula_units_Z   1
loop_
 _symmetry_equiv_pos_site_id
 _symmetry_equiv_pos_as_xyz
  1  'x, y, z'
loop_
 _atom_site_type_symbol
 _atom_site_label
 _atom_site_symmetry_multiplicity
 _atom_site_fract_x
 _atom_site_fract_y
 _atom_site_fract_z
 _atom_site_occupancy
  Zr  Zr0  1  0.093579  0.635474  0.635474  1
  Zr  Zr1  1  0.633771  0.104145  0.631042  1
  Zr  Zr2  1  0.633771  0.631042  0.104145  1
  Zr  Zr3  1  0.633771  0.631042  0.631042  1
  Zr  Zr4  1  0.813684  0.811424  0.187446  1
  Zr  Zr5  1  0.190285  0.188931  0.810392  1
  Zr  Zr6  1  0.813684  0.187446  0.811424  1
  Zr  Zr7  1  0.190285  0.810392  0.188931  1
  Zr  Zr8  1  0.190285  0.810392  0.810392  1
  Zr  Zr9  1  0.813684  0.187446  0.187446  1
  Zr  Zr10  1  0.435166  0.433807  0.065513  1
  Zr  Zr11  1  0.069273  0.066003  0.432361  1
  Zr  Zr12  1  0.435166  0.065513  0.433807  1
  Zr  Zr13  1  0.069273  0.432361  0.066003  1
  Zr  Zr14  1  0.069273  0.432361  0.432361  1
  Zr  Zr15  1  0.435166  0.065513  0.065513  1
  Ir  Ir16  1  0.760471  0.413176  0.413176  1
  Ir  Ir17  1  0.410605  0.755831  0.416781  1
  Ir  Ir18  1  0.410605  0.416781  0.755831  1
  Ir  Ir19  1  0.410605  0.416781  0.416781  1
  Ir  Ir20  1  0.450136  0.849955  0.849955  1
  Rh  Rh21  1  0.845998  0.448464  0.852769  1
  Rh  Rh22  1  0.845998  0.852769  0.448464  1
  Rh  Rh23  1  0.845998  0.852769  0.852769  1
  O  O24  1  0.625258  0.124914  0.124914  1
  O  O25  1  0.124735  0.625972  0.124646  1
  O  O26  1  0.124735  0.124646  0.625972  1
  O  O27  1  0.124735  0.124646  0.124646  1
