# generated using pymatgen
data_Sc6Zn14Cu9S
_symmetry_space_group_name_H-M   'P 1'
_cell_length_a   8.58002295
_cell_length_b   8.58013667
_cell_length_c   8.58015079
_cell_angle_alpha   59.95916565
_cell_angle_beta   59.96028213
_cell_angle_gamma   59.96018544
_symmetry_Int_Tables_number   1
_chemical_formula_structural   Sc6Zn14Cu9S
_chemical_formula_sum   'Sc6 Zn14 Cu9 S1'
_cell_volume   446.23870102
_cell_formula_units_Z   1
loop_
 _symmetry_equiv_pos_site_id
 _symmetry_equiv_pos_as_xyz
  1  'x, y, z'
loop_
 _atom_site_type_symbol
 _atom_site_label
 _atom_site_symmetry_multiplicity
 _atom_site_fract_x
 _atom_site_fract_y
 _atom_site_fract_z
 _atom_site_occupancy
  Sc  Sc0  1  0.713618  0.289840  0.289849  1
  Sc  Sc1  1  0.286374  0.710161  0.710154  1
  Sc  Sc2  1  0.289846  0.713630  0.289830  1
  Sc  Sc3  1  0.710163  0.286371  0.710158  1
  Sc  Sc4  1  0.289839  0.289835  0.713635  1
  Sc  Sc5  1  0.710164  0.710171  0.286367  1
  Zn  Zn6  1  0.118711  0.118699  0.640942  1
  Zn  Zn7  1  0.118714  0.640937  0.118699  1
  Zn  Zn8  1  0.881291  0.881299  0.359063  1
  Zn  Zn9  1  0.881289  0.359059  0.881303  1
  Zn  Zn10  1  0.640937  0.118714  0.118711  1
  Zn  Zn11  1  0.359063  0.881285  0.881290  1
  Zn  Zn12  1  0.333266  0.333272  0.333269  1
  Zn  Zn13  1  0.666736  0.666727  0.666731  1
  Zn  Zn14  1  0.329719  0.329714  0.006615  1
  Zn  Zn15  1  0.329717  0.006617  0.329713  1
  Zn  Zn16  1  0.670284  0.670285  0.993382  1
  Zn  Zn17  1  0.670284  0.993382  0.670287  1
  Zn  Zn18  1  0.006616  0.329718  0.329719  1
  Zn  Zn19  1  0.993385  0.670280  0.670281  1
  Cu  Cu20  1  0.120137  0.120153  0.120146  1
  Cu  Cu21  1  0.879864  0.879851  0.879851  1
  Cu  Cu22  1  0.499997  0.999996  0.000000  1
  Cu  Cu23  1  0.999993  0.500005  0.500002  1
  Cu  Cu24  1  0.000002  0.499997  0.000001  1
  Cu  Cu25  1  0.500006  0.999993  0.499998  1
  Cu  Cu26  1  0.000004  0.999997  0.500007  1
  Cu  Cu27  1  0.499980  0.500011  0.999999  1
  Cu  Cu28  1  0.000001  0.999998  0.000002  1
  S  S29  1  0.500001  0.500003  0.499998  1
