# generated using pymatgen
data_Ho4Er8Tc3Ru
_symmetry_space_group_name_H-M   'P 1'
_cell_length_a   6.23175603
_cell_length_b   7.34168205
_cell_length_c   9.05187800
_cell_angle_alpha   90.00000000
_cell_angle_beta   90.00000000
_cell_angle_gamma   90.01205661
_symmetry_Int_Tables_number   1
_chemical_formula_structural   Ho4Er8Tc3Ru
_chemical_formula_sum   'Ho4 Er8 Tc3 Ru1'
_cell_volume   414.13763311
_cell_formula_units_Z   1
loop_
 _symmetry_equiv_pos_site_id
 _symmetry_equiv_pos_as_xyz
  1  'x, y, z'
loop_
 _atom_site_type_symbol
 _atom_site_label
 _atom_site_symmetry_multiplicity
 _atom_site_fract_x
 _atom_site_fract_y
 _atom_site_fract_z
 _atom_site_occupancy
  Ho  Ho0  1  0.874007  0.540458  0.250000  1
  Ho  Ho1  1  0.626260  0.039464  0.250000  1
  Ho  Ho2  1  0.129823  0.458698  0.750000  1
  Ho  Ho3  1  0.374470  0.957918  0.750000  1
  Er  Er4  1  0.336735  0.676643  0.062873  1
  Er  Er5  1  0.160774  0.175789  0.437799  1
  Er  Er6  1  0.660919  0.324237  0.562663  1
  Er  Er7  1  0.838169  0.823826  0.937648  1
  Er  Er8  1  0.660919  0.324237  0.937337  1
  Er  Er9  1  0.838169  0.823826  0.562352  1
  Er  Er10  1  0.336735  0.676643  0.437127  1
  Er  Er11  1  0.160774  0.175789  0.062201  1
  Tc  Tc12  1  0.041321  0.884401  0.250000  1
  Tc  Tc13  1  0.460422  0.386361  0.250000  1
  Tc  Tc14  1  0.960469  0.115611  0.750000  1
  Ru  Ru15  1  0.540033  0.616097  0.750000  1
