# generated using pymatgen
data_Tb7Sm(PI6)2
_symmetry_space_group_name_H-M   'P 1'
_cell_length_a   4.22341300
_cell_length_b   13.92848075
_cell_length_c   14.72014102
_cell_angle_alpha   89.90537132
_cell_angle_beta   90.00000000
_cell_angle_gamma   90.00000000
_symmetry_Int_Tables_number   1
_chemical_formula_structural   Tb7Sm(PI6)2
_chemical_formula_sum   'Tb7 Sm1 P2 I12'
_cell_volume   865.92181108
_cell_formula_units_Z   1
loop_
 _symmetry_equiv_pos_site_id
 _symmetry_equiv_pos_as_xyz
  1  'x, y, z'
loop_
 _atom_site_type_symbol
 _atom_site_label
 _atom_site_symmetry_multiplicity
 _atom_site_fract_x
 _atom_site_fract_y
 _atom_site_fract_z
 _atom_site_occupancy
  Tb  Tb0  1  0.500000  0.113295  0.350727  1
  Tb  Tb1  1  0.500000  0.886435  0.649201  1
  Tb  Tb2  1  0.500000  0.613267  0.149021  1
  Tb  Tb3  1  0.500000  0.386860  0.850914  1
  Tb  Tb4  1  0.000000  0.892433  0.427542  1
  Tb  Tb5  1  0.000000  0.606509  0.928379  1
  Tb  Tb6  1  0.000000  0.393559  0.071781  1
  Sm  Sm7  1  0.000000  0.107669  0.572744  1
  P  P8  1  0.500000  0.997843  0.498601  1
  P  P9  1  0.500000  0.500003  0.000067  1
  I  I10  1  0.500000  0.248465  0.161555  1
  I  I11  1  0.500000  0.751089  0.838207  1
  I  I12  1  0.500000  0.747244  0.337201  1
  I  I13  1  0.500000  0.256187  0.664244  1
  I  I14  1  0.000000  0.260198  0.413103  1
  I  I15  1  0.000000  0.740727  0.584211  1
  I  I16  1  0.000000  0.758938  0.083980  1
  I  I17  1  0.000000  0.241206  0.916219  1
  I  I18  1  0.000000  0.000760  0.240829  1
  I  I19  1  0.000000  0.996578  0.761257  1
  I  I20  1  0.000000  0.500617  0.258726  1
  I  I21  1  0.000000  0.500120  0.741492  1
