# generated using pymatgen
data_Na5ReN4
_symmetry_space_group_name_H-M   'P 1'
_cell_length_a   5.66435100
_cell_length_b   7.32611000
_cell_length_c   7.66057100
_cell_angle_alpha   90.00000000
_cell_angle_beta   90.00000000
_cell_angle_gamma   90.00000000
_symmetry_Int_Tables_number   1
_chemical_formula_structural   Na5ReN4
_chemical_formula_sum   'Na10 Re2 N8'
_cell_volume   317.89575931
_cell_formula_units_Z   2
loop_
 _symmetry_equiv_pos_site_id
 _symmetry_equiv_pos_as_xyz
  1  'x, y, z'
loop_
 _atom_site_type_symbol
 _atom_site_label
 _atom_site_symmetry_multiplicity
 _atom_site_fract_x
 _atom_site_fract_y
 _atom_site_fract_z
 _atom_site_occupancy
  Na  Na0  1  0.761585  0.235650  0.309934  1
  Na  Na1  1  0.761585  0.235650  0.690066  1
  Na  Na2  1  0.761585  0.764350  0.309934  1
  Na  Na3  1  0.761585  0.764350  0.690066  1
  Na  Na4  1  0.238415  0.264350  0.190066  1
  Na  Na5  1  0.238415  0.264350  0.809934  1
  Na  Na6  1  0.238415  0.735650  0.190066  1
  Na  Na7  1  0.238415  0.735650  0.809934  1
  Na  Na8  1  0.328212  0.500000  0.500000  1
  Na  Na9  1  0.671788  0.000000  0.000000  1
  Re  Re10  1  0.284867  0.000000  0.500000  1
  Re  Re11  1  0.715133  0.500000  0.000000  1
  N  N12  1  0.102167  0.790434  0.500000  1
  N  N13  1  0.102167  0.209566  0.500000  1
  N  N14  1  0.897833  0.709566  0.000000  1
  N  N15  1  0.897833  0.290434  0.000000  1
  N  N16  1  0.533665  0.500000  0.201701  1
  N  N17  1  0.533665  0.500000  0.798299  1
  N  N18  1  0.466335  0.000000  0.298299  1
  N  N19  1  0.466335  0.000000  0.701701  1
