# generated using pymatgen
data_DyNiSb3
_symmetry_space_group_name_H-M   'P 1'
_cell_length_a   6.26567800
_cell_length_b   12.50561700
_cell_length_c   18.18922400
_cell_angle_alpha   90.00000000
_cell_angle_beta   90.00000000
_cell_angle_gamma   90.00000000
_symmetry_Int_Tables_number   1
_chemical_formula_structural   DyNiSb3
_chemical_formula_sum   'Dy12 Ni12 Sb36'
_cell_volume   1425.23791542
_cell_formula_units_Z   12
loop_
 _symmetry_equiv_pos_site_id
 _symmetry_equiv_pos_as_xyz
  1  'x, y, z'
loop_
 _atom_site_type_symbol
 _atom_site_label
 _atom_site_symmetry_multiplicity
 _atom_site_fract_x
 _atom_site_fract_y
 _atom_site_fract_z
 _atom_site_occupancy
  Dy  Dy0  1  0.528296  0.701250  0.416247  1
  Dy  Dy1  1  0.937197  0.304139  0.750000  1
  Dy  Dy2  1  0.562803  0.304139  0.250000  1
  Dy  Dy3  1  0.971704  0.701250  0.916247  1
  Dy  Dy4  1  0.028296  0.298750  0.416247  1
  Dy  Dy5  1  0.062803  0.695861  0.250000  1
  Dy  Dy6  1  0.471704  0.298750  0.916247  1
  Dy  Dy7  1  0.471704  0.298750  0.583753  1
  Dy  Dy8  1  0.528296  0.701250  0.083753  1
  Dy  Dy9  1  0.971704  0.701250  0.583753  1
  Dy  Dy10  1  0.028296  0.298750  0.083753  1
  Dy  Dy11  1  0.437197  0.695861  0.750000  1
  Ni  Ni12  1  0.750000  0.107095  0.500000  1
  Ni  Ni13  1  0.671208  0.897192  0.675779  1
  Ni  Ni14  1  0.328792  0.102808  0.175779  1
  Ni  Ni15  1  0.250000  0.892905  0.500000  1
  Ni  Ni16  1  0.828792  0.897192  0.324221  1
  Ni  Ni17  1  0.171208  0.102808  0.675779  1
  Ni  Ni18  1  0.328792  0.102808  0.324221  1
  Ni  Ni19  1  0.828792  0.897192  0.175779  1
  Ni  Ni20  1  0.171208  0.102808  0.824221  1
  Ni  Ni21  1  0.750000  0.107095  0.000000  1
  Ni  Ni22  1  0.250000  0.892905  0.000000  1
  Ni  Ni23  1  0.671208  0.897192  0.824221  1
  Sb  Sb24  1  0.958024  0.973020  0.586676  1
  Sb  Sb25  1  0.458024  0.026980  0.913324  1
  Sb  Sb26  1  0.026087  0.767265  0.084301  1
  Sb  Sb27  1  0.973913  0.232735  0.915699  1
  Sb  Sb28  1  0.054995  0.229668  0.250000  1
  Sb  Sb29  1  0.796583  0.504122  0.166097  1
  Sb  Sb30  1  0.750000  0.495927  0.500000  1
  Sb  Sb31  1  0.750000  0.495927  0.000000  1
  Sb  Sb32  1  0.041976  0.026980  0.086676  1
  Sb  Sb33  1  0.026087  0.767265  0.415699  1
  Sb  Sb34  1  0.296583  0.495878  0.333903  1
  Sb  Sb35  1  0.203417  0.495878  0.666097  1
  Sb  Sb36  1  0.313811  0.941024  0.750000  1
  Sb  Sb37  1  0.473913  0.767265  0.584301  1
  Sb  Sb38  1  0.186189  0.941024  0.250000  1
  Sb  Sb39  1  0.686189  0.058976  0.250000  1
  Sb  Sb40  1  0.526087  0.232735  0.415699  1
  Sb  Sb41  1  0.445005  0.229668  0.750000  1
  Sb  Sb42  1  0.703417  0.504122  0.666097  1
  Sb  Sb43  1  0.541976  0.973020  0.086676  1
  Sb  Sb44  1  0.703417  0.504122  0.833903  1
  Sb  Sb45  1  0.945005  0.770332  0.750000  1
  Sb  Sb46  1  0.250000  0.504073  0.500000  1
  Sb  Sb47  1  0.250000  0.504073  0.000000  1
  Sb  Sb48  1  0.473913  0.767265  0.915699  1
  Sb  Sb49  1  0.296583  0.495878  0.166097  1
  Sb  Sb50  1  0.203417  0.495878  0.833903  1
  Sb  Sb51  1  0.458024  0.026980  0.586676  1
  Sb  Sb52  1  0.041976  0.026980  0.413324  1
  Sb  Sb53  1  0.526087  0.232735  0.084301  1
  Sb  Sb54  1  0.796583  0.504122  0.333903  1
  Sb  Sb55  1  0.813811  0.058976  0.750000  1
  Sb  Sb56  1  0.973913  0.232735  0.584301  1
  Sb  Sb57  1  0.554995  0.770332  0.250000  1
  Sb  Sb58  1  0.958024  0.973020  0.913324  1
  Sb  Sb59  1  0.541976  0.973020  0.413324  1
