# generated using pymatgen
data_TbPr3(Pd2O5)2
_symmetry_space_group_name_H-M   'P 1'
_cell_length_a   6.63644260
_cell_length_b   6.64814810
_cell_length_c   5.61675300
_cell_angle_alpha   90.00000000
_cell_angle_beta   90.00000000
_cell_angle_gamma   89.88561461
_symmetry_Int_Tables_number   1
_chemical_formula_structural   TbPr3(Pd2O5)2
_chemical_formula_sum   'Tb1 Pr3 Pd4 O10'
_cell_volume   247.81094780
_cell_formula_units_Z   1
loop_
 _symmetry_equiv_pos_site_id
 _symmetry_equiv_pos_as_xyz
  1  'x, y, z'
loop_
 _atom_site_type_symbol
 _atom_site_label
 _atom_site_symmetry_multiplicity
 _atom_site_fract_x
 _atom_site_fract_y
 _atom_site_fract_z
 _atom_site_occupancy
  Tb  Tb0  1  0.746262  0.109104  0.500000  1
  Pr  Pr1  1  0.107364  0.261475  0.000000  1
  Pr  Pr2  1  0.889828  0.742159  0.000000  1
  Pr  Pr3  1  0.263017  0.894383  0.500000  1
  Pd  Pd4  1  0.596368  0.302627  0.000000  1
  Pd  Pd5  1  0.404817  0.695887  0.000000  1
  Pd  Pd6  1  0.307563  0.404187  0.500000  1
  Pd  Pd7  1  0.693822  0.595041  0.500000  1
  O  O8  1  0.406281  0.193945  0.260860  1
  O  O9  1  0.598511  0.807753  0.738961  1
  O  O10  1  0.598511  0.807753  0.261039  1
  O  O11  1  0.195537  0.597750  0.758837  1
  O  O12  1  0.406281  0.193945  0.739140  1
  O  O13  1  0.802482  0.394562  0.247888  1
  O  O14  1  0.802482  0.394562  0.752112  1
  O  O15  1  0.195537  0.597750  0.241163  1
  O  O16  1  0.992669  0.003559  0.254179  1
  O  O17  1  0.992669  0.003559  0.745821  1
