# generated using pymatgen
data_Tb3In3Pd2Pt
_symmetry_space_group_name_H-M   'P 1'
_cell_length_a   7.81610800
_cell_length_b   7.81610792
_cell_length_c   3.77265300
_cell_angle_alpha   90.00000000
_cell_angle_beta   90.00000000
_cell_angle_gamma   120.00000032
_symmetry_Int_Tables_number   1
_chemical_formula_structural   Tb3In3Pd2Pt
_chemical_formula_sum   'Tb3 In3 Pd2 Pt1'
_cell_volume   199.59910569
_cell_formula_units_Z   1
loop_
 _symmetry_equiv_pos_site_id
 _symmetry_equiv_pos_as_xyz
  1  'x, y, z'
loop_
 _atom_site_type_symbol
 _atom_site_label
 _atom_site_symmetry_multiplicity
 _atom_site_fract_x
 _atom_site_fract_y
 _atom_site_fract_z
 _atom_site_occupancy
  Tb  Tb0  1  0.406286  0.995082  0.000000  1
  Tb  Tb1  1  0.004918  0.411203  0.000000  1
  Tb  Tb2  1  0.588797  0.593714  0.000000  1
  In  In3  1  0.262608  0.260933  0.500000  1
  In  In4  1  0.998325  0.737392  0.500000  1
  In  In5  1  0.739067  0.001675  0.500000  1
  Pd  Pd6  1  0.000000  0.000000  0.000000  1
  Pd  Pd7  1  0.666667  0.333333  0.500000  1
  Pt  Pt8  1  0.333333  0.666667  0.500000  1
