# generated using pymatgen
data_Lu3Sc2Bi2As
_symmetry_space_group_name_H-M   'P 1'
_cell_length_a   7.77265300
_cell_length_b   8.89500000
_cell_length_c   11.49367500
_cell_angle_alpha   90.00000000
_cell_angle_beta   90.00000000
_cell_angle_gamma   90.00000000
_symmetry_Int_Tables_number   1
_chemical_formula_structural   Lu3Sc2Bi2As
_chemical_formula_sum   'Lu12 Sc8 Bi8 As4'
_cell_volume   794.64681074
_cell_formula_units_Z   4
loop_
 _symmetry_equiv_pos_site_id
 _symmetry_equiv_pos_as_xyz
  1  'x, y, z'
loop_
 _atom_site_type_symbol
 _atom_site_label
 _atom_site_symmetry_multiplicity
 _atom_site_fract_x
 _atom_site_fract_y
 _atom_site_fract_z
 _atom_site_occupancy
  Lu  Lu0  1  0.813157  0.941091  0.061479  1
  Lu  Lu1  1  0.313157  0.058909  0.438521  1
  Lu  Lu2  1  0.186843  0.441091  0.938521  1
  Lu  Lu3  1  0.686843  0.558909  0.561479  1
  Lu  Lu4  1  0.186843  0.058909  0.938521  1
  Lu  Lu5  1  0.686843  0.941091  0.561479  1
  Lu  Lu6  1  0.813157  0.558909  0.061479  1
  Lu  Lu7  1  0.313157  0.441091  0.438521  1
  Lu  Lu8  1  0.163751  0.750000  0.213590  1
  Lu  Lu9  1  0.663751  0.250000  0.286410  1
  Lu  Lu10  1  0.836249  0.250000  0.786410  1
  Lu  Lu11  1  0.336249  0.750000  0.713590  1
  Sc  Sc12  1  0.465278  0.750000  0.002336  1
  Sc  Sc13  1  0.965278  0.250000  0.497664  1
  Sc  Sc14  1  0.534722  0.250000  0.997664  1
  Sc  Sc15  1  0.034722  0.750000  0.502336  1
  Sc  Sc16  1  0.637580  0.750000  0.292095  1
  Sc  Sc17  1  0.137580  0.250000  0.207905  1
  Sc  Sc18  1  0.362420  0.250000  0.707905  1
  Sc  Sc19  1  0.862420  0.750000  0.792095  1
  Bi  Bi20  1  0.928571  0.511415  0.328177  1
  Bi  Bi21  1  0.428571  0.488585  0.171823  1
  Bi  Bi22  1  0.071429  0.011415  0.671823  1
  Bi  Bi23  1  0.571429  0.988585  0.828177  1
  Bi  Bi24  1  0.071429  0.488585  0.671823  1
  Bi  Bi25  1  0.571429  0.511415  0.828177  1
  Bi  Bi26  1  0.928571  0.988585  0.328177  1
  Bi  Bi27  1  0.428571  0.011415  0.171823  1
  As  As28  1  0.408268  0.750000  0.473200  1
  As  As29  1  0.908268  0.250000  0.026800  1
  As  As30  1  0.591732  0.250000  0.526800  1
  As  As31  1  0.091732  0.750000  0.973200  1
