# generated using pymatgen
data_Zr8In4Pd3Au5
_symmetry_space_group_name_H-M   'P 1'
_cell_length_a   7.58846823
_cell_length_b   7.57867335
_cell_length_c   7.09980419
_cell_angle_alpha   89.94088244
_cell_angle_beta   89.94396912
_cell_angle_gamma   89.95228474
_symmetry_Int_Tables_number   1
_chemical_formula_structural   Zr8In4Pd3Au5
_chemical_formula_sum   'Zr8 In4 Pd3 Au5'
_cell_volume   408.31289081
_cell_formula_units_Z   1
loop_
 _symmetry_equiv_pos_site_id
 _symmetry_equiv_pos_as_xyz
  1  'x, y, z'
loop_
 _atom_site_type_symbol
 _atom_site_label
 _atom_site_symmetry_multiplicity
 _atom_site_fract_x
 _atom_site_fract_y
 _atom_site_fract_z
 _atom_site_occupancy
  Zr  Zr0  1  0.153541  0.142392  0.996271  1
  Zr  Zr1  1  0.861893  0.849691  0.000685  1
  Zr  Zr2  1  0.640855  0.351758  0.503628  1
  Zr  Zr3  1  0.343984  0.648908  0.503817  1
  Zr  Zr4  1  0.689728  0.306592  0.996720  1
  Zr  Zr5  1  0.301501  0.695417  0.997405  1
  Zr  Zr6  1  0.816019  0.806558  0.500297  1
  Zr  Zr7  1  0.196036  0.187662  0.503359  1
  In  In8  1  0.496609  0.998173  0.251066  1
  In  In9  1  0.495956  0.003280  0.750171  1
  In  In10  1  0.999861  0.503260  0.251090  1
  In  In11  1  0.005150  0.501829  0.750065  1
  Pd  Pd12  1  0.367954  0.370449  0.791546  1
  Pd  Pd13  1  0.131982  0.870107  0.291249  1
  Pd  Pd14  1  0.131229  0.869912  0.707715  1
  Au  Au15  1  0.367534  0.371149  0.205655  1
  Au  Au16  1  0.627729  0.631346  0.792258  1
  Au  Au17  1  0.628692  0.631826  0.209245  1
  Au  Au18  1  0.871825  0.129159  0.707110  1
  Au  Au19  1  0.871925  0.130531  0.290650  1
