# generated using pymatgen
data_TmMgSc3P12Ru19
_symmetry_space_group_name_H-M   'P 1'
_cell_length_a   12.41897354
_cell_length_b   12.42639414
_cell_length_c   3.95468900
_cell_angle_alpha   90.00000000
_cell_angle_beta   90.00000000
_cell_angle_gamma   120.11510910
_symmetry_Int_Tables_number   1
_chemical_formula_structural   TmMgSc3P12Ru19
_chemical_formula_sum   'Tm1 Mg1 Sc3 P12 Ru19'
_cell_volume   527.92092880
_cell_formula_units_Z   1
loop_
 _symmetry_equiv_pos_site_id
 _symmetry_equiv_pos_as_xyz
  1  'x, y, z'
loop_
 _atom_site_type_symbol
 _atom_site_label
 _atom_site_symmetry_multiplicity
 _atom_site_fract_x
 _atom_site_fract_y
 _atom_site_fract_z
 _atom_site_occupancy
  Tm  Tm0  1  0.326270  0.660996  0.000000  1
  Mg  Mg1  1  0.999836  0.186655  0.500000  1
  Sc  Sc2  1  0.818530  0.817268  0.500000  1
  Sc  Sc3  1  0.181814  0.997040  0.500000  1
  Sc  Sc4  1  0.674418  0.333984  0.000000  1
  P  P5  1  0.998466  0.828979  0.000000  1
  P  P6  1  0.194355  0.175711  0.000000  1
  P  P7  1  0.807992  0.985976  0.000000  1
  P  P8  1  0.700686  0.171613  0.500000  1
  P  P9  1  0.828350  0.524900  0.500000  1
  P  P10  1  0.483252  0.306667  0.500000  1
  P  P11  1  0.167372  0.694607  0.500000  1
  P  P12  1  0.519089  0.827131  0.500000  1
  P  P13  1  0.301103  0.468769  0.500000  1
  P  P14  1  0.000449  0.382033  0.000000  1
  P  P15  1  0.624422  0.625744  0.000000  1
  P  P16  1  0.374930  0.000845  0.000000  1
  Ru  Ru17  1  0.001323  0.563031  0.000000  1
  Ru  Ru18  1  0.437089  0.445039  0.000000  1
  Ru  Ru19  1  0.560682  0.004793  0.000000  1
  Ru  Ru20  1  0.998350  0.725295  0.500000  1
  Ru  Ru21  1  0.282040  0.274628  0.500000  1
  Ru  Ru22  1  0.719605  0.996051  0.500000  1
  Ru  Ru23  1  0.825245  0.183935  0.000000  1
  Ru  Ru24  1  0.813677  0.629445  0.000000  1
  Ru  Ru25  1  0.386456  0.193273  0.000000  1
  Ru  Ru26  1  0.183757  0.817011  0.000000  1
  Ru  Ru27  1  0.617596  0.809505  0.000000  1
  Ru  Ru28  1  0.172412  0.353430  0.000000  1
  Ru  Ru29  1  0.872261  0.367544  0.500000  1
  Ru  Ru30  1  0.632789  0.507685  0.500000  1
  Ru  Ru31  1  0.501513  0.130063  0.500000  1
  Ru  Ru32  1  0.365120  0.875225  0.500000  1
  Ru  Ru33  1  0.501866  0.631092  0.500000  1
  Ru  Ru34  1  0.126595  0.491196  0.500000  1
  Ru  Ru35  1  0.000290  0.012841  0.000000  1
