# generated using pymatgen
data_Y2ThTi(P3Ir4)2
_symmetry_space_group_name_H-M   'P 1'
_cell_length_a   4.00803100
_cell_length_b   11.23890800
_cell_length_c   12.86092800
_cell_angle_alpha   90.00000000
_cell_angle_beta   90.00000000
_cell_angle_gamma   90.00000000
_symmetry_Int_Tables_number   1
_chemical_formula_structural   Y2ThTi(P3Ir4)2
_chemical_formula_sum   'Y4 Th2 Ti2 P12 Ir16'
_cell_volume   579.33196947
_cell_formula_units_Z   2
loop_
 _symmetry_equiv_pos_site_id
 _symmetry_equiv_pos_as_xyz
  1  'x, y, z'
loop_
 _atom_site_type_symbol
 _atom_site_label
 _atom_site_symmetry_multiplicity
 _atom_site_fract_x
 _atom_site_fract_y
 _atom_site_fract_z
 _atom_site_occupancy
  Y  Y0  1  0.500000  0.816657  0.201917  1
  Y  Y1  1  0.500000  0.183343  0.201917  1
  Y  Y2  1  0.000000  0.683343  0.798083  1
  Y  Y3  1  0.000000  0.316657  0.798083  1
  Th  Th4  1  0.000000  0.500000  0.524620  1
  Th  Th5  1  0.500000  0.000000  0.475380  1
  Ti  Ti6  1  0.500000  0.500000  0.155136  1
  Ti  Ti7  1  0.000000  0.000000  0.844864  1
  P  P8  1  0.500000  0.500000  0.876964  1
  P  P9  1  0.000000  0.000000  0.123036  1
  P  P10  1  0.500000  0.500000  0.346344  1
  P  P11  1  0.000000  0.000000  0.653656  1
  P  P12  1  0.500000  0.311040  0.619727  1
  P  P13  1  0.500000  0.688960  0.619727  1
  P  P14  1  0.000000  0.188960  0.380273  1
  P  P15  1  0.000000  0.811040  0.380273  1
  P  P16  1  0.500000  0.845205  0.888765  1
  P  P17  1  0.500000  0.154795  0.888765  1
  P  P18  1  0.000000  0.654795  0.111235  1
  P  P19  1  0.000000  0.345205  0.111235  1
  Ir  Ir20  1  0.500000  0.500000  0.698698  1
  Ir  Ir21  1  0.000000  0.000000  0.301302  1
  Ir  Ir22  1  0.000000  0.500000  0.991876  1
  Ir  Ir23  1  0.500000  0.000000  0.008124  1
  Ir  Ir24  1  0.500000  0.331640  0.984461  1
  Ir  Ir25  1  0.500000  0.668360  0.984461  1
  Ir  Ir26  1  0.000000  0.168360  0.015539  1
  Ir  Ir27  1  0.000000  0.831640  0.015539  1
  Ir  Ir28  1  0.500000  0.293925  0.431493  1
  Ir  Ir29  1  0.500000  0.706075  0.431493  1
  Ir  Ir30  1  0.000000  0.206075  0.568507  1
  Ir  Ir31  1  0.000000  0.793925  0.568507  1
  Ir  Ir32  1  0.500000  0.873049  0.711326  1
  Ir  Ir33  1  0.500000  0.126951  0.711326  1
  Ir  Ir34  1  0.000000  0.626951  0.288674  1
  Ir  Ir35  1  0.000000  0.373049  0.288674  1
