# generated using pymatgen
data_LaScP7(Ru5Rh)2
_symmetry_space_group_name_H-M   'P 1'
_cell_length_a   9.44393689
_cell_length_b   9.50937482
_cell_length_c   3.93251900
_cell_angle_alpha   90.00000000
_cell_angle_beta   90.00000000
_cell_angle_gamma   120.17056889
_symmetry_Int_Tables_number   1
_chemical_formula_structural   LaScP7(Ru5Rh)2
_chemical_formula_sum   'La1 Sc1 P7 Ru10 Rh2'
_cell_volume   305.32156782
_cell_formula_units_Z   1
loop_
 _symmetry_equiv_pos_site_id
 _symmetry_equiv_pos_as_xyz
  1  'x, y, z'
loop_
 _atom_site_type_symbol
 _atom_site_label
 _atom_site_symmetry_multiplicity
 _atom_site_fract_x
 _atom_site_fract_y
 _atom_site_fract_z
 _atom_site_occupancy
  La  La0  1  0.330567  0.665441  0.000000  1
  Sc  Sc1  1  0.668455  0.332967  0.500000  1
  P  P2  1  0.606458  0.715660  0.500000  1
  P  P3  1  0.000151  0.001927  0.000000  1
  P  P4  1  0.278634  0.885826  0.500000  1
  P  P5  1  0.107497  0.396107  0.500000  1
  P  P6  1  0.883949  0.572622  0.000000  1
  P  P7  1  0.428576  0.306465  0.000000  1
  P  P8  1  0.693589  0.118696  0.000000  1
  Ru  Ru9  1  0.913388  0.122515  0.500000  1
  Ru  Ru10  1  0.212173  0.088928  0.500000  1
  Ru  Ru11  1  0.878823  0.794313  0.500000  1
  Ru  Ru12  1  0.725815  0.890208  0.000000  1
  Ru  Ru13  1  0.109085  0.839385  0.000000  1
  Ru  Ru14  1  0.165640  0.273104  0.000000  1
  Ru  Ru15  1  0.430791  0.070114  0.000000  1
  Ru  Ru16  1  0.930018  0.357129  0.000000  1
  Ru  Ru17  1  0.642650  0.570544  0.000000  1
  Ru  Ru18  1  0.041607  0.605931  0.500000  1
  Rh  Rh19  1  0.557371  0.951760  0.500000  1
  Rh  Rh20  1  0.394766  0.440355  0.500000  1
