# generated using pymatgen
data_La2ReB5Os2
_symmetry_space_group_name_H-M   'P 1'
_cell_length_a   5.79851816
_cell_length_b   5.79851783
_cell_length_c   8.10041295
_cell_angle_alpha   57.83700502
_cell_angle_beta   57.83700588
_cell_angle_gamma   41.68070601
_symmetry_Int_Tables_number   1
_chemical_formula_structural   La2ReB5Os2
_chemical_formula_sum   'La2 Re1 B5 Os2'
_cell_volume   148.86116678
_cell_formula_units_Z   1
loop_
 _symmetry_equiv_pos_site_id
 _symmetry_equiv_pos_as_xyz
  1  'x, y, z'
loop_
 _atom_site_type_symbol
 _atom_site_label
 _atom_site_symmetry_multiplicity
 _atom_site_fract_x
 _atom_site_fract_y
 _atom_site_fract_z
 _atom_site_occupancy
  La  La0  1  0.399049  0.925109  0.740866  1
  La  La1  1  0.074891  0.600951  0.259134  1
  Re  Re2  1  0.006644  0.993356  0.500000  1
  B  B3  1  0.740031  0.259969  0.000000  1
  B  B4  1  0.533377  0.531552  0.377657  1
  B  B5  1  0.468448  0.466623  0.622343  1
  B  B6  1  0.083248  0.625771  0.813528  1
  B  B7  1  0.374229  0.916752  0.186472  1
  Os  Os8  1  0.609421  0.123066  0.905285  1
  Os  Os9  1  0.876934  0.390579  0.094715  1
