# generated using pymatgen
data_Dy15U(CdFe)4
_symmetry_space_group_name_H-M   'P 1'
_cell_length_a   9.43914651
_cell_length_b   9.65662723
_cell_length_c   9.44613500
_cell_angle_alpha   60.71635739
_cell_angle_beta   59.89497949
_cell_angle_gamma   60.71318644
_symmetry_Int_Tables_number   1
_chemical_formula_structural   Dy15U(CdFe)4
_chemical_formula_sum   'Dy15 U1 Cd4 Fe4'
_cell_volume   614.82671164
_cell_formula_units_Z   1
loop_
 _symmetry_equiv_pos_site_id
 _symmetry_equiv_pos_as_xyz
  1  'x, y, z'
loop_
 _atom_site_type_symbol
 _atom_site_label
 _atom_site_symmetry_multiplicity
 _atom_site_fract_x
 _atom_site_fract_y
 _atom_site_fract_z
 _atom_site_occupancy
  Dy  Dy0  1  0.685240  0.316844  0.685101  1
  Dy  Dy1  1  0.685602  0.314658  0.315241  1
  Dy  Dy2  1  0.943386  0.556933  0.555027  1
  Dy  Dy3  1  0.545530  0.144241  0.155574  1
  Dy  Dy4  1  0.155515  0.144330  0.545666  1
  Dy  Dy5  1  0.940590  0.930451  0.563953  1
  Dy  Dy6  1  0.309019  0.696452  0.308796  1
  Dy  Dy7  1  0.564402  0.930284  0.940092  1
  Dy  Dy8  1  0.564906  0.929924  0.564709  1
  Dy  Dy9  1  0.685461  0.696454  0.310588  1
  Dy  Dy10  1  0.554828  0.556794  0.943527  1
  Dy  Dy11  1  0.943700  0.556059  0.943605  1
  Dy  Dy12  1  0.310695  0.696543  0.685358  1
  Dy  Dy13  1  0.155003  0.144155  0.154981  1
  Dy  Dy14  1  0.315353  0.314671  0.685460  1
  U  U15  1  0.176618  0.468751  0.177115  1
  Cd  Cd16  1  0.919355  0.243584  0.919268  1
  Cd  Cd17  1  0.920782  0.920235  0.920695  1
  Cd  Cd18  1  0.919606  0.919214  0.241065  1
  Cd  Cd19  1  0.241233  0.919473  0.919363  1
  Fe  Fe20  1  0.328736  0.394181  0.945615  1
  Fe  Fe21  1  0.358771  0.918357  0.359217  1
  Fe  Fe22  1  0.945179  0.393698  0.329274  1
  Fe  Fe23  1  0.330492  0.393714  0.330712  1
