# generated using pymatgen
data_Hf2Sn2IrRh
_symmetry_space_group_name_H-M   'P 1'
_cell_length_a   7.39597900
_cell_length_b   7.39597951
_cell_length_c   7.23848700
_cell_angle_alpha   90.00000000
_cell_angle_beta   90.00000000
_cell_angle_gamma   120.00000219
_symmetry_Int_Tables_number   1
_chemical_formula_structural   Hf2Sn2IrRh
_chemical_formula_sum   'Hf6 Sn6 Ir3 Rh3'
_cell_volume   342.90181947
_cell_formula_units_Z   3
loop_
 _symmetry_equiv_pos_site_id
 _symmetry_equiv_pos_as_xyz
  1  'x, y, z'
loop_
 _atom_site_type_symbol
 _atom_site_label
 _atom_site_symmetry_multiplicity
 _atom_site_fract_x
 _atom_site_fract_y
 _atom_site_fract_z
 _atom_site_occupancy
  Hf  Hf0  1  0.024410  0.410957  0.749854  1
  Hf  Hf1  1  0.589043  0.613453  0.749854  1
  Hf  Hf2  1  0.386547  0.975590  0.749854  1
  Hf  Hf3  1  0.981632  0.388272  0.251415  1
  Hf  Hf4  1  0.611728  0.593360  0.251415  1
  Hf  Hf5  1  0.406640  0.018368  0.251415  1
  Sn  Sn6  1  0.269314  0.268175  0.500685  1
  Sn  Sn7  1  0.998861  0.730686  0.500685  1
  Sn  Sn8  1  0.996410  0.727132  0.000313  1
  Sn  Sn9  1  0.731825  0.001139  0.500685  1
  Sn  Sn10  1  0.730722  0.003590  0.000313  1
  Sn  Sn11  1  0.272868  0.269278  0.000313  1
  Ir  Ir12  1  0.333333  0.666667  0.460429  1
  Ir  Ir13  1  0.666667  0.333333  0.534458  1
  Ir  Ir14  1  0.333333  0.666667  0.039876  1
  Rh  Rh15  1  0.000000  0.000000  0.751487  1
  Rh  Rh16  1  0.000000  0.000000  0.249666  1
  Rh  Rh17  1  0.666667  0.333333  0.957282  1
