# generated using pymatgen
data_Nd(Cr3S4)2
_symmetry_space_group_name_H-M   'P 1'
_cell_length_a   6.25147182
_cell_length_b   6.25147289
_cell_length_c   6.25147232
_cell_angle_alpha   88.85014802
_cell_angle_beta   88.85015660
_cell_angle_gamma   88.85015185
_symmetry_Int_Tables_number   1
_chemical_formula_structural   Nd(Cr3S4)2
_chemical_formula_sum   'Nd1 Cr6 S8'
_cell_volume   244.16756125
_cell_formula_units_Z   1
loop_
 _symmetry_equiv_pos_site_id
 _symmetry_equiv_pos_as_xyz
  1  'x, y, z'
loop_
 _atom_site_type_symbol
 _atom_site_label
 _atom_site_symmetry_multiplicity
 _atom_site_fract_x
 _atom_site_fract_y
 _atom_site_fract_z
 _atom_site_occupancy
  Nd  Nd0  1  0.000000  0.000000  0.000000  1
  Cr  Cr1  1  0.766900  0.580513  0.436843  1
  Cr  Cr2  1  0.436843  0.766900  0.580513  1
  Cr  Cr3  1  0.580513  0.436843  0.766900  1
  Cr  Cr4  1  0.233100  0.419487  0.563157  1
  Cr  Cr5  1  0.563157  0.233100  0.419487  1
  Cr  Cr6  1  0.419487  0.563157  0.233100  1
  S  S7  1  0.749593  0.749593  0.749593  1
  S  S8  1  0.250407  0.250407  0.250407  1
  S  S9  1  0.258664  0.616189  0.873210  1
  S  S10  1  0.873210  0.258664  0.616189  1
  S  S11  1  0.616189  0.873210  0.258664  1
  S  S12  1  0.741336  0.383811  0.126790  1
  S  S13  1  0.126790  0.741336  0.383811  1
  S  S14  1  0.383811  0.126790  0.741336  1
