# generated using pymatgen
data_Er2Co3B8Os5
_symmetry_space_group_name_H-M   'P 1'
_cell_length_a   7.25034423
_cell_length_b   7.29362700
_cell_length_c   3.97469017
_cell_angle_alpha   89.77808576
_cell_angle_beta   89.98095435
_cell_angle_gamma   89.04010974
_symmetry_Int_Tables_number   1
_chemical_formula_structural   Er2Co3B8Os5
_chemical_formula_sum   'Er2 Co3 B8 Os5'
_cell_volume   210.15572929
_cell_formula_units_Z   1
loop_
 _symmetry_equiv_pos_site_id
 _symmetry_equiv_pos_as_xyz
  1  'x, y, z'
loop_
 _atom_site_type_symbol
 _atom_site_label
 _atom_site_symmetry_multiplicity
 _atom_site_fract_x
 _atom_site_fract_y
 _atom_site_fract_z
 _atom_site_occupancy
  Er  Er0  1  0.001735  0.998242  0.090654  1
  Er  Er1  1  0.500002  0.506980  0.620275  1
  Co  Co2  1  0.375014  0.874714  0.372233  1
  Co  Co3  1  0.614578  0.870629  0.871452  1
  Co  Co4  1  0.371015  0.111955  0.875430  1
  B  B5  1  0.339564  0.816789  0.877735  1
  B  B6  1  0.664265  0.194378  0.874140  1
  B  B7  1  0.313840  0.153898  0.377856  1
  B  B8  1  0.683370  0.839135  0.376415  1
  B  B9  1  0.174764  0.728897  0.596684  1
  B  B10  1  0.831068  0.278898  0.599616  1
  B  B11  1  0.225444  0.321132  0.096505  1
  B  B12  1  0.771141  0.675092  0.096688  1
  Os  Os13  1  0.848244  0.395831  0.100614  1
  Os  Os14  1  0.161112  0.608989  0.101312  1
  Os  Os15  1  0.892649  0.660372  0.601074  1
  Os  Os16  1  0.114701  0.343360  0.600514  1
  Os  Os17  1  0.617494  0.120708  0.370802  1
