# generated using pymatgen
data_Tb2Dy3CoSb2
_symmetry_space_group_name_H-M   'P 1'
_cell_length_a   7.91426700
_cell_length_b   8.75919600
_cell_length_c   12.19604600
_cell_angle_alpha   90.00000000
_cell_angle_beta   90.00000000
_cell_angle_gamma   90.00000000
_symmetry_Int_Tables_number   1
_chemical_formula_structural   Tb2Dy3CoSb2
_chemical_formula_sum   'Tb8 Dy12 Co4 Sb8'
_cell_volume   845.46181174
_cell_formula_units_Z   4
loop_
 _symmetry_equiv_pos_site_id
 _symmetry_equiv_pos_as_xyz
  1  'x, y, z'
loop_
 _atom_site_type_symbol
 _atom_site_label
 _atom_site_symmetry_multiplicity
 _atom_site_fract_x
 _atom_site_fract_y
 _atom_site_fract_z
 _atom_site_occupancy
  Tb  Tb0  1  0.621952  0.749908  0.305545  1
  Tb  Tb1  1  0.121952  0.250092  0.194455  1
  Tb  Tb2  1  0.378048  0.249908  0.694455  1
  Tb  Tb3  1  0.878048  0.750092  0.805545  1
  Tb  Tb4  1  0.179538  0.035858  0.934963  1
  Tb  Tb5  1  0.679538  0.964142  0.565037  1
  Tb  Tb6  1  0.820462  0.535858  0.065037  1
  Tb  Tb7  1  0.320462  0.464142  0.434963  1
  Dy  Dy8  1  0.154989  0.750051  0.203473  1
  Dy  Dy9  1  0.654989  0.249949  0.296527  1
  Dy  Dy10  1  0.845011  0.250051  0.796527  1
  Dy  Dy11  1  0.345011  0.749949  0.703473  1
  Dy  Dy12  1  0.454095  0.749950  0.997913  1
  Dy  Dy13  1  0.954095  0.250050  0.502087  1
  Dy  Dy14  1  0.545905  0.249950  0.002087  1
  Dy  Dy15  1  0.045905  0.750050  0.497913  1
  Dy  Dy16  1  0.821067  0.964134  0.065041  1
  Dy  Dy17  1  0.321067  0.035866  0.434959  1
  Dy  Dy18  1  0.178933  0.464134  0.934959  1
  Dy  Dy19  1  0.678933  0.535866  0.565041  1
  Co  Co20  1  0.431969  0.749888  0.489926  1
  Co  Co21  1  0.931969  0.250112  0.010074  1
  Co  Co22  1  0.568031  0.249888  0.510074  1
  Co  Co23  1  0.068031  0.750112  0.989926  1
  Sb  Sb24  1  0.927954  0.991682  0.327002  1
  Sb  Sb25  1  0.427954  0.008318  0.172998  1
  Sb  Sb26  1  0.072046  0.491682  0.672998  1
  Sb  Sb27  1  0.572046  0.508318  0.827002  1
  Sb  Sb28  1  0.072338  0.008387  0.672863  1
  Sb  Sb29  1  0.572338  0.991613  0.827137  1
  Sb  Sb30  1  0.927662  0.508387  0.327137  1
  Sb  Sb31  1  0.427662  0.491613  0.172863  1
