# generated using pymatgen
data_Pr12OsPt2RhBr12
_symmetry_space_group_name_H-M   'P 1'
_cell_length_a   10.62365600
_cell_length_b   10.55937980
_cell_length_c   10.55937837
_cell_angle_alpha   109.23904147
_cell_angle_beta   109.36302600
_cell_angle_gamma   109.36302134
_symmetry_Int_Tables_number   1
_chemical_formula_structural   Pr12OsPt2RhBr12
_chemical_formula_sum   'Pr12 Os1 Pt2 Rh1 Br12'
_cell_volume   916.87372340
_cell_formula_units_Z   1
loop_
 _symmetry_equiv_pos_site_id
 _symmetry_equiv_pos_as_xyz
  1  'x, y, z'
loop_
 _atom_site_type_symbol
 _atom_site_label
 _atom_site_symmetry_multiplicity
 _atom_site_fract_x
 _atom_site_fract_y
 _atom_site_fract_z
 _atom_site_occupancy
  Pr  Pr0  1  0.468599  0.481606  0.236386  1
  Pr  Pr1  1  0.750000  0.235539  0.264461  1
  Pr  Pr2  1  0.750000  0.013511  0.486489  1
  Pr  Pr3  1  0.238982  0.470441  0.480602  1
  Pr  Pr4  1  0.263051  0.745854  0.232670  1
  Pr  Pr5  1  0.031401  0.263614  0.018394  1
  Pr  Pr6  1  0.019660  0.030212  0.262130  1
  Pr  Pr7  1  0.483105  0.746301  0.012453  1
  Pr  Pr8  1  0.480340  0.237870  0.469788  1
  Pr  Pr9  1  0.016895  0.487547  0.753699  1
  Pr  Pr10  1  0.261018  0.019398  0.029559  1
  Pr  Pr11  1  0.236949  0.267330  0.754146  1
  Os  Os12  1  0.250000  0.250287  0.249713  1
  Pt  Pt13  1  0.500056  0.998917  0.249696  1
  Pt  Pt14  1  0.999944  0.250304  0.501083  1
  Rh  Rh15  1  0.250000  0.501039  0.998961  1
  Br  Br16  1  0.250000  0.753198  0.746802  1
  Br  Br17  1  0.508531  0.504352  0.755017  1
  Br  Br18  1  0.991469  0.744983  0.995648  1
  Br  Br19  1  0.746910  0.250247  0.753177  1
  Br  Br20  1  0.995292  0.991401  0.744496  1
  Br  Br21  1  0.250000  0.995678  0.504322  1
  Br  Br22  1  0.754726  0.508196  0.504254  1
  Br  Br23  1  0.504742  0.250008  0.995906  1
  Br  Br24  1  0.753090  0.746823  0.249753  1
  Br  Br25  1  0.745274  0.995746  0.991804  1
  Br  Br26  1  0.995258  0.504094  0.249992  1
  Br  Br27  1  0.504708  0.755504  0.508599  1
