# generated using pymatgen
data_DyTm5V2(Co4P3)4
_symmetry_space_group_name_H-M   'P 1'
_cell_length_a   3.66576600
_cell_length_b   10.51024600
_cell_length_c   12.17395800
_cell_angle_alpha   90.00000000
_cell_angle_beta   90.00000000
_cell_angle_gamma   90.00000000
_symmetry_Int_Tables_number   1
_chemical_formula_structural   DyTm5V2(Co4P3)4
_chemical_formula_sum   'Dy1 Tm5 V2 Co16 P12'
_cell_volume   469.03950091
_cell_formula_units_Z   1
loop_
 _symmetry_equiv_pos_site_id
 _symmetry_equiv_pos_as_xyz
  1  'x, y, z'
loop_
 _atom_site_type_symbol
 _atom_site_label
 _atom_site_symmetry_multiplicity
 _atom_site_fract_x
 _atom_site_fract_y
 _atom_site_fract_z
 _atom_site_occupancy
  Dy  Dy0  1  0.500000  0.000000  0.476593  1
  Tm  Tm1  1  0.000000  0.500000  0.523221  1
  Tm  Tm2  1  0.500000  0.818925  0.204179  1
  Tm  Tm3  1  0.500000  0.181075  0.204179  1
  Tm  Tm4  1  0.000000  0.680934  0.795679  1
  Tm  Tm5  1  0.000000  0.319066  0.795679  1
  V  V6  1  0.500000  0.500000  0.154552  1
  V  V7  1  0.000000  0.000000  0.845828  1
  Co  Co8  1  0.500000  0.500000  0.701755  1
  Co  Co9  1  0.000000  0.000000  0.297319  1
  Co  Co10  1  0.000000  0.500000  0.986555  1
  Co  Co11  1  0.500000  0.000000  0.013415  1
  Co  Co12  1  0.500000  0.332367  0.992680  1
  Co  Co13  1  0.500000  0.667633  0.992680  1
  Co  Co14  1  0.000000  0.167678  0.007279  1
  Co  Co15  1  0.000000  0.832322  0.007279  1
  Co  Co16  1  0.500000  0.296582  0.431180  1
  Co  Co17  1  0.500000  0.703418  0.431180  1
  Co  Co18  1  0.000000  0.204670  0.569025  1
  Co  Co19  1  0.000000  0.795330  0.569025  1
  Co  Co20  1  0.500000  0.877930  0.707910  1
  Co  Co21  1  0.500000  0.122070  0.707910  1
  Co  Co22  1  0.000000  0.621745  0.292353  1
  Co  Co23  1  0.000000  0.378255  0.292353  1
  P  P24  1  0.500000  0.500000  0.881215  1
  P  P25  1  0.000000  0.000000  0.118524  1
  P  P26  1  0.500000  0.500000  0.348149  1
  P  P27  1  0.000000  0.000000  0.652914  1
  P  P28  1  0.500000  0.312382  0.616490  1
  P  P29  1  0.500000  0.687618  0.616490  1
  P  P30  1  0.000000  0.188511  0.383169  1
  P  P31  1  0.000000  0.811489  0.383169  1
  P  P32  1  0.500000  0.845151  0.891203  1
  P  P33  1  0.500000  0.154849  0.891203  1
  P  P34  1  0.000000  0.654755  0.108833  1
  P  P35  1  0.000000  0.345245  0.108833  1
