# generated using pymatgen
data_Sr2Li(NiP2)2
_symmetry_space_group_name_H-M   'P 1'
_cell_length_a   8.14389233
_cell_length_b   8.14389261
_cell_length_c   8.14389234
_cell_angle_alpha   137.92622811
_cell_angle_beta   109.54819939
_cell_angle_gamma   85.59060913
_symmetry_Int_Tables_number   1
_chemical_formula_structural   Sr2Li(NiP2)2
_chemical_formula_sum   'Sr4 Li2 Ni4 P8'
_cell_volume   328.25287443
_cell_formula_units_Z   2
loop_
 _symmetry_equiv_pos_site_id
 _symmetry_equiv_pos_as_xyz
  1  'x, y, z'
loop_
 _atom_site_type_symbol
 _atom_site_label
 _atom_site_symmetry_multiplicity
 _atom_site_fract_x
 _atom_site_fract_y
 _atom_site_fract_z
 _atom_site_occupancy
  Sr  Sr0  1  0.095090  0.890609  0.204482  1
  Sr  Sr1  1  0.904910  0.109391  0.795518  1
  Sr  Sr2  1  0.313874  0.609391  0.704482  1
  Sr  Sr3  1  0.686126  0.390609  0.295518  1
  Li  Li4  1  0.500000  0.750000  0.250000  1
  Li  Li5  1  0.500000  0.250000  0.750000  1
  Ni  Ni6  1  0.277890  0.027890  0.750000  1
  Ni  Ni7  1  0.722110  0.472110  0.750000  1
  Ni  Ni8  1  0.277890  0.527890  0.250000  1
  Ni  Ni9  1  0.722110  0.972110  0.250000  1
  P  P10  1  0.487711  0.133957  0.353754  1
  P  P11  1  0.512289  0.866043  0.646246  1
  P  P12  1  0.219797  0.366043  0.853754  1
  P  P13  1  0.780203  0.633957  0.146246  1
  P  P14  1  0.956235  0.336045  0.620190  1
  P  P15  1  0.043765  0.663955  0.379810  1
  P  P16  1  0.715855  0.836045  0.879810  1
  P  P17  1  0.284145  0.163955  0.120190  1
