# generated using pymatgen
data_ZrGa2Ru4W
_symmetry_space_group_name_H-M   'P 1'
_cell_length_a   6.23007400
_cell_length_b   4.41328300
_cell_length_c   8.84247700
_cell_angle_alpha   90.00000000
_cell_angle_beta   90.00000000
_cell_angle_gamma   90.00000000
_symmetry_Int_Tables_number   1
_chemical_formula_structural   ZrGa2Ru4W
_chemical_formula_sum   'Zr2 Ga4 Ru8 W2'
_cell_volume   243.12460962
_cell_formula_units_Z   2
loop_
 _symmetry_equiv_pos_site_id
 _symmetry_equiv_pos_as_xyz
  1  'x, y, z'
loop_
 _atom_site_type_symbol
 _atom_site_label
 _atom_site_symmetry_multiplicity
 _atom_site_fract_x
 _atom_site_fract_y
 _atom_site_fract_z
 _atom_site_occupancy
  Zr  Zr0  1  0.749965  0.250000  0.624101  1
  Zr  Zr1  1  0.250042  0.750000  0.875899  1
  Ga  Ga2  1  0.250057  0.250000  0.122078  1
  Ga  Ga3  1  0.749943  0.750000  0.377921  1
  Ga  Ga4  1  0.250030  0.250000  0.627842  1
  Ga  Ga5  1  0.749987  0.750000  0.872159  1
  Ru  Ru6  1  0.507160  0.750000  0.132625  1
  Ru  Ru7  1  0.992756  0.750000  0.132658  1
  Ru  Ru8  1  0.492832  0.250000  0.367371  1
  Ru  Ru9  1  0.007229  0.250000  0.367347  1
  Ru  Ru10  1  0.008219  0.750000  0.615748  1
  Ru  Ru11  1  0.491785  0.750000  0.615727  1
  Ru  Ru12  1  0.991777  0.250000  0.884265  1
  Ru  Ru13  1  0.508208  0.250000  0.884260  1
  W  W14  1  0.750052  0.250000  0.125525  1
  W  W15  1  0.249958  0.750000  0.374474  1
