# generated using pymatgen
data_ErZn2CdPd2
_symmetry_space_group_name_H-M   'P 1'
_cell_length_a   5.23766171
_cell_length_b   5.29012607
_cell_length_c   5.29012403
_cell_angle_alpha   63.12132242
_cell_angle_beta   60.32750704
_cell_angle_gamma   60.32752254
_symmetry_Int_Tables_number   1
_chemical_formula_structural   ErZn2CdPd2
_chemical_formula_sum   'Er1 Zn2 Cd1 Pd2'
_cell_volume   106.41424764
_cell_formula_units_Z   1
loop_
 _symmetry_equiv_pos_site_id
 _symmetry_equiv_pos_as_xyz
  1  'x, y, z'
loop_
 _atom_site_type_symbol
 _atom_site_label
 _atom_site_symmetry_multiplicity
 _atom_site_fract_x
 _atom_site_fract_y
 _atom_site_fract_z
 _atom_site_occupancy
  Er  Er0  1  0.992779  0.007221  0.007221  1
  Zn  Zn1  1  0.129990  0.620103  0.620103  1
  Zn  Zn2  1  0.629804  0.620103  0.620103  1
  Cd  Cd3  1  0.243114  0.256886  0.256886  1
  Pd  Pd4  1  0.627156  0.623470  0.122219  1
  Pd  Pd5  1  0.627156  0.122219  0.623470  1
