# generated using pymatgen
data_Sc10In5SnS2
_symmetry_space_group_name_H-M   'P 1'
_cell_length_a   8.44968700
_cell_length_b   8.47521595
_cell_length_c   6.23399700
_cell_angle_alpha   90.00000000
_cell_angle_beta   90.00000000
_cell_angle_gamma   120.10000158
_symmetry_Int_Tables_number   1
_chemical_formula_structural   Sc10In5SnS2
_chemical_formula_sum   'Sc10 In5 Sn1 S2'
_cell_volume   386.23364422
_cell_formula_units_Z   1
loop_
 _symmetry_equiv_pos_site_id
 _symmetry_equiv_pos_as_xyz
  1  'x, y, z'
loop_
 _atom_site_type_symbol
 _atom_site_label
 _atom_site_symmetry_multiplicity
 _atom_site_fract_x
 _atom_site_fract_y
 _atom_site_fract_z
 _atom_site_occupancy
  Sc  Sc0  1  0.670035  0.335169  0.999304  1
  Sc  Sc1  1  0.329965  0.665134  0.999304  1
  Sc  Sc2  1  0.329965  0.665134  0.500696  1
  Sc  Sc3  1  0.670035  0.335169  0.500696  1
  Sc  Sc4  1  0.760523  0.758627  0.750000  1
  Sc  Sc5  1  0.239477  0.998104  0.750000  1
  Sc  Sc6  1  0.000000  0.244417  0.750000  1
  Sc  Sc7  1  0.238862  0.240979  0.250000  1
  Sc  Sc8  1  0.761138  0.002118  0.250000  1
  Sc  Sc9  1  0.000000  0.755667  0.250000  1
  In  In10  1  0.403632  0.403034  0.750000  1
  In  In11  1  0.596368  0.999402  0.750000  1
  In  In12  1  0.000000  0.600461  0.750000  1
  In  In13  1  0.595992  0.596854  0.250000  1
  In  In14  1  0.404008  0.000862  0.250000  1
  Sn  Sn15  1  0.000000  0.399817  0.250000  1
  S  S16  1  0.000000  0.999526  0.000419  1
  S  S17  1  0.000000  0.999526  0.499581  1
