# generated using pymatgen
data_HoPa3Ir4
_symmetry_space_group_name_H-M   'P 1'
_cell_length_a   4.00795600
_cell_length_b   5.72104000
_cell_length_c   7.56139949
_cell_angle_alpha   89.77644373
_cell_angle_beta   90.00000000
_cell_angle_gamma   90.00000000
_symmetry_Int_Tables_number   1
_chemical_formula_structural   HoPa3Ir4
_chemical_formula_sum   'Ho1 Pa3 Ir4'
_cell_volume   173.37912516
_cell_formula_units_Z   1
loop_
 _symmetry_equiv_pos_site_id
 _symmetry_equiv_pos_as_xyz
  1  'x, y, z'
loop_
 _atom_site_type_symbol
 _atom_site_label
 _atom_site_symmetry_multiplicity
 _atom_site_fract_x
 _atom_site_fract_y
 _atom_site_fract_z
 _atom_site_occupancy
  Ho  Ho0  1  0.750000  0.836029  0.828234  1
  Pa  Pa1  1  0.250000  0.332862  0.674222  1
  Pa  Pa2  1  0.250000  0.167639  0.165928  1
  Pa  Pa3  1  0.750000  0.672960  0.330296  1
  Ir  Ir4  1  0.250000  0.819668  0.556589  1
  Ir  Ir5  1  0.250000  0.664406  0.077508  1
  Ir  Ir6  1  0.750000  0.182263  0.432747  1
  Ir  Ir7  1  0.750000  0.324175  0.934477  1
