# generated using pymatgen
data_Y2Er3Sn4
_symmetry_space_group_name_H-M   'P 1'
_cell_length_a   8.01060600
_cell_length_b   8.14994400
_cell_length_c   15.40819800
_cell_angle_alpha   90.00000000
_cell_angle_beta   90.00000000
_cell_angle_gamma   90.00000000
_symmetry_Int_Tables_number   1
_chemical_formula_structural   Y2Er3Sn4
_chemical_formula_sum   'Y8 Er12 Sn16'
_cell_volume   1005.93946526
_cell_formula_units_Z   4
loop_
 _symmetry_equiv_pos_site_id
 _symmetry_equiv_pos_as_xyz
  1  'x, y, z'
loop_
 _atom_site_type_symbol
 _atom_site_label
 _atom_site_symmetry_multiplicity
 _atom_site_fract_x
 _atom_site_fract_y
 _atom_site_fract_z
 _atom_site_occupancy
  Y  Y0  1  0.522759  0.320688  0.902122  1
  Y  Y1  1  0.022759  0.179312  0.597878  1
  Y  Y2  1  0.477241  0.679312  0.402122  1
  Y  Y3  1  0.977241  0.820688  0.097878  1
  Y  Y4  1  0.477241  0.679312  0.097878  1
  Y  Y5  1  0.977241  0.820688  0.402122  1
  Y  Y6  1  0.522759  0.320688  0.597878  1
  Y  Y7  1  0.022759  0.179312  0.902122  1
  Er  Er8  1  0.367297  0.836218  0.877812  1
  Er  Er9  1  0.867297  0.663782  0.622188  1
  Er  Er10  1  0.632703  0.163782  0.377812  1
  Er  Er11  1  0.132703  0.336218  0.122188  1
  Er  Er12  1  0.632703  0.163782  0.122188  1
  Er  Er13  1  0.132703  0.336218  0.377812  1
  Er  Er14  1  0.367297  0.836218  0.622188  1
  Er  Er15  1  0.867297  0.663782  0.877812  1
  Er  Er16  1  0.198410  0.503507  0.750000  1
  Er  Er17  1  0.698410  0.996493  0.750000  1
  Er  Er18  1  0.801590  0.496493  0.250000  1
  Er  Er19  1  0.301590  0.003507  0.250000  1
  Sn  Sn20  1  0.292937  0.035560  0.041936  1
  Sn  Sn21  1  0.792937  0.464440  0.458064  1
  Sn  Sn22  1  0.707063  0.964440  0.541936  1
  Sn  Sn23  1  0.207063  0.535560  0.958064  1
  Sn  Sn24  1  0.707063  0.964440  0.958064  1
  Sn  Sn25  1  0.207063  0.535560  0.541936  1
  Sn  Sn26  1  0.292937  0.035560  0.458064  1
  Sn  Sn27  1  0.792937  0.464440  0.041936  1
  Sn  Sn28  1  0.564817  0.621094  0.750000  1
  Sn  Sn29  1  0.064817  0.878906  0.750000  1
  Sn  Sn30  1  0.435183  0.378906  0.250000  1
  Sn  Sn31  1  0.935183  0.121094  0.250000  1
  Sn  Sn32  1  0.331119  0.146881  0.750000  1
  Sn  Sn33  1  0.831119  0.353119  0.750000  1
  Sn  Sn34  1  0.668881  0.853119  0.250000  1
  Sn  Sn35  1  0.168881  0.646881  0.250000  1
