# generated using pymatgen
data_Dy3Y(Si2Rh)2
_symmetry_space_group_name_H-M   'P 1'
_cell_length_a   5.70713817
_cell_length_b   5.70713833
_cell_length_c   10.09751958
_cell_angle_alpha   63.52926556
_cell_angle_beta   63.52926305
_cell_angle_gamma   43.32792818
_symmetry_Int_Tables_number   1
_chemical_formula_structural   Dy3Y(Si2Rh)2
_chemical_formula_sum   'Dy3 Y1 Si4 Rh2'
_cell_volume   198.02540658
_cell_formula_units_Z   1
loop_
 _symmetry_equiv_pos_site_id
 _symmetry_equiv_pos_as_xyz
  1  'x, y, z'
loop_
 _atom_site_type_symbol
 _atom_site_label
 _atom_site_symmetry_multiplicity
 _atom_site_fract_x
 _atom_site_fract_y
 _atom_site_fract_z
 _atom_site_occupancy
  Dy  Dy0  1  0.001764  0.001764  0.324856  1
  Dy  Dy1  1  0.185016  0.185016  0.890699  1
  Dy  Dy2  1  0.998183  0.998183  0.675221  1
  Y  Y3  1  0.814923  0.814923  0.109127  1
  Si  Si4  1  0.359790  0.359790  0.565332  1
  Si  Si5  1  0.488850  0.488850  0.879416  1
  Si  Si6  1  0.640246  0.640246  0.434667  1
  Si  Si7  1  0.511308  0.511308  0.120467  1
  Rh  Rh8  1  0.725631  0.725631  0.627239  1
  Rh  Rh9  1  0.274290  0.274290  0.372975  1
