# generated using pymatgen
data_Tm(NpI4)3
_symmetry_space_group_name_H-M   'P 1'
_cell_length_a   13.56890497
_cell_length_b   7.89166687
_cell_length_c   9.11063900
_cell_angle_alpha   64.37730957
_cell_angle_beta   90.78514144
_cell_angle_gamma   89.88958219
_symmetry_Int_Tables_number   1
_chemical_formula_structural   Tm(NpI4)3
_chemical_formula_sum   'Tm1 Np3 I12'
_cell_volume   879.52579346
_cell_formula_units_Z   1
loop_
 _symmetry_equiv_pos_site_id
 _symmetry_equiv_pos_as_xyz
  1  'x, y, z'
loop_
 _atom_site_type_symbol
 _atom_site_label
 _atom_site_symmetry_multiplicity
 _atom_site_fract_x
 _atom_site_fract_y
 _atom_site_fract_z
 _atom_site_occupancy
  Tm  Tm0  1  0.167128  0.948512  0.032118  1
  Np  Np1  1  0.328230  0.449905  0.029078  1
  Np  Np2  1  0.838607  0.050904  0.972399  1
  Np  Np3  1  0.664968  0.552257  0.968418  1
  I  I4  1  0.520318  0.274419  0.226361  1
  I  I5  1  0.028271  0.230050  0.782381  1
  I  I6  1  0.472818  0.722171  0.766613  1
  I  I7  1  0.987239  0.758945  0.219425  1
  I  I8  1  0.328877  0.202978  0.837052  1
  I  I9  1  0.832619  0.279564  0.177907  1
  I  I10  1  0.672915  0.782121  0.174570  1
  I  I11  1  0.164905  0.737448  0.824691  1
  I  I12  1  0.186886  0.137563  0.256651  1
  I  I13  1  0.698400  0.365410  0.733603  1
  I  I14  1  0.805755  0.862586  0.737429  1
  I  I15  1  0.302063  0.645170  0.261303  1
