# generated using pymatgen
data_TlCdIr2O7
_symmetry_space_group_name_H-M   'P 1'
_cell_length_a   7.29180120
_cell_length_b   7.34445348
_cell_length_c   7.29019000
_cell_angle_alpha   59.75250639
_cell_angle_beta   89.98642999
_cell_angle_gamma   59.75956696
_symmetry_Int_Tables_number   1
_chemical_formula_structural   TlCdIr2O7
_chemical_formula_sum   'Tl2 Cd2 Ir4 O14'
_cell_volume   274.05413502
_cell_formula_units_Z   2
loop_
 _symmetry_equiv_pos_site_id
 _symmetry_equiv_pos_as_xyz
  1  'x, y, z'
loop_
 _atom_site_type_symbol
 _atom_site_label
 _atom_site_symmetry_multiplicity
 _atom_site_fract_x
 _atom_site_fract_y
 _atom_site_fract_z
 _atom_site_occupancy
  Tl  Tl0  1  0.000008  0.499997  0.999980  1
  Tl  Tl1  1  0.500011  0.000022  0.500001  1
  Cd  Cd2  1  0.499995  0.000009  0.999992  1
  Cd  Cd3  1  0.500001  0.499997  0.999998  1
  Ir  Ir4  1  0.999973  0.000035  0.999978  1
  Ir  Ir5  1  0.000005  0.000052  0.499970  1
  Ir  Ir6  1  0.000032  0.499948  0.500015  1
  Ir  Ir7  1  0.500040  0.499950  0.500041  1
  O  O8  1  0.382748  0.249920  0.117371  1
  O  O9  1  0.323006  0.749963  0.176993  1
  O  O10  1  0.932096  0.742878  0.175775  1
  O  O11  1  0.932179  0.149461  0.175406  1
  O  O12  1  0.075331  0.250262  0.424527  1
  O  O13  1  0.675356  0.243181  0.431967  1
  O  O14  1  0.675638  0.649425  0.431885  1
  O  O15  1  0.324618  0.756823  0.568032  1
  O  O16  1  0.924645  0.749731  0.575495  1
  O  O17  1  0.324346  0.350580  0.568108  1
  O  O18  1  0.067820  0.850519  0.824614  1
  O  O19  1  0.067901  0.257125  0.824226  1
  O  O20  1  0.676999  0.250034  0.823004  1
  O  O21  1  0.617249  0.750086  0.882621  1
