# generated using pymatgen
data_Th3Bi4Pt3
_symmetry_space_group_name_H-M   'P 1'
_cell_length_a   8.78413066
_cell_length_b   8.78413081
_cell_length_c   8.78413100
_cell_angle_alpha   109.47121647
_cell_angle_beta   109.47121682
_cell_angle_gamma   109.47122411
_symmetry_Int_Tables_number   1
_chemical_formula_structural   Th3Bi4Pt3
_chemical_formula_sum   'Th6 Bi8 Pt6'
_cell_volume   521.76448973
_cell_formula_units_Z   2
loop_
 _symmetry_equiv_pos_site_id
 _symmetry_equiv_pos_as_xyz
  1  'x, y, z'
loop_
 _atom_site_type_symbol
 _atom_site_label
 _atom_site_symmetry_multiplicity
 _atom_site_fract_x
 _atom_site_fract_y
 _atom_site_fract_z
 _atom_site_occupancy
  Th  Th0  1  0.875000  0.250000  0.125000  1
  Th  Th1  1  0.375000  0.125000  0.250000  1
  Th  Th2  1  0.625000  0.750001  0.375000  1
  Th  Th3  1  0.250000  0.875000  0.625000  1
  Th  Th4  1  0.125001  0.375001  0.750001  1
  Th  Th5  1  0.750001  0.625000  0.875000  1
  Bi  Bi6  1  0.500000  0.323283  0.000000  1
  Bi  Bi7  1  0.499999  0.823283  0.000000  1
  Bi  Bi8  1  0.176717  0.676718  0.176717  1
  Bi  Bi9  1  0.000000  0.000000  0.323283  1
  Bi  Bi10  1  0.323283  0.500000  0.500000  1
  Bi  Bi11  1  0.823284  0.500000  0.500000  1
  Bi  Bi12  1  0.676717  0.176717  0.676717  1
  Bi  Bi13  1  0.000000  0.000000  0.823284  1
  Pt  Pt14  1  0.250000  0.375000  0.125000  1
  Pt  Pt15  1  0.875000  0.625000  0.250000  1
  Pt  Pt16  1  0.750001  0.125001  0.375001  1
  Pt  Pt17  1  0.375000  0.250000  0.625000  1
  Pt  Pt18  1  0.625000  0.875000  0.750001  1
  Pt  Pt19  1  0.125000  0.750000  0.874999  1
