# generated using pymatgen
data_Sm5Zr3Co15NiP12
_symmetry_space_group_name_H-M   'P 1'
_cell_length_a   12.41396400
_cell_length_b   12.41396384
_cell_length_c   3.77154000
_cell_angle_alpha   90.00000000
_cell_angle_beta   90.00000000
_cell_angle_gamma   120.00000043
_symmetry_Int_Tables_number   1
_chemical_formula_structural   Sm5Zr3Co15NiP12
_chemical_formula_sum   'Sm5 Zr3 Co15 Ni1 P12'
_cell_volume   503.35026955
_cell_formula_units_Z   1
loop_
 _symmetry_equiv_pos_site_id
 _symmetry_equiv_pos_as_xyz
  1  'x, y, z'
loop_
 _atom_site_type_symbol
 _atom_site_label
 _atom_site_symmetry_multiplicity
 _atom_site_fract_x
 _atom_site_fract_y
 _atom_site_fract_z
 _atom_site_occupancy
  Sm  Sm0  1  0.185115  0.185115  0.500000  1
  Sm  Sm1  1  0.814885  0.000000  0.500000  1
  Sm  Sm2  1  0.000000  0.814885  0.500000  1
  Sm  Sm3  1  0.333333  0.666667  0.000000  1
  Sm  Sm4  1  0.666667  0.333333  0.000000  1
  Zr  Zr5  1  0.561244  0.561244  0.000000  1
  Zr  Zr6  1  0.438756  0.000000  0.000000  1
  Zr  Zr7  1  0.000000  0.438756  0.000000  1
  Co  Co8  1  0.722251  0.722251  0.500000  1
  Co  Co9  1  0.277749  0.000000  0.500000  1
  Co  Co10  1  0.000000  0.277749  0.500000  1
  Co  Co11  1  0.178725  0.373087  0.000000  1
  Co  Co12  1  0.626913  0.805638  0.000000  1
  Co  Co13  1  0.194362  0.821275  0.000000  1
  Co  Co14  1  0.805638  0.626913  0.000000  1
  Co  Co15  1  0.821275  0.194362  0.000000  1
  Co  Co16  1  0.373087  0.178725  0.000000  1
  Co  Co17  1  0.355927  0.479177  0.500000  1
  Co  Co18  1  0.520823  0.876750  0.500000  1
  Co  Co19  1  0.123250  0.644073  0.500000  1
  Co  Co20  1  0.876750  0.520823  0.500000  1
  Co  Co21  1  0.644073  0.123250  0.500000  1
  Co  Co22  1  0.479177  0.355927  0.500000  1
  Ni  Ni23  1  0.000000  0.000000  0.000000  1
  P  P24  1  0.819870  0.819870  0.000000  1
  P  P25  1  0.180130  0.000000  0.000000  1
  P  P26  1  0.000000  0.180130  0.000000  1
  P  P27  1  0.171489  0.475521  0.500000  1
  P  P28  1  0.524479  0.695967  0.500000  1
  P  P29  1  0.304033  0.828511  0.500000  1
  P  P30  1  0.695967  0.524479  0.500000  1
  P  P31  1  0.828511  0.304033  0.500000  1
  P  P32  1  0.475521  0.171489  0.500000  1
  P  P33  1  0.355171  0.355171  0.000000  1
  P  P34  1  0.644829  0.000000  0.000000  1
  P  P35  1  0.000000  0.644829  0.000000  1
