# generated using pymatgen
data_GdDy3(SeO4)6
_symmetry_space_group_name_H-M   'P 1'
_cell_length_a   10.05654095
_cell_length_b   10.05654095
_cell_length_c   10.05654002
_cell_angle_alpha   57.67937671
_cell_angle_beta   57.67937643
_cell_angle_gamma   57.67937590
_symmetry_Int_Tables_number   1
_chemical_formula_structural   GdDy3(SeO4)6
_chemical_formula_sum   'Gd1 Dy3 Se6 O24'
_cell_volume   680.82036112
_cell_formula_units_Z   1
loop_
 _symmetry_equiv_pos_site_id
 _symmetry_equiv_pos_as_xyz
  1  'x, y, z'
loop_
 _atom_site_type_symbol
 _atom_site_label
 _atom_site_symmetry_multiplicity
 _atom_site_fract_x
 _atom_site_fract_y
 _atom_site_fract_z
 _atom_site_occupancy
  Gd  Gd0  1  0.643881  0.643881  0.643881  1
  Dy  Dy1  1  0.144057  0.144057  0.144057  1
  Dy  Dy2  1  0.855699  0.855699  0.855699  1
  Dy  Dy3  1  0.355892  0.355892  0.355892  1
  Se  Se4  1  0.037804  0.463531  0.750082  1
  Se  Se5  1  0.463531  0.750082  0.037804  1
  Se  Se6  1  0.750082  0.037804  0.463531  1
  Se  Se7  1  0.966269  0.535296  0.247495  1
  Se  Se8  1  0.247495  0.966269  0.535296  1
  Se  Se9  1  0.535296  0.247495  0.966269  1
  O  O10  1  0.225247  0.994875  0.368555  1
  O  O11  1  0.368555  0.225247  0.994875  1
  O  O12  1  0.994875  0.368555  0.225247  1
  O  O13  1  0.772119  0.008351  0.631010  1
  O  O14  1  0.631010  0.772119  0.008351  1
  O  O15  1  0.008351  0.631010  0.772119  1
  O  O16  1  0.270855  0.132389  0.507188  1
  O  O17  1  0.507188  0.270855  0.132389  1
  O  O18  1  0.132389  0.507188  0.270855  1
  O  O19  1  0.729167  0.870946  0.489977  1
  O  O20  1  0.066410  0.294384  0.918004  1
  O  O21  1  0.294384  0.918004  0.066410  1
  O  O22  1  0.918004  0.066410  0.294384  1
  O  O23  1  0.938360  0.704799  0.079343  1
  O  O24  1  0.704799  0.079343  0.938360  1
  O  O25  1  0.079343  0.938360  0.704799  1
  O  O26  1  0.206964  0.435713  0.581564  1
  O  O27  1  0.435713  0.581564  0.206964  1
  O  O28  1  0.581564  0.206964  0.435713  1
  O  O29  1  0.795915  0.562533  0.415324  1
  O  O30  1  0.562533  0.415324  0.795915  1
  O  O31  1  0.415324  0.795915  0.562533  1
  O  O32  1  0.870946  0.489977  0.729167  1
  O  O33  1  0.489977  0.729167  0.870946  1
