# generated using pymatgen
data_Nd(Ga3Pt)3
_symmetry_space_group_name_H-M   'P 1'
_cell_length_a   10.51546886
_cell_length_b   10.51546868
_cell_length_c   10.51546833
_cell_angle_alpha   42.57223270
_cell_angle_beta   42.57223528
_cell_angle_gamma   42.57223667
_symmetry_Int_Tables_number   1
_chemical_formula_structural   Nd(Ga3Pt)3
_chemical_formula_sum   'Nd2 Ga18 Pt6'
_cell_volume   481.93557198
_cell_formula_units_Z   2
loop_
 _symmetry_equiv_pos_site_id
 _symmetry_equiv_pos_as_xyz
  1  'x, y, z'
loop_
 _atom_site_type_symbol
 _atom_site_label
 _atom_site_symmetry_multiplicity
 _atom_site_fract_x
 _atom_site_fract_y
 _atom_site_fract_z
 _atom_site_occupancy
  Nd  Nd0  1  0.166834  0.166834  0.166834  1
  Nd  Nd1  1  0.833166  0.833166  0.833166  1
  Ga  Ga2  1  0.049083  0.049083  0.049083  1
  Ga  Ga3  1  0.701908  0.500000  0.298092  1
  Ga  Ga4  1  0.666089  0.333911  0.000000  1
  Ga  Ga5  1  0.107601  0.437944  0.768045  1
  Ga  Ga6  1  0.437944  0.768045  0.107601  1
  Ga  Ga7  1  0.384661  0.384661  0.384661  1
  Ga  Ga8  1  0.333911  0.000000  0.666089  1
  Ga  Ga9  1  0.615339  0.615339  0.615339  1
  Ga  Ga10  1  0.231955  0.562056  0.892399  1
  Ga  Ga11  1  0.562056  0.892399  0.231955  1
  Ga  Ga12  1  0.500000  0.298092  0.701908  1
  Ga  Ga13  1  0.768045  0.107601  0.437944  1
  Ga  Ga14  1  0.950917  0.950917  0.950917  1
  Ga  Ga15  1  0.298092  0.701908  0.500000  1
  Ga  Ga16  1  0.000000  0.666089  0.333911  1
  Ga  Ga17  1  0.714898  0.714898  0.714898  1
  Ga  Ga18  1  0.285102  0.285102  0.285102  1
  Ga  Ga19  1  0.892399  0.231955  0.562056  1
  Pt  Pt20  1  0.242126  0.920555  0.581760  1
  Pt  Pt21  1  0.920555  0.581760  0.242126  1
  Pt  Pt22  1  0.757874  0.418240  0.079445  1
  Pt  Pt23  1  0.079445  0.757874  0.418240  1
  Pt  Pt24  1  0.418240  0.079445  0.757874  1
  Pt  Pt25  1  0.581760  0.242126  0.920555  1
