# generated using pymatgen
data_Eu3(Al3Ir)4
_symmetry_space_group_name_H-M   'P 1'
_cell_length_a   8.91739900
_cell_length_b   8.91739746
_cell_length_c   9.68874900
_cell_angle_alpha   90.00000000
_cell_angle_beta   90.00000000
_cell_angle_gamma   120.00000943
_symmetry_Int_Tables_number   1
_chemical_formula_structural   Eu3(Al3Ir)4
_chemical_formula_sum   'Eu6 Al24 Ir8'
_cell_volume   667.22854637
_cell_formula_units_Z   2
loop_
 _symmetry_equiv_pos_site_id
 _symmetry_equiv_pos_as_xyz
  1  'x, y, z'
loop_
 _atom_site_type_symbol
 _atom_site_label
 _atom_site_symmetry_multiplicity
 _atom_site_fract_x
 _atom_site_fract_y
 _atom_site_fract_z
 _atom_site_occupancy
  Eu  Eu0  1  0.807747  0.192253  0.750000  1
  Eu  Eu1  1  0.192253  0.807747  0.250000  1
  Eu  Eu2  1  0.384507  0.192253  0.750000  1
  Eu  Eu3  1  0.615493  0.807747  0.250000  1
  Eu  Eu4  1  0.807747  0.615493  0.750000  1
  Eu  Eu5  1  0.192253  0.384507  0.250000  1
  Al  Al6  1  0.666667  0.333333  0.990088  1
  Al  Al7  1  0.333333  0.666667  0.009912  1
  Al  Al8  1  0.333333  0.666667  0.490088  1
  Al  Al9  1  0.666667  0.333333  0.509912  1
  Al  Al10  1  0.837245  0.162755  0.423545  1
  Al  Al11  1  0.162755  0.837245  0.576455  1
  Al  Al12  1  0.325511  0.162755  0.423545  1
  Al  Al13  1  0.162755  0.837245  0.923545  1
  Al  Al14  1  0.674489  0.837245  0.576455  1
  Al  Al15  1  0.837245  0.162755  0.076455  1
  Al  Al16  1  0.837245  0.674489  0.423545  1
  Al  Al17  1  0.674489  0.837245  0.923545  1
  Al  Al18  1  0.162755  0.325511  0.576455  1
  Al  Al19  1  0.325511  0.162755  0.076455  1
  Al  Al20  1  0.162755  0.325511  0.923545  1
  Al  Al21  1  0.837245  0.674489  0.076455  1
  Al  Al22  1  0.437157  0.562843  0.750000  1
  Al  Al23  1  0.562843  0.437157  0.250000  1
  Al  Al24  1  0.125684  0.562843  0.750000  1
  Al  Al25  1  0.874316  0.437157  0.250000  1
  Al  Al26  1  0.437157  0.874316  0.750000  1
  Al  Al27  1  0.562843  0.125684  0.250000  1
  Al  Al28  1  0.000000  0.000000  0.750000  1
  Al  Al29  1  0.000000  0.000000  0.250000  1
  Ir  Ir30  1  0.500000  0.500000  0.000000  1
  Ir  Ir31  1  0.000000  0.500000  0.000000  1
  Ir  Ir32  1  0.500000  0.500000  0.500000  1
  Ir  Ir33  1  0.500000  0.000000  0.000000  1
  Ir  Ir34  1  0.000000  0.500000  0.500000  1
  Ir  Ir35  1  0.500000  0.000000  0.500000  1
  Ir  Ir36  1  0.000000  0.000000  0.000000  1
  Ir  Ir37  1  0.000000  0.000000  0.500000  1
