# generated using pymatgen
data_MnBi2Pt3O8
_symmetry_space_group_name_H-M   'P 1'
_cell_length_a   5.60570026
_cell_length_b   6.20225031
_cell_length_c   6.58079080
_cell_angle_alpha   114.39403121
_cell_angle_beta   96.92371710
_cell_angle_gamma   110.74818929
_symmetry_Int_Tables_number   1
_chemical_formula_structural   MnBi2Pt3O8
_chemical_formula_sum   'Mn1 Bi2 Pt3 O8'
_cell_volume   185.04790812
_cell_formula_units_Z   1
loop_
 _symmetry_equiv_pos_site_id
 _symmetry_equiv_pos_as_xyz
  1  'x, y, z'
loop_
 _atom_site_type_symbol
 _atom_site_label
 _atom_site_symmetry_multiplicity
 _atom_site_fract_x
 _atom_site_fract_y
 _atom_site_fract_z
 _atom_site_occupancy
  Mn  Mn0  1  0.500000  0.500000  0.000000  1
  Bi  Bi1  1  0.849270  0.242135  0.644531  1
  Bi  Bi2  1  0.150730  0.757865  0.355469  1
  Pt  Pt3  1  0.500000  0.500000  0.500000  1
  Pt  Pt4  1  0.500000  0.000000  0.000000  1
  Pt  Pt5  1  0.000000  0.000000  0.000000  1
  O  O6  1  0.637416  0.393207  0.222123  1
  O  O7  1  0.362584  0.606793  0.777877  1
  O  O8  1  0.872312  0.650245  0.995020  1
  O  O9  1  0.127688  0.349755  0.004980  1
  O  O10  1  0.523447  0.891139  0.254940  1
  O  O11  1  0.476553  0.108861  0.745060  1
  O  O12  1  0.843116  0.854186  0.645511  1
  O  O13  1  0.156884  0.145814  0.354489  1
