# generated using pymatgen
data_Co7Si16Ir
_symmetry_space_group_name_H-M   'P 1'
_cell_length_a   6.63881694
_cell_length_b   6.63881741
_cell_length_c   7.63435801
_cell_angle_alpha   89.94939003
_cell_angle_beta   89.94939101
_cell_angle_gamma   110.31167100
_symmetry_Int_Tables_number   1
_chemical_formula_structural   Co7Si16Ir
_chemical_formula_sum   'Co7 Si16 Ir1'
_cell_volume   315.55284395
_cell_formula_units_Z   1
loop_
 _symmetry_equiv_pos_site_id
 _symmetry_equiv_pos_as_xyz
  1  'x, y, z'
loop_
 _atom_site_type_symbol
 _atom_site_label
 _atom_site_symmetry_multiplicity
 _atom_site_fract_x
 _atom_site_fract_y
 _atom_site_fract_z
 _atom_site_occupancy
  Co  Co0  1  0.251760  0.251760  0.251734  1
  Co  Co1  1  0.747456  0.747456  0.748353  1
  Co  Co2  1  0.749017  0.749017  0.248442  1
  Co  Co3  1  0.248329  0.750438  0.496667  1
  Co  Co4  1  0.249224  0.752764  0.003042  1
  Co  Co5  1  0.750438  0.248329  0.496667  1
  Co  Co6  1  0.752764  0.249224  0.003042  1
  Si  Si7  1  0.375432  0.627254  0.249800  1
  Si  Si8  1  0.119322  0.857181  0.749318  1
  Si  Si9  1  0.123243  0.875610  0.250140  1
  Si  Si10  1  0.376117  0.644293  0.750112  1
  Si  Si11  1  0.644293  0.376117  0.750112  1
  Si  Si12  1  0.875610  0.123243  0.250140  1
  Si  Si13  1  0.857181  0.119322  0.749318  1
  Si  Si14  1  0.627254  0.375432  0.249800  1
  Si  Si15  1  0.122108  0.382620  0.013467  1
  Si  Si16  1  0.380378  0.120211  0.489478  1
  Si  Si17  1  0.872929  0.624432  0.497243  1
  Si  Si18  1  0.625199  0.873758  0.000384  1
  Si  Si19  1  0.873758  0.625199  0.000384  1
  Si  Si20  1  0.624432  0.872929  0.497243  1
  Si  Si21  1  0.120211  0.380378  0.489478  1
  Si  Si22  1  0.382620  0.122108  0.013467  1
  Ir  Ir23  1  0.250923  0.250923  0.752169  1
