# generated using pymatgen
data_Pa5Co16Tc3(As3P)3
_symmetry_space_group_name_H-M   'P 1'
_cell_length_a   12.51499900
_cell_length_b   12.51500006
_cell_length_c   3.83005500
_cell_angle_alpha   90.00000000
_cell_angle_beta   90.00000000
_cell_angle_gamma   119.99999984
_symmetry_Int_Tables_number   1
_chemical_formula_structural   Pa5Co16Tc3(As3P)3
_chemical_formula_sum   'Pa5 Co16 Tc3 As9 P3'
_cell_volume   519.51407506
_cell_formula_units_Z   1
loop_
 _symmetry_equiv_pos_site_id
 _symmetry_equiv_pos_as_xyz
  1  'x, y, z'
loop_
 _atom_site_type_symbol
 _atom_site_label
 _atom_site_symmetry_multiplicity
 _atom_site_fract_x
 _atom_site_fract_y
 _atom_site_fract_z
 _atom_site_occupancy
  Pa  Pa0  1  0.666667  0.333333  0.000000  1
  Pa  Pa1  1  0.333333  0.666667  0.000000  1
  Pa  Pa2  1  0.822282  0.822282  0.500000  1
  Pa  Pa3  1  0.177718  0.000000  0.500000  1
  Pa  Pa4  1  0.000000  0.177718  0.500000  1
  Co  Co5  1  0.189993  0.364866  0.000000  1
  Co  Co6  1  0.174873  0.810007  0.000000  1
  Co  Co7  1  0.825127  0.635134  0.000000  1
  Co  Co8  1  0.810007  0.174873  0.000000  1
  Co  Co9  1  0.364866  0.189993  0.000000  1
  Co  Co10  1  0.127399  0.485322  0.500000  1
  Co  Co11  1  0.357923  0.872601  0.500000  1
  Co  Co12  1  0.514678  0.642077  0.500000  1
  Co  Co13  1  0.642077  0.514678  0.500000  1
  Co  Co14  1  0.872601  0.357923  0.500000  1
  Co  Co15  1  0.485322  0.127399  0.500000  1
  Co  Co16  1  0.000000  0.000000  0.000000  1
  Co  Co17  1  0.729148  0.000000  0.500000  1
  Co  Co18  1  0.000000  0.729148  0.500000  1
  Co  Co19  1  0.635134  0.825127  0.000000  1
  Co  Co20  1  0.270852  0.270852  0.500000  1
  Tc  Tc21  1  0.439112  0.439112  0.000000  1
  Tc  Tc22  1  0.560888  0.000000  0.000000  1
  Tc  Tc23  1  0.000000  0.560888  0.000000  1
  As  As24  1  0.634580  0.634580  0.000000  1
  As  As25  1  0.365420  0.000000  0.000000  1
  As  As26  1  0.000000  0.365420  0.000000  1
  As  As27  1  0.474759  0.312586  0.500000  1
  As  As28  1  0.687414  0.162175  0.500000  1
  As  As29  1  0.837825  0.525241  0.500000  1
  As  As30  1  0.525241  0.837825  0.500000  1
  As  As31  1  0.162175  0.687414  0.500000  1
  As  As32  1  0.312586  0.474759  0.500000  1
  P  P33  1  0.822721  0.000000  0.000000  1
  P  P34  1  0.000000  0.822721  0.000000  1
  P  P35  1  0.177279  0.177279  0.000000  1
