# generated using pymatgen
data_Ho5Tm7Th4(ZnIr)4
_symmetry_space_group_name_H-M   'P 1'
_cell_length_a   9.56505472
_cell_length_b   9.54898755
_cell_length_c   9.54898656
_cell_angle_alpha   59.94748116
_cell_angle_beta   59.94432369
_cell_angle_gamma   59.94432916
_symmetry_Int_Tables_number   1
_chemical_formula_structural   Ho5Tm7Th4(ZnIr)4
_chemical_formula_sum   'Ho5 Tm7 Th4 Zn4 Ir4'
_cell_volume   615.95461474
_cell_formula_units_Z   1
loop_
 _symmetry_equiv_pos_site_id
 _symmetry_equiv_pos_as_xyz
  1  'x, y, z'
loop_
 _atom_site_type_symbol
 _atom_site_label
 _atom_site_symmetry_multiplicity
 _atom_site_fract_x
 _atom_site_fract_y
 _atom_site_fract_z
 _atom_site_occupancy
  Ho  Ho0  1  0.564167  0.935833  0.935833  1
  Ho  Ho1  1  0.565489  0.935577  0.565365  1
  Ho  Ho2  1  0.933568  0.565365  0.935577  1
  Ho  Ho3  1  0.565489  0.565365  0.935577  1
  Ho  Ho4  1  0.933568  0.935577  0.565365  1
  Tm  Tm5  1  0.811327  0.188673  0.188673  1
  Tm  Tm6  1  0.187405  0.812595  0.812595  1
  Tm  Tm7  1  0.187695  0.811702  0.188792  1
  Tm  Tm8  1  0.811811  0.188792  0.811702  1
  Tm  Tm9  1  0.187695  0.188792  0.811702  1
  Tm  Tm10  1  0.811811  0.811702  0.188792  1
  Tm  Tm11  1  0.934598  0.565402  0.565402  1
  Th  Th12  1  0.352862  0.354170  0.354170  1
  Th  Th13  1  0.354208  0.355884  0.935699  1
  Th  Th14  1  0.354208  0.935699  0.355884  1
  Th  Th15  1  0.938797  0.354170  0.354170  1
  Zn  Zn16  1  0.584006  0.580502  0.580502  1
  Zn  Zn17  1  0.582485  0.579581  0.255449  1
  Zn  Zn18  1  0.582485  0.255449  0.579581  1
  Zn  Zn19  1  0.254991  0.580502  0.580502  1
  Ir  Ir20  1  0.143980  0.142377  0.142377  1
  Ir  Ir21  1  0.143045  0.142346  0.571567  1
  Ir  Ir22  1  0.143045  0.571567  0.142346  1
  Ir  Ir23  1  0.571267  0.142377  0.142377  1
