# generated using pymatgen
data_YbDyPa(SnIr)3
_symmetry_space_group_name_H-M   'P 1'
_cell_length_a   7.45710468
_cell_length_b   7.61936680
_cell_length_c   3.93639500
_cell_angle_alpha   90.00000000
_cell_angle_beta   90.00000000
_cell_angle_gamma   120.40020762
_symmetry_Int_Tables_number   1
_chemical_formula_structural   YbDyPa(SnIr)3
_chemical_formula_sum   'Yb1 Dy1 Pa1 Sn3 Ir3'
_cell_volume   192.90916259
_cell_formula_units_Z   1
loop_
 _symmetry_equiv_pos_site_id
 _symmetry_equiv_pos_as_xyz
  1  'x, y, z'
loop_
 _atom_site_type_symbol
 _atom_site_label
 _atom_site_symmetry_multiplicity
 _atom_site_fract_x
 _atom_site_fract_y
 _atom_site_fract_z
 _atom_site_occupancy
  Yb  Yb0  1  0.404538  0.997557  0.500000  1
  Dy  Dy1  1  0.595464  0.593130  0.500000  1
  Pa  Pa2  1  0.000442  0.413910  0.500000  1
  Sn  Sn3  1  0.004637  0.759771  0.000000  1
  Sn  Sn4  1  0.271277  0.254371  0.000000  1
  Sn  Sn5  1  0.723916  0.987093  0.000000  1
  Ir  Ir6  1  0.303222  0.634698  0.000000  1
  Ir  Ir7  1  0.701661  0.343493  0.000000  1
  Ir  Ir8  1  0.994843  0.015977  0.500000  1
