# generated using pymatgen
data_K4Zr6NiCl18
_symmetry_space_group_name_H-M   'P 1'
_cell_length_a   10.10621379
_cell_length_b   10.29365864
_cell_length_c   10.38662803
_cell_angle_alpha   118.71892129
_cell_angle_beta   100.15188221
_cell_angle_gamma   103.85514142
_symmetry_Int_Tables_number   1
_chemical_formula_structural   K4Zr6NiCl18
_chemical_formula_sum   'K4 Zr6 Ni1 Cl18'
_cell_volume   864.50524266
_cell_formula_units_Z   1
loop_
 _symmetry_equiv_pos_site_id
 _symmetry_equiv_pos_as_xyz
  1  'x, y, z'
loop_
 _atom_site_type_symbol
 _atom_site_label
 _atom_site_symmetry_multiplicity
 _atom_site_fract_x
 _atom_site_fract_y
 _atom_site_fract_z
 _atom_site_occupancy
  K  K0  1  0.652703  0.537201  0.227223  1
  K  K1  1  0.347297  0.462799  0.772777  1
  K  K2  1  0.687372  0.225383  0.563588  1
  K  K3  1  0.312628  0.774617  0.436412  1
  Zr  Zr4  1  0.159442  0.058540  0.247106  1
  Zr  Zr5  1  0.840558  0.941460  0.752894  1
  Zr  Zr6  1  0.851435  0.135865  0.142360  1
  Zr  Zr7  1  0.148565  0.864135  0.857640  1
  Zr  Zr8  1  0.153210  0.255730  0.045809  1
  Zr  Zr9  1  0.846790  0.744270  0.954191  1
  Ni  Ni10  1  0.000000  0.000000  0.000000  1
  Cl  Cl11  1  0.009355  0.410884  0.199266  1
  Cl  Cl12  1  0.990645  0.589116  0.800734  1
  Cl  Cl13  1  0.326393  0.331121  0.308350  1
  Cl  Cl14  1  0.673607  0.668879  0.691650  1
  Cl  Cl15  1  0.327782  0.526577  0.101826  1
  Cl  Cl16  1  0.672218  0.473423  0.898174  1
  Cl  Cl17  1  0.004995  0.794536  0.211391  1
  Cl  Cl18  1  0.995005  0.205464  0.788609  1
  Cl  Cl19  1  0.700867  0.280988  0.293831  1
  Cl  Cl20  1  0.299133  0.719012  0.706169  1
  Cl  Cl21  1  0.316795  0.127776  0.904946  1
  Cl  Cl22  1  0.683205  0.872224  0.095054  1
  Cl  Cl23  1  0.015307  0.205823  0.408383  1
  Cl  Cl24  1  0.984693  0.794177  0.591617  1
  Cl  Cl25  1  0.320734  0.923947  0.110339  1
  Cl  Cl26  1  0.679266  0.076053  0.889661  1
  Cl  Cl27  1  0.338362  0.121935  0.506775  1
  Cl  Cl28  1  0.661638  0.878065  0.493225  1
