# generated using pymatgen
data_Tb2NdMg3Ga2Hg
_symmetry_space_group_name_H-M   'P 1'
_cell_length_a   7.45262200
_cell_length_b   7.51188863
_cell_length_c   4.44009700
_cell_angle_alpha   90.00000000
_cell_angle_beta   90.00000000
_cell_angle_gamma   119.73934309
_symmetry_Int_Tables_number   1
_chemical_formula_structural   Tb2NdMg3Ga2Hg
_chemical_formula_sum   'Tb2 Nd1 Mg3 Ga2 Hg1'
_cell_volume   215.83210154
_cell_formula_units_Z   1
loop_
 _symmetry_equiv_pos_site_id
 _symmetry_equiv_pos_as_xyz
  1  'x, y, z'
loop_
 _atom_site_type_symbol
 _atom_site_label
 _atom_site_symmetry_multiplicity
 _atom_site_fract_x
 _atom_site_fract_y
 _atom_site_fract_z
 _atom_site_occupancy
  Tb  Tb0  1  0.999575  0.574103  0.000000  1
  Tb  Tb1  1  0.425472  0.425897  0.000000  1
  Nd  Nd2  1  0.573326  0.000000  0.000000  1
  Mg  Mg3  1  0.247942  0.000000  0.500000  1
  Mg  Mg4  1  0.001294  0.250286  0.500000  1
  Mg  Mg5  1  0.751008  0.749714  0.500000  1
  Ga  Ga6  1  0.330339  0.662774  0.500000  1
  Ga  Ga7  1  0.667566  0.337226  0.500000  1
  Hg  Hg8  1  0.003478  0.000000  0.000000  1
