# generated using pymatgen
data_Nb6Zn6Ir5Rh7
_symmetry_space_group_name_H-M   'P 1'
_cell_length_a   4.08822500
_cell_length_b   7.27741301
_cell_length_c   12.22762601
_cell_angle_alpha   90.00514399
_cell_angle_beta   90.00000000
_cell_angle_gamma   90.00000000
_symmetry_Int_Tables_number   1
_chemical_formula_structural   Nb6Zn6Ir5Rh7
_chemical_formula_sum   'Nb6 Zn6 Ir5 Rh7'
_cell_volume   363.79268128
_cell_formula_units_Z   1
loop_
 _symmetry_equiv_pos_site_id
 _symmetry_equiv_pos_as_xyz
  1  'x, y, z'
loop_
 _atom_site_type_symbol
 _atom_site_label
 _atom_site_symmetry_multiplicity
 _atom_site_fract_x
 _atom_site_fract_y
 _atom_site_fract_z
 _atom_site_occupancy
  Nb  Nb0  1  0.000000  0.500225  0.000008  1
  Nb  Nb1  1  0.500007  0.000135  0.166655  1
  Nb  Nb2  1  0.000000  0.498779  0.333192  1
  Nb  Nb3  1  0.499999  0.000406  0.499733  1
  Nb  Nb4  1  0.000000  0.500437  0.666654  1
  Nb  Nb5  1  0.499992  0.999928  0.833764  1
  Zn  Zn6  1  0.000000  0.999953  0.999211  1
  Zn  Zn7  1  0.500004  0.500887  0.167094  1
  Zn  Zn8  1  0.000000  0.998638  0.333867  1
  Zn  Zn9  1  0.499999  0.500697  0.500134  1
  Zn  Zn10  1  0.000000  0.999870  0.666830  1
  Zn  Zn11  1  0.499994  0.500028  0.832860  1
  Ir  Ir12  1  0.499999  0.248972  0.999418  1
  Ir  Ir13  1  0.499999  0.750242  0.999460  1
  Ir  Ir14  1  0.000000  0.251108  0.166504  1
  Ir  Ir15  1  0.000000  0.749104  0.167001  1
  Ir  Ir16  1  0.500009  0.251067  0.334217  1
  Rh  Rh17  1  0.500009  0.750808  0.334072  1
  Rh  Rh18  1  0.000000  0.248833  0.501065  1
  Rh  Rh19  1  0.000000  0.751132  0.500594  1
  Rh  Rh20  1  0.499992  0.250486  0.666604  1
  Rh  Rh21  1  0.499992  0.748408  0.666268  1
  Rh  Rh22  1  0.000000  0.249299  0.832415  1
  Rh  Rh23  1  0.000000  0.750555  0.832378  1
