# generated using pymatgen
data_Yb2PrEu7Si6
_symmetry_space_group_name_H-M   'P 1'
_cell_length_a   9.26213904
_cell_length_b   9.26213956
_cell_length_c   9.26107695
_cell_angle_alpha   130.36695739
_cell_angle_beta   130.36696302
_cell_angle_gamma   72.49644608
_symmetry_Int_Tables_number   1
_chemical_formula_structural   Yb2PrEu7Si6
_chemical_formula_sum   'Yb2 Pr1 Eu7 Si6'
_cell_volume   451.45595077
_cell_formula_units_Z   1
loop_
 _symmetry_equiv_pos_site_id
 _symmetry_equiv_pos_as_xyz
  1  'x, y, z'
loop_
 _atom_site_type_symbol
 _atom_site_label
 _atom_site_symmetry_multiplicity
 _atom_site_fract_x
 _atom_site_fract_y
 _atom_site_fract_z
 _atom_site_occupancy
  Yb  Yb0  1  0.498684  0.502761  0.000402  1
  Yb  Yb1  1  0.002761  0.998684  0.000402  1
  Pr  Pr2  1  0.539904  0.039904  0.864002  1
  Eu  Eu3  1  0.176708  0.676708  0.142911  1
  Eu  Eu4  1  0.035105  0.178238  0.502096  1
  Eu  Eu5  1  0.678238  0.535105  0.502096  1
  Eu  Eu6  1  0.465632  0.965632  0.145979  1
  Eu  Eu7  1  0.821339  0.321339  0.853539  1
  Eu  Eu8  1  0.966649  0.820757  0.498022  1
  Eu  Eu9  1  0.320757  0.466649  0.498022  1
  Si  Si10  1  0.885459  0.385459  0.273698  1
  Si  Si11  1  0.108791  0.608791  0.718171  1
  Si  Si12  1  0.389038  0.111452  0.503929  1
  Si  Si13  1  0.611452  0.889038  0.503929  1
  Si  Si14  1  0.253789  0.245695  0.996402  1
  Si  Si15  1  0.745695  0.753789  0.996402  1
