# generated using pymatgen
data_LiTb2Er(B6Os)2
_symmetry_space_group_name_H-M   'P 1'
_cell_length_a   3.59576200
_cell_length_b   8.98861901
_cell_length_c   11.39221008
_cell_angle_alpha   89.81310925
_cell_angle_beta   90.00000000
_cell_angle_gamma   90.00000000
_symmetry_Int_Tables_number   1
_chemical_formula_structural   LiTb2Er(B6Os)2
_chemical_formula_sum   'Li2 Tb4 Er2 B24 Os4'
_cell_volume   368.20491896
_cell_formula_units_Z   2
loop_
 _symmetry_equiv_pos_site_id
 _symmetry_equiv_pos_as_xyz
  1  'x, y, z'
loop_
 _atom_site_type_symbol
 _atom_site_label
 _atom_site_symmetry_multiplicity
 _atom_site_fract_x
 _atom_site_fract_y
 _atom_site_fract_z
 _atom_site_occupancy
  Li  Li0  1  0.000000  0.945420  0.375576  1
  Li  Li1  1  0.000000  0.054580  0.624424  1
  Tb  Tb2  1  0.000000  0.316120  0.415660  1
  Tb  Tb3  1  0.000000  0.683880  0.584340  1
  Tb  Tb4  1  0.000000  0.824596  0.088103  1
  Tb  Tb5  1  0.000000  0.175404  0.911897  1
  Er  Er6  1  0.000000  0.442467  0.131623  1
  Er  Er7  1  0.000000  0.557533  0.868377  1
  B  B8  1  0.500000  0.555448  0.433278  1
  B  B9  1  0.500000  0.444552  0.566722  1
  B  B10  1  0.500000  0.053477  0.068680  1
  B  B11  1  0.500000  0.946523  0.931320  1
  B  B12  1  0.500000  0.759940  0.417961  1
  B  B13  1  0.500000  0.240060  0.582039  1
  B  B14  1  0.500000  0.248031  0.083038  1
  B  B15  1  0.500000  0.751969  0.916962  1
  B  B16  1  0.500000  0.796375  0.266242  1
  B  B17  1  0.500000  0.203625  0.733758  1
  B  B18  1  0.500000  0.287946  0.236939  1
  B  B19  1  0.500000  0.712054  0.763061  1
  B  B20  1  0.500000  0.632406  0.187014  1
  B  B21  1  0.500000  0.367594  0.812986  1
  B  B22  1  0.500000  0.122538  0.319734  1
  B  B23  1  0.500000  0.877462  0.680266  1
  B  B24  1  0.500000  0.979185  0.215458  1
  B  B25  1  0.500000  0.020815  0.784542  1
  B  B26  1  0.500000  0.483240  0.289552  1
  B  B27  1  0.500000  0.516760  0.710448  1
  B  B28  1  0.500000  0.601921  0.027678  1
  B  B29  1  0.500000  0.398079  0.972322  1
  B  B30  1  0.500000  0.090950  0.474488  1
  B  B31  1  0.500000  0.909050  0.525512  1
  Os  Os32  1  0.000000  0.643528  0.323103  1
  Os  Os33  1  0.000000  0.356472  0.676897  1
  Os  Os34  1  0.000000  0.134886  0.184524  1
  Os  Os35  1  0.000000  0.865114  0.815476  1
