# generated using pymatgen
data_Tb4V3Fe4P12Rh13
_symmetry_space_group_name_H-M   'P 1'
_cell_length_a   3.82989300
_cell_length_b   10.70941929
_cell_length_c   12.45190023
_cell_angle_alpha   90.37307591
_cell_angle_beta   90.00000000
_cell_angle_gamma   90.00000000
_symmetry_Int_Tables_number   1
_chemical_formula_structural   Tb4V3Fe4P12Rh13
_chemical_formula_sum   'Tb4 V3 Fe4 P12 Rh13'
_cell_volume   510.71544111
_cell_formula_units_Z   1
loop_
 _symmetry_equiv_pos_site_id
 _symmetry_equiv_pos_as_xyz
  1  'x, y, z'
loop_
 _atom_site_type_symbol
 _atom_site_label
 _atom_site_symmetry_multiplicity
 _atom_site_fract_x
 _atom_site_fract_y
 _atom_site_fract_z
 _atom_site_occupancy
  Tb  Tb0  1  0.250000  0.582752  0.710849  1
  Tb  Tb1  1  0.250000  0.917101  0.207625  1
  Tb  Tb2  1  0.750000  0.421322  0.288832  1
  Tb  Tb3  1  0.750000  0.078806  0.795075  1
  V  V4  1  0.250000  0.698863  0.988244  1
  V  V5  1  0.250000  0.797907  0.487521  1
  V  V6  1  0.750000  0.299004  0.010259  1
  Fe  Fe7  1  0.250000  0.461493  0.934120  1
  Fe  Fe8  1  0.250000  0.038927  0.437764  1
  Fe  Fe9  1  0.750000  0.535614  0.062764  1
  Fe  Fe10  1  0.750000  0.964927  0.564287  1
  P  P11  1  0.250000  0.426365  0.104674  1
  P  P12  1  0.250000  0.069474  0.609709  1
  P  P13  1  0.750000  0.572875  0.893362  1
  P  P14  1  0.750000  0.926690  0.394365  1
  P  P15  1  0.250000  0.268524  0.871960  1
  P  P16  1  0.250000  0.230433  0.367386  1
  P  P17  1  0.750000  0.728235  0.128280  1
  P  P18  1  0.750000  0.772432  0.629512  1
  P  P19  1  0.250000  0.602916  0.389937  1
  P  P20  1  0.250000  0.896031  0.892806  1
  P  P21  1  0.750000  0.402493  0.609062  1
  P  P22  1  0.750000  0.102994  0.108784  1
  Rh  Rh23  1  0.750000  0.209498  0.512876  1
  Rh  Rh24  1  0.250000  0.405745  0.483982  1
  Rh  Rh25  1  0.250000  0.094794  0.985962  1
  Rh  Rh26  1  0.750000  0.596687  0.515398  1
  Rh  Rh27  1  0.750000  0.903828  0.016973  1
  Rh  Rh28  1  0.250000  0.229397  0.176515  1
  Rh  Rh29  1  0.250000  0.267425  0.677290  1
  Rh  Rh30  1  0.750000  0.770462  0.823870  1
  Rh  Rh31  1  0.750000  0.730475  0.323520  1
  Rh  Rh32  1  0.250000  0.881551  0.699062  1
  Rh  Rh33  1  0.250000  0.615848  0.198015  1
  Rh  Rh34  1  0.750000  0.114524  0.301142  1
  Rh  Rh35  1  0.750000  0.383589  0.798217  1
