# generated using pymatgen
data_Ta6Mn4AlCrN2
_symmetry_space_group_name_H-M   'P 1'
_cell_length_a   8.06583302
_cell_length_b   8.09566647
_cell_length_c   8.06583182
_cell_angle_alpha   59.87757003
_cell_angle_beta   59.77198230
_cell_angle_gamma   59.87756662
_symmetry_Int_Tables_number   1
_chemical_formula_structural   Ta6Mn4AlCrN2
_chemical_formula_sum   'Ta12 Mn8 Al2 Cr2 N4'
_cell_volume   371.08945463
_cell_formula_units_Z   2
loop_
 _symmetry_equiv_pos_site_id
 _symmetry_equiv_pos_as_xyz
  1  'x, y, z'
loop_
 _atom_site_type_symbol
 _atom_site_label
 _atom_site_symmetry_multiplicity
 _atom_site_fract_x
 _atom_site_fract_y
 _atom_site_fract_z
 _atom_site_occupancy
  Ta  Ta0  1  0.804316  0.804689  0.196541  1
  Ta  Ta1  1  0.196541  0.194453  0.804316  1
  Ta  Ta2  1  0.803165  0.196835  0.803165  1
  Ta  Ta3  1  0.193635  0.806365  0.193635  1
  Ta  Ta4  1  0.196541  0.804689  0.804316  1
  Ta  Ta5  1  0.804316  0.194453  0.196541  1
  Ta  Ta6  1  0.445684  0.445311  0.053459  1
  Ta  Ta7  1  0.053459  0.055547  0.445684  1
  Ta  Ta8  1  0.446835  0.053165  0.446835  1
  Ta  Ta9  1  0.056365  0.443635  0.056365  1
  Ta  Ta10  1  0.053459  0.445311  0.445684  1
  Ta  Ta11  1  0.445684  0.055547  0.053459  1
  Mn  Mn12  1  0.737711  0.425857  0.410572  1
  Mn  Mn13  1  0.416625  0.740301  0.416625  1
  Mn  Mn14  1  0.410572  0.425857  0.737711  1
  Mn  Mn15  1  0.416625  0.426447  0.416625  1
  Mn  Mn16  1  0.512289  0.824143  0.839428  1
  Mn  Mn17  1  0.833375  0.509699  0.833375  1
  Mn  Mn18  1  0.839428  0.824143  0.512289  1
  Mn  Mn19  1  0.833375  0.823553  0.833375  1
  Al  Al20  1  0.625000  0.125000  0.625000  1
  Al  Al21  1  0.625000  0.625000  0.625000  1
  Cr  Cr22  1  0.125000  0.625000  0.625000  1
  Cr  Cr23  1  0.625000  0.625000  0.125000  1
  N  N24  1  0.625000  0.125000  0.125000  1
  N  N25  1  0.125000  0.625000  0.125000  1
  N  N26  1  0.125000  0.125000  0.625000  1
  N  N27  1  0.125000  0.125000  0.125000  1
