# generated using pymatgen
data_Dy17Tm3(CoBi2)4
_symmetry_space_group_name_H-M   'P 1'
_cell_length_a   7.99204076
_cell_length_b   8.87610487
_cell_length_c   12.41974949
_cell_angle_alpha   89.91190147
_cell_angle_beta   90.04269099
_cell_angle_gamma   89.97443224
_symmetry_Int_Tables_number   1
_chemical_formula_structural   Dy17Tm3(CoBi2)4
_chemical_formula_sum   'Dy17 Tm3 Co4 Bi8'
_cell_volume   881.03319849
_cell_formula_units_Z   1
loop_
 _symmetry_equiv_pos_site_id
 _symmetry_equiv_pos_as_xyz
  1  'x, y, z'
loop_
 _atom_site_type_symbol
 _atom_site_label
 _atom_site_symmetry_multiplicity
 _atom_site_fract_x
 _atom_site_fract_y
 _atom_site_fract_z
 _atom_site_occupancy
  Dy  Dy0  1  0.847868  0.750256  0.801394  1
  Dy  Dy1  1  0.152303  0.249885  0.198615  1
  Dy  Dy2  1  0.348138  0.249444  0.698445  1
  Dy  Dy3  1  0.651917  0.750531  0.301718  1
  Dy  Dy4  1  0.380814  0.751118  0.688176  1
  Dy  Dy5  1  0.619313  0.248715  0.312101  1
  Dy  Dy6  1  0.881665  0.249961  0.811349  1
  Dy  Dy7  1  0.120132  0.750328  0.188617  1
  Dy  Dy8  1  0.950171  0.751299  0.502568  1
  Dy  Dy9  1  0.049710  0.248743  0.497512  1
  Dy  Dy10  1  0.448799  0.249116  0.997481  1
  Dy  Dy11  1  0.547499  0.750596  0.002331  1
  Dy  Dy12  1  0.323836  0.535145  0.437086  1
  Dy  Dy13  1  0.824226  0.035418  0.063035  1
  Dy  Dy14  1  0.676346  0.464799  0.563068  1
  Dy  Dy15  1  0.823812  0.465039  0.062718  1
  Dy  Dy16  1  0.176328  0.535909  0.936583  1
  Tm  Tm17  1  0.672788  0.036166  0.563173  1
  Tm  Tm18  1  0.327297  0.964014  0.437043  1
  Tm  Tm19  1  0.172949  0.963712  0.936661  1
  Co  Co20  1  0.560655  0.751583  0.507547  1
  Co  Co21  1  0.439373  0.248442  0.492630  1
  Co  Co22  1  0.062788  0.249328  0.991947  1
  Co  Co23  1  0.940385  0.750901  0.007497  1
  Bi  Bi24  1  0.570602  0.491907  0.826146  1
  Bi  Bi25  1  0.430038  0.507715  0.174067  1
  Bi  Bi26  1  0.070780  0.508187  0.673459  1
  Bi  Bi27  1  0.429774  0.992003  0.174436  1
  Bi  Bi28  1  0.929615  0.492027  0.326200  1
  Bi  Bi29  1  0.569583  0.007929  0.826209  1
  Bi  Bi30  1  0.931597  0.007614  0.326200  1
  Bi  Bi31  1  0.068900  0.992171  0.673988  1
