# generated using pymatgen
data_Nd3Sn6Ru
_symmetry_space_group_name_H-M   'P 1'
_cell_length_a   8.71605642
_cell_length_b   8.71605653
_cell_length_c   13.39934800
_cell_angle_alpha   90.00000000
_cell_angle_beta   90.00000000
_cell_angle_gamma   148.54173834
_symmetry_Int_Tables_number   1
_chemical_formula_structural   Nd3Sn6Ru
_chemical_formula_sum   'Nd6 Sn12 Ru2'
_cell_volume   531.24168620
_cell_formula_units_Z   2
loop_
 _symmetry_equiv_pos_site_id
 _symmetry_equiv_pos_as_xyz
  1  'x, y, z'
loop_
 _atom_site_type_symbol
 _atom_site_label
 _atom_site_symmetry_multiplicity
 _atom_site_fract_x
 _atom_site_fract_y
 _atom_site_fract_z
 _atom_site_occupancy
  Nd  Nd0  1  0.601921  0.398079  0.250000  1
  Nd  Nd1  1  0.398079  0.601921  0.750000  1
  Nd  Nd2  1  0.399145  0.600855  0.404666  1
  Nd  Nd3  1  0.600855  0.399145  0.595334  1
  Nd  Nd4  1  0.399145  0.600855  0.095334  1
  Nd  Nd5  1  0.600855  0.399145  0.904666  1
  Sn  Sn6  1  0.926616  0.073384  0.924254  1
  Sn  Sn7  1  0.073384  0.926616  0.075746  1
  Sn  Sn8  1  0.926616  0.073384  0.575746  1
  Sn  Sn9  1  0.073384  0.926616  0.424254  1
  Sn  Sn10  1  0.959360  0.040640  0.250000  1
  Sn  Sn11  1  0.040640  0.959360  0.750000  1
  Sn  Sn12  1  0.744666  0.255335  0.432762  1
  Sn  Sn13  1  0.255335  0.744665  0.567238  1
  Sn  Sn14  1  0.744666  0.255335  0.067238  1
  Sn  Sn15  1  0.255335  0.744665  0.932762  1
  Sn  Sn16  1  0.233642  0.766358  0.250000  1
  Sn  Sn17  1  0.766358  0.233642  0.750000  1
  Ru  Ru18  1  0.801653  0.198347  0.250000  1
  Ru  Ru19  1  0.198347  0.801653  0.750000  1
