# generated using pymatgen
data_Pa2TcB8W
_symmetry_space_group_name_H-M   'P 1'
_cell_length_a   3.68432200
_cell_length_b   5.98859310
_cell_length_c   11.60863066
_cell_angle_alpha   90.02963207
_cell_angle_beta   90.00000000
_cell_angle_gamma   90.00000000
_symmetry_Int_Tables_number   1
_chemical_formula_structural   Pa2TcB8W
_chemical_formula_sum   'Pa4 Tc2 B16 W2'
_cell_volume   256.13169325
_cell_formula_units_Z   2
loop_
 _symmetry_equiv_pos_site_id
 _symmetry_equiv_pos_as_xyz
  1  'x, y, z'
loop_
 _atom_site_type_symbol
 _atom_site_label
 _atom_site_symmetry_multiplicity
 _atom_site_fract_x
 _atom_site_fract_y
 _atom_site_fract_z
 _atom_site_occupancy
  Pa  Pa0  1  0.000000  0.627863  0.652382  1
  Pa  Pa1  1  0.000000  0.372137  0.347618  1
  Pa  Pa2  1  0.000000  0.127904  0.851914  1
  Pa  Pa3  1  0.000000  0.872096  0.148086  1
  Tc  Tc4  1  0.000000  0.638863  0.906774  1
  Tc  Tc5  1  0.000000  0.361137  0.093226  1
  B  B6  1  0.500000  0.973055  0.693432  1
  B  B7  1  0.500000  0.026945  0.306568  1
  B  B8  1  0.500000  0.474039  0.809512  1
  B  B9  1  0.500000  0.525961  0.190488  1
  B  B10  1  0.500000  0.864823  0.968204  1
  B  B11  1  0.500000  0.135177  0.031796  1
  B  B12  1  0.500000  0.366386  0.531949  1
  B  B13  1  0.500000  0.633614  0.468051  1
  B  B14  1  0.500000  0.790409  0.814202  1
  B  B15  1  0.500000  0.209591  0.185798  1
  B  B16  1  0.500000  0.290086  0.689043  1
  B  B17  1  0.500000  0.709914  0.310957  1
  B  B18  1  0.500000  0.886013  0.546526  1
  B  B19  1  0.500000  0.113987  0.453474  1
  B  B20  1  0.500000  0.387634  0.953901  1
  B  B21  1  0.500000  0.612366  0.046099  1
  W  W22  1  0.000000  0.134497  0.591476  1
  W  W23  1  0.000000  0.865503  0.408524  1
