# generated using pymatgen
data_YScPPt8
_symmetry_space_group_name_H-M   'P 1'
_cell_length_a   4.03418300
_cell_length_b   4.03418300
_cell_length_c   11.19913300
_cell_angle_alpha   90.00000000
_cell_angle_beta   90.00000000
_cell_angle_gamma   90.00000000
_symmetry_Int_Tables_number   1
_chemical_formula_structural   YScPPt8
_chemical_formula_sum   'Y1 Sc1 P1 Pt8'
_cell_volume   182.26177364
_cell_formula_units_Z   1
loop_
 _symmetry_equiv_pos_site_id
 _symmetry_equiv_pos_as_xyz
  1  'x, y, z'
loop_
 _atom_site_type_symbol
 _atom_site_label
 _atom_site_symmetry_multiplicity
 _atom_site_fract_x
 _atom_site_fract_y
 _atom_site_fract_z
 _atom_site_occupancy
  Y  Y0  1  0.500000  0.500000  0.817491  1
  Sc  Sc1  1  0.500000  0.500000  0.184993  1
  P  P2  1  0.000000  0.000000  0.496172  1
  Pt  Pt3  1  0.500000  0.000000  0.008036  1
  Pt  Pt4  1  0.000000  0.500000  0.008036  1
  Pt  Pt5  1  0.500000  0.000000  0.624248  1
  Pt  Pt6  1  0.000000  0.500000  0.624248  1
  Pt  Pt7  1  0.500000  0.000000  0.366615  1
  Pt  Pt8  1  0.000000  0.500000  0.366615  1
  Pt  Pt9  1  0.000000  0.000000  0.817874  1
  Pt  Pt10  1  0.000000  0.000000  0.185672  1
