# generated using pymatgen
data_Ho6Al24Fe4RuPt3
_symmetry_space_group_name_H-M   'P 1'
_cell_length_a   8.75623287
_cell_length_b   8.73252396
_cell_length_c   9.38230793
_cell_angle_alpha   90.05711269
_cell_angle_beta   89.92453187
_cell_angle_gamma   119.86043463
_symmetry_Int_Tables_number   1
_chemical_formula_structural   Ho6Al24Fe4RuPt3
_chemical_formula_sum   'Ho6 Al24 Fe4 Ru1 Pt3'
_cell_volume   622.16567528
_cell_formula_units_Z   1
loop_
 _symmetry_equiv_pos_site_id
 _symmetry_equiv_pos_as_xyz
  1  'x, y, z'
loop_
 _atom_site_type_symbol
 _atom_site_label
 _atom_site_symmetry_multiplicity
 _atom_site_fract_x
 _atom_site_fract_y
 _atom_site_fract_z
 _atom_site_occupancy
  Ho  Ho0  1  0.190003  0.386511  0.252323  1
  Ho  Ho1  1  0.809997  0.613489  0.747677  1
  Ho  Ho2  1  0.614702  0.809439  0.250082  1
  Ho  Ho3  1  0.385298  0.190561  0.749918  1
  Ho  Ho4  1  0.192329  0.805424  0.250575  1
  Ho  Ho5  1  0.807671  0.194576  0.749425  1
  Al  Al6  1  0.320727  0.660329  0.023866  1
  Al  Al7  1  0.679273  0.339671  0.976134  1
  Al  Al8  1  0.665902  0.323814  0.522875  1
  Al  Al9  1  0.334098  0.676186  0.477125  1
  Al  Al10  1  0.155376  0.319879  0.576876  1
  Al  Al11  1  0.844624  0.680121  0.423124  1
  Al  Al12  1  0.680088  0.847466  0.575611  1
  Al  Al13  1  0.847169  0.679981  0.076723  1
  Al  Al14  1  0.319912  0.152534  0.424389  1
  Al  Al15  1  0.152831  0.320019  0.923277  1
  Al  Al16  1  0.163378  0.840731  0.576402  1
  Al  Al17  1  0.316852  0.158459  0.078378  1
  Al  Al18  1  0.836622  0.159269  0.423598  1
  Al  Al19  1  0.683148  0.841541  0.921622  1
  Al  Al20  1  0.846335  0.167518  0.077308  1
  Al  Al21  1  0.153665  0.832482  0.922692  1
  Al  Al22  1  0.561314  0.122013  0.258210  1
  Al  Al23  1  0.438686  0.877987  0.741790  1
  Al  Al24  1  0.880217  0.440140  0.245234  1
  Al  Al25  1  0.119783  0.559860  0.754766  1
  Al  Al26  1  0.564656  0.435906  0.249619  1
  Al  Al27  1  0.435344  0.564094  0.750381  1
  Al  Al28  1  0.997882  0.000014  0.250246  1
  Al  Al29  1  0.002118  0.999986  0.749754  1
  Fe  Fe30  1  0.000000  0.500000  0.000000  1
  Fe  Fe31  1  0.500000  0.000000  0.500000  1
  Fe  Fe32  1  0.000000  0.000000  0.000000  1
  Fe  Fe33  1  0.000000  0.000000  0.500000  1
  Ru  Ru34  1  0.000000  0.500000  0.500000  1
  Pt  Pt35  1  0.500000  0.000000  0.000000  1
  Pt  Pt36  1  0.500000  0.500000  0.000000  1
  Pt  Pt37  1  0.500000  0.500000  0.500000  1
