# generated using pymatgen
data_Sr8Cd15HgAu12
_symmetry_space_group_name_H-M   'P 1'
_cell_length_a   15.48863100
_cell_length_b   15.48863269
_cell_length_c   4.45064100
_cell_angle_alpha   90.00000000
_cell_angle_beta   90.00000000
_cell_angle_gamma   120.00000280
_symmetry_Int_Tables_number   1
_chemical_formula_structural   Sr8Cd15HgAu12
_chemical_formula_sum   'Sr8 Cd15 Hg1 Au12'
_cell_volume   924.65409590
_cell_formula_units_Z   1
loop_
 _symmetry_equiv_pos_site_id
 _symmetry_equiv_pos_as_xyz
  1  'x, y, z'
loop_
 _atom_site_type_symbol
 _atom_site_label
 _atom_site_symmetry_multiplicity
 _atom_site_fract_x
 _atom_site_fract_y
 _atom_site_fract_z
 _atom_site_occupancy
  Sr  Sr0  1  0.451243  0.000000  0.000000  1
  Sr  Sr1  1  0.000000  0.451243  0.000000  1
  Sr  Sr2  1  0.548757  0.548757  0.000000  1
  Sr  Sr3  1  0.333333  0.666667  0.000000  1
  Sr  Sr4  1  0.666667  0.333333  0.000000  1
  Sr  Sr5  1  0.825527  0.000000  0.500000  1
  Sr  Sr6  1  0.000000  0.825527  0.500000  1
  Sr  Sr7  1  0.174473  0.174473  0.500000  1
  Cd  Cd8  1  0.179397  0.375529  0.000000  1
  Cd  Cd9  1  0.624471  0.803868  0.000000  1
  Cd  Cd10  1  0.375529  0.179397  0.000000  1
  Cd  Cd11  1  0.196132  0.820603  0.000000  1
  Cd  Cd12  1  0.803868  0.624471  0.000000  1
  Cd  Cd13  1  0.820603  0.196132  0.000000  1
  Cd  Cd14  1  0.284826  0.000000  0.500000  1
  Cd  Cd15  1  0.000000  0.284826  0.500000  1
  Cd  Cd16  1  0.715174  0.715174  0.500000  1
  Cd  Cd17  1  0.346199  0.472959  0.500000  1
  Cd  Cd18  1  0.527041  0.873240  0.500000  1
  Cd  Cd19  1  0.472959  0.346199  0.500000  1
  Cd  Cd20  1  0.126760  0.653801  0.500000  1
  Cd  Cd21  1  0.873240  0.527041  0.500000  1
  Cd  Cd22  1  0.653801  0.126760  0.500000  1
  Hg  Hg23  1  0.000000  0.000000  0.000000  1
  Au  Au24  1  0.170601  0.495044  0.500000  1
  Au  Au25  1  0.504956  0.675557  0.500000  1
  Au  Au26  1  0.495044  0.170601  0.500000  1
  Au  Au27  1  0.324443  0.829399  0.500000  1
  Au  Au28  1  0.675557  0.504956  0.500000  1
  Au  Au29  1  0.829399  0.324443  0.500000  1
  Au  Au30  1  0.177449  0.000000  0.000000  1
  Au  Au31  1  0.000000  0.177449  0.000000  1
  Au  Au32  1  0.822551  0.822551  0.000000  1
  Au  Au33  1  0.656654  0.000000  0.000000  1
  Au  Au34  1  0.000000  0.656654  0.000000  1
  Au  Au35  1  0.343346  0.343346  0.000000  1
