# generated using pymatgen
data_Ca20Si11Ge
_symmetry_space_group_name_H-M   'P 1'
_cell_length_a   7.65077700
_cell_length_b   7.65077700
_cell_length_c   14.76573600
_cell_angle_alpha   90.00000000
_cell_angle_beta   90.00000000
_cell_angle_gamma   90.00000000
_symmetry_Int_Tables_number   1
_chemical_formula_structural   Ca20Si11Ge
_chemical_formula_sum   'Ca20 Si11 Ge1'
_cell_volume   864.30333052
_cell_formula_units_Z   1
loop_
 _symmetry_equiv_pos_site_id
 _symmetry_equiv_pos_as_xyz
  1  'x, y, z'
loop_
 _atom_site_type_symbol
 _atom_site_label
 _atom_site_symmetry_multiplicity
 _atom_site_fract_x
 _atom_site_fract_y
 _atom_site_fract_z
 _atom_site_occupancy
  Ca  Ca0  1  0.000000  0.500000  0.249618  1
  Ca  Ca1  1  0.500000  0.000000  0.249681  1
  Ca  Ca2  1  0.500000  0.000000  0.750118  1
  Ca  Ca3  1  0.000000  0.500000  0.750564  1
  Ca  Ca4  1  0.179195  0.179273  0.109849  1
  Ca  Ca5  1  0.820805  0.820728  0.109849  1
  Ca  Ca6  1  0.678148  0.320166  0.389797  1
  Ca  Ca7  1  0.321851  0.679833  0.389797  1
  Ca  Ca8  1  0.820167  0.821852  0.389797  1
  Ca  Ca9  1  0.179834  0.178148  0.389797  1
  Ca  Ca10  1  0.679272  0.320804  0.109849  1
  Ca  Ca11  1  0.320727  0.679195  0.109849  1
  Ca  Ca12  1  0.320839  0.320706  0.890216  1
  Ca  Ca13  1  0.679160  0.679293  0.890216  1
  Ca  Ca14  1  0.820279  0.178246  0.610131  1
  Ca  Ca15  1  0.179721  0.821755  0.610131  1
  Ca  Ca16  1  0.678245  0.679721  0.610131  1
  Ca  Ca17  1  0.321754  0.320278  0.610131  1
  Ca  Ca18  1  0.820707  0.179160  0.890216  1
  Ca  Ca19  1  0.179294  0.820840  0.890216  1
  Si  Si20  1  0.387306  0.387421  0.249890  1
  Si  Si21  1  0.612694  0.612579  0.249890  1
  Si  Si22  1  0.887421  0.112693  0.249890  1
  Si  Si23  1  0.112578  0.887306  0.249890  1
  Si  Si24  1  0.112535  0.112644  0.750105  1
  Si  Si25  1  0.887464  0.887355  0.750105  1
  Si  Si26  1  0.612645  0.387464  0.750105  1
  Si  Si27  1  0.387355  0.612536  0.750105  1
  Si  Si28  1  0.000000  0.500000  0.999971  1
  Si  Si29  1  0.500000  0.000000  0.500026  1
  Si  Si30  1  0.500000  0.000000  0.000068  1
  Ge  Ge31  1  0.000000  0.500000  0.499996  1
