# generated using pymatgen
data_Ta3Ti9Sn9Au
_symmetry_space_group_name_H-M   'P 1'
_cell_length_a   9.38364055
_cell_length_b   9.31172247
_cell_length_c   5.68086046
_cell_angle_alpha   90.41992924
_cell_angle_beta   89.61683824
_cell_angle_gamma   120.27374029
_symmetry_Int_Tables_number   1
_chemical_formula_structural   Ta3Ti9Sn9Au
_chemical_formula_sum   'Ta3 Ti9 Sn9 Au1'
_cell_volume   428.67414922
_cell_formula_units_Z   1
loop_
 _symmetry_equiv_pos_site_id
 _symmetry_equiv_pos_as_xyz
  1  'x, y, z'
loop_
 _atom_site_type_symbol
 _atom_site_label
 _atom_site_symmetry_multiplicity
 _atom_site_fract_x
 _atom_site_fract_y
 _atom_site_fract_z
 _atom_site_occupancy
  Ta  Ta0  1  0.500000  0.500000  0.000000  1
  Ta  Ta1  1  0.000000  0.500000  0.000000  1
  Ta  Ta2  1  0.000000  0.500000  0.500000  1
  Ti  Ti3  1  0.844593  0.685352  0.757702  1
  Ti  Ti4  1  0.153653  0.839120  0.248983  1
  Ti  Ti5  1  0.686340  0.841126  0.241457  1
  Ti  Ti6  1  0.313660  0.158874  0.758543  1
  Ti  Ti7  1  0.846347  0.160880  0.751017  1
  Ti  Ti8  1  0.155407  0.314648  0.242298  1
  Ti  Ti9  1  0.500000  0.000000  0.500000  1
  Ti  Ti10  1  0.500000  0.000000  0.000000  1
  Ti  Ti11  1  0.500000  0.500000  0.500000  1
  Sn  Sn12  1  0.202324  0.400487  0.743188  1
  Sn  Sn13  1  0.795513  0.195695  0.251364  1
  Sn  Sn14  1  0.401275  0.198295  0.256666  1
  Sn  Sn15  1  0.598725  0.801705  0.743334  1
  Sn  Sn16  1  0.204487  0.804305  0.748636  1
  Sn  Sn17  1  0.797676  0.599513  0.256812  1
  Sn  Sn18  1  0.663722  0.331181  0.752841  1
  Sn  Sn19  1  0.336278  0.668819  0.247159  1
  Sn  Sn20  1  0.000000  0.000000  0.000000  1
  Au  Au21  1  0.000000  0.000000  0.500000  1
