# generated using pymatgen
data_LiTb8Sc9(Si8Ag)2
_symmetry_space_group_name_H-M   'P 1'
_cell_length_a   6.94496883
_cell_length_b   7.43370618
_cell_length_c   14.06532200
_cell_angle_alpha   90.00000000
_cell_angle_beta   90.00000000
_cell_angle_gamma   89.77657891
_symmetry_Int_Tables_number   1
_chemical_formula_structural   LiTb8Sc9(Si8Ag)2
_chemical_formula_sum   'Li1 Tb8 Sc9 Si16 Ag2'
_cell_volume   726.14285659
_cell_formula_units_Z   1
loop_
 _symmetry_equiv_pos_site_id
 _symmetry_equiv_pos_as_xyz
  1  'x, y, z'
loop_
 _atom_site_type_symbol
 _atom_site_label
 _atom_site_symmetry_multiplicity
 _atom_site_fract_x
 _atom_site_fract_y
 _atom_site_fract_z
 _atom_site_occupancy
  Li  Li0  1  0.341446  0.004957  0.250000  1
  Tb  Tb1  1  0.013787  0.181242  0.100353  1
  Tb  Tb2  1  0.990912  0.816530  0.901481  1
  Tb  Tb3  1  0.484496  0.673629  0.902075  1
  Tb  Tb4  1  0.990912  0.816530  0.598519  1
  Tb  Tb5  1  0.513361  0.318218  0.099154  1
  Tb  Tb6  1  0.013787  0.181242  0.399647  1
  Tb  Tb7  1  0.513361  0.318218  0.400846  1
  Tb  Tb8  1  0.484496  0.673629  0.597925  1
  Sc  Sc9  1  0.659091  0.998698  0.750000  1
  Sc  Sc10  1  0.325350  0.184030  0.626074  1
  Sc  Sc11  1  0.668929  0.821393  0.373581  1
  Sc  Sc12  1  0.169983  0.679510  0.373177  1
  Sc  Sc13  1  0.668929  0.821393  0.126419  1
  Sc  Sc14  1  0.833388  0.326523  0.626170  1
  Sc  Sc15  1  0.325350  0.184030  0.873926  1
  Sc  Sc16  1  0.833388  0.326523  0.873830  1
  Sc  Sc17  1  0.169983  0.679510  0.126823  1
  Si  Si18  1  0.028875  0.101249  0.750000  1
  Si  Si19  1  0.970175  0.898639  0.250000  1
  Si  Si20  1  0.467189  0.608004  0.250000  1
  Si  Si21  1  0.535685  0.385977  0.750000  1
  Si  Si22  1  0.289915  0.886385  0.750000  1
  Si  Si23  1  0.715514  0.113669  0.250000  1
  Si  Si24  1  0.220302  0.382980  0.250000  1
  Si  Si25  1  0.779237  0.626379  0.750000  1
  Si  Si26  1  0.157662  0.460326  0.530809  1
  Si  Si27  1  0.840050  0.538522  0.465979  1
  Si  Si28  1  0.342019  0.963674  0.465681  1
  Si  Si29  1  0.840050  0.538522  0.034021  1
  Si  Si30  1  0.656552  0.032647  0.539192  1
  Si  Si31  1  0.157662  0.460326  0.969191  1
  Si  Si32  1  0.656552  0.032647  0.960808  1
  Si  Si33  1  0.342019  0.963674  0.034319  1
  Ag  Ag34  1  0.156928  0.509280  0.750000  1
  Ag  Ag35  1  0.842662  0.491295  0.250000  1
