# generated using pymatgen
data_PrCd2P6IN12
_symmetry_space_group_name_H-M   'P 1'
_cell_length_a   7.51652484
_cell_length_b   7.51178743
_cell_length_c   7.51652522
_cell_angle_alpha   109.51954190
_cell_angle_beta   109.63159555
_cell_angle_gamma   109.51953292
_symmetry_Int_Tables_number   1
_chemical_formula_structural   PrCd2P6IN12
_chemical_formula_sum   'Pr1 Cd2 P6 I1 N12'
_cell_volume   325.66419078
_cell_formula_units_Z   1
loop_
 _symmetry_equiv_pos_site_id
 _symmetry_equiv_pos_as_xyz
  1  'x, y, z'
loop_
 _atom_site_type_symbol
 _atom_site_label
 _atom_site_symmetry_multiplicity
 _atom_site_fract_x
 _atom_site_fract_y
 _atom_site_fract_z
 _atom_site_occupancy
  Pr  Pr0  1  0.013408  0.359658  0.013408  1
  Cd  Cd1  1  0.005628  0.009959  0.379813  1
  Cd  Cd2  1  0.379813  0.009959  0.005628  1
  P  P3  1  0.502021  0.261199  0.748537  1
  P  P4  1  0.254294  0.755103  0.501949  1
  P  P5  1  0.748072  0.507912  0.261468  1
  P  P6  1  0.748537  0.261199  0.502021  1
  P  P7  1  0.501949  0.755103  0.254294  1
  P  P8  1  0.261468  0.507912  0.748072  1
  I  I9  1  0.949741  0.899470  0.949741  1
  N  N10  1  0.380343  0.682216  0.380343  1
  N  N11  1  0.699892  0.413815  0.411783  1
  N  N12  1  0.411783  0.413815  0.699892  1
  N  N13  1  0.711576  0.296132  0.711576  1
  N  N14  1  0.997758  0.591092  0.303762  1
  N  N15  1  0.303762  0.591092  0.997758  1
  N  N16  1  0.298704  0.005428  0.583509  1
  N  N17  1  0.002084  0.299100  0.596138  1
  N  N18  1  0.711474  0.717653  0.298045  1
  N  N19  1  0.583509  0.005428  0.298704  1
  N  N20  1  0.298045  0.717653  0.711474  1
  N  N21  1  0.596138  0.299100  0.002084  1
