# generated using pymatgen
data_YLu9(NiSb2)2
_symmetry_space_group_name_H-M   'P 1'
_cell_length_a   7.68297200
_cell_length_b   8.70095000
_cell_length_c   11.97868100
_cell_angle_alpha   90.00000000
_cell_angle_beta   90.00000000
_cell_angle_gamma   90.00000000
_symmetry_Int_Tables_number   1
_chemical_formula_structural   YLu9(NiSb2)2
_chemical_formula_sum   'Y2 Lu18 Ni4 Sb8'
_cell_volume   800.76470554
_cell_formula_units_Z   2
loop_
 _symmetry_equiv_pos_site_id
 _symmetry_equiv_pos_as_xyz
  1  'x, y, z'
loop_
 _atom_site_type_symbol
 _atom_site_label
 _atom_site_symmetry_multiplicity
 _atom_site_fract_x
 _atom_site_fract_y
 _atom_site_fract_z
 _atom_site_occupancy
  Y  Y0  1  0.373318  0.250000  0.694612  1
  Y  Y1  1  0.873318  0.750000  0.805388  1
  Lu  Lu2  1  0.157785  0.750000  0.207725  1
  Lu  Lu3  1  0.657785  0.250000  0.292275  1
  Lu  Lu4  1  0.843347  0.250000  0.792715  1
  Lu  Lu5  1  0.343347  0.750000  0.707285  1
  Lu  Lu6  1  0.449110  0.750000  0.999442  1
  Lu  Lu7  1  0.949110  0.250000  0.500558  1
  Lu  Lu8  1  0.550447  0.250000  0.001348  1
  Lu  Lu9  1  0.050447  0.750000  0.498652  1
  Lu  Lu10  1  0.624737  0.750000  0.307512  1
  Lu  Lu11  1  0.124737  0.250000  0.192488  1
  Lu  Lu12  1  0.822718  0.960629  0.068582  1
  Lu  Lu13  1  0.322718  0.039371  0.431418  1
  Lu  Lu14  1  0.178154  0.459168  0.934067  1
  Lu  Lu15  1  0.678154  0.540832  0.565933  1
  Lu  Lu16  1  0.178154  0.040832  0.934067  1
  Lu  Lu17  1  0.678154  0.959168  0.565933  1
  Lu  Lu18  1  0.822718  0.539371  0.068582  1
  Lu  Lu19  1  0.322718  0.460629  0.431418  1
  Ni  Ni20  1  0.431050  0.750000  0.490906  1
  Ni  Ni21  1  0.931050  0.250000  0.009094  1
  Ni  Ni22  1  0.569377  0.250000  0.507267  1
  Ni  Ni23  1  0.069377  0.750000  0.992733  1
  Sb  Sb24  1  0.932011  0.991876  0.328480  1
  Sb  Sb25  1  0.432011  0.008124  0.171520  1
  Sb  Sb26  1  0.067531  0.491731  0.670872  1
  Sb  Sb27  1  0.567531  0.508269  0.829128  1
  Sb  Sb28  1  0.067531  0.008269  0.670872  1
  Sb  Sb29  1  0.567531  0.991731  0.829128  1
  Sb  Sb30  1  0.932011  0.508124  0.328480  1
  Sb  Sb31  1  0.432011  0.491876  0.171520  1
