# generated using pymatgen
data_TbMgNiPt3
_symmetry_space_group_name_H-M   'P 1'
_cell_length_a   5.15354926
_cell_length_b   5.15354968
_cell_length_c   5.15354958
_cell_angle_alpha   63.33566141
_cell_angle_beta   63.33565648
_cell_angle_gamma   63.33567435
_symmetry_Int_Tables_number   1
_chemical_formula_structural   TbMgNiPt3
_chemical_formula_sum   'Tb1 Mg1 Ni1 Pt3'
_cell_volume   103.93257361
_cell_formula_units_Z   1
loop_
 _symmetry_equiv_pos_site_id
 _symmetry_equiv_pos_as_xyz
  1  'x, y, z'
loop_
 _atom_site_type_symbol
 _atom_site_label
 _atom_site_symmetry_multiplicity
 _atom_site_fract_x
 _atom_site_fract_y
 _atom_site_fract_z
 _atom_site_occupancy
  Tb  Tb0  1  0.000175  0.000175  0.000175  1
  Mg  Mg1  1  0.255639  0.255639  0.255639  1
  Ni  Ni2  1  0.623146  0.623146  0.623146  1
  Pt  Pt3  1  0.622638  0.622638  0.125763  1
  Pt  Pt4  1  0.622638  0.125763  0.622638  1
  Pt  Pt5  1  0.125763  0.622638  0.622638  1
