# generated using pymatgen
data_I5Br7
_symmetry_space_group_name_H-M   'P 1'
_cell_length_a   12.56723653
_cell_length_b   7.47224686
_cell_length_c   7.96044862
_cell_angle_alpha   56.14474145
_cell_angle_beta   90.67985421
_cell_angle_gamma   91.47935069
_symmetry_Int_Tables_number   1
_chemical_formula_structural   I5Br7
_chemical_formula_sum   'I5 Br7'
_cell_volume   620.57458830
_cell_formula_units_Z   1
loop_
 _symmetry_equiv_pos_site_id
 _symmetry_equiv_pos_as_xyz
  1  'x, y, z'
loop_
 _atom_site_type_symbol
 _atom_site_label
 _atom_site_symmetry_multiplicity
 _atom_site_fract_x
 _atom_site_fract_y
 _atom_site_fract_z
 _atom_site_occupancy
  I  I0  1  0.381192  0.281198  0.058210  1
  I  I1  1  0.880106  0.719731  0.434375  1
  I  I2  1  0.605856  0.811889  0.056787  1
  I  I3  1  0.121094  0.183496  0.443098  1
  I  I4  1  0.768341  0.496895  0.268546  1
  Br  Br5  1  0.958099  0.919956  0.643726  1
  Br  Br6  1  0.450944  0.104976  0.844643  1
  Br  Br7  1  0.029679  0.922232  0.153032  1
  Br  Br8  1  0.546012  0.122840  0.314191  1
  Br  Br9  1  0.740770  0.545430  0.743650  1
  Br  Br10  1  0.223093  0.427729  0.791711  1
  Br  Br11  1  0.294813  0.463628  0.248032  1
