# generated using pymatgen
data_Zr4CrP4Ir3
_symmetry_space_group_name_H-M   'P 1'
_cell_length_a   3.83004200
_cell_length_b   6.52844028
_cell_length_c   7.44373282
_cell_angle_alpha   89.95648596
_cell_angle_beta   90.00000000
_cell_angle_gamma   90.00000000
_symmetry_Int_Tables_number   1
_chemical_formula_structural   Zr4CrP4Ir3
_chemical_formula_sum   'Zr4 Cr1 P4 Ir3'
_cell_volume   186.12453380
_cell_formula_units_Z   1
loop_
 _symmetry_equiv_pos_site_id
 _symmetry_equiv_pos_as_xyz
  1  'x, y, z'
loop_
 _atom_site_type_symbol
 _atom_site_label
 _atom_site_symmetry_multiplicity
 _atom_site_fract_x
 _atom_site_fract_y
 _atom_site_fract_z
 _atom_site_occupancy
  Zr  Zr0  1  0.250000  0.520212  0.176097  1
  Zr  Zr1  1  0.750000  0.472797  0.820493  1
  Zr  Zr2  1  0.750000  0.978171  0.677365  1
  Zr  Zr3  1  0.250000  0.028769  0.325632  1
  Cr  Cr4  1  0.250000  0.141499  0.939909  1
  P  P5  1  0.250000  0.771895  0.876249  1
  P  P6  1  0.750000  0.229728  0.117802  1
  P  P7  1  0.750000  0.736125  0.376329  1
  P  P8  1  0.250000  0.265340  0.633030  1
  Ir  Ir9  1  0.250000  0.648063  0.558309  1
  Ir  Ir10  1  0.750000  0.352768  0.435776  1
  Ir  Ir11  1  0.750000  0.854633  0.063011  1
