# generated using pymatgen
data_Rb3BaLaUTe6
_symmetry_space_group_name_H-M   'P 1'
_cell_length_a   8.30701261
_cell_length_b   8.30701266
_cell_length_c   9.01764381
_cell_angle_alpha   81.04586133
_cell_angle_beta   81.04585263
_cell_angle_gamma   120.02047385
_symmetry_Int_Tables_number   1
_chemical_formula_structural   Rb3BaLaUTe6
_chemical_formula_sum   'Rb3 Ba1 La1 U1 Te6'
_cell_volume   512.00863005
_cell_formula_units_Z   1
loop_
 _symmetry_equiv_pos_site_id
 _symmetry_equiv_pos_as_xyz
  1  'x, y, z'
loop_
 _atom_site_type_symbol
 _atom_site_label
 _atom_site_symmetry_multiplicity
 _atom_site_fract_x
 _atom_site_fract_y
 _atom_site_fract_z
 _atom_site_occupancy
  Rb  Rb0  1  0.658182  0.341818  0.500000  1
  Rb  Rb1  1  0.342036  0.657964  0.500000  1
  Rb  Rb2  1  0.999939  0.000061  0.500000  1
  Ba  Ba3  1  0.499944  0.500056  0.000000  1
  La  La4  1  0.832409  0.167591  0.000000  1
  U  U5  1  0.167685  0.832315  0.000000  1
  Te  Te6  1  0.800255  0.787012  0.204809  1
  Te  Te7  1  0.212988  0.199745  0.795191  1
  Te  Te8  1  0.415962  0.059842  0.207063  1
  Te  Te9  1  0.556808  0.926367  0.792546  1
  Te  Te10  1  0.940158  0.584038  0.792937  1
  Te  Te11  1  0.073633  0.443192  0.207454  1
