# generated using pymatgen
data_Tb16Tm4Ir5Pt7
_symmetry_space_group_name_H-M   'P 1'
_cell_length_a   11.06195797
_cell_length_b   11.06195797
_cell_length_c   6.34926581
_cell_angle_alpha   90.04097827
_cell_angle_beta   90.04097827
_cell_angle_gamma   90.19030949
_symmetry_Int_Tables_number   1
_chemical_formula_structural   Tb16Tm4Ir5Pt7
_chemical_formula_sum   'Tb16 Tm4 Ir5 Pt7'
_cell_volume   776.93537929
_cell_formula_units_Z   1
loop_
 _symmetry_equiv_pos_site_id
 _symmetry_equiv_pos_as_xyz
  1  'x, y, z'
loop_
 _atom_site_type_symbol
 _atom_site_label
 _atom_site_symmetry_multiplicity
 _atom_site_fract_x
 _atom_site_fract_y
 _atom_site_fract_z
 _atom_site_occupancy
  Tb  Tb0  1  0.293652  0.086443  0.374727  1
  Tb  Tb1  1  0.294060  0.910145  0.874839  1
  Tb  Tb2  1  0.706298  0.086487  0.874879  1
  Tb  Tb3  1  0.706284  0.912880  0.374731  1
  Tb  Tb4  1  0.583965  0.791635  0.874003  1
  Tb  Tb5  1  0.586663  0.207165  0.375620  1
  Tb  Tb6  1  0.411802  0.790974  0.379056  1
  Tb  Tb7  1  0.412953  0.206191  0.875551  1
  Tb  Tb8  1  0.208365  0.416035  0.625997  1
  Tb  Tb9  1  0.209026  0.588198  0.120944  1
  Tb  Tb10  1  0.792835  0.413337  0.124380  1
  Tb  Tb11  1  0.793809  0.587047  0.624449  1
  Tb  Tb12  1  0.913557  0.706348  0.125273  1
  Tb  Tb13  1  0.913513  0.293702  0.625121  1
  Tb  Tb14  1  0.089855  0.705940  0.625161  1
  Tb  Tb15  1  0.087120  0.293716  0.125269  1
  Tm  Tm16  1  0.999838  0.999855  0.500123  1
  Tm  Tm17  1  0.000145  0.000162  0.999877  1
  Tm  Tm18  1  0.498166  0.501082  0.999086  1
  Tm  Tm19  1  0.498918  0.501834  0.500914  1
  Ir  Ir20  1  0.348827  0.651173  0.750000  1
  Ir  Ir21  1  0.500235  0.000515  0.121844  1
  Ir  Ir22  1  0.500165  0.000547  0.620995  1
  Ir  Ir23  1  0.999453  0.499835  0.879005  1
  Ir  Ir24  1  0.999485  0.499765  0.378156  1
  Pt  Pt25  1  0.848647  0.151353  0.250000  1
  Pt  Pt26  1  0.848614  0.848777  0.750151  1
  Pt  Pt27  1  0.151223  0.151386  0.749849  1
  Pt  Pt28  1  0.150907  0.849093  0.250000  1
  Pt  Pt29  1  0.651382  0.348618  0.750000  1
  Pt  Pt30  1  0.652075  0.651837  0.250164  1
  Pt  Pt31  1  0.348163  0.347925  0.249836  1
