# generated using pymatgen
data_Ti4Pt2C
_symmetry_space_group_name_H-M   'P 1'
_cell_length_a   8.34298119
_cell_length_b   8.34298061
_cell_length_c   8.34298100
_cell_angle_alpha   60.00000244
_cell_angle_beta   60.00000473
_cell_angle_gamma   59.99999628
_symmetry_Int_Tables_number   1
_chemical_formula_structural   Ti4Pt2C
_chemical_formula_sum   'Ti16 Pt8 C4'
_cell_volume   410.62819596
_cell_formula_units_Z   4
loop_
 _symmetry_equiv_pos_site_id
 _symmetry_equiv_pos_as_xyz
  1  'x, y, z'
loop_
 _atom_site_type_symbol
 _atom_site_label
 _atom_site_symmetry_multiplicity
 _atom_site_fract_x
 _atom_site_fract_y
 _atom_site_fract_z
 _atom_site_occupancy
  Ti  Ti0  1  0.125000  0.625000  0.625000  1
  Ti  Ti1  1  0.625000  0.125000  0.625000  1
  Ti  Ti2  1  0.625000  0.625000  0.125000  1
  Ti  Ti3  1  0.625000  0.625000  0.625000  1
  Ti  Ti4  1  0.819341  0.819341  0.180659  1
  Ti  Ti5  1  0.180659  0.180659  0.819341  1
  Ti  Ti6  1  0.819341  0.180659  0.819341  1
  Ti  Ti7  1  0.180659  0.819341  0.180659  1
  Ti  Ti8  1  0.180659  0.819341  0.819341  1
  Ti  Ti9  1  0.819341  0.180659  0.180659  1
  Ti  Ti10  1  0.430659  0.430659  0.069341  1
  Ti  Ti11  1  0.069341  0.069341  0.430659  1
  Ti  Ti12  1  0.430659  0.069341  0.430659  1
  Ti  Ti13  1  0.069341  0.430659  0.069341  1
  Ti  Ti14  1  0.069341  0.430659  0.430659  1
  Ti  Ti15  1  0.430659  0.069341  0.069341  1
  Pt  Pt16  1  0.770690  0.409770  0.409770  1
  Pt  Pt17  1  0.409770  0.770690  0.409770  1
  Pt  Pt18  1  0.409770  0.409770  0.770690  1
  Pt  Pt19  1  0.409770  0.409770  0.409770  1
  Pt  Pt20  1  0.479310  0.840230  0.840230  1
  Pt  Pt21  1  0.840230  0.479310  0.840230  1
  Pt  Pt22  1  0.840230  0.840230  0.479310  1
  Pt  Pt23  1  0.840230  0.840230  0.840230  1
  C  C24  1  0.625000  0.125000  0.125000  1
  C  C25  1  0.125000  0.625000  0.125000  1
  C  C26  1  0.125000  0.125000  0.625000  1
  C  C27  1  0.125000  0.125000  0.125000  1
