# generated using pymatgen
data_Y4OsRuC4
_symmetry_space_group_name_H-M   'P 1'
_cell_length_a   5.14009900
_cell_length_b   6.45914196
_cell_length_c   9.82119942
_cell_angle_alpha   89.79784889
_cell_angle_beta   90.00000000
_cell_angle_gamma   90.00000000
_symmetry_Int_Tables_number   1
_chemical_formula_structural   Y4OsRuC4
_chemical_formula_sum   'Y8 Os2 Ru2 C8'
_cell_volume   326.06797007
_cell_formula_units_Z   2
loop_
 _symmetry_equiv_pos_site_id
 _symmetry_equiv_pos_as_xyz
  1  'x, y, z'
loop_
 _atom_site_type_symbol
 _atom_site_label
 _atom_site_symmetry_multiplicity
 _atom_site_fract_x
 _atom_site_fract_y
 _atom_site_fract_z
 _atom_site_occupancy
  Y  Y0  1  0.250000  0.684774  0.552838  1
  Y  Y1  1  0.750000  0.315226  0.447162  1
  Y  Y2  1  0.750000  0.819323  0.053271  1
  Y  Y3  1  0.250000  0.180677  0.946729  1
  Y  Y4  1  0.250000  0.526039  0.217819  1
  Y  Y5  1  0.750000  0.473961  0.782181  1
  Y  Y6  1  0.750000  0.974762  0.720427  1
  Y  Y7  1  0.250000  0.025238  0.279573  1
  Os  Os8  1  0.750000  0.774989  0.364636  1
  Os  Os9  1  0.250000  0.225011  0.635364  1
  Ru  Ru10  1  0.250000  0.723881  0.864872  1
  Ru  Ru11  1  0.750000  0.276119  0.135128  1
  C  C12  1  0.250000  0.459817  0.755982  1
  C  C13  1  0.750000  0.540183  0.244018  1
  C  C14  1  0.750000  0.038588  0.259394  1
  C  C15  1  0.250000  0.961412  0.740606  1
  C  C16  1  0.250000  0.825048  0.052383  1
  C  C17  1  0.750000  0.174952  0.947617  1
  C  C18  1  0.750000  0.677300  0.552069  1
  C  C19  1  0.250000  0.322700  0.447931  1
