# generated using pymatgen
data_LiY2Pa(Co4P3)2
_symmetry_space_group_name_H-M   'P 1'
_cell_length_a   3.72244200
_cell_length_b   10.58671300
_cell_length_c   12.14650700
_cell_angle_alpha   90.00000000
_cell_angle_beta   90.00000000
_cell_angle_gamma   90.00000000
_symmetry_Int_Tables_number   1
_chemical_formula_structural   LiY2Pa(Co4P3)2
_chemical_formula_sum   'Li2 Y4 Pa2 Co16 P12'
_cell_volume   478.67471150
_cell_formula_units_Z   2
loop_
 _symmetry_equiv_pos_site_id
 _symmetry_equiv_pos_as_xyz
  1  'x, y, z'
loop_
 _atom_site_type_symbol
 _atom_site_label
 _atom_site_symmetry_multiplicity
 _atom_site_fract_x
 _atom_site_fract_y
 _atom_site_fract_z
 _atom_site_occupancy
  Li  Li0  1  0.500000  0.500000  0.151414  1
  Li  Li1  1  0.000000  0.000000  0.848586  1
  Y  Y2  1  0.500000  0.815806  0.205155  1
  Y  Y3  1  0.500000  0.184194  0.205155  1
  Y  Y4  1  0.000000  0.684194  0.794845  1
  Y  Y5  1  0.000000  0.315806  0.794845  1
  Pa  Pa6  1  0.000000  0.500000  0.528624  1
  Pa  Pa7  1  0.500000  0.000000  0.471376  1
  Co  Co8  1  0.500000  0.500000  0.696281  1
  Co  Co9  1  0.000000  0.000000  0.303719  1
  Co  Co10  1  0.000000  0.500000  0.985005  1
  Co  Co11  1  0.500000  0.000000  0.014995  1
  Co  Co12  1  0.500000  0.333636  0.995505  1
  Co  Co13  1  0.500000  0.666364  0.995505  1
  Co  Co14  1  0.000000  0.166364  0.004495  1
  Co  Co15  1  0.000000  0.833636  0.004495  1
  Co  Co16  1  0.500000  0.300042  0.432966  1
  Co  Co17  1  0.500000  0.699958  0.432966  1
  Co  Co18  1  0.000000  0.199958  0.567034  1
  Co  Co19  1  0.000000  0.800042  0.567034  1
  Co  Co20  1  0.500000  0.879345  0.707205  1
  Co  Co21  1  0.500000  0.120655  0.707205  1
  Co  Co22  1  0.000000  0.620655  0.292795  1
  Co  Co23  1  0.000000  0.379345  0.292795  1
  P  P24  1  0.500000  0.500000  0.880905  1
  P  P25  1  0.000000  0.000000  0.119095  1
  P  P26  1  0.500000  0.500000  0.344369  1
  P  P27  1  0.000000  0.000000  0.655631  1
  P  P28  1  0.500000  0.306366  0.616490  1
  P  P29  1  0.500000  0.693634  0.616490  1
  P  P30  1  0.000000  0.193634  0.383510  1
  P  P31  1  0.000000  0.806366  0.383510  1
  P  P32  1  0.500000  0.844674  0.894744  1
  P  P33  1  0.500000  0.155326  0.894744  1
  P  P34  1  0.000000  0.655326  0.105256  1
  P  P35  1  0.000000  0.344674  0.105256  1
