# generated using pymatgen
data_Er2BiC
_symmetry_space_group_name_H-M   'P 1'
_cell_length_a   3.63067000
_cell_length_b   3.63066961
_cell_length_c   15.60271700
_cell_angle_alpha   90.00000000
_cell_angle_beta   90.00000000
_cell_angle_gamma   120.00000357
_symmetry_Int_Tables_number   1
_chemical_formula_structural   Er2BiC
_chemical_formula_sum   'Er4 Bi2 C2'
_cell_volume   178.11658255
_cell_formula_units_Z   2
loop_
 _symmetry_equiv_pos_site_id
 _symmetry_equiv_pos_as_xyz
  1  'x, y, z'
loop_
 _atom_site_type_symbol
 _atom_site_label
 _atom_site_symmetry_multiplicity
 _atom_site_fract_x
 _atom_site_fract_y
 _atom_site_fract_z
 _atom_site_occupancy
  Er  Er0  1  0.666667  0.333333  0.083141  1
  Er  Er1  1  0.666667  0.333333  0.416859  1
  Er  Er2  1  0.333333  0.666666  0.583142  1
  Er  Er3  1  0.333333  0.666666  0.916858  1
  Bi  Bi4  1  0.333333  0.666666  0.250000  1
  Bi  Bi5  1  0.666667  0.333333  0.750000  1
  C  C6  1  0.000000  0.000000  0.000000  1
  C  C7  1  0.000000  0.000000  0.500000  1
