# generated using pymatgen
data_Li2HoEr2AgPb3
_symmetry_space_group_name_H-M   'P 1'
_cell_length_a   7.36465900
_cell_length_b   7.36491059
_cell_length_c   4.62342000
_cell_angle_alpha   90.00000000
_cell_angle_beta   90.00000000
_cell_angle_gamma   119.99887449
_symmetry_Int_Tables_number   1
_chemical_formula_structural   Li2HoEr2AgPb3
_chemical_formula_sum   'Li2 Ho1 Er2 Ag1 Pb3'
_cell_volume   217.17959849
_cell_formula_units_Z   1
loop_
 _symmetry_equiv_pos_site_id
 _symmetry_equiv_pos_as_xyz
  1  'x, y, z'
loop_
 _atom_site_type_symbol
 _atom_site_label
 _atom_site_symmetry_multiplicity
 _atom_site_fract_x
 _atom_site_fract_y
 _atom_site_fract_z
 _atom_site_occupancy
  Li  Li0  1  0.770289  0.766613  0.000000  1
  Li  Li1  1  0.003676  0.233387  0.000000  1
  Ho  Ho2  1  0.552879  0.000000  0.500000  1
  Er  Er3  1  0.432044  0.428662  0.500000  1
  Er  Er4  1  0.003383  0.571338  0.500000  1
  Ag  Ag5  1  0.237615  0.000000  0.000000  1
  Pb  Pb6  1  0.987356  0.000000  0.500000  1
  Pb  Pb7  1  0.335345  0.657932  0.000000  1
  Pb  Pb8  1  0.677414  0.342068  0.000000  1
