# generated using pymatgen
data_YbTm(Ga2Ag)2
_symmetry_space_group_name_H-M   'P 1'
_cell_length_a   4.34051200
_cell_length_b   6.94841336
_cell_length_c   10.30748089
_cell_angle_alpha   90.93593837
_cell_angle_beta   90.00000000
_cell_angle_gamma   90.00000000
_symmetry_Int_Tables_number   1
_chemical_formula_structural   YbTm(Ga2Ag)2
_chemical_formula_sum   'Yb2 Tm2 Ga8 Ag4'
_cell_volume   310.82876311
_cell_formula_units_Z   2
loop_
 _symmetry_equiv_pos_site_id
 _symmetry_equiv_pos_as_xyz
  1  'x, y, z'
loop_
 _atom_site_type_symbol
 _atom_site_label
 _atom_site_symmetry_multiplicity
 _atom_site_fract_x
 _atom_site_fract_y
 _atom_site_fract_z
 _atom_site_occupancy
  Yb  Yb0  1  0.750000  0.724023  0.328096  1
  Yb  Yb1  1  0.250000  0.275977  0.671904  1
  Tm  Tm2  1  0.250000  0.776964  0.828436  1
  Tm  Tm3  1  0.750000  0.223036  0.171564  1
  Ga  Ga4  1  0.250000  0.703079  0.535471  1
  Ga  Ga5  1  0.750000  0.296921  0.464529  1
  Ga  Ga6  1  0.750000  0.797247  0.035199  1
  Ga  Ga7  1  0.250000  0.202753  0.964801  1
  Ga  Ga8  1  0.250000  0.928664  0.151313  1
  Ga  Ga9  1  0.750000  0.071336  0.848687  1
  Ga  Ga10  1  0.750000  0.572604  0.652429  1
  Ga  Ga11  1  0.250000  0.427396  0.347571  1
  Ag  Ag12  1  0.250000  0.541918  0.099114  1
  Ag  Ag13  1  0.750000  0.458082  0.900886  1
  Ag  Ag14  1  0.750000  0.959594  0.599136  1
  Ag  Ag15  1  0.250000  0.040406  0.400864  1
