# generated using pymatgen
data_Tb3Al12FeNiRu2
_symmetry_space_group_name_H-M   'P 1'
_cell_length_a   8.77239878
_cell_length_b   8.77239979
_cell_length_c   9.46999138
_cell_angle_alpha   90.31860556
_cell_angle_beta   89.68139297
_cell_angle_gamma   120.16241280
_symmetry_Int_Tables_number   1
_chemical_formula_structural   Tb3Al12FeNiRu2
_chemical_formula_sum   'Tb6 Al24 Fe2 Ni2 Ru4'
_cell_volume   630.07895218
_cell_formula_units_Z   2
loop_
 _symmetry_equiv_pos_site_id
 _symmetry_equiv_pos_as_xyz
  1  'x, y, z'
loop_
 _atom_site_type_symbol
 _atom_site_label
 _atom_site_symmetry_multiplicity
 _atom_site_fract_x
 _atom_site_fract_y
 _atom_site_fract_z
 _atom_site_occupancy
  Tb  Tb0  1  0.386651  0.196252  0.249707  1
  Tb  Tb1  1  0.807808  0.192192  0.248834  1
  Tb  Tb2  1  0.803748  0.613349  0.249707  1
  Tb  Tb3  1  0.613349  0.803748  0.750293  1
  Tb  Tb4  1  0.192192  0.807808  0.751166  1
  Tb  Tb5  1  0.196252  0.386651  0.750293  1
  Al  Al6  1  0.438699  0.877818  0.253605  1
  Al  Al7  1  0.122182  0.561301  0.253605  1
  Al  Al8  1  0.438720  0.561280  0.247523  1
  Al  Al9  1  0.561301  0.122182  0.746395  1
  Al  Al10  1  0.877818  0.438699  0.746395  1
  Al  Al11  1  0.561280  0.438720  0.752477  1
  Al  Al12  1  0.163043  0.836957  0.423291  1
  Al  Al13  1  0.164626  0.327544  0.422892  1
  Al  Al14  1  0.672456  0.835374  0.422892  1
  Al  Al15  1  0.836957  0.163043  0.576709  1
  Al  Al16  1  0.835374  0.672456  0.577108  1
  Al  Al17  1  0.327544  0.164626  0.577108  1
  Al  Al18  1  0.839619  0.160381  0.923073  1
  Al  Al19  1  0.837092  0.678226  0.924860  1
  Al  Al20  1  0.321774  0.162908  0.924860  1
  Al  Al21  1  0.160381  0.839619  0.076927  1
  Al  Al22  1  0.162908  0.321774  0.075140  1
  Al  Al23  1  0.678226  0.837092  0.075140  1
  Al  Al24  1  0.331834  0.668166  0.519647  1
  Al  Al25  1  0.668166  0.331834  0.480353  1
  Al  Al26  1  0.663792  0.336208  0.014468  1
  Al  Al27  1  0.336208  0.663792  0.985532  1
  Al  Al28  1  0.999675  0.000325  0.244100  1
  Al  Al29  1  0.000325  0.999675  0.755900  1
  Fe  Fe30  1  0.000000  0.000000  0.000000  1
  Fe  Fe31  1  0.500000  0.500000  0.000000  1
  Ni  Ni32  1  0.500000  0.000000  0.500000  1
  Ni  Ni33  1  0.000000  0.500000  0.500000  1
  Ru  Ru34  1  0.000000  0.000000  0.500000  1
  Ru  Ru35  1  0.500000  0.500000  0.500000  1
  Ru  Ru36  1  0.500000  0.000000  0.000000  1
  Ru  Ru37  1  0.000000  0.500000  0.000000  1
