# generated using pymatgen
data_ErTm2CdSi2Ag3
_symmetry_space_group_name_H-M   'P 1'
_cell_length_a   7.17016000
_cell_length_b   7.17015974
_cell_length_c   4.19427900
_cell_angle_alpha   90.00000000
_cell_angle_beta   90.00000000
_cell_angle_gamma   119.99949635
_symmetry_Int_Tables_number   1
_chemical_formula_structural   ErTm2CdSi2Ag3
_chemical_formula_sum   'Er1 Tm2 Cd1 Si2 Ag3'
_cell_volume   186.74450438
_cell_formula_units_Z   1
loop_
 _symmetry_equiv_pos_site_id
 _symmetry_equiv_pos_as_xyz
  1  'x, y, z'
loop_
 _atom_site_type_symbol
 _atom_site_label
 _atom_site_symmetry_multiplicity
 _atom_site_fract_x
 _atom_site_fract_y
 _atom_site_fract_z
 _atom_site_occupancy
  Er  Er0  1  0.427578  0.427578  0.500000  1
  Tm  Tm1  1  0.572372  0.000021  0.500000  1
  Tm  Tm2  1  0.000021  0.572372  0.500000  1
  Cd  Cd3  1  0.999878  0.999878  0.500000  1
  Si  Si4  1  0.666821  0.333249  0.000000  1
  Si  Si5  1  0.333249  0.666821  0.000000  1
  Ag  Ag6  1  0.736029  0.736029  0.000000  1
  Ag  Ag7  1  0.264107  0.999944  0.000000  1
  Ag  Ag8  1  0.999944  0.264107  0.000000  1
