# generated using pymatgen
data_Nd3Nb(P3Rh4)2
_symmetry_space_group_name_H-M   'P 1'
_cell_length_a   3.99166800
_cell_length_b   11.28482700
_cell_length_c   13.00463900
_cell_angle_alpha   90.00000000
_cell_angle_beta   90.00000000
_cell_angle_gamma   90.00000000
_symmetry_Int_Tables_number   1
_chemical_formula_structural   Nd3Nb(P3Rh4)2
_chemical_formula_sum   'Nd6 Nb2 P12 Rh16'
_cell_volume   585.79764175
_cell_formula_units_Z   2
loop_
 _symmetry_equiv_pos_site_id
 _symmetry_equiv_pos_as_xyz
  1  'x, y, z'
loop_
 _atom_site_type_symbol
 _atom_site_label
 _atom_site_symmetry_multiplicity
 _atom_site_fract_x
 _atom_site_fract_y
 _atom_site_fract_z
 _atom_site_occupancy
  Nd  Nd0  1  0.000000  0.500000  0.521962  1
  Nd  Nd1  1  0.500000  0.000000  0.478038  1
  Nd  Nd2  1  0.500000  0.817908  0.202694  1
  Nd  Nd3  1  0.500000  0.182092  0.202694  1
  Nd  Nd4  1  0.000000  0.682092  0.797306  1
  Nd  Nd5  1  0.000000  0.317908  0.797306  1
  Nb  Nb6  1  0.500000  0.500000  0.157354  1
  Nb  Nb7  1  0.000000  0.000000  0.842646  1
  P  P8  1  0.500000  0.500000  0.879950  1
  P  P9  1  0.000000  0.000000  0.120050  1
  P  P10  1  0.500000  0.500000  0.347347  1
  P  P11  1  0.000000  0.000000  0.652653  1
  P  P12  1  0.500000  0.311368  0.615851  1
  P  P13  1  0.500000  0.688632  0.615851  1
  P  P14  1  0.000000  0.188632  0.384149  1
  P  P15  1  0.000000  0.811368  0.384149  1
  P  P16  1  0.500000  0.846411  0.889341  1
  P  P17  1  0.500000  0.153589  0.889341  1
  P  P18  1  0.000000  0.653589  0.110659  1
  P  P19  1  0.000000  0.346411  0.110659  1
  Rh  Rh20  1  0.500000  0.500000  0.700307  1
  Rh  Rh21  1  0.000000  0.000000  0.299693  1
  Rh  Rh22  1  0.000000  0.500000  0.987916  1
  Rh  Rh23  1  0.500000  0.000000  0.012084  1
  Rh  Rh24  1  0.500000  0.331998  0.988807  1
  Rh  Rh25  1  0.500000  0.668002  0.988807  1
  Rh  Rh26  1  0.000000  0.168002  0.011193  1
  Rh  Rh27  1  0.000000  0.831998  0.011193  1
  Rh  Rh28  1  0.500000  0.292387  0.431507  1
  Rh  Rh29  1  0.500000  0.707613  0.431507  1
  Rh  Rh30  1  0.000000  0.207613  0.568493  1
  Rh  Rh31  1  0.000000  0.792387  0.568493  1
  Rh  Rh32  1  0.500000  0.875492  0.707623  1
  Rh  Rh33  1  0.500000  0.124508  0.707623  1
  Rh  Rh34  1  0.000000  0.624508  0.292377  1
  Rh  Rh35  1  0.000000  0.375492  0.292377  1
