# generated using pymatgen
data_Ho2Er3Hf3Pt4
_symmetry_space_group_name_H-M   'P 1'
_cell_length_a   4.69876900
_cell_length_b   7.03040954
_cell_length_c   8.31895240
_cell_angle_alpha   90.31959398
_cell_angle_beta   90.00000000
_cell_angle_gamma   90.00000000
_symmetry_Int_Tables_number   1
_chemical_formula_structural   Ho2Er3Hf3Pt4
_chemical_formula_sum   'Ho2 Er3 Hf3 Pt4'
_cell_volume   274.80624799
_cell_formula_units_Z   1
loop_
 _symmetry_equiv_pos_site_id
 _symmetry_equiv_pos_as_xyz
  1  'x, y, z'
loop_
 _atom_site_type_symbol
 _atom_site_label
 _atom_site_symmetry_multiplicity
 _atom_site_fract_x
 _atom_site_fract_y
 _atom_site_fract_z
 _atom_site_occupancy
  Ho  Ho0  1  0.750000  0.510913  0.826079  1
  Ho  Ho1  1  0.750000  0.020522  0.671305  1
  Er  Er2  1  0.250000  0.853526  0.918516  1
  Er  Er3  1  0.250000  0.481430  0.181935  1
  Er  Er4  1  0.250000  0.982807  0.320759  1
  Hf  Hf5  1  0.750000  0.642625  0.424919  1
  Hf  Hf6  1  0.250000  0.352527  0.577504  1
  Hf  Hf7  1  0.750000  0.146015  0.078044  1
  Pt  Pt8  1  0.750000  0.268411  0.403415  1
  Pt  Pt9  1  0.250000  0.728699  0.582046  1
  Pt  Pt10  1  0.750000  0.765210  0.109421  1
  Pt  Pt11  1  0.250000  0.247315  0.906058  1
