# generated using pymatgen
data_NaTh3Ir8
_symmetry_space_group_name_H-M   'P 1'
_cell_length_a   9.39610457
_cell_length_b   9.39610441
_cell_length_c   9.39610557
_cell_angle_alpha   33.53645926
_cell_angle_beta   33.53645810
_cell_angle_gamma   33.53645946
_symmetry_Int_Tables_number   1
_chemical_formula_structural   NaTh3Ir8
_chemical_formula_sum   'Na1 Th3 Ir8'
_cell_volume   225.52000650
_cell_formula_units_Z   1
loop_
 _symmetry_equiv_pos_site_id
 _symmetry_equiv_pos_as_xyz
  1  'x, y, z'
loop_
 _atom_site_type_symbol
 _atom_site_label
 _atom_site_symmetry_multiplicity
 _atom_site_fract_x
 _atom_site_fract_y
 _atom_site_fract_z
 _atom_site_occupancy
  Na  Na0  1  0.127371  0.127371  0.127371  1
  Th  Th1  1  0.622511  0.622511  0.622511  1
  Th  Th2  1  0.006601  0.006601  0.006601  1
  Th  Th3  1  0.493934  0.493934  0.493934  1
  Ir  Ir4  1  0.564027  0.564027  0.058176  1
  Ir  Ir5  1  0.062198  0.062198  0.564103  1
  Ir  Ir6  1  0.564027  0.058176  0.564027  1
  Ir  Ir7  1  0.062198  0.564103  0.062198  1
  Ir  Ir8  1  0.812370  0.812370  0.812370  1
  Ir  Ir9  1  0.312484  0.312484  0.312484  1
  Ir  Ir10  1  0.058176  0.564027  0.564027  1
  Ir  Ir11  1  0.564103  0.062198  0.062198  1
