# generated using pymatgen
data_K12Al(InSe4)3
_symmetry_space_group_name_H-M   'P 1'
_cell_length_a   8.06195952
_cell_length_b   8.30790494
_cell_length_c   16.79653151
_cell_angle_alpha   61.32105841
_cell_angle_beta   89.72242011
_cell_angle_gamma   90.12352119
_symmetry_Int_Tables_number   1
_chemical_formula_structural   K12Al(InSe4)3
_chemical_formula_sum   'K12 Al1 In3 Se12'
_cell_volume   986.96169789
_cell_formula_units_Z   1
loop_
 _symmetry_equiv_pos_site_id
 _symmetry_equiv_pos_as_xyz
  1  'x, y, z'
loop_
 _atom_site_type_symbol
 _atom_site_label
 _atom_site_symmetry_multiplicity
 _atom_site_fract_x
 _atom_site_fract_y
 _atom_site_fract_z
 _atom_site_occupancy
  K  K0  1  0.037581  0.927918  0.289997  1
  K  K1  1  0.532596  0.058084  0.217658  1
  K  K2  1  0.960741  0.072620  0.709822  1
  K  K3  1  0.462785  0.935022  0.786655  1
  K  K4  1  0.985960  0.721828  0.114163  1
  K  K5  1  0.495200  0.271525  0.389591  1
  K  K6  1  0.009216  0.276381  0.889949  1
  K  K7  1  0.507408  0.724795  0.609223  1
  K  K8  1  0.985982  0.303215  0.403242  1
  K  K9  1  0.491994  0.691405  0.101984  1
  K  K10  1  0.004964  0.690037  0.596793  1
  K  K11  1  0.507753  0.308854  0.901486  1
  Al  Al12  1  0.640570  0.662384  0.418501  1
  In  In13  1  0.141373  0.334468  0.082836  1
  In  In14  1  0.364148  0.341945  0.577756  1
  In  In15  1  0.858598  0.665163  0.918427  1
  Se  Se16  1  0.807075  0.352712  0.069435  1
  Se  Se17  1  0.331216  0.655682  0.426630  1
  Se  Se18  1  0.192187  0.646257  0.931633  1
  Se  Se19  1  0.697228  0.374414  0.557440  1
  Se  Se20  1  0.233910  0.344377  0.227118  1
  Se  Se21  1  0.732211  0.653118  0.284946  1
  Se  Se22  1  0.763760  0.657409  0.773570  1
  Se  Se23  1  0.264584  0.347736  0.722857  1
  Se  Se24  1  0.744926  0.926148  0.424648  1
  Se  Se25  1  0.252961  0.051588  0.075250  1
  Se  Se26  1  0.247527  0.057262  0.572724  1
  Se  Se27  1  0.745547  0.947653  0.925667  1
