# generated using pymatgen
data_Ho10Er2GaCo4Pd
_symmetry_space_group_name_H-M   'P 1'
_cell_length_a   8.21308545
_cell_length_b   8.21308545
_cell_length_c   8.21308487
_cell_angle_alpha   106.93925992
_cell_angle_beta   110.53104479
_cell_angle_gamma   110.97296856
_symmetry_Int_Tables_number   1
_chemical_formula_structural   Ho10Er2GaCo4Pd
_chemical_formula_sum   'Ho10 Er2 Ga1 Co4 Pd1'
_cell_volume   425.85063241
_cell_formula_units_Z   1
loop_
 _symmetry_equiv_pos_site_id
 _symmetry_equiv_pos_as_xyz
  1  'x, y, z'
loop_
 _atom_site_type_symbol
 _atom_site_label
 _atom_site_symmetry_multiplicity
 _atom_site_fract_x
 _atom_site_fract_y
 _atom_site_fract_z
 _atom_site_occupancy
  Ho  Ho0  1  0.699322  0.281879  0.980241  1
  Ho  Ho1  1  0.301638  0.719081  0.019759  1
  Ho  Ho2  1  0.699322  0.719081  0.417445  1
  Ho  Ho3  1  0.301638  0.281879  0.582555  1
  Ho  Ho4  1  0.801744  0.118146  0.316402  1
  Ho  Ho5  1  0.801744  0.485342  0.683598  1
  Ho  Ho6  1  0.199419  0.883705  0.684286  1
  Ho  Ho7  1  0.199419  0.515133  0.315714  1
  Ho  Ho8  1  0.605236  0.793399  0.811837  1
  Ho  Ho9  1  0.981561  0.793399  0.188163  1
  Er  Er10  1  0.019828  0.207671  0.812156  1
  Er  Er11  1  0.395515  0.207671  0.187844  1
  Ga  Ga12  1  0.500369  0.000369  0.500000  1
  Co  Co13  1  0.878262  0.500374  0.377888  1
  Co  Co14  1  0.122486  0.500374  0.622112  1
  Co  Co15  1  0.000757  0.113821  0.113064  1
  Co  Co16  1  0.000757  0.887692  0.886936  1
  Pd  Pd17  1  0.490984  0.490984  0.000000  1
