# generated using pymatgen
data_Dy5Zr3P12Ir7Rh9
_symmetry_space_group_name_H-M   'P 1'
_cell_length_a   12.90762800
_cell_length_b   12.90762822
_cell_length_c   3.95077300
_cell_angle_alpha   90.00000000
_cell_angle_beta   90.00000000
_cell_angle_gamma   119.99999945
_symmetry_Int_Tables_number   1
_chemical_formula_structural   Dy5Zr3P12Ir7Rh9
_chemical_formula_sum   'Dy5 Zr3 P12 Ir7 Rh9'
_cell_volume   570.04035179
_cell_formula_units_Z   1
loop_
 _symmetry_equiv_pos_site_id
 _symmetry_equiv_pos_as_xyz
  1  'x, y, z'
loop_
 _atom_site_type_symbol
 _atom_site_label
 _atom_site_symmetry_multiplicity
 _atom_site_fract_x
 _atom_site_fract_y
 _atom_site_fract_z
 _atom_site_occupancy
  Dy  Dy0  1  0.333333  0.666667  0.500000  1
  Dy  Dy1  1  0.666667  0.333333  0.500000  1
  Dy  Dy2  1  0.000057  0.814709  0.000000  1
  Dy  Dy3  1  0.185291  0.185348  0.000000  1
  Dy  Dy4  1  0.814652  0.999943  0.000000  1
  Zr  Zr5  1  0.000689  0.448307  0.500000  1
  Zr  Zr6  1  0.551693  0.552382  0.500000  1
  Zr  Zr7  1  0.447618  0.999311  0.500000  1
  P  P8  1  0.999787  0.649040  0.500000  1
  P  P9  1  0.350960  0.350747  0.500000  1
  P  P10  1  0.649253  0.000213  0.500000  1
  P  P11  1  0.517353  0.686226  0.000000  1
  P  P12  1  0.313774  0.831128  0.000000  1
  P  P13  1  0.168872  0.482647  0.000000  1
  P  P14  1  0.482412  0.169400  0.000000  1
  P  P15  1  0.686987  0.517588  0.000000  1
  P  P16  1  0.830600  0.313013  0.000000  1
  P  P17  1  0.999757  0.176117  0.500000  1
  P  P18  1  0.823883  0.823641  0.500000  1
  P  P19  1  0.176359  0.000243  0.500000  1
  Ir  Ir20  1  0.000506  0.277734  0.000000  1
  Ir  Ir21  1  0.722266  0.722772  0.000000  1
  Ir  Ir22  1  0.277228  0.999494  0.000000  1
  Ir  Ir23  1  0.372664  0.178249  0.500000  1
  Ir  Ir24  1  0.805586  0.627336  0.500000  1
  Ir  Ir25  1  0.821751  0.194414  0.500000  1
  Ir  Ir26  1  0.000000  0.000000  0.500000  1
  Rh  Rh27  1  0.511552  0.866502  0.000000  1
  Rh  Rh28  1  0.133498  0.645051  0.000000  1
  Rh  Rh29  1  0.354949  0.488448  0.000000  1
  Rh  Rh30  1  0.489963  0.356146  0.000000  1
  Rh  Rh31  1  0.866184  0.510037  0.000000  1
  Rh  Rh32  1  0.643854  0.133816  0.000000  1
  Rh  Rh33  1  0.627552  0.805842  0.500000  1
  Rh  Rh34  1  0.194158  0.821710  0.500000  1
  Rh  Rh35  1  0.178290  0.372448  0.500000  1
