# generated using pymatgen
data_HfTa3(NbSi)6
_symmetry_space_group_name_H-M   'P 1'
_cell_length_a   7.58478325
_cell_length_b   7.62849873
_cell_length_c   7.60597561
_cell_angle_alpha   128.46560299
_cell_angle_beta   128.31943743
_cell_angle_gamma   75.96454001
_symmetry_Int_Tables_number   1
_chemical_formula_structural   HfTa3(NbSi)6
_chemical_formula_sum   'Hf1 Ta3 Nb6 Si6'
_cell_volume   262.89985464
_cell_formula_units_Z   1
loop_
 _symmetry_equiv_pos_site_id
 _symmetry_equiv_pos_as_xyz
  1  'x, y, z'
loop_
 _atom_site_type_symbol
 _atom_site_label
 _atom_site_symmetry_multiplicity
 _atom_site_fract_x
 _atom_site_fract_y
 _atom_site_fract_z
 _atom_site_occupancy
  Hf  Hf0  1  0.011758  0.183529  0.500318  1
  Ta  Ta1  1  0.816520  0.316230  0.833189  1
  Ta  Ta2  1  0.001428  0.000674  0.999257  1
  Ta  Ta3  1  0.502499  0.501354  0.000877  1
  Nb  Nb4  1  0.683819  0.520870  0.500543  1
  Nb  Nb5  1  0.518258  0.019284  0.833741  1
  Nb  Nb6  1  0.184999  0.686095  0.166583  1
  Nb  Nb7  1  0.980864  0.810495  0.499444  1
  Nb  Nb8  1  0.315920  0.480691  0.499605  1
  Nb  Nb9  1  0.482413  0.981910  0.166352  1
  Si  Si10  1  0.747989  0.746109  0.996825  1
  Si  Si11  1  0.250672  0.249874  0.003284  1
  Si  Si12  1  0.372142  0.129496  0.500404  1
  Si  Si13  1  0.629465  0.872541  0.500459  1
  Si  Si14  1  0.871168  0.370951  0.240609  1
  Si  Si15  1  0.130085  0.629896  0.758510  1
