# generated using pymatgen
data_BaInSiPd3
_symmetry_space_group_name_H-M   'P 1'
_cell_length_a   6.11427779
_cell_length_b   7.28944818
_cell_length_c   7.28944800
_cell_angle_alpha   64.48491023
_cell_angle_beta   65.22041220
_cell_angle_gamma   65.22040509
_symmetry_Int_Tables_number   1
_chemical_formula_structural   BaInSiPd3
_chemical_formula_sum   'Ba2 In2 Si2 Pd6'
_cell_volume   254.67122086
_cell_formula_units_Z   2
loop_
 _symmetry_equiv_pos_site_id
 _symmetry_equiv_pos_as_xyz
  1  'x, y, z'
loop_
 _atom_site_type_symbol
 _atom_site_label
 _atom_site_symmetry_multiplicity
 _atom_site_fract_x
 _atom_site_fract_y
 _atom_site_fract_z
 _atom_site_occupancy
  Ba  Ba0  1  0.495802  0.755205  0.755205  1
  Ba  Ba1  1  0.504198  0.244795  0.244795  1
  In  In2  1  0.183329  0.566621  0.566621  1
  In  In3  1  0.816671  0.433379  0.433379  1
  Si  Si4  1  0.143148  0.105261  0.105261  1
  Si  Si5  1  0.856852  0.894739  0.894739  1
  Pd  Pd6  1  0.500000  0.195400  0.804600  1
  Pd  Pd7  1  0.000000  0.803979  0.196021  1
  Pd  Pd8  1  0.500000  0.804600  0.195400  1
  Pd  Pd9  1  0.000000  0.196021  0.803979  1
  Pd  Pd10  1  0.000000  0.500000  0.000000  1
  Pd  Pd11  1  0.000000  0.000000  0.500000  1
