# generated using pymatgen
data_Dy2CuAs3O
_symmetry_space_group_name_H-M   'P 1'
_cell_length_a   34.14348638
_cell_length_b   3.92978700
_cell_length_c   3.92418652
_cell_angle_alpha   90.00000000
_cell_angle_beta   90.02083141
_cell_angle_gamma   90.00000000
_symmetry_Int_Tables_number   1
_chemical_formula_structural   Dy2CuAs3O
_chemical_formula_sum   'Dy8 Cu4 As12 O4'
_cell_volume   526.53408346
_cell_formula_units_Z   4
loop_
 _symmetry_equiv_pos_site_id
 _symmetry_equiv_pos_as_xyz
  1  'x, y, z'
loop_
 _atom_site_type_symbol
 _atom_site_label
 _atom_site_symmetry_multiplicity
 _atom_site_fract_x
 _atom_site_fract_y
 _atom_site_fract_z
 _atom_site_occupancy
  Dy  Dy0  1  0.326056  0.250002  0.803862  1
  Dy  Dy1  1  0.173755  0.750002  0.303805  1
  Dy  Dy2  1  0.826266  0.250002  0.696504  1
  Dy  Dy3  1  0.673940  0.750002  0.196480  1
  Dy  Dy4  1  0.467806  0.750002  0.251117  1
  Dy  Dy5  1  0.032187  0.250002  0.751948  1
  Dy  Dy6  1  0.967823  0.750002  0.248907  1
  Dy  Dy7  1  0.532184  0.250002  0.749762  1
  Cu  Cu8  1  0.249381  0.250002  0.302580  1
  Cu  Cu9  1  0.249900  0.750002  0.805400  1
  Cu  Cu10  1  0.750334  0.250002  0.191321  1
  Cu  Cu11  1  0.750285  0.750002  0.695459  1
  As  As12  1  0.394799  0.250002  0.310268  1
  As  As13  1  0.105173  0.750002  0.810072  1
  As  As14  1  0.894851  0.250002  0.190296  1
  As  As15  1  0.605223  0.750002  0.690321  1
  As  As16  1  0.394779  0.750002  0.771593  1
  As  As17  1  0.105182  0.250002  0.271713  1
  As  As18  1  0.894868  0.750002  0.728860  1
  As  As19  1  0.605224  0.250002  0.229052  1
  As  As20  1  0.203481  0.250002  0.803979  1
  As  As21  1  0.296081  0.750002  0.305146  1
  As  As22  1  0.703915  0.250002  0.694030  1
  As  As23  1  0.796513  0.750002  0.195813  1
  O  O24  1  0.500059  0.750002  0.752140  1
  O  O25  1  0.999941  0.250002  0.251815  1
  O  O26  1  0.000066  0.750002  0.749032  1
  O  O27  1  0.499932  0.250002  0.248726  1
