# generated using pymatgen
data_NaSc(ReH9)2
_symmetry_space_group_name_H-M   'P 1'
_cell_length_a   5.14962232
_cell_length_b   5.14982053
_cell_length_c   8.28293465
_cell_angle_alpha   93.59373441
_cell_angle_beta   86.40527187
_cell_angle_gamma   126.10084968
_symmetry_Int_Tables_number   1
_chemical_formula_structural   NaSc(ReH9)2
_chemical_formula_sum   'Na1 Sc1 Re2 H18'
_cell_volume   177.04198874
_cell_formula_units_Z   1
loop_
 _symmetry_equiv_pos_site_id
 _symmetry_equiv_pos_as_xyz
  1  'x, y, z'
loop_
 _atom_site_type_symbol
 _atom_site_label
 _atom_site_symmetry_multiplicity
 _atom_site_fract_x
 _atom_site_fract_y
 _atom_site_fract_z
 _atom_site_occupancy
  Na  Na0  1  0.000000  0.000000  0.000000  1
  Sc  Sc1  1  0.000000  0.000000  0.500000  1
  Re  Re2  1  0.338937  0.661134  0.718343  1
  Re  Re3  1  0.661063  0.338866  0.281657  1
  H  H4  1  0.388821  0.611332  0.515984  1
  H  H5  1  0.611179  0.388668  0.484016  1
  H  H6  1  0.417958  0.582041  0.894599  1
  H  H7  1  0.582042  0.417959  0.105401  1
  H  H8  1  0.472734  0.968021  0.855550  1
  H  H9  1  0.968004  0.472696  0.144465  1
  H  H10  1  0.607830  0.025351  0.642132  1
  H  H11  1  0.025279  0.607704  0.357896  1
  H  H12  1  0.527266  0.031979  0.144450  1
  H  H13  1  0.031996  0.527304  0.855535  1
  H  H14  1  0.392170  0.974649  0.357868  1
  H  H15  1  0.974721  0.392296  0.642104  1
  H  H16  1  0.712954  0.733179  0.710823  1
  H  H17  1  0.733197  0.712920  0.289182  1
  H  H18  1  0.287046  0.266821  0.289177  1
  H  H19  1  0.266803  0.287080  0.710818  1
  H  H20  1  0.155903  0.844219  0.683495  1
  H  H21  1  0.844097  0.155781  0.316505  1
