# generated using pymatgen
data_LiEr16Zn2CdCo4
_symmetry_space_group_name_H-M   'P 1'
_cell_length_a   9.32565823
_cell_length_b   9.37417403
_cell_length_c   9.32856022
_cell_angle_alpha   60.12757725
_cell_angle_beta   59.97834764
_cell_angle_gamma   60.22984256
_symmetry_Int_Tables_number   1
_chemical_formula_structural   LiEr16Zn2CdCo4
_chemical_formula_sum   'Li1 Er16 Zn2 Cd1 Co4'
_cell_volume   578.10641425
_cell_formula_units_Z   1
loop_
 _symmetry_equiv_pos_site_id
 _symmetry_equiv_pos_as_xyz
  1  'x, y, z'
loop_
 _atom_site_type_symbol
 _atom_site_label
 _atom_site_symmetry_multiplicity
 _atom_site_fract_x
 _atom_site_fract_y
 _atom_site_fract_z
 _atom_site_occupancy
  Li  Li0  1  0.925719  0.209631  0.932612  1
  Er  Er1  1  0.149412  0.547287  0.151782  1
  Er  Er2  1  0.688308  0.312726  0.687341  1
  Er  Er3  1  0.688416  0.311857  0.313103  1
  Er  Er4  1  0.938262  0.566930  0.557520  1
  Er  Er5  1  0.542366  0.149871  0.153421  1
  Er  Er6  1  0.153875  0.152544  0.538770  1
  Er  Er7  1  0.936977  0.937787  0.561981  1
  Er  Er8  1  0.309779  0.691240  0.310362  1
  Er  Er9  1  0.567118  0.937746  0.935263  1
  Er  Er10  1  0.567063  0.937929  0.558924  1
  Er  Er11  1  0.690331  0.691937  0.309204  1
  Er  Er12  1  0.560137  0.562718  0.938551  1
  Er  Er13  1  0.938467  0.566755  0.937101  1
  Er  Er14  1  0.310135  0.691118  0.688788  1
  Er  Er15  1  0.154332  0.153055  0.154276  1
  Er  Er16  1  0.314403  0.312656  0.686848  1
  Zn  Zn17  1  0.916838  0.918182  0.921928  1
  Zn  Zn18  1  0.917052  0.917607  0.244161  1
  Cd  Cd19  1  0.231771  0.922503  0.923260  1
  Co  Co20  1  0.358445  0.361384  0.923439  1
  Co  Co21  1  0.358758  0.923696  0.358053  1
  Co  Co22  1  0.923178  0.361185  0.357270  1
  Co  Co23  1  0.358859  0.361657  0.356042  1
