# generated using pymatgen
data_PrEr6Sn23Rh6
_symmetry_space_group_name_H-M   'P 1'
_cell_length_a   9.86656500
_cell_length_b   9.86656444
_cell_length_c   10.11306900
_cell_angle_alpha   90.00000000
_cell_angle_beta   90.00000000
_cell_angle_gamma   120.00000524
_symmetry_Int_Tables_number   1
_chemical_formula_structural   PrEr6Sn23Rh6
_chemical_formula_sum   'Pr1 Er6 Sn23 Rh6'
_cell_volume   852.60037051
_cell_formula_units_Z   1
loop_
 _symmetry_equiv_pos_site_id
 _symmetry_equiv_pos_as_xyz
  1  'x, y, z'
loop_
 _atom_site_type_symbol
 _atom_site_label
 _atom_site_symmetry_multiplicity
 _atom_site_fract_x
 _atom_site_fract_y
 _atom_site_fract_z
 _atom_site_occupancy
  Pr  Pr0  1  0.000000  0.000000  0.000000  1
  Er  Er1  1  0.480143  0.519857  0.307615  1
  Er  Er2  1  0.519857  0.480143  0.692385  1
  Er  Er3  1  0.480143  0.960289  0.307615  1
  Er  Er4  1  0.519857  0.039711  0.692385  1
  Er  Er5  1  0.039711  0.519857  0.307615  1
  Er  Er6  1  0.960289  0.480143  0.692385  1
  Sn  Sn7  1  0.120494  0.879506  0.282873  1
  Sn  Sn8  1  0.879506  0.120494  0.717127  1
  Sn  Sn9  1  0.120494  0.240987  0.282873  1
  Sn  Sn10  1  0.879506  0.759013  0.717127  1
  Sn  Sn11  1  0.759013  0.879506  0.282873  1
  Sn  Sn12  1  0.240987  0.120494  0.717127  1
  Sn  Sn13  1  0.777442  0.222558  0.456246  1
  Sn  Sn14  1  0.222558  0.777442  0.543754  1
  Sn  Sn15  1  0.777442  0.554882  0.456246  1
  Sn  Sn16  1  0.222558  0.445118  0.543754  1
  Sn  Sn17  1  0.445118  0.222558  0.456246  1
  Sn  Sn18  1  0.554882  0.777442  0.543754  1
  Sn  Sn19  1  0.352424  0.000000  0.000000  1
  Sn  Sn20  1  0.647576  0.000000  0.000000  1
  Sn  Sn21  1  0.000000  0.352424  0.000000  1
  Sn  Sn22  1  0.000000  0.647576  0.000000  1
  Sn  Sn23  1  0.647576  0.647576  0.000000  1
  Sn  Sn24  1  0.352424  0.352424  0.000000  1
  Sn  Sn25  1  0.333333  0.666667  0.124540  1
  Sn  Sn26  1  0.666667  0.333333  0.875460  1
  Sn  Sn27  1  0.333333  0.666667  0.821187  1
  Sn  Sn28  1  0.666667  0.333333  0.178813  1
  Sn  Sn29  1  0.000000  0.000000  0.500000  1
  Rh  Rh30  1  0.830459  0.169541  0.199553  1
  Rh  Rh31  1  0.169541  0.830459  0.800447  1
  Rh  Rh32  1  0.830459  0.660920  0.199553  1
  Rh  Rh33  1  0.169541  0.339080  0.800447  1
  Rh  Rh34  1  0.339080  0.169541  0.199553  1
  Rh  Rh35  1  0.660920  0.830459  0.800447  1
