# generated using pymatgen
data_PbBr6
_symmetry_space_group_name_H-M   'P 1'
_cell_length_a   8.65497898
_cell_length_b   9.92163755
_cell_length_c   4.49924642
_cell_angle_alpha   111.14365596
_cell_angle_beta   103.83603244
_cell_angle_gamma   67.60259636
_symmetry_Int_Tables_number   1
_chemical_formula_structural   PbBr6
_chemical_formula_sum   'Pb1 Br6'
_cell_volume   330.83859625
_cell_formula_units_Z   1
loop_
 _symmetry_equiv_pos_site_id
 _symmetry_equiv_pos_as_xyz
  1  'x, y, z'
loop_
 _atom_site_type_symbol
 _atom_site_label
 _atom_site_symmetry_multiplicity
 _atom_site_fract_x
 _atom_site_fract_y
 _atom_site_fract_z
 _atom_site_occupancy
  Pb  Pb0  1  0.579476  0.193746  0.806597  1
  Br  Br1  1  0.746464  0.464564  0.951235  1
  Br  Br2  1  0.556194  0.740808  0.254980  1
  Br  Br3  1  0.790866  0.043785  0.287090  1
  Br  Br4  1  0.359550  0.431492  0.403317  1
  Br  Br5  1  0.359225  0.996628  0.514291  1
  Br  Br6  1  0.060204  0.439530  0.184282  1
