# generated using pymatgen
data_Li6In6Pd5Pt7
_symmetry_space_group_name_H-M   'P 1'
_cell_length_a   4.18485600
_cell_length_b   7.31175932
_cell_length_c   12.52557861
_cell_angle_alpha   89.96514408
_cell_angle_beta   89.99994524
_cell_angle_gamma   89.99999998
_symmetry_Int_Tables_number   1
_chemical_formula_structural   Li6In6Pd5Pt7
_chemical_formula_sum   'Li6 In6 Pd5 Pt7'
_cell_volume   383.26584857
_cell_formula_units_Z   1
loop_
 _symmetry_equiv_pos_site_id
 _symmetry_equiv_pos_as_xyz
  1  'x, y, z'
loop_
 _atom_site_type_symbol
 _atom_site_label
 _atom_site_symmetry_multiplicity
 _atom_site_fract_x
 _atom_site_fract_y
 _atom_site_fract_z
 _atom_site_occupancy
  Li  Li0  1  0.000000  0.500101  0.998314  1
  Li  Li1  1  0.500000  0.998553  0.167504  1
  Li  Li2  1  0.000000  0.501982  0.334973  1
  Li  Li3  1  0.500000  0.999021  0.500876  1
  Li  Li4  1  0.000000  0.500287  0.666562  1
  Li  Li5  1  0.500001  0.000028  0.831753  1
  In  In6  1  0.000000  0.999700  0.999624  1
  In  In7  1  0.500000  0.500221  0.166741  1
  In  In8  1  0.000000  0.001223  0.333085  1
  In  In9  1  0.500000  0.499595  0.499891  1
  In  In10  1  0.000000  0.999438  0.666753  1
  In  In11  1  0.499999  0.500201  0.833898  1
  Pd  Pd12  1  0.500000  0.249888  0.999686  1
  Pd  Pd13  1  0.500000  0.750170  0.999611  1
  Pd  Pd14  1  0.000000  0.250227  0.166323  1
  Pd  Pd15  1  0.000000  0.750178  0.167068  1
  Pd  Pd16  1  0.500000  0.249875  0.333711  1
  Pt  Pt17  1  0.500000  0.750339  0.333955  1
  Pt  Pt18  1  0.000000  0.249932  0.500678  1
  Pt  Pt19  1  0.000000  0.749720  0.500142  1
  Pt  Pt20  1  0.500002  0.249918  0.666919  1
  Pt  Pt21  1  0.500002  0.749554  0.666436  1
  Pt  Pt22  1  0.000000  0.250094  0.832742  1
  Pt  Pt23  1  0.000000  0.749754  0.832750  1
