# generated using pymatgen
data_Th2(ReB2)3
_symmetry_space_group_name_H-M   'P 1'
_cell_length_a   6.36929558
_cell_length_b   6.36929518
_cell_length_c   7.63224056
_cell_angle_alpha   89.14767491
_cell_angle_beta   89.14767654
_cell_angle_gamma   115.15228904
_symmetry_Int_Tables_number   1
_chemical_formula_structural   Th2(ReB2)3
_chemical_formula_sum   'Th4 Re6 B12'
_cell_volume   280.15811051
_cell_formula_units_Z   2
loop_
 _symmetry_equiv_pos_site_id
 _symmetry_equiv_pos_as_xyz
  1  'x, y, z'
loop_
 _atom_site_type_symbol
 _atom_site_label
 _atom_site_symmetry_multiplicity
 _atom_site_fract_x
 _atom_site_fract_y
 _atom_site_fract_z
 _atom_site_occupancy
  Th  Th0  1  0.440072  0.095372  0.174050  1
  Th  Th1  1  0.904628  0.559928  0.325950  1
  Th  Th2  1  0.559928  0.904628  0.825950  1
  Th  Th3  1  0.095372  0.440072  0.674050  1
  Re  Re4  1  0.805800  0.992352  0.414165  1
  Re  Re5  1  0.007648  0.194200  0.085835  1
  Re  Re6  1  0.194200  0.007648  0.585835  1
  Re  Re7  1  0.992352  0.805800  0.914165  1
  Re  Re8  1  0.411109  0.588891  0.250000  1
  Re  Re9  1  0.588891  0.411109  0.750000  1
  B  B10  1  0.153792  0.247594  0.365952  1
  B  B11  1  0.752406  0.846208  0.134048  1
  B  B12  1  0.846208  0.752406  0.634048  1
  B  B13  1  0.247594  0.153792  0.865952  1
  B  B14  1  0.162038  0.584514  0.018771  1
  B  B15  1  0.415486  0.837962  0.481229  1
  B  B16  1  0.837962  0.415486  0.981229  1
  B  B17  1  0.584514  0.162038  0.518771  1
  B  B18  1  0.350046  0.444298  0.965731  1
  B  B19  1  0.555702  0.649954  0.534269  1
  B  B20  1  0.649954  0.555702  0.034269  1
  B  B21  1  0.444298  0.350046  0.465731  1
