# generated using pymatgen
data_Eu11Dy9Si15Pt
_symmetry_space_group_name_H-M   'P 1'
_cell_length_a   7.59147200
_cell_length_b   7.92620123
_cell_length_c   15.02429600
_cell_angle_alpha   90.00000000
_cell_angle_beta   90.00000000
_cell_angle_gamma   90.08745954
_symmetry_Int_Tables_number   1
_chemical_formula_structural   Eu11Dy9Si15Pt
_chemical_formula_sum   'Eu11 Dy9 Si15 Pt1'
_cell_volume   904.03389542
_cell_formula_units_Z   1
loop_
 _symmetry_equiv_pos_site_id
 _symmetry_equiv_pos_as_xyz
  1  'x, y, z'
loop_
 _atom_site_type_symbol
 _atom_site_label
 _atom_site_symmetry_multiplicity
 _atom_site_fract_x
 _atom_site_fract_y
 _atom_site_fract_z
 _atom_site_occupancy
  Eu  Eu0  1  0.521782  0.678330  0.594047  1
  Eu  Eu1  1  0.024517  0.821327  0.903705  1
  Eu  Eu2  1  0.475265  0.320539  0.094728  1
  Eu  Eu3  1  0.975877  0.178920  0.406161  1
  Eu  Eu4  1  0.475265  0.320539  0.405272  1
  Eu  Eu5  1  0.975877  0.178920  0.093839  1
  Eu  Eu6  1  0.521782  0.678330  0.905953  1
  Eu  Eu7  1  0.024517  0.821327  0.596295  1
  Eu  Eu8  1  0.351862  0.972310  0.750000  1
  Eu  Eu9  1  0.151165  0.472956  0.250000  1
  Eu  Eu10  1  0.651656  0.025377  0.250000  1
  Dy  Dy11  1  0.680323  0.179039  0.624832  1
  Dy  Dy12  1  0.186631  0.322366  0.876279  1
  Dy  Dy13  1  0.317671  0.819856  0.121598  1
  Dy  Dy14  1  0.818449  0.678287  0.379060  1
  Dy  Dy15  1  0.317671  0.819856  0.378402  1
  Dy  Dy16  1  0.818449  0.678287  0.120940  1
  Dy  Dy17  1  0.680323  0.179039  0.875168  1
  Dy  Dy18  1  0.186631  0.322366  0.623721  1
  Dy  Dy19  1  0.842165  0.517776  0.750000  1
  Si  Si20  1  0.640612  0.967538  0.461871  1
  Si  Si21  1  0.141152  0.531775  0.036792  1
  Si  Si22  1  0.359720  0.031848  0.962208  1
  Si  Si23  1  0.861631  0.470180  0.542331  1
  Si  Si24  1  0.359720  0.031848  0.537792  1
  Si  Si25  1  0.861631  0.470180  0.957669  1
  Si  Si26  1  0.640612  0.967538  0.038129  1
  Si  Si27  1  0.141152  0.531775  0.463208  1
  Si  Si28  1  0.974893  0.115786  0.750000  1
  Si  Si29  1  0.527899  0.617764  0.250000  1
  Si  Si30  1  0.026844  0.881209  0.250000  1
  Si  Si31  1  0.750678  0.890032  0.750000  1
  Si  Si32  1  0.225987  0.607438  0.750000  1
  Si  Si33  1  0.253249  0.098255  0.250000  1
  Si  Si34  1  0.754060  0.400677  0.250000  1
  Pt  Pt35  1  0.482277  0.400410  0.750000  1
