# generated using pymatgen
data_PrScPa2(Al3Ir)6
_symmetry_space_group_name_H-M   'P 1'
_cell_length_a   7.59711986
_cell_length_b   7.61160054
_cell_length_c   9.36811600
_cell_angle_alpha   90.00000000
_cell_angle_beta   90.00000000
_cell_angle_gamma   119.66703946
_symmetry_Int_Tables_number   1
_chemical_formula_structural   PrScPa2(Al3Ir)6
_chemical_formula_sum   'Pr1 Sc1 Pa2 Al18 Ir6'
_cell_volume   470.71194230
_cell_formula_units_Z   1
loop_
 _symmetry_equiv_pos_site_id
 _symmetry_equiv_pos_as_xyz
  1  'x, y, z'
loop_
 _atom_site_type_symbol
 _atom_site_label
 _atom_site_symmetry_multiplicity
 _atom_site_fract_x
 _atom_site_fract_y
 _atom_site_fract_z
 _atom_site_occupancy
  Pr  Pr0  1  0.331423  0.007219  0.750000  1
  Sc  Sc1  1  0.671544  0.992559  0.250000  1
  Pa  Pa2  1  0.999144  0.672017  0.250000  1
  Pa  Pa3  1  0.001542  0.329041  0.750000  1
  Al  Al4  1  0.128370  0.126293  0.250000  1
  Al  Al5  1  0.865235  0.872801  0.750000  1
  Al  Al6  1  0.996623  0.328020  0.080852  1
  Al  Al7  1  0.996947  0.666686  0.924252  1
  Al  Al8  1  0.996947  0.666686  0.575748  1
  Al  Al9  1  0.342560  0.003422  0.420085  1
  Al  Al10  1  0.996623  0.328020  0.419148  1
  Al  Al11  1  0.663783  0.996697  0.567820  1
  Al  Al12  1  0.663783  0.996697  0.932180  1
  Al  Al13  1  0.342560  0.003422  0.079915  1
  Al  Al14  1  0.334772  0.334821  0.548609  1
  Al  Al15  1  0.664948  0.668945  0.442349  1
  Al  Al16  1  0.664948  0.668945  0.057651  1
  Al  Al17  1  0.334772  0.334821  0.951391  1
  Al  Al18  1  0.343562  0.551583  0.250000  1
  Al  Al19  1  0.660367  0.455687  0.750000  1
  Al  Al20  1  0.551338  0.340458  0.250000  1
  Al  Al21  1  0.451186  0.657828  0.750000  1
  Ir  Ir22  1  0.676706  0.330762  0.001004  1
  Ir  Ir23  1  0.323255  0.669192  0.002197  1
  Ir  Ir24  1  0.323255  0.669192  0.497803  1
  Ir  Ir25  1  0.676706  0.330762  0.498996  1
  Ir  Ir26  1  0.998549  0.998713  0.002326  1
  Ir  Ir27  1  0.998549  0.998713  0.497674  1
