# generated using pymatgen
data_CaYb(ZnAu3)3
_symmetry_space_group_name_H-M   'P 1'
_cell_length_a   5.71813933
_cell_length_b   5.72410892
_cell_length_c   9.86678900
_cell_angle_alpha   90.00000000
_cell_angle_beta   90.00000000
_cell_angle_gamma   123.82321017
_symmetry_Int_Tables_number   1
_chemical_formula_structural   CaYb(ZnAu3)3
_chemical_formula_sum   'Ca1 Yb1 Zn3 Au9'
_cell_volume   268.29559600
_cell_formula_units_Z   1
loop_
 _symmetry_equiv_pos_site_id
 _symmetry_equiv_pos_as_xyz
  1  'x, y, z'
loop_
 _atom_site_type_symbol
 _atom_site_label
 _atom_site_symmetry_multiplicity
 _atom_site_fract_x
 _atom_site_fract_y
 _atom_site_fract_z
 _atom_site_occupancy
  Ca  Ca0  1  0.000000  0.500000  0.757377  1
  Yb  Yb1  1  0.500000  0.000000  0.243015  1
  Zn  Zn2  1  0.000000  0.000000  0.499476  1
  Zn  Zn3  1  0.000000  0.000000  0.000738  1
  Zn  Zn4  1  0.500000  0.500000  0.499655  1
  Au  Au5  1  0.000000  0.500000  0.059985  1
  Au  Au6  1  0.500000  0.000000  0.541985  1
  Au  Au7  1  0.500000  0.000000  0.945156  1
  Au  Au8  1  0.000000  0.500000  0.453184  1
  Au  Au9  1  0.703948  0.803196  0.740898  1
  Au  Au10  1  0.198045  0.294081  0.258674  1
  Au  Au11  1  0.801955  0.705919  0.258674  1
  Au  Au12  1  0.296052  0.196804  0.740898  1
  Au  Au13  1  0.500000  0.500000  0.000285  1
