# generated using pymatgen
data_Ti3Re4W
_symmetry_space_group_name_H-M   'P 1'
_cell_length_a   6.31295400
_cell_length_b   4.46195000
_cell_length_c   8.89042000
_cell_angle_alpha   89.99933227
_cell_angle_beta   90.00109818
_cell_angle_gamma   89.99799682
_symmetry_Int_Tables_number   1
_chemical_formula_structural   Ti3Re4W
_chemical_formula_sum   'Ti6 Re8 W2'
_cell_volume   250.42610714
_cell_formula_units_Z   2
loop_
 _symmetry_equiv_pos_site_id
 _symmetry_equiv_pos_as_xyz
  1  'x, y, z'
loop_
 _atom_site_type_symbol
 _atom_site_label
 _atom_site_symmetry_multiplicity
 _atom_site_fract_x
 _atom_site_fract_y
 _atom_site_fract_z
 _atom_site_occupancy
  Ti  Ti0  1  0.750003  0.250006  0.125356  1
  Ti  Ti1  1  0.250000  0.750005  0.374637  1
  Ti  Ti2  1  0.250004  0.250004  0.127294  1
  Ti  Ti3  1  0.750002  0.749999  0.372712  1
  Ti  Ti4  1  0.249996  0.250004  0.623050  1
  Ti  Ti5  1  0.749998  0.749998  0.876945  1
  Re  Re6  1  0.499021  0.749999  0.123010  1
  Re  Re7  1  0.000987  0.749994  0.123007  1
  Re  Re8  1  0.500966  0.249995  0.377014  1
  Re  Re9  1  0.999037  0.250006  0.377015  1
  Re  Re10  1  0.998989  0.750004  0.626949  1
  Re  Re11  1  0.501005  0.749999  0.626949  1
  Re  Re12  1  0.000909  0.250003  0.873030  1
  Re  Re13  1  0.499087  0.249998  0.873029  1
  W  W14  1  0.749995  0.250001  0.624136  1
  W  W15  1  0.249999  0.750001  0.875867  1
