# generated using pymatgen
data_AcSc(PS4)2
_symmetry_space_group_name_H-M   'P 1'
_cell_length_a   6.49578317
_cell_length_b   6.59055720
_cell_length_c   7.99296806
_cell_angle_alpha   89.37264709
_cell_angle_beta   86.25026724
_cell_angle_gamma   86.90200234
_symmetry_Int_Tables_number   1
_chemical_formula_structural   AcSc(PS4)2
_chemical_formula_sum   'Ac1 Sc1 P2 S8'
_cell_volume   340.94460545
_cell_formula_units_Z   1
loop_
 _symmetry_equiv_pos_site_id
 _symmetry_equiv_pos_as_xyz
  1  'x, y, z'
loop_
 _atom_site_type_symbol
 _atom_site_label
 _atom_site_symmetry_multiplicity
 _atom_site_fract_x
 _atom_site_fract_y
 _atom_site_fract_z
 _atom_site_occupancy
  Ac  Ac0  1  0.790960  0.256012  0.941643  1
  Sc  Sc1  1  0.214838  0.701446  0.063903  1
  P  P2  1  0.700489  0.742224  0.184832  1
  P  P3  1  0.297633  0.263252  0.812518  1
  S  S4  1  0.543936  0.261830  0.648256  1
  S  S5  1  0.429244  0.756171  0.325099  1
  S  S6  1  0.908554  0.963465  0.216221  1
  S  S7  1  0.146715  0.997867  0.788943  1
  S  S8  1  0.611787  0.743713  0.939783  1
  S  S9  1  0.344863  0.293356  0.068474  1
  S  S10  1  0.904135  0.499227  0.232899  1
  S  S11  1  0.106846  0.521437  0.777428  1
