# generated using pymatgen
data_Y2ThCo11B4
_symmetry_space_group_name_H-M   'P 1'
_cell_length_a   5.05680216
_cell_length_b   5.05683497
_cell_length_c   9.83490300
_cell_angle_alpha   90.00003211
_cell_angle_beta   90.00054940
_cell_angle_gamma   119.99209172
_symmetry_Int_Tables_number   1
_chemical_formula_structural   Y2ThCo11B4
_chemical_formula_sum   'Y2 Th1 Co11 B4'
_cell_volume   217.81614072
_cell_formula_units_Z   1
loop_
 _symmetry_equiv_pos_site_id
 _symmetry_equiv_pos_as_xyz
  1  'x, y, z'
loop_
 _atom_site_type_symbol
 _atom_site_label
 _atom_site_symmetry_multiplicity
 _atom_site_fract_x
 _atom_site_fract_y
 _atom_site_fract_z
 _atom_site_occupancy
  Y  Y0  1  0.999991  0.000001  0.344092  1
  Y  Y1  1  0.999998  0.000000  0.655968  1
  Th  Th2  1  0.000001  0.000001  0.000034  1
  Co  Co3  1  0.333356  0.666543  0.999978  1
  Co  Co4  1  0.666623  0.333452  0.999980  1
  Co  Co5  1  0.499985  0.999982  0.500006  1
  Co  Co6  1  0.499986  0.500010  0.500004  1
  Co  Co7  1  0.000013  0.500010  0.500002  1
  Co  Co8  1  0.499899  0.999819  0.204845  1
  Co  Co9  1  0.499899  0.500094  0.204920  1
  Co  Co10  1  0.000175  0.500093  0.204916  1
  Co  Co11  1  0.499910  0.999818  0.795061  1
  Co  Co12  1  0.499911  0.500089  0.795088  1
  Co  Co13  1  0.000178  0.500088  0.795177  1
  B  B14  1  0.333272  0.666631  0.350227  1
  B  B15  1  0.666711  0.333371  0.350228  1
  B  B16  1  0.666542  0.333254  0.649735  1
  B  B17  1  0.333451  0.666744  0.649739  1
