# generated using pymatgen
data_MnCrNi2(PO5)2
_symmetry_space_group_name_H-M   'P 1'
_cell_length_a   5.43784065
_cell_length_b   5.37457182
_cell_length_c   7.28373743
_cell_angle_alpha   66.96940896
_cell_angle_beta   67.84345598
_cell_angle_gamma   89.80164852
_symmetry_Int_Tables_number   1
_chemical_formula_structural   MnCrNi2(PO5)2
_chemical_formula_sum   'Mn1 Cr1 Ni2 P2 O10'
_cell_volume   178.83032973
_cell_formula_units_Z   1
loop_
 _symmetry_equiv_pos_site_id
 _symmetry_equiv_pos_as_xyz
  1  'x, y, z'
loop_
 _atom_site_type_symbol
 _atom_site_label
 _atom_site_symmetry_multiplicity
 _atom_site_fract_x
 _atom_site_fract_y
 _atom_site_fract_z
 _atom_site_occupancy
  Mn  Mn0  1  0.500125  0.499873  0.000010  1
  Cr  Cr1  1  0.999775  0.999922  0.500191  1
  Ni  Ni2  1  0.500141  0.000532  0.499770  1
  Ni  Ni3  1  0.500570  0.999818  0.999713  1
  P  P4  1  0.877772  0.628155  0.252874  1
  P  P5  1  0.122266  0.371926  0.747111  1
  O  O6  1  0.633318  0.858486  0.754012  1
  O  O7  1  0.366648  0.141524  0.246108  1
  O  O8  1  0.301632  0.310135  0.874237  1
  O  O9  1  0.817996  0.808314  0.382582  1
  O  O10  1  0.698255  0.689842  0.125845  1
  O  O11  1  0.181755  0.191598  0.617566  1
  O  O12  1  0.806531  0.314144  0.401177  1
  O  O13  1  0.816373  0.306160  0.889374  1
  O  O14  1  0.193282  0.685832  0.598822  1
  O  O15  1  0.183563  0.693741  0.110610  1
