# generated using pymatgen
data_Lu3Th(TiIr)4
_symmetry_space_group_name_H-M   'P 1'
_cell_length_a   4.32136200
_cell_length_b   6.82744513
_cell_length_c   8.04594400
_cell_angle_alpha   90.12455386
_cell_angle_beta   90.00000000
_cell_angle_gamma   90.00000000
_symmetry_Int_Tables_number   1
_chemical_formula_structural   Lu3Th(TiIr)4
_chemical_formula_sum   'Lu3 Th1 Ti4 Ir4'
_cell_volume   237.38586014
_cell_formula_units_Z   1
loop_
 _symmetry_equiv_pos_site_id
 _symmetry_equiv_pos_as_xyz
  1  'x, y, z'
loop_
 _atom_site_type_symbol
 _atom_site_label
 _atom_site_symmetry_multiplicity
 _atom_site_fract_x
 _atom_site_fract_y
 _atom_site_fract_z
 _atom_site_occupancy
  Lu  Lu0  1  0.250000  0.981663  0.319536  1
  Lu  Lu1  1  0.250000  0.483079  0.187649  1
  Lu  Lu2  1  0.750000  0.016055  0.679147  1
  Th  Th3  1  0.750000  0.513311  0.818989  1
  Ti  Ti4  1  0.250000  0.354138  0.558613  1
  Ti  Ti5  1  0.250000  0.865151  0.933691  1
  Ti  Ti6  1  0.750000  0.642996  0.422869  1
  Ti  Ti7  1  0.750000  0.143311  0.076220  1
  Ir  Ir8  1  0.250000  0.225599  0.907271  1
  Ir  Ir9  1  0.250000  0.722463  0.596454  1
  Ir  Ir10  1  0.750000  0.778689  0.099116  1
  Ir  Ir11  1  0.750000  0.273549  0.400446  1
