# generated using pymatgen
data_Tm4Mn2(TcOs)3
_symmetry_space_group_name_H-M   'P 1'
_cell_length_a   5.18050167
_cell_length_b   5.30706004
_cell_length_c   8.81888800
_cell_angle_alpha   90.00000000
_cell_angle_beta   90.00000000
_cell_angle_gamma   118.75945207
_symmetry_Int_Tables_number   1
_chemical_formula_structural   Tm4Mn2(TcOs)3
_chemical_formula_sum   'Tm4 Mn2 Tc3 Os3'
_cell_volume   212.55170461
_cell_formula_units_Z   1
loop_
 _symmetry_equiv_pos_site_id
 _symmetry_equiv_pos_as_xyz
  1  'x, y, z'
loop_
 _atom_site_type_symbol
 _atom_site_label
 _atom_site_symmetry_multiplicity
 _atom_site_fract_x
 _atom_site_fract_y
 _atom_site_fract_z
 _atom_site_occupancy
  Tm  Tm0  1  0.665105  0.329966  0.560602  1
  Tm  Tm1  1  0.334219  0.669442  0.436577  1
  Tm  Tm2  1  0.334219  0.669442  0.063423  1
  Tm  Tm3  1  0.665105  0.329966  0.939398  1
  Mn  Mn4  1  0.169560  0.339662  0.750000  1
  Mn  Mn5  1  0.831883  0.662762  0.250000  1
  Tc  Tc6  1  0.177074  0.831940  0.750000  1
  Tc  Tc7  1  0.658993  0.833112  0.750000  1
  Tc  Tc8  1  0.827342  0.167225  0.250000  1
  Os  Os9  1  0.996833  0.999109  0.500972  1
  Os  Os10  1  0.996833  0.999109  0.999028  1
  Os  Os11  1  0.342835  0.168262  0.250000  1
