# generated using pymatgen
data_Lu14Th2TlIn3Rh4
_symmetry_space_group_name_H-M   'P 1'
_cell_length_a   9.54723286
_cell_length_b   9.54723297
_cell_length_c   9.55175804
_cell_angle_alpha   59.99300865
_cell_angle_beta   59.99300782
_cell_angle_gamma   60.17242139
_symmetry_Int_Tables_number   1
_chemical_formula_structural   Lu14Th2TlIn3Rh4
_chemical_formula_sum   'Lu14 Th2 Tl1 In3 Rh4'
_cell_volume   616.36795223
_cell_formula_units_Z   1
loop_
 _symmetry_equiv_pos_site_id
 _symmetry_equiv_pos_as_xyz
  1  'x, y, z'
loop_
 _atom_site_type_symbol
 _atom_site_label
 _atom_site_symmetry_multiplicity
 _atom_site_fract_x
 _atom_site_fract_y
 _atom_site_fract_z
 _atom_site_occupancy
  Lu  Lu0  1  0.602977  0.194169  0.601870  1
  Lu  Lu1  1  0.194169  0.602977  0.601870  1
  Lu  Lu2  1  0.062737  0.439924  0.437639  1
  Lu  Lu3  1  0.438471  0.063379  0.059885  1
  Lu  Lu4  1  0.439924  0.062737  0.437639  1
  Lu  Lu5  1  0.063379  0.438471  0.059885  1
  Lu  Lu6  1  0.436403  0.436403  0.063418  1
  Lu  Lu7  1  0.060348  0.060348  0.439192  1
  Lu  Lu8  1  0.186053  0.815513  0.812982  1
  Lu  Lu9  1  0.815953  0.185859  0.185711  1
  Lu  Lu10  1  0.815513  0.186053  0.812982  1
  Lu  Lu11  1  0.185859  0.815953  0.185711  1
  Lu  Lu12  1  0.814709  0.814709  0.185499  1
  Lu  Lu13  1  0.191168  0.191168  0.809103  1
  Th  Th14  1  0.596029  0.596029  0.600437  1
  Th  Th15  1  0.595921  0.595921  0.207272  1
  Tl  Tl16  1  0.836892  0.836892  0.834220  1
  In  In17  1  0.835097  0.835097  0.495818  1
  In  In18  1  0.835052  0.496056  0.833982  1
  In  In19  1  0.496056  0.835052  0.833982  1
  Rh  Rh20  1  0.390120  0.390120  0.396705  1
  Rh  Rh21  1  0.390006  0.390006  0.822521  1
  Rh  Rh22  1  0.392706  0.824455  0.390841  1
  Rh  Rh23  1  0.824455  0.392706  0.390841  1
