# generated using pymatgen
data_NdY3(CuPt)2
_symmetry_space_group_name_H-M   'P 1'
_cell_length_a   4.52943900
_cell_length_b   5.54832505
_cell_length_c   7.24929789
_cell_angle_alpha   90.57756711
_cell_angle_beta   90.00000000
_cell_angle_gamma   90.00000000
_symmetry_Int_Tables_number   1
_chemical_formula_structural   NdY3(CuPt)2
_chemical_formula_sum   'Nd1 Y3 Cu2 Pt2'
_cell_volume   182.17139825
_cell_formula_units_Z   1
loop_
 _symmetry_equiv_pos_site_id
 _symmetry_equiv_pos_as_xyz
  1  'x, y, z'
loop_
 _atom_site_type_symbol
 _atom_site_label
 _atom_site_symmetry_multiplicity
 _atom_site_fract_x
 _atom_site_fract_y
 _atom_site_fract_z
 _atom_site_occupancy
  Nd  Nd0  1  0.500000  0.607981  0.816469  1
  Y  Y1  1  0.000000  0.116830  0.682172  1
  Y  Y2  1  0.000000  0.884437  0.185631  1
  Y  Y3  1  0.500000  0.393252  0.315902  1
  Cu  Cu4  1  0.500000  0.892116  0.461979  1
  Cu  Cu5  1  0.500000  0.110189  0.966489  1
  Pt  Pt6  1  0.000000  0.617348  0.529455  1
  Pt  Pt7  1  0.000000  0.377847  0.041906  1
