# generated using pymatgen
data_PrSmEr4Ta2O14
_symmetry_space_group_name_H-M   'P 1'
_cell_length_a   6.46922779
_cell_length_b   6.46922776
_cell_length_c   7.56876135
_cell_angle_alpha   89.97160898
_cell_angle_beta   90.02839294
_cell_angle_gamma   109.22696197
_symmetry_Int_Tables_number   1
_chemical_formula_structural   PrSmEr4Ta2O14
_chemical_formula_sum   'Pr1 Sm1 Er4 Ta2 O14'
_cell_volume   299.09111128
_cell_formula_units_Z   1
loop_
 _symmetry_equiv_pos_site_id
 _symmetry_equiv_pos_as_xyz
  1  'x, y, z'
loop_
 _atom_site_type_symbol
 _atom_site_label
 _atom_site_symmetry_multiplicity
 _atom_site_fract_x
 _atom_site_fract_y
 _atom_site_fract_z
 _atom_site_occupancy
  Pr  Pr0  1  0.500000  0.500000  0.500000  1
  Sm  Sm1  1  0.500000  0.500000  0.000000  1
  Er  Er2  1  0.532924  0.001359  0.751501  1
  Er  Er3  1  0.001359  0.532924  0.248499  1
  Er  Er4  1  0.467076  0.998641  0.248499  1
  Er  Er5  1  0.998641  0.467076  0.751501  1
  Ta  Ta6  1  0.000000  0.000000  0.500000  1
  Ta  Ta7  1  0.000000  0.000000  0.000000  1
  O  O8  1  0.678678  0.931865  0.467060  1
  O  O9  1  0.931865  0.678678  0.532940  1
  O  O10  1  0.678631  0.930162  0.032649  1
  O  O11  1  0.930162  0.678631  0.967351  1
  O  O12  1  0.321322  0.068135  0.532940  1
  O  O13  1  0.068135  0.321322  0.467060  1
  O  O14  1  0.321369  0.069838  0.967351  1
  O  O15  1  0.069838  0.321369  0.032649  1
  O  O16  1  0.934517  0.065483  0.749921  1
  O  O17  1  0.065483  0.934517  0.250079  1
  O  O18  1  0.362909  0.637090  0.754849  1
  O  O19  1  0.637090  0.362909  0.245151  1
  O  O20  1  0.643812  0.356188  0.754133  1
  O  O21  1  0.356188  0.643812  0.245867  1
