# generated using pymatgen
data_Tb7Er3(Hg2Pd)4
_symmetry_space_group_name_H-M   'P 1'
_cell_length_a   3.65970500
_cell_length_b   7.99230769
_cell_length_c   18.20795758
_cell_angle_alpha   90.04764997
_cell_angle_beta   90.00000000
_cell_angle_gamma   90.00000000
_symmetry_Int_Tables_number   1
_chemical_formula_structural   Tb7Er3(Hg2Pd)4
_chemical_formula_sum   'Tb7 Er3 Hg8 Pd4'
_cell_volume   532.57326001
_cell_formula_units_Z   1
loop_
 _symmetry_equiv_pos_site_id
 _symmetry_equiv_pos_as_xyz
  1  'x, y, z'
loop_
 _atom_site_type_symbol
 _atom_site_label
 _atom_site_symmetry_multiplicity
 _atom_site_fract_x
 _atom_site_fract_y
 _atom_site_fract_z
 _atom_site_occupancy
  Tb  Tb0  1  0.000000  0.500270  0.500006  1
  Tb  Tb1  1  0.000000  0.000228  0.999695  1
  Tb  Tb2  1  0.000000  0.733938  0.285150  1
  Tb  Tb3  1  0.000000  0.266379  0.714952  1
  Tb  Tb4  1  0.000000  0.765891  0.784263  1
  Tb  Tb5  1  0.000000  0.233908  0.215803  1
  Tb  Tb6  1  0.000000  0.614036  0.083928  1
  Er  Er7  1  0.000000  0.386544  0.914972  1
  Er  Er8  1  0.000000  0.886777  0.584641  1
  Er  Er9  1  0.000000  0.112883  0.415619  1
  Hg  Hg10  1  0.500000  0.710542  0.934653  1
  Hg  Hg11  1  0.500000  0.288136  0.064509  1
  Hg  Hg12  1  0.500000  0.790320  0.436042  1
  Hg  Hg13  1  0.500000  0.209856  0.563892  1
  Hg  Hg14  1  0.500000  0.584320  0.647738  1
  Hg  Hg15  1  0.500000  0.415496  0.352679  1
  Hg  Hg16  1  0.500000  0.917492  0.148541  1
  Hg  Hg17  1  0.500000  0.084583  0.851942  1
  Pd  Pd18  1  0.500000  0.523787  0.195873  1
  Pd  Pd19  1  0.500000  0.474724  0.804960  1
  Pd  Pd20  1  0.500000  0.975242  0.694711  1
  Pd  Pd21  1  0.500000  0.024647  0.305431  1
