# generated using pymatgen
data_La7NdCu8(MoO4)16
_symmetry_space_group_name_H-M   'P 1'
_cell_length_a   10.13850828
_cell_length_b   10.58324726
_cell_length_c   15.09397805
_cell_angle_alpha   90.00294093
_cell_angle_beta   89.99132637
_cell_angle_gamma   90.02533325
_symmetry_Int_Tables_number   1
_chemical_formula_structural   La7NdCu8(MoO4)16
_chemical_formula_sum   'La7 Nd1 Cu8 Mo16 O64'
_cell_volume   1619.55860900
_cell_formula_units_Z   1
loop_
 _symmetry_equiv_pos_site_id
 _symmetry_equiv_pos_as_xyz
  1  'x, y, z'
loop_
 _atom_site_type_symbol
 _atom_site_label
 _atom_site_symmetry_multiplicity
 _atom_site_fract_x
 _atom_site_fract_y
 _atom_site_fract_z
 _atom_site_occupancy
  La  La0  1  0.777342  0.035177  0.896667  1
  La  La1  1  0.777393  0.535180  0.603448  1
  La  La2  1  0.222622  0.464761  0.396512  1
  La  La3  1  0.722557  0.035158  0.396517  1
  La  La4  1  0.722559  0.535165  0.103314  1
  La  La5  1  0.277401  0.464703  0.896633  1
  La  La6  1  0.277393  0.964944  0.603382  1
  Nd  Nd7  1  0.222567  0.964526  0.103124  1
  Cu  Cu8  1  0.693527  0.681299  0.305384  1
  Cu  Cu9  1  0.193505  0.318267  0.194417  1
  Cu  Cu10  1  0.693383  0.181028  0.194534  1
  Cu  Cu11  1  0.306472  0.318697  0.694615  1
  Cu  Cu12  1  0.806618  0.181192  0.694524  1
  Cu  Cu13  1  0.306603  0.818898  0.805532  1
  Cu  Cu14  1  0.806606  0.681481  0.805526  1
  Cu  Cu15  1  0.193540  0.819030  0.305167  1
  Mo  Mo16  1  0.328011  0.603646  0.153753  1
  Mo  Mo17  1  0.997733  0.220664  0.558832  1
  Mo  Mo18  1  0.002303  0.779346  0.441131  1
  Mo  Mo19  1  0.830118  0.897772  0.153702  1
  Mo  Mo20  1  0.671465  0.397513  0.846245  1
  Mo  Mo21  1  0.171537  0.602480  0.653825  1
  Mo  Mo22  1  0.671479  0.897508  0.653787  1
  Mo  Mo23  1  0.828479  0.397544  0.346175  1
  Mo  Mo24  1  0.328049  0.101888  0.345467  1
  Mo  Mo25  1  0.501152  0.219653  0.059082  1
  Mo  Mo26  1  0.998707  0.721668  0.941772  1
  Mo  Mo27  1  0.171809  0.101991  0.847316  1
  Mo  Mo28  1  0.502246  0.720703  0.441184  1
  Mo  Mo29  1  0.497737  0.279293  0.558797  1
  Mo  Mo30  1  0.496724  0.780072  0.941861  1
  Mo  Mo31  1  0.002888  0.278561  0.059088  1
  O  O32  1  0.786731  0.421602  0.459280  1
  O  O33  1  0.591642  0.135108  0.976894  1
  O  O34  1  0.612650  0.313393  0.132134  1
  O  O35  1  0.603239  0.668782  0.994752  1
  O  O36  1  0.103927  0.331802  0.505516  1
  O  O37  1  0.386503  0.185896  0.632079  1
  O  O38  1  0.713284  0.421802  0.959320  1
  O  O39  1  0.097339  0.115627  0.624070  1
  O  O40  1  0.903125  0.383904  0.124170  1
  O  O41  1  0.273379  0.761835  0.183252  1
  O  O42  1  0.497381  0.911920  0.665979  1
  O  O43  1  0.497365  0.411929  0.834061  1
  O  O44  1  0.908104  0.135071  0.476716  1
  O  O45  1  0.114562  0.184071  0.131656  1
  O  O46  1  0.396127  0.331477  0.005570  1
  O  O47  1  0.002594  0.411930  0.334035  1
  O  O48  1  0.591836  0.635109  0.523264  1
  O  O49  1  0.255320  0.486195  0.724785  1
  O  O50  1  0.244796  0.986368  0.273093  1
  O  O51  1  0.908348  0.635452  0.023224  1
  O  O52  1  0.896127  0.668220  0.494455  1
  O  O53  1  0.997843  0.087967  0.834304  1
  O  O54  1  0.091929  0.364633  0.976892  1
  O  O55  1  0.887077  0.814150  0.868252  1
  O  O56  1  0.744611  0.513750  0.275196  1
  O  O57  1  0.113609  0.686192  0.367825  1
  O  O58  1  0.502051  0.588524  0.165941  1
  O  O59  1  0.408149  0.364943  0.476757  1
  O  O60  1  0.726052  0.240319  0.815222  1
  O  O61  1  0.886591  0.314109  0.632087  1
  O  O62  1  0.726063  0.740370  0.684839  1
  O  O63  1  0.212803  0.076823  0.960632  1
  O  O64  1  0.226244  0.259126  0.815736  1
  O  O65  1  0.286868  0.578294  0.040781  1
  O  O66  1  0.896075  0.168262  0.005521  1
  O  O67  1  0.774809  0.740709  0.184805  1
  O  O68  1  0.396111  0.831763  0.494506  1
  O  O69  1  0.596900  0.884476  0.876313  1
  O  O70  1  0.603899  0.168228  0.505494  1
  O  O71  1  0.997448  0.588078  0.665973  1
  O  O72  1  0.255277  0.986378  0.775626  1
  O  O73  1  0.097560  0.616212  0.876236  1
  O  O74  1  0.755374  0.513724  0.775284  1
  O  O75  1  0.405879  0.865605  0.023644  1
  O  O76  1  0.386677  0.686187  0.868114  1
  O  O77  1  0.213262  0.578412  0.540712  1
  O  O78  1  0.613464  0.814083  0.367901  1
  O  O79  1  0.004594  0.913006  0.164742  1
  O  O80  1  0.597316  0.384345  0.624134  1
  O  O81  1  0.104862  0.832504  0.995710  1
  O  O82  1  0.286462  0.077945  0.458679  1
  O  O83  1  0.786916  0.921605  0.040865  1
  O  O84  1  0.755415  0.013688  0.724794  1
  O  O85  1  0.902685  0.884352  0.375825  1
  O  O86  1  0.402642  0.615659  0.375813  1
  O  O87  1  0.713253  0.921615  0.540679  1
  O  O88  1  0.226113  0.759693  0.684878  1
  O  O89  1  0.400377  0.113905  0.123282  1
  O  O90  1  0.773913  0.240341  0.315167  1
  O  O91  1  0.274068  0.259489  0.315043  1
  O  O92  1  0.244370  0.486590  0.224392  1
  O  O93  1  0.745370  0.013661  0.224562  1
  O  O94  1  0.502245  0.088067  0.333933  1
  O  O95  1  0.091865  0.864912  0.523287  1
