# generated using pymatgen
data_Tm2Th(SnRu)3
_symmetry_space_group_name_H-M   'P 1'
_cell_length_a   7.63390100
_cell_length_b   7.38668073
_cell_length_c   3.98743500
_cell_angle_alpha   90.00000000
_cell_angle_beta   90.00000000
_cell_angle_gamma   121.11344594
_symmetry_Int_Tables_number   1
_chemical_formula_structural   Tm2Th(SnRu)3
_chemical_formula_sum   'Tm2 Th1 Sn3 Ru3'
_cell_volume   192.50287525
_cell_formula_units_Z   1
loop_
 _symmetry_equiv_pos_site_id
 _symmetry_equiv_pos_as_xyz
  1  'x, y, z'
loop_
 _atom_site_type_symbol
 _atom_site_label
 _atom_site_symmetry_multiplicity
 _atom_site_fract_x
 _atom_site_fract_y
 _atom_site_fract_z
 _atom_site_occupancy
  Tm  Tm0  1  0.999151  0.593768  0.500000  1
  Tm  Tm1  1  0.405382  0.406232  0.500000  1
  Th  Th2  1  0.581833  0.000000  0.500000  1
  Sn  Sn3  1  0.743091  0.726739  0.000000  1
  Sn  Sn4  1  0.016353  0.273261  0.000000  1
  Sn  Sn5  1  0.240182  0.000000  0.000000  1
  Ru  Ru6  1  0.354744  0.689434  0.000000  1
  Ru  Ru7  1  0.993954  0.000000  0.500000  1
  Ru  Ru8  1  0.665311  0.310566  0.000000  1
