# generated using pymatgen
data_Tb2PrRuO7
_symmetry_space_group_name_H-M   'P 1'
_cell_length_a   6.48996281
_cell_length_b   6.48996196
_cell_length_c   7.53593500
_cell_angle_alpha   90.00000000
_cell_angle_beta   90.00000000
_cell_angle_gamma   110.36845975
_symmetry_Int_Tables_number   1
_chemical_formula_structural   Tb2PrRuO7
_chemical_formula_sum   'Tb4 Pr2 Ru2 O14'
_cell_volume   297.56415194
_cell_formula_units_Z   2
loop_
 _symmetry_equiv_pos_site_id
 _symmetry_equiv_pos_as_xyz
  1  'x, y, z'
loop_
 _atom_site_type_symbol
 _atom_site_label
 _atom_site_symmetry_multiplicity
 _atom_site_fract_x
 _atom_site_fract_y
 _atom_site_fract_z
 _atom_site_occupancy
  Tb  Tb0  1  0.520475  0.073907  0.250000  1
  Tb  Tb1  1  0.926093  0.479525  0.750000  1
  Tb  Tb2  1  0.479525  0.926093  0.750000  1
  Tb  Tb3  1  0.073907  0.520475  0.250000  1
  Pr  Pr4  1  0.000000  0.000000  0.500000  1
  Pr  Pr5  1  0.000000  0.000000  0.000000  1
  Ru  Ru6  1  0.500000  0.500000  0.500000  1
  Ru  Ru7  1  0.500000  0.500000  0.000000  1
  O  O8  1  0.440849  0.183257  0.537485  1
  O  O9  1  0.816743  0.559151  0.462515  1
  O  O10  1  0.440849  0.183257  0.962515  1
  O  O11  1  0.816743  0.559151  0.037485  1
  O  O12  1  0.559151  0.816743  0.462515  1
  O  O13  1  0.183257  0.440849  0.537485  1
  O  O14  1  0.559151  0.816743  0.037485  1
  O  O15  1  0.183257  0.440849  0.962515  1
  O  O16  1  0.163544  0.884672  0.250000  1
  O  O17  1  0.115328  0.836456  0.750000  1
  O  O18  1  0.836456  0.115328  0.750000  1
  O  O19  1  0.884672  0.163544  0.250000  1
  O  O20  1  0.411802  0.411802  0.250000  1
  O  O21  1  0.588198  0.588198  0.750000  1
