# generated using pymatgen
data_Tb4Er4Re3B24Ru
_symmetry_space_group_name_H-M   'P 1'
_cell_length_a   3.67018800
_cell_length_b   9.15159681
_cell_length_c   11.54652807
_cell_angle_alpha   90.09683213
_cell_angle_beta   90.00000000
_cell_angle_gamma   90.00000000
_symmetry_Int_Tables_number   1
_chemical_formula_structural   Tb4Er4Re3B24Ru
_chemical_formula_sum   'Tb4 Er4 Re3 B24 Ru1'
_cell_volume   387.82516393
_cell_formula_units_Z   1
loop_
 _symmetry_equiv_pos_site_id
 _symmetry_equiv_pos_as_xyz
  1  'x, y, z'
loop_
 _atom_site_type_symbol
 _atom_site_label
 _atom_site_symmetry_multiplicity
 _atom_site_fract_x
 _atom_site_fract_y
 _atom_site_fract_z
 _atom_site_occupancy
  Tb  Tb0  1  0.000000  0.321569  0.414173  1
  Tb  Tb1  1  0.000000  0.677569  0.587573  1
  Tb  Tb2  1  0.000000  0.824424  0.084301  1
  Tb  Tb3  1  0.000000  0.177115  0.913657  1
  Er  Er4  1  0.000000  0.941715  0.369733  1
  Er  Er5  1  0.000000  0.056444  0.629248  1
  Er  Er6  1  0.000000  0.443079  0.130469  1
  Er  Er7  1  0.000000  0.556971  0.871027  1
  Re  Re8  1  0.000000  0.361964  0.678649  1
  Re  Re9  1  0.000000  0.138410  0.180022  1
  Re  Re10  1  0.000000  0.861638  0.820412  1
  B  B11  1  0.500000  0.554168  0.432316  1
  B  B12  1  0.500000  0.446852  0.567108  1
  B  B13  1  0.500000  0.053479  0.067163  1
  B  B14  1  0.500000  0.946870  0.932490  1
  B  B15  1  0.500000  0.748782  0.418055  1
  B  B16  1  0.500000  0.250215  0.581466  1
  B  B17  1  0.500000  0.249849  0.081807  1
  B  B18  1  0.500000  0.750928  0.918405  1
  B  B19  1  0.500000  0.790802  0.265607  1
  B  B20  1  0.500000  0.208035  0.734070  1
  B  B21  1  0.500000  0.291794  0.234883  1
  B  B22  1  0.500000  0.707943  0.765974  1
  B  B23  1  0.500000  0.630900  0.185783  1
  B  B24  1  0.500000  0.369974  0.814146  1
  B  B25  1  0.500000  0.130305  0.314970  1
  B  B26  1  0.500000  0.869333  0.685461  1
  B  B27  1  0.500000  0.982262  0.212196  1
  B  B28  1  0.500000  0.017768  0.787240  1
  B  B29  1  0.500000  0.483562  0.287932  1
  B  B30  1  0.500000  0.518238  0.712389  1
  B  B31  1  0.500000  0.600892  0.028614  1
  B  B32  1  0.500000  0.399734  0.972575  1
  B  B33  1  0.500000  0.099345  0.471754  1
  B  B34  1  0.500000  0.898511  0.527772  1
  Ru  Ru35  1  0.000000  0.638562  0.320562  1
