# generated using pymatgen
data_TbTm3(Si3Ni5)4
_symmetry_space_group_name_H-M   'P 1'
_cell_length_a   3.79593000
_cell_length_b   18.73238229
_cell_length_c   6.54582204
_cell_angle_alpha   90.01629384
_cell_angle_beta   90.00000000
_cell_angle_gamma   90.00000000
_symmetry_Int_Tables_number   1
_chemical_formula_structural   TbTm3(Si3Ni5)4
_chemical_formula_sum   'Tb1 Tm3 Si12 Ni20'
_cell_volume   465.45251761
_cell_formula_units_Z   1
loop_
 _symmetry_equiv_pos_site_id
 _symmetry_equiv_pos_as_xyz
  1  'x, y, z'
loop_
 _atom_site_type_symbol
 _atom_site_label
 _atom_site_symmetry_multiplicity
 _atom_site_fract_x
 _atom_site_fract_y
 _atom_site_fract_z
 _atom_site_occupancy
  Tb  Tb0  1  0.750000  0.643702  0.124399  1
  Tm  Tm1  1  0.250000  0.355504  0.876974  1
  Tm  Tm2  1  0.250000  0.856290  0.622985  1
  Tm  Tm3  1  0.750000  0.144115  0.376422  1
  Si  Si4  1  0.750000  0.738320  0.617456  1
  Si  Si5  1  0.250000  0.261855  0.382434  1
  Si  Si6  1  0.250000  0.763227  0.117434  1
  Si  Si7  1  0.750000  0.237590  0.882576  1
  Si  Si8  1  0.750000  0.926038  0.344200  1
  Si  Si9  1  0.250000  0.074774  0.655660  1
  Si  Si10  1  0.250000  0.573740  0.841744  1
  Si  Si11  1  0.750000  0.425646  0.155868  1
  Si  Si12  1  0.750000  0.914006  0.919715  1
  Si  Si13  1  0.250000  0.086658  0.079639  1
  Si  Si14  1  0.250000  0.586198  0.424462  1
  Si  Si15  1  0.750000  0.412223  0.579315  1
  Ni  Ni16  1  0.750000  0.801833  0.313045  1
  Ni  Ni17  1  0.250000  0.198825  0.687524  1
  Ni  Ni18  1  0.250000  0.699616  0.811636  1
  Ni  Ni19  1  0.750000  0.300937  0.187073  1
  Ni  Ni20  1  0.750000  0.994870  0.633805  1
  Ni  Ni21  1  0.250000  0.005788  0.365787  1
  Ni  Ni22  1  0.250000  0.505074  0.134795  1
  Ni  Ni23  1  0.750000  0.493892  0.864440  1
  Ni  Ni24  1  0.750000  0.515450  0.388203  1
  Ni  Ni25  1  0.250000  0.482084  0.615486  1
  Ni  Ni26  1  0.250000  0.983868  0.884600  1
  Ni  Ni27  1  0.750000  0.016571  0.114827  1
  Ni  Ni28  1  0.750000  0.793766  0.926165  1
  Ni  Ni29  1  0.250000  0.207031  0.073072  1
  Ni  Ni30  1  0.250000  0.707698  0.427322  1
  Ni  Ni31  1  0.750000  0.292064  0.573146  1
  Ni  Ni32  1  0.750000  0.616472  0.645653  1
  Ni  Ni33  1  0.250000  0.383426  0.352319  1
  Ni  Ni34  1  0.250000  0.884697  0.146366  1
  Ni  Ni35  1  0.750000  0.116154  0.853452  1
