# generated using pymatgen
data_YHoTaB2Ru5
_symmetry_space_group_name_H-M   'P 1'
_cell_length_a   9.68148572
_cell_length_b   9.68148572
_cell_length_c   3.13618800
_cell_angle_alpha   90.00000000
_cell_angle_beta   90.00000000
_cell_angle_gamma   90.13497954
_symmetry_Int_Tables_number   1
_chemical_formula_structural   YHoTaB2Ru5
_chemical_formula_sum   'Y2 Ho2 Ta2 B4 Ru10'
_cell_volume   293.95774130
_cell_formula_units_Z   2
loop_
 _symmetry_equiv_pos_site_id
 _symmetry_equiv_pos_as_xyz
  1  'x, y, z'
loop_
 _atom_site_type_symbol
 _atom_site_label
 _atom_site_symmetry_multiplicity
 _atom_site_fract_x
 _atom_site_fract_y
 _atom_site_fract_z
 _atom_site_occupancy
  Y  Y0  1  0.825058  0.674942  0.000000  1
  Y  Y1  1  0.174942  0.325058  0.000000  1
  Ho  Ho2  1  0.325463  0.825463  0.000000  1
  Ho  Ho3  1  0.674537  0.174537  0.000000  1
  Ta  Ta4  1  0.500000  0.500000  0.000000  1
  Ta  Ta5  1  0.000000  0.000000  0.000000  1
  B  B6  1  0.620419  0.879581  0.000000  1
  B  B7  1  0.379581  0.120419  0.000000  1
  B  B8  1  0.120728  0.620728  0.000000  1
  B  B9  1  0.879272  0.379272  0.000000  1
  Ru  Ru10  1  0.570120  0.718554  0.500000  1
  Ru  Ru11  1  0.429880  0.281446  0.500000  1
  Ru  Ru12  1  0.072415  0.782063  0.500000  1
  Ru  Ru13  1  0.927585  0.217937  0.500000  1
  Ru  Ru14  1  0.282063  0.572415  0.500000  1
  Ru  Ru15  1  0.717937  0.427585  0.500000  1
  Ru  Ru16  1  0.218554  0.070120  0.500000  1
  Ru  Ru17  1  0.781446  0.929880  0.500000  1
  Ru  Ru18  1  0.500000  0.000000  0.500000  1
  Ru  Ru19  1  0.000000  0.500000  0.500000  1
