# generated using pymatgen
data_Ba2MnCrF10
_symmetry_space_group_name_H-M   'P 1'
_cell_length_a   5.17103300
_cell_length_b   5.83101175
_cell_length_c   14.25515845
_cell_angle_alpha   92.23391746
_cell_angle_beta   90.00000000
_cell_angle_gamma   90.00000000
_symmetry_Int_Tables_number   1
_chemical_formula_structural   Ba2MnCrF10
_chemical_formula_sum   'Ba4 Mn2 Cr2 F20'
_cell_volume   429.49992547
_cell_formula_units_Z   2
loop_
 _symmetry_equiv_pos_site_id
 _symmetry_equiv_pos_as_xyz
  1  'x, y, z'
loop_
 _atom_site_type_symbol
 _atom_site_label
 _atom_site_symmetry_multiplicity
 _atom_site_fract_x
 _atom_site_fract_y
 _atom_site_fract_z
 _atom_site_occupancy
  Ba  Ba0  1  0.737902  0.657661  0.660893  1
  Ba  Ba1  1  0.237902  0.842339  0.339107  1
  Ba  Ba2  1  0.251829  0.149348  0.844270  1
  Ba  Ba3  1  0.751829  0.350652  0.155730  1
  Mn  Mn4  1  0.318407  0.133734  0.586367  1
  Mn  Mn5  1  0.818407  0.366266  0.413633  1
  Cr  Cr6  1  0.677349  0.643168  0.913984  1
  Cr  Cr7  1  0.177349  0.856832  0.086016  1
  F  F8  1  0.975166  0.613442  0.479139  1
  F  F9  1  0.475166  0.886558  0.520861  1
  F  F10  1  0.041999  0.114022  0.021036  1
  F  F11  1  0.541999  0.385978  0.978964  1
  F  F12  1  0.652297  0.588555  0.320577  1
  F  F13  1  0.152297  0.911445  0.679423  1
  F  F14  1  0.358902  0.060866  0.172486  1
  F  F15  1  0.858902  0.439134  0.827514  1
  F  F16  1  0.174937  0.386340  0.653255  1
  F  F17  1  0.674937  0.113660  0.346745  1
  F  F18  1  0.796002  0.903191  0.844794  1
  F  F19  1  0.296002  0.596809  0.155206  1
  F  F20  1  0.595135  0.147005  0.675446  1
  F  F21  1  0.095135  0.352995  0.324554  1
  F  F22  1  0.396340  0.627280  0.826006  1
  F  F23  1  0.896340  0.872720  0.173994  1
  F  F24  1  0.552447  0.372813  0.507130  1
  F  F25  1  0.052447  0.127187  0.492870  1
  F  F26  1  0.471289  0.858621  0.995568  1
  F  F27  1  0.971289  0.641379  0.004432  1
