# generated using pymatgen
data_ErMgNi12P7
_symmetry_space_group_name_H-M   'P 1'
_cell_length_a   9.03736200
_cell_length_b   9.03736280
_cell_length_c   3.60988300
_cell_angle_alpha   90.00000000
_cell_angle_beta   90.00000000
_cell_angle_gamma   119.99999707
_symmetry_Int_Tables_number   1
_chemical_formula_structural   ErMgNi12P7
_chemical_formula_sum   'Er1 Mg1 Ni12 P7'
_cell_volume   255.33312856
_cell_formula_units_Z   1
loop_
 _symmetry_equiv_pos_site_id
 _symmetry_equiv_pos_as_xyz
  1  'x, y, z'
loop_
 _atom_site_type_symbol
 _atom_site_label
 _atom_site_symmetry_multiplicity
 _atom_site_fract_x
 _atom_site_fract_y
 _atom_site_fract_z
 _atom_site_occupancy
  Er  Er0  1  0.000000  0.000000  0.000000  1
  Mg  Mg1  1  0.333333  0.666667  0.500000  1
  Ni  Ni2  1  0.103008  0.398193  0.000000  1
  Ni  Ni3  1  0.295185  0.896992  0.000000  1
  Ni  Ni4  1  0.601807  0.704815  0.000000  1
  Ni  Ni5  1  0.821135  0.609641  0.000000  1
  Ni  Ni6  1  0.788507  0.178865  0.000000  1
  Ni  Ni7  1  0.390359  0.211493  0.000000  1
  Ni  Ni8  1  0.051153  0.763907  0.500000  1
  Ni  Ni9  1  0.712754  0.948847  0.500000  1
  Ni  Ni10  1  0.236093  0.287246  0.500000  1
  Ni  Ni11  1  0.879160  0.425166  0.500000  1
  Ni  Ni12  1  0.546006  0.120840  0.500000  1
  Ni  Ni13  1  0.574834  0.453994  0.500000  1
  P  P14  1  0.079086  0.627845  0.000000  1
  P  P15  1  0.548759  0.920914  0.000000  1
  P  P16  1  0.372155  0.451241  0.000000  1
  P  P17  1  0.780047  0.739644  0.500000  1
  P  P18  1  0.959597  0.219953  0.500000  1
  P  P19  1  0.260356  0.040403  0.500000  1
  P  P20  1  0.666667  0.333333  0.000000  1
