# generated using pymatgen
data_Tb2HoZn2Co9B4
_symmetry_space_group_name_H-M   'P 1'
_cell_length_a   5.12768880
_cell_length_b   5.12819142
_cell_length_c   9.72019000
_cell_angle_alpha   89.99995660
_cell_angle_beta   90.00002268
_cell_angle_gamma   119.92451922
_symmetry_Int_Tables_number   1
_chemical_formula_structural   Tb2HoZn2Co9B4
_chemical_formula_sum   'Tb2 Ho1 Zn2 Co9 B4'
_cell_volume   221.52415765
_cell_formula_units_Z   1
loop_
 _symmetry_equiv_pos_site_id
 _symmetry_equiv_pos_as_xyz
  1  'x, y, z'
loop_
 _atom_site_type_symbol
 _atom_site_label
 _atom_site_symmetry_multiplicity
 _atom_site_fract_x
 _atom_site_fract_y
 _atom_site_fract_z
 _atom_site_occupancy
  Tb  Tb0  1  0.999989  0.999999  0.000557  1
  Tb  Tb1  1  0.999998  0.000001  0.657581  1
  Ho  Ho2  1  0.999996  0.000001  0.342011  1
  Zn  Zn3  1  0.333354  0.666666  0.000294  1
  Zn  Zn4  1  0.666627  0.333333  0.000294  1
  Co  Co5  1  0.499996  0.000000  0.499540  1
  Co  Co6  1  0.499995  0.500000  0.499519  1
  Co  Co7  1  0.999995  0.500000  0.499532  1
  Co  Co8  1  0.499995  0.000000  0.211531  1
  Co  Co9  1  0.499995  0.500001  0.211572  1
  Co  Co10  1  0.999994  0.500000  0.211532  1
  Co  Co11  1  0.499997  0.000000  0.788877  1
  Co  Co12  1  0.499996  0.500001  0.788878  1
  Co  Co13  1  0.999995  0.499999  0.788894  1
  B  B14  1  0.333361  0.666645  0.350969  1
  B  B15  1  0.666629  0.333355  0.350969  1
  B  B16  1  0.666605  0.333426  0.648727  1
  B  B17  1  0.333386  0.666574  0.648727  1
