# generated using pymatgen
data_Ho3Er17(Cd3Ir)2
_symmetry_space_group_name_H-M   'P 1'
_cell_length_a   9.55780800
_cell_length_b   9.55780877
_cell_length_c   9.75123000
_cell_angle_alpha   90.00000000
_cell_angle_beta   90.00000000
_cell_angle_gamma   119.99999041
_symmetry_Int_Tables_number   1
_chemical_formula_structural   Ho3Er17(Cd3Ir)2
_chemical_formula_sum   'Ho3 Er17 Cd6 Ir2'
_cell_volume   771.44809855
_cell_formula_units_Z   1
loop_
 _symmetry_equiv_pos_site_id
 _symmetry_equiv_pos_as_xyz
  1  'x, y, z'
loop_
 _atom_site_type_symbol
 _atom_site_label
 _atom_site_symmetry_multiplicity
 _atom_site_fract_x
 _atom_site_fract_y
 _atom_site_fract_z
 _atom_site_occupancy
  Ho  Ho0  1  0.459146  0.540854  0.750000  1
  Ho  Ho1  1  0.459146  0.918292  0.750000  1
  Ho  Ho2  1  0.081708  0.540854  0.750000  1
  Er  Er3  1  0.000000  0.000000  0.499629  1
  Er  Er4  1  0.000000  0.000000  0.000371  1
  Er  Er5  1  0.541427  0.458573  0.250000  1
  Er  Er6  1  0.541427  0.082855  0.250000  1
  Er  Er7  1  0.917145  0.458573  0.250000  1
  Er  Er8  1  0.209158  0.790842  0.440187  1
  Er  Er9  1  0.209158  0.418317  0.440187  1
  Er  Er10  1  0.581683  0.790842  0.440187  1
  Er  Er11  1  0.790386  0.209614  0.558392  1
  Er  Er12  1  0.790386  0.580772  0.558392  1
  Er  Er13  1  0.419228  0.209614  0.558392  1
  Er  Er14  1  0.790386  0.209614  0.941608  1
  Er  Er15  1  0.790386  0.580772  0.941608  1
  Er  Er16  1  0.419228  0.209614  0.941608  1
  Er  Er17  1  0.209158  0.790842  0.059813  1
  Er  Er18  1  0.209158  0.418317  0.059813  1
  Er  Er19  1  0.581683  0.790842  0.059813  1
  Cd  Cd20  1  0.885268  0.114732  0.250000  1
  Cd  Cd21  1  0.885268  0.770538  0.250000  1
  Cd  Cd22  1  0.229462  0.114732  0.250000  1
  Cd  Cd23  1  0.114267  0.885733  0.750000  1
  Cd  Cd24  1  0.114267  0.228534  0.750000  1
  Cd  Cd25  1  0.771466  0.885733  0.750000  1
  Ir  Ir26  1  0.333333  0.666667  0.250000  1
  Ir  Ir27  1  0.666667  0.333333  0.750000  1
