# generated using pymatgen
data_Hf2Nb(SiRu)3
_symmetry_space_group_name_H-M   'P 1'
_cell_length_a   7.52044868
_cell_length_b   7.52044855
_cell_length_c   7.52044944
_cell_angle_alpha   126.89589518
_cell_angle_beta   121.70146986
_cell_angle_gamma   82.76978134
_symmetry_Int_Tables_number   1
_chemical_formula_structural   Hf2Nb(SiRu)3
_chemical_formula_sum   'Hf4 Nb2 Si6 Ru6'
_cell_volume   277.93406539
_cell_formula_units_Z   2
loop_
 _symmetry_equiv_pos_site_id
 _symmetry_equiv_pos_as_xyz
  1  'x, y, z'
loop_
 _atom_site_type_symbol
 _atom_site_label
 _atom_site_symmetry_multiplicity
 _atom_site_fract_x
 _atom_site_fract_y
 _atom_site_fract_z
 _atom_site_occupancy
  Hf  Hf0  1  0.555377  0.098120  0.042743  1
  Hf  Hf1  1  0.444623  0.487366  0.542743  1
  Hf  Hf2  1  0.969289  0.488617  0.019328  1
  Hf  Hf3  1  0.030711  0.050038  0.519328  1
  Nb  Nb4  1  0.753225  0.918970  0.665745  1
  Nb  Nb5  1  0.246775  0.912520  0.165745  1
  Si  Si6  1  0.777129  0.543170  0.266041  1
  Si  Si7  1  0.222871  0.488912  0.766041  1
  Si  Si8  1  0.343032  0.828026  0.498344  1
  Si  Si9  1  0.656968  0.155310  0.484993  1
  Si  Si10  1  0.829682  0.828026  0.984993  1
  Si  Si11  1  0.170318  0.155310  0.998344  1
  Ru  Ru12  1  0.500000  0.254451  0.754451  1
  Ru  Ru13  1  0.000000  0.254451  0.254451  1
  Ru  Ru14  1  0.152743  0.744702  0.647497  1
  Ru  Ru15  1  0.847257  0.494754  0.591959  1
  Ru  Ru16  1  0.597205  0.744702  0.091959  1
  Ru  Ru17  1  0.402795  0.494754  0.147497  1
