# generated using pymatgen
data_Ba8Fe7OsO24
_symmetry_space_group_name_H-M   'P 1'
_cell_length_a   8.13839640
_cell_length_b   8.13839679
_cell_length_c   8.13839500
_cell_angle_alpha   89.95601295
_cell_angle_beta   89.95601295
_cell_angle_gamma   89.95600735
_symmetry_Int_Tables_number   1
_chemical_formula_structural   Ba8Fe7OsO24
_chemical_formula_sum   'Ba8 Fe7 Os1 O24'
_cell_volume   539.03390199
_cell_formula_units_Z   1
loop_
 _symmetry_equiv_pos_site_id
 _symmetry_equiv_pos_as_xyz
  1  'x, y, z'
loop_
 _atom_site_type_symbol
 _atom_site_label
 _atom_site_symmetry_multiplicity
 _atom_site_fract_x
 _atom_site_fract_y
 _atom_site_fract_z
 _atom_site_occupancy
  Ba  Ba0  1  0.757353  0.757353  0.757353  1
  Ba  Ba1  1  0.757706  0.242615  0.757706  1
  Ba  Ba2  1  0.757694  0.242805  0.242805  1
  Ba  Ba3  1  0.757706  0.757706  0.242615  1
  Ba  Ba4  1  0.242805  0.242805  0.757694  1
  Ba  Ba5  1  0.242537  0.242537  0.242537  1
  Ba  Ba6  1  0.242615  0.757706  0.757706  1
  Ba  Ba7  1  0.242805  0.757694  0.242805  1
  Fe  Fe8  1  0.499864  0.000439  0.000439  1
  Fe  Fe9  1  0.500136  0.001144  0.500136  1
  Fe  Fe10  1  0.500136  0.500136  0.001144  1
  Fe  Fe11  1  0.000246  0.000246  0.000246  1
  Fe  Fe12  1  0.000439  0.000439  0.499864  1
  Fe  Fe13  1  0.000439  0.499864  0.000439  1
  Fe  Fe14  1  0.001144  0.500136  0.500136  1
  Os  Os15  1  0.499724  0.499724  0.499724  1
  O  O16  1  0.747449  0.999905  0.999905  1
  O  O17  1  0.742638  0.000442  0.499834  1
  O  O18  1  0.742638  0.499834  0.000442  1
  O  O19  1  0.730614  0.499349  0.499349  1
  O  O20  1  0.252441  0.000103  0.000103  1
  O  O21  1  0.257017  0.000255  0.499826  1
  O  O22  1  0.257017  0.499826  0.000255  1
  O  O23  1  0.268543  0.499433  0.499433  1
  O  O24  1  0.499826  0.257017  0.000255  1
  O  O25  1  0.499433  0.268543  0.499433  1
  O  O26  1  0.499834  0.742638  0.000442  1
  O  O27  1  0.499349  0.730614  0.499349  1
  O  O28  1  0.000103  0.252441  0.000103  1
  O  O29  1  0.000255  0.257017  0.499826  1
  O  O30  1  0.999905  0.747449  0.999905  1
  O  O31  1  0.000442  0.742638  0.499834  1
  O  O32  1  0.499834  0.000442  0.742638  1
  O  O33  1  0.499826  0.000255  0.257017  1
  O  O34  1  0.499349  0.499349  0.730614  1
  O  O35  1  0.499433  0.499433  0.268543  1
  O  O36  1  0.999905  0.999905  0.747449  1
  O  O37  1  0.000103  0.000103  0.252441  1
  O  O38  1  0.000442  0.499834  0.742638  1
  O  O39  1  0.000255  0.499826  0.257017  1
