# generated using pymatgen
data_Ca4TaTi2MoO12
_symmetry_space_group_name_H-M   'P 1'
_cell_length_a   5.48657766
_cell_length_b   5.64438812
_cell_length_c   7.81758270
_cell_angle_alpha   90.48862751
_cell_angle_beta   89.95101723
_cell_angle_gamma   90.14501326
_symmetry_Int_Tables_number   1
_chemical_formula_structural   Ca4TaTi2MoO12
_chemical_formula_sum   'Ca4 Ta1 Ti2 Mo1 O12'
_cell_volume   242.08816000
_cell_formula_units_Z   1
loop_
 _symmetry_equiv_pos_site_id
 _symmetry_equiv_pos_as_xyz
  1  'x, y, z'
loop_
 _atom_site_type_symbol
 _atom_site_label
 _atom_site_symmetry_multiplicity
 _atom_site_fract_x
 _atom_site_fract_y
 _atom_site_fract_z
 _atom_site_occupancy
  Ca  Ca0  1  0.009654  0.047395  0.762441  1
  Ca  Ca1  1  0.512681  0.446858  0.239976  1
  Ca  Ca2  1  0.487319  0.553142  0.760024  1
  Ca  Ca3  1  0.990346  0.952605  0.237559  1
  Ta  Ta4  1  0.000000  0.500000  0.500000  1
  Ti  Ti5  1  0.500000  0.000000  0.000000  1
  Ti  Ti6  1  0.000000  0.500000  0.000000  1
  Mo  Mo7  1  0.500000  0.000000  0.500000  1
  O  O8  1  0.296513  0.313261  0.548704  1
  O  O9  1  0.815987  0.206485  0.446198  1
  O  O10  1  0.208036  0.784995  0.957112  1
  O  O11  1  0.714381  0.709163  0.044891  1
  O  O12  1  0.703487  0.686739  0.451296  1
  O  O13  1  0.184013  0.793515  0.553802  1
  O  O14  1  0.791964  0.215005  0.042888  1
  O  O15  1  0.285619  0.290837  0.955109  1
  O  O16  1  0.910266  0.471924  0.751841  1
  O  O17  1  0.411092  0.028695  0.236699  1
  O  O18  1  0.588908  0.971305  0.763301  1
  O  O19  1  0.089734  0.528076  0.248159  1
