# generated using pymatgen
data_Er8Lu11ScSi15Sn
_symmetry_space_group_name_H-M   'P 1'
_cell_length_a   7.28192942
_cell_length_b   7.58132818
_cell_length_c   14.34886960
_cell_angle_alpha   90.19114506
_cell_angle_beta   89.28537102
_cell_angle_gamma   90.02650877
_symmetry_Int_Tables_number   1
_chemical_formula_structural   Er8Lu11ScSi15Sn
_chemical_formula_sum   'Er8 Lu11 Sc1 Si15 Sn1'
_cell_volume   792.08759767
_cell_formula_units_Z   1
loop_
 _symmetry_equiv_pos_site_id
 _symmetry_equiv_pos_as_xyz
  1  'x, y, z'
loop_
 _atom_site_type_symbol
 _atom_site_label
 _atom_site_symmetry_multiplicity
 _atom_site_fract_x
 _atom_site_fract_y
 _atom_site_fract_z
 _atom_site_occupancy
  Er  Er0  1  0.013780  0.177198  0.096743  1
  Er  Er1  1  0.986918  0.823205  0.905876  1
  Er  Er2  1  0.485452  0.679719  0.904391  1
  Er  Er3  1  0.989119  0.827836  0.598582  1
  Er  Er4  1  0.512867  0.321422  0.096455  1
  Er  Er5  1  0.006142  0.171192  0.398494  1
  Er  Er6  1  0.513954  0.317737  0.399270  1
  Er  Er7  1  0.500113  0.687083  0.600109  1
  Lu  Lu8  1  0.164188  0.508198  0.754274  1
  Lu  Lu9  1  0.835189  0.491908  0.249066  1
  Lu  Lu10  1  0.334121  0.008666  0.248455  1
  Lu  Lu11  1  0.668124  0.990387  0.751856  1
  Lu  Lu12  1  0.343365  0.163443  0.628859  1
  Lu  Lu13  1  0.662149  0.823861  0.374094  1
  Lu  Lu14  1  0.160471  0.685523  0.369543  1
  Lu  Lu15  1  0.666515  0.820864  0.121717  1
  Lu  Lu16  1  0.826533  0.323205  0.625040  1
  Lu  Lu17  1  0.330822  0.178252  0.878862  1
  Lu  Lu18  1  0.830529  0.322261  0.878006  1
  Sc  Sc19  1  0.169094  0.678711  0.125278  1
  Si  Si20  1  0.038012  0.111479  0.751881  1
  Si  Si21  1  0.961498  0.890606  0.245039  1
  Si  Si22  1  0.461283  0.607362  0.245755  1
  Si  Si23  1  0.534365  0.393957  0.753015  1
  Si  Si24  1  0.285206  0.868242  0.753435  1
  Si  Si25  1  0.714583  0.128823  0.246697  1
  Si  Si26  1  0.214437  0.371608  0.247408  1
  Si  Si27  1  0.786884  0.630982  0.752188  1
  Si  Si28  1  0.825651  0.535440  0.458980  1
  Si  Si29  1  0.330946  0.967566  0.459246  1
  Si  Si30  1  0.848994  0.532252  0.040813  1
  Si  Si31  1  0.670601  0.033604  0.538274  1
  Si  Si32  1  0.158159  0.471084  0.965037  1
  Si  Si33  1  0.659567  0.032222  0.961165  1
  Si  Si34  1  0.333005  0.962479  0.040185  1
  Sn  Sn35  1  0.177364  0.461621  0.535912  1
