# generated using pymatgen
data_Y4Al9Si9IrOs5
_symmetry_space_group_name_H-M   'P 1'
_cell_length_a   7.45193716
_cell_length_b   7.44119847
_cell_length_c   9.29504437
_cell_angle_alpha   90.00683257
_cell_angle_beta   90.09412025
_cell_angle_gamma   119.99606570
_symmetry_Int_Tables_number   1
_chemical_formula_structural   Y4Al9Si9IrOs5
_chemical_formula_sum   'Y4 Al9 Si9 Ir1 Os5'
_cell_volume   446.38597920
_cell_formula_units_Z   1
loop_
 _symmetry_equiv_pos_site_id
 _symmetry_equiv_pos_as_xyz
  1  'x, y, z'
loop_
 _atom_site_type_symbol
 _atom_site_label
 _atom_site_symmetry_multiplicity
 _atom_site_fract_x
 _atom_site_fract_y
 _atom_site_fract_z
 _atom_site_occupancy
  Y  Y0  1  0.996680  0.668202  0.251584  1
  Y  Y1  1  0.996669  0.325468  0.750322  1
  Y  Y2  1  0.679219  0.004250  0.251979  1
  Y  Y3  1  0.328455  0.998191  0.748121  1
  Al  Al4  1  0.336439  0.006040  0.072657  1
  Al  Al5  1  0.336026  0.337737  0.563240  1
  Al  Al6  1  0.660408  0.662989  0.437332  1
  Al  Al7  1  0.661235  0.661382  0.059057  1
  Al  Al8  1  0.338210  0.334420  0.938467  1
  Al  Al9  1  0.334055  0.547511  0.249053  1
  Al  Al10  1  0.668985  0.456989  0.751551  1
  Al  Al11  1  0.546611  0.335192  0.248379  1
  Al  Al12  1  0.454725  0.664686  0.749518  1
  Si  Si13  1  0.129671  0.127063  0.248403  1
  Si  Si14  1  0.870222  0.870692  0.749712  1
  Si  Si15  1  0.009177  0.336791  0.066995  1
  Si  Si16  1  0.997489  0.668143  0.934894  1
  Si  Si17  1  0.993325  0.666758  0.571078  1
  Si  Si18  1  0.334041  0.006355  0.424660  1
  Si  Si19  1  0.011128  0.337542  0.429804  1
  Si  Si20  1  0.662834  0.989379  0.571603  1
  Si  Si21  1  0.657341  0.992681  0.935605  1
  Ir  Ir22  1  0.679161  0.320710  0.500564  1
  Os  Os23  1  0.688336  0.327452  0.999869  1
  Os  Os24  1  0.319793  0.671636  0.997663  1
  Os  Os25  1  0.319300  0.680253  0.500136  1
  Os  Os26  1  0.991250  0.000407  0.998262  1
  Os  Os27  1  0.999217  0.001086  0.499492  1
