# generated using pymatgen
data_Zr3Sc5(Nb2Sn5)2
_symmetry_space_group_name_H-M   'P 1'
_cell_length_a   10.85527211
_cell_length_b   10.87623125
_cell_length_c   10.87623163
_cell_angle_alpha   149.33724479
_cell_angle_beta   131.55871257
_cell_angle_gamma   58.44605051
_symmetry_Int_Tables_number   1
_chemical_formula_structural   Zr3Sc5(Nb2Sn5)2
_chemical_formula_sum   'Zr3 Sc5 Nb4 Sn10'
_cell_volume   486.23832952
_cell_formula_units_Z   1
loop_
 _symmetry_equiv_pos_site_id
 _symmetry_equiv_pos_as_xyz
  1  'x, y, z'
loop_
 _atom_site_type_symbol
 _atom_site_label
 _atom_site_symmetry_multiplicity
 _atom_site_fract_x
 _atom_site_fract_y
 _atom_site_fract_z
 _atom_site_occupancy
  Zr  Zr0  1  0.673931  0.436053  0.237878  1
  Zr  Zr1  1  0.325456  0.563496  0.761960  1
  Zr  Zr2  1  0.199591  0.936492  0.263100  1
  Sc  Sc3  1  0.801694  0.064009  0.737684  1
  Sc  Sc4  1  0.258907  0.146525  0.112383  1
  Sc  Sc5  1  0.742038  0.853784  0.888253  1
  Sc  Sc6  1  0.034365  0.646278  0.388087  1
  Sc  Sc7  1  0.965706  0.353679  0.612027  1
  Nb  Nb8  1  0.308010  0.558088  0.250092  1
  Nb  Nb9  1  0.691422  0.441881  0.749599  1
  Nb  Nb10  1  0.691422  0.941824  0.249541  1
  Nb  Nb11  1  0.308010  0.057918  0.749922  1
  Sn  Sn12  1  0.586106  0.287441  0.298665  1
  Sn  Sn13  1  0.413736  0.712577  0.701160  1
  Sn  Sn14  1  0.988684  0.787739  0.200944  1
  Sn  Sn15  1  0.010140  0.211897  0.798243  1
  Sn  Sn16  1  0.999470  0.249461  0.249540  1
  Sn  Sn17  1  0.999470  0.749930  0.750009  1
  Sn  Sn18  1  0.468497  0.070796  0.397699  1
  Sn  Sn19  1  0.533196  0.929841  0.603356  1
  Sn  Sn20  1  0.673467  0.571112  0.102355  1
  Sn  Sn21  1  0.326680  0.429177  0.897503  1
