# generated using pymatgen
data_TbY2Pa(TcB6)2
_symmetry_space_group_name_H-M   'P 1'
_cell_length_a   3.71135900
_cell_length_b   9.18436001
_cell_length_c   11.55261322
_cell_angle_alpha   89.63310205
_cell_angle_beta   90.00000000
_cell_angle_gamma   90.00000000
_symmetry_Int_Tables_number   1
_chemical_formula_structural   TbY2Pa(TcB6)2
_chemical_formula_sum   'Tb2 Y4 Pa2 Tc4 B24'
_cell_volume   393.77958229
_cell_formula_units_Z   2
loop_
 _symmetry_equiv_pos_site_id
 _symmetry_equiv_pos_as_xyz
  1  'x, y, z'
loop_
 _atom_site_type_symbol
 _atom_site_label
 _atom_site_symmetry_multiplicity
 _atom_site_fract_x
 _atom_site_fract_y
 _atom_site_fract_z
 _atom_site_occupancy
  Tb  Tb0  1  0.000000  0.324606  0.414172  1
  Tb  Tb1  1  0.000000  0.675394  0.585828  1
  Y  Y2  1  0.000000  0.444661  0.127354  1
  Y  Y3  1  0.000000  0.555339  0.872646  1
  Y  Y4  1  0.000000  0.943628  0.373061  1
  Y  Y5  1  0.000000  0.056372  0.626939  1
  Pa  Pa6  1  0.000000  0.822601  0.087143  1
  Pa  Pa7  1  0.000000  0.177399  0.912857  1
  Tc  Tc8  1  0.000000  0.134845  0.174606  1
  Tc  Tc9  1  0.000000  0.865155  0.825394  1
  Tc  Tc10  1  0.000000  0.640898  0.317929  1
  Tc  Tc11  1  0.000000  0.359102  0.682071  1
  B  B12  1  0.500000  0.052957  0.066849  1
  B  B13  1  0.500000  0.947043  0.933152  1
  B  B14  1  0.500000  0.553582  0.432177  1
  B  B15  1  0.500000  0.446418  0.567822  1
  B  B16  1  0.500000  0.246984  0.079879  1
  B  B17  1  0.500000  0.753016  0.920121  1
  B  B18  1  0.500000  0.747346  0.419475  1
  B  B19  1  0.500000  0.252654  0.580525  1
  B  B20  1  0.500000  0.290955  0.233715  1
  B  B21  1  0.500000  0.709045  0.766285  1
  B  B22  1  0.500000  0.792177  0.265978  1
  B  B23  1  0.500000  0.207823  0.734022  1
  B  B24  1  0.500000  0.131604  0.313819  1
  B  B25  1  0.500000  0.868396  0.686181  1
  B  B26  1  0.500000  0.633133  0.185910  1
  B  B27  1  0.500000  0.366867  0.814090  1
  B  B28  1  0.500000  0.482818  0.287512  1
  B  B29  1  0.500000  0.517182  0.712488  1
  B  B30  1  0.500000  0.983059  0.212736  1
  B  B31  1  0.500000  0.016941  0.787264  1
  B  B32  1  0.500000  0.106258  0.470156  1
  B  B33  1  0.500000  0.893742  0.529844  1
  B  B34  1  0.500000  0.614250  0.031529  1
  B  B35  1  0.500000  0.385750  0.968471  1
