# generated using pymatgen
data_Tb2NdCu2Ir7
_symmetry_space_group_name_H-M   'P 1'
_cell_length_a   9.02001331
_cell_length_b   9.02001398
_cell_length_c   9.02001400
_cell_angle_alpha   34.65568589
_cell_angle_beta   34.65567973
_cell_angle_gamma   34.65567953
_symmetry_Int_Tables_number   1
_chemical_formula_structural   Tb2NdCu2Ir7
_chemical_formula_sum   'Tb2 Nd1 Cu2 Ir7'
_cell_volume   211.75843110
_cell_formula_units_Z   1
loop_
 _symmetry_equiv_pos_site_id
 _symmetry_equiv_pos_as_xyz
  1  'x, y, z'
loop_
 _atom_site_type_symbol
 _atom_site_label
 _atom_site_symmetry_multiplicity
 _atom_site_fract_x
 _atom_site_fract_y
 _atom_site_fract_z
 _atom_site_occupancy
  Tb  Tb0  1  0.859051  0.859051  0.859051  1
  Tb  Tb1  1  0.140949  0.140949  0.140949  1
  Nd  Nd2  1  0.000000  0.000000  0.000000  1
  Cu  Cu3  1  0.665577  0.665577  0.665577  1
  Cu  Cu4  1  0.334423  0.334423  0.334423  1
  Ir  Ir5  1  0.414593  0.414593  0.922481  1
  Ir  Ir6  1  0.922481  0.414593  0.414593  1
  Ir  Ir7  1  0.414593  0.922481  0.414593  1
  Ir  Ir8  1  0.500000  0.500000  0.500000  1
  Ir  Ir9  1  0.585407  0.077519  0.585407  1
  Ir  Ir10  1  0.077519  0.585407  0.585407  1
  Ir  Ir11  1  0.585407  0.585407  0.077519  1
