# generated using pymatgen
data_Tb3Ho13(HgPd)4
_symmetry_space_group_name_H-M   'P 1'
_cell_length_a   9.63459290
_cell_length_b   9.63473888
_cell_length_c   9.62681700
_cell_angle_alpha   60.02769702
_cell_angle_beta   60.02723386
_cell_angle_gamma   60.05621942
_symmetry_Int_Tables_number   1
_chemical_formula_structural   Tb3Ho13(HgPd)4
_chemical_formula_sum   'Tb3 Ho13 Hg4 Pd4'
_cell_volume   632.41991902
_cell_formula_units_Z   1
loop_
 _symmetry_equiv_pos_site_id
 _symmetry_equiv_pos_as_xyz
  1  'x, y, z'
loop_
 _atom_site_type_symbol
 _atom_site_label
 _atom_site_symmetry_multiplicity
 _atom_site_fract_x
 _atom_site_fract_y
 _atom_site_fract_z
 _atom_site_occupancy
  Tb  Tb0  1  0.356589  0.356592  0.354016  1
  Tb  Tb1  1  0.356581  0.356594  0.932806  1
  Tb  Tb2  1  0.359926  0.925875  0.357099  1
  Ho  Ho3  1  0.925991  0.359884  0.357061  1
  Ho  Ho4  1  0.811949  0.188711  0.188888  1
  Ho  Ho5  1  0.188677  0.811957  0.810607  1
  Ho  Ho6  1  0.188668  0.811969  0.188753  1
  Ho  Ho7  1  0.811951  0.188709  0.810450  1
  Ho  Ho8  1  0.189658  0.189565  0.810388  1
  Ho  Ho9  1  0.812156  0.812026  0.187910  1
  Ho  Ho10  1  0.935153  0.565126  0.565201  1
  Ho  Ho11  1  0.565194  0.935126  0.934378  1
  Ho  Ho12  1  0.565198  0.935116  0.565310  1
  Ho  Ho13  1  0.935154  0.565130  0.934517  1
  Ho  Ho14  1  0.566239  0.566300  0.933728  1
  Ho  Ho15  1  0.935655  0.935770  0.564285  1
  Hg  Hg16  1  0.586608  0.586213  0.588746  1
  Hg  Hg17  1  0.586614  0.586210  0.238428  1
  Hg  Hg18  1  0.585849  0.238194  0.587979  1
  Hg  Hg19  1  0.238164  0.585593  0.588127  1
  Pd  Pd20  1  0.144591  0.145299  0.147942  1
  Pd  Pd21  1  0.144591  0.145299  0.562169  1
  Pd  Pd22  1  0.142671  0.565720  0.145809  1
  Pd  Pd23  1  0.566173  0.143023  0.145405  1
