# generated using pymatgen
data_Sm5GdTeO12
_symmetry_space_group_name_H-M   'P 1'
_cell_length_a   6.63272616
_cell_length_b   6.65038786
_cell_length_c   6.64604226
_cell_angle_alpha   98.66648848
_cell_angle_beta   98.55699758
_cell_angle_gamma   98.75395552
_symmetry_Int_Tables_number   1
_chemical_formula_structural   Sm5GdTeO12
_chemical_formula_sum   'Sm5 Gd1 Te1 O12'
_cell_volume   281.97628323
_cell_formula_units_Z   1
loop_
 _symmetry_equiv_pos_site_id
 _symmetry_equiv_pos_as_xyz
  1  'x, y, z'
loop_
 _atom_site_type_symbol
 _atom_site_label
 _atom_site_symmetry_multiplicity
 _atom_site_fract_x
 _atom_site_fract_y
 _atom_site_fract_z
 _atom_site_occupancy
  Sm  Sm0  1  0.855356  0.390586  0.687423  1
  Sm  Sm1  1  0.610088  0.313017  0.144874  1
  Sm  Sm2  1  0.311882  0.144303  0.609090  1
  Sm  Sm3  1  0.687680  0.855077  0.390124  1
  Sm  Sm4  1  0.389550  0.687549  0.855486  1
  Gd  Gd5  1  0.146140  0.608250  0.314965  1
  Te  Te6  1  0.000254  0.000077  0.000334  1
  O  O7  1  0.929075  0.033668  0.708334  1
  O  O8  1  0.967498  0.292428  0.071505  1
  O  O9  1  0.593368  0.177603  0.436453  1
  O  O10  1  0.825446  0.564660  0.406073  1
  O  O11  1  0.292674  0.070862  0.966524  1
  O  O12  1  0.563226  0.407732  0.822945  1
  O  O13  1  0.433813  0.592384  0.178835  1
  O  O14  1  0.707161  0.929177  0.033302  1
  O  O15  1  0.177793  0.436423  0.590816  1
  O  O16  1  0.405608  0.821786  0.562842  1
  O  O17  1  0.032618  0.708206  0.928216  1
  O  O18  1  0.070768  0.966213  0.291860  1
