# generated using pymatgen
data_BaCrRe(Sb6Pt)2
_symmetry_space_group_name_H-M   'P 1'
_cell_length_a   8.24783013
_cell_length_b   8.26850876
_cell_length_c   8.26239485
_cell_angle_alpha   109.38402562
_cell_angle_beta   109.26562383
_cell_angle_gamma   109.54655063
_symmetry_Int_Tables_number   1
_chemical_formula_structural   BaCrRe(Sb6Pt)2
_chemical_formula_sum   'Ba1 Cr1 Re1 Sb12 Pt2'
_cell_volume   434.91969328
_cell_formula_units_Z   1
loop_
 _symmetry_equiv_pos_site_id
 _symmetry_equiv_pos_as_xyz
  1  'x, y, z'
loop_
 _atom_site_type_symbol
 _atom_site_label
 _atom_site_symmetry_multiplicity
 _atom_site_fract_x
 _atom_site_fract_y
 _atom_site_fract_z
 _atom_site_occupancy
  Ba  Ba0  1  0.000000  0.000000  0.000000  1
  Cr  Cr1  1  0.000000  0.000000  0.500000  1
  Re  Re2  1  0.500000  0.000000  0.000000  1
  Sb  Sb3  1  0.161087  0.825809  0.663013  1
  Sb  Sb4  1  0.153423  0.502123  0.348659  1
  Sb  Sb5  1  0.499076  0.660412  0.848544  1
  Sb  Sb6  1  0.348210  0.847627  0.188590  1
  Sb  Sb7  1  0.816014  0.663814  0.164430  1
  Sb  Sb8  1  0.663542  0.847925  0.500671  1
  Sb  Sb9  1  0.183986  0.336186  0.835570  1
  Sb  Sb10  1  0.651790  0.152373  0.811410  1
  Sb  Sb11  1  0.336458  0.152075  0.499329  1
  Sb  Sb12  1  0.500924  0.339588  0.151456  1
  Sb  Sb13  1  0.846577  0.497877  0.651341  1
  Sb  Sb14  1  0.838913  0.174191  0.336987  1
  Pt  Pt15  1  0.500000  0.500000  0.500000  1
  Pt  Pt16  1  0.000000  0.500000  0.000000  1
