# generated using pymatgen
data_Pr8ZnCdPd23
_symmetry_space_group_name_H-M   'P 1'
_cell_length_a   8.51009000
_cell_length_b   8.63710900
_cell_length_c   8.63710900
_cell_angle_alpha   90.00000000
_cell_angle_beta   90.00000000
_cell_angle_gamma   90.00000000
_symmetry_Int_Tables_number   1
_chemical_formula_structural   Pr8ZnCdPd23
_chemical_formula_sum   'Pr8 Zn1 Cd1 Pd23'
_cell_volume   634.84975145
_cell_formula_units_Z   1
loop_
 _symmetry_equiv_pos_site_id
 _symmetry_equiv_pos_as_xyz
  1  'x, y, z'
loop_
 _atom_site_type_symbol
 _atom_site_label
 _atom_site_symmetry_multiplicity
 _atom_site_fract_x
 _atom_site_fract_y
 _atom_site_fract_z
 _atom_site_occupancy
  Pr  Pr0  1  0.249837  0.241188  0.241188  1
  Pr  Pr1  1  0.749207  0.749017  0.749017  1
  Pr  Pr2  1  0.749207  0.749017  0.250983  1
  Pr  Pr3  1  0.749207  0.250983  0.749017  1
  Pr  Pr4  1  0.249837  0.241188  0.758812  1
  Pr  Pr5  1  0.249837  0.758812  0.241188  1
  Pr  Pr6  1  0.249837  0.758812  0.758812  1
  Pr  Pr7  1  0.749207  0.250983  0.250983  1
  Zn  Zn8  1  0.998654  0.000000  0.000000  1
  Cd  Cd9  1  0.257274  0.500000  0.500000  1
  Pd  Pd10  1  0.261394  0.500000  0.000000  1
  Pd  Pd11  1  0.738159  0.500000  0.000000  1
  Pd  Pd12  1  0.003050  0.260279  0.500000  1
  Pd  Pd13  1  0.501477  0.263126  0.000000  1
  Pd  Pd14  1  0.003050  0.739721  0.500000  1
  Pd  Pd15  1  0.501477  0.736874  0.000000  1
  Pd  Pd16  1  0.501477  0.000000  0.263126  1
  Pd  Pd17  1  0.261394  0.000000  0.500000  1
  Pd  Pd18  1  0.501477  0.000000  0.736874  1
  Pd  Pd19  1  0.738159  0.000000  0.500000  1
  Pd  Pd20  1  0.003050  0.500000  0.260279  1
  Pd  Pd21  1  0.003050  0.500000  0.739721  1
  Pd  Pd22  1  0.746274  0.500000  0.500000  1
  Pd  Pd23  1  0.497107  0.251612  0.500000  1
  Pd  Pd24  1  0.497107  0.748388  0.500000  1
  Pd  Pd25  1  0.497107  0.500000  0.251612  1
  Pd  Pd26  1  0.497107  0.500000  0.748388  1
  Pd  Pd27  1  0.300509  0.000000  0.000000  1
  Pd  Pd28  1  0.701243  0.000000  0.000000  1
  Pd  Pd29  1  0.998557  0.296803  0.000000  1
  Pd  Pd30  1  0.998557  0.703197  0.000000  1
  Pd  Pd31  1  0.998557  0.000000  0.296803  1
  Pd  Pd32  1  0.998557  0.000000  0.703197  1
