# generated using pymatgen
data_Lu8Hf8ScSi16Mo3
_symmetry_space_group_name_H-M   'P 1'
_cell_length_a   7.14417659
_cell_length_b   7.14417610
_cell_length_c   13.02689218
_cell_angle_alpha   89.94497124
_cell_angle_beta   90.05502645
_cell_angle_gamma   89.84788640
_symmetry_Int_Tables_number   1
_chemical_formula_structural   Lu8Hf8ScSi16Mo3
_chemical_formula_sum   'Lu8 Hf8 Sc1 Si16 Mo3'
_cell_volume   664.87992159
_cell_formula_units_Z   1
loop_
 _symmetry_equiv_pos_site_id
 _symmetry_equiv_pos_as_xyz
  1  'x, y, z'
loop_
 _atom_site_type_symbol
 _atom_site_label
 _atom_site_symmetry_multiplicity
 _atom_site_fract_x
 _atom_site_fract_y
 _atom_site_fract_z
 _atom_site_occupancy
  Lu  Lu0  1  0.847060  0.499722  0.285694  1
  Lu  Lu1  1  0.152359  0.502460  0.781817  1
  Lu  Lu2  1  0.996428  0.654766  0.034831  1
  Lu  Lu3  1  0.001017  0.345153  0.534226  1
  Lu  Lu4  1  0.502460  0.152359  0.218183  1
  Lu  Lu5  1  0.499722  0.847060  0.714306  1
  Lu  Lu6  1  0.654766  0.996428  0.965169  1
  Lu  Lu7  1  0.345153  0.001017  0.465774  1
  Hf  Hf8  1  0.646695  0.496047  0.871824  1
  Hf  Hf9  1  0.355545  0.505634  0.377022  1
  Hf  Hf10  1  0.993597  0.857168  0.625171  1
  Hf  Hf11  1  0.003759  0.141527  0.127587  1
  Hf  Hf12  1  0.505634  0.355545  0.622978  1
  Hf  Hf13  1  0.496047  0.646695  0.128176  1
  Hf  Hf14  1  0.857168  0.993597  0.374829  1
  Hf  Hf15  1  0.141527  0.003759  0.872413  1
  Sc  Sc16  1  0.323946  0.323946  0.000000  1
  Si  Si17  1  0.707128  0.358539  0.069528  1
  Si  Si18  1  0.295873  0.643969  0.569273  1
  Si  Si19  1  0.857174  0.795788  0.818309  1
  Si  Si20  1  0.143191  0.204542  0.318951  1
  Si  Si21  1  0.643969  0.295873  0.430727  1
  Si  Si22  1  0.358539  0.707128  0.930472  1
  Si  Si23  1  0.795788  0.857174  0.181691  1
  Si  Si24  1  0.204542  0.143191  0.681049  1
  Si  Si25  1  0.797536  0.551371  0.682131  1
  Si  Si26  1  0.201301  0.452426  0.186751  1
  Si  Si27  1  0.050778  0.701877  0.434926  1
  Si  Si28  1  0.944406  0.295742  0.932084  1
  Si  Si29  1  0.452426  0.201301  0.813249  1
  Si  Si30  1  0.551371  0.797536  0.317869  1
  Si  Si31  1  0.701877  0.050778  0.565074  1
  Si  Si32  1  0.295742  0.944406  0.067916  1
  Mo  Mo33  1  0.822426  0.176045  0.748126  1
  Mo  Mo34  1  0.176045  0.822426  0.251874  1
  Mo  Mo35  1  0.677003  0.677003  0.500000  1
