# generated using pymatgen
data_Y3AlPt5
_symmetry_space_group_name_H-M   'P 1'
_cell_length_a   8.32203220
_cell_length_b   8.32203233
_cell_length_c   8.32203134
_cell_angle_alpha   128.86847011
_cell_angle_beta   125.91382722
_cell_angle_gamma   77.63712462
_symmetry_Int_Tables_number   1
_chemical_formula_structural   Y3AlPt5
_chemical_formula_sum   'Y6 Al2 Pt10'
_cell_volume   352.43241809
_cell_formula_units_Z   2
loop_
 _symmetry_equiv_pos_site_id
 _symmetry_equiv_pos_as_xyz
  1  'x, y, z'
loop_
 _atom_site_type_symbol
 _atom_site_label
 _atom_site_symmetry_multiplicity
 _atom_site_fract_x
 _atom_site_fract_y
 _atom_site_fract_z
 _atom_site_occupancy
  Y  Y0  1  0.828958  0.551561  0.277397  1
  Y  Y1  1  0.622394  0.250000  0.372394  1
  Y  Y2  1  0.171042  0.448439  0.722603  1
  Y  Y3  1  0.377606  0.750000  0.627606  1
  Y  Y4  1  0.225836  0.948439  0.277397  1
  Y  Y5  1  0.774164  0.051561  0.722603  1
  Al  Al6  1  0.227873  0.250000  0.977873  1
  Al  Al7  1  0.772127  0.750000  0.022127  1
  Pt  Pt8  1  0.168431  0.891331  0.854728  1
  Pt  Pt9  1  0.831569  0.108669  0.145272  1
  Pt  Pt10  1  0.463397  0.186297  0.854728  1
  Pt  Pt11  1  0.536603  0.391331  0.722900  1
  Pt  Pt12  1  0.831569  0.686297  0.722900  1
  Pt  Pt13  1  0.463397  0.608669  0.277100  1
  Pt  Pt14  1  0.536603  0.813703  0.145272  1
  Pt  Pt15  1  0.168431  0.313703  0.277100  1
  Pt  Pt16  1  0.000000  0.000000  0.500000  1
  Pt  Pt17  1  0.000000  0.500000  0.000000  1
