# generated using pymatgen
data_Nd3In3Ni2Hg
_symmetry_space_group_name_H-M   'P 1'
_cell_length_a   7.76741100
_cell_length_b   7.76741190
_cell_length_c   4.04319100
_cell_angle_alpha   90.00000000
_cell_angle_beta   90.00000000
_cell_angle_gamma   120.00000042
_symmetry_Int_Tables_number   1
_chemical_formula_structural   Nd3In3Ni2Hg
_chemical_formula_sum   'Nd3 In3 Ni2 Hg1'
_cell_volume   211.25524953
_cell_formula_units_Z   1
loop_
 _symmetry_equiv_pos_site_id
 _symmetry_equiv_pos_as_xyz
  1  'x, y, z'
loop_
 _atom_site_type_symbol
 _atom_site_label
 _atom_site_symmetry_multiplicity
 _atom_site_fract_x
 _atom_site_fract_y
 _atom_site_fract_z
 _atom_site_occupancy
  Nd  Nd0  1  0.398373  0.421757  0.500000  1
  Nd  Nd1  1  0.578243  0.976616  0.500000  1
  Nd  Nd2  1  0.023384  0.601627  0.500000  1
  In  In3  1  0.755808  0.763704  0.000000  1
  In  In4  1  0.236296  0.992104  0.000000  1
  In  In5  1  0.007896  0.244192  0.000000  1
  Ni  Ni6  1  0.000000  0.000000  0.500000  1
  Ni  Ni7  1  0.333333  0.666667  0.000000  1
  Hg  Hg8  1  0.666667  0.333333  0.000000  1
