# generated using pymatgen
data_Er2Al16IrPt8
_symmetry_space_group_name_H-M   'P 1'
_cell_length_a   11.11595083
_cell_length_b   11.11595131
_cell_length_c   11.11594810
_cell_angle_alpha   158.54093417
_cell_angle_beta   115.69179341
_cell_angle_gamma   68.64110843
_symmetry_Int_Tables_number   1
_chemical_formula_structural   Er2Al16IrPt8
_chemical_formula_sum   'Er2 Al16 Ir1 Pt8'
_cell_volume   449.58880236
_cell_formula_units_Z   1
loop_
 _symmetry_equiv_pos_site_id
 _symmetry_equiv_pos_as_xyz
  1  'x, y, z'
loop_
 _atom_site_type_symbol
 _atom_site_label
 _atom_site_symmetry_multiplicity
 _atom_site_fract_x
 _atom_site_fract_y
 _atom_site_fract_z
 _atom_site_occupancy
  Er  Er0  1  0.228368  0.228563  0.999807  1
  Er  Er1  1  0.771244  0.771439  0.999807  1
  Al  Al2  1  0.271043  0.390426  0.880621  1
  Al  Al3  1  0.091215  0.920663  0.170556  1
  Al  Al4  1  0.511891  0.204441  0.307454  1
  Al  Al5  1  0.249893  0.079341  0.170556  1
  Al  Al6  1  0.912044  0.414162  0.497883  1
  Al  Al7  1  0.726615  0.605764  0.120847  1
  Al  Al8  1  0.896998  0.205186  0.691814  1
  Al  Al9  1  0.486629  0.794816  0.691814  1
  Al  Al10  1  0.387858  0.999999  0.387857  1
  Al  Al11  1  0.620231  0.000000  0.620231  1
  Al  Al12  1  0.490196  0.609578  0.880621  1
  Al  Al13  1  0.103013  0.795562  0.307454  1
  Al  Al14  1  0.904615  0.079993  0.824617  1
  Al  Al15  1  0.744625  0.920002  0.824617  1
  Al  Al16  1  0.515083  0.394232  0.120847  1
  Al  Al17  1  0.083720  0.585839  0.497883  1
  Ir  Ir18  1  0.758281  0.499999  0.258280  1
  Pt  Pt19  1  0.021356  0.339721  0.681640  1
  Pt  Pt20  1  0.628323  0.127797  0.500525  1
  Pt  Pt21  1  0.252947  0.499998  0.752946  1
  Pt  Pt22  1  0.372727  0.872202  0.500525  1
  Pt  Pt23  1  0.996625  0.000000  0.996624  1
  Pt  Pt24  1  0.654935  0.338662  0.316265  1
  Pt  Pt25  1  0.341920  0.660285  0.681640  1
  Pt  Pt26  1  0.977603  0.661330  0.316265  1
