# generated using pymatgen
data_Sc9Co8Si20Ru
_symmetry_space_group_name_H-M   'P 1'
_cell_length_a   11.93540783
_cell_length_b   11.93540792
_cell_length_c   3.92028400
_cell_angle_alpha   90.00000000
_cell_angle_beta   90.00000000
_cell_angle_gamma   90.23628531
_symmetry_Int_Tables_number   1
_chemical_formula_structural   Sc9Co8Si20Ru
_chemical_formula_sum   'Sc9 Co8 Si20 Ru1'
_cell_volume   558.45523588
_cell_formula_units_Z   1
loop_
 _symmetry_equiv_pos_site_id
 _symmetry_equiv_pos_as_xyz
  1  'x, y, z'
loop_
 _atom_site_type_symbol
 _atom_site_label
 _atom_site_symmetry_multiplicity
 _atom_site_fract_x
 _atom_site_fract_y
 _atom_site_fract_z
 _atom_site_occupancy
  Sc  Sc0  1  0.998581  0.997991  0.000000  1
  Sc  Sc1  1  0.497991  0.498581  0.000000  1
  Sc  Sc2  1  0.175351  0.324541  0.500000  1
  Sc  Sc3  1  0.824541  0.675351  0.500000  1
  Sc  Sc4  1  0.325837  0.825837  0.500000  1
  Sc  Sc5  1  0.885267  0.385267  0.500000  1
  Sc  Sc6  1  0.390301  0.114595  0.500000  1
  Sc  Sc7  1  0.614595  0.890301  0.500000  1
  Sc  Sc8  1  0.110044  0.610044  0.500000  1
  Co  Co9  1  0.521154  0.250639  0.000000  1
  Co  Co10  1  0.253754  0.473055  0.000000  1
  Co  Co11  1  0.743535  0.516377  0.000000  1
  Co  Co12  1  0.476738  0.746793  0.000000  1
  Co  Co13  1  0.973055  0.753754  0.000000  1
  Co  Co14  1  0.016377  0.243535  0.000000  1
  Co  Co15  1  0.750639  0.021154  0.000000  1
  Co  Co16  1  0.246793  0.976738  0.000000  1
  Si  Si17  1  0.575128  0.075128  0.000000  1
  Si  Si18  1  0.066453  0.429630  0.000000  1
  Si  Si19  1  0.929630  0.566453  0.000000  1
  Si  Si20  1  0.435670  0.935670  0.000000  1
  Si  Si21  1  0.195771  0.157189  0.000000  1
  Si  Si22  1  0.156648  0.802135  0.000000  1
  Si  Si23  1  0.833910  0.191574  0.000000  1
  Si  Si24  1  0.800280  0.842188  0.000000  1
  Si  Si25  1  0.302135  0.656648  0.000000  1
  Si  Si26  1  0.691574  0.333910  0.000000  1
  Si  Si27  1  0.657189  0.695771  0.000000  1
  Si  Si28  1  0.342188  0.300280  0.000000  1
  Si  Si29  1  0.009830  0.158898  0.500000  1
  Si  Si30  1  0.164728  0.002845  0.500000  1
  Si  Si31  1  0.831956  0.026364  0.500000  1
  Si  Si32  1  0.003470  0.832362  0.500000  1
  Si  Si33  1  0.502845  0.664728  0.500000  1
  Si  Si34  1  0.526364  0.331956  0.500000  1
  Si  Si35  1  0.658898  0.509830  0.500000  1
  Si  Si36  1  0.332362  0.503470  0.500000  1
  Ru  Ru37  1  0.678419  0.178419  0.500000  1
