# generated using pymatgen
data_Yb3Zn(Co3C)2
_symmetry_space_group_name_H-M   'P 1'
_cell_length_a   5.08948100
_cell_length_b   5.08947966
_cell_length_c   13.71044500
_cell_angle_alpha   90.00000000
_cell_angle_beta   90.00000000
_cell_angle_gamma   120.00001522
_symmetry_Int_Tables_number   1
_chemical_formula_structural   Yb3Zn(Co3C)2
_chemical_formula_sum   'Yb6 Zn2 Co12 C4'
_cell_volume   307.55939385
_cell_formula_units_Z   2
loop_
 _symmetry_equiv_pos_site_id
 _symmetry_equiv_pos_as_xyz
  1  'x, y, z'
loop_
 _atom_site_type_symbol
 _atom_site_label
 _atom_site_symmetry_multiplicity
 _atom_site_fract_x
 _atom_site_fract_y
 _atom_site_fract_z
 _atom_site_occupancy
  Yb  Yb0  1  0.666667  0.333333  0.537772  1
  Yb  Yb1  1  0.333333  0.666667  0.462228  1
  Yb  Yb2  1  0.333333  0.666667  0.037772  1
  Yb  Yb3  1  0.666667  0.333333  0.750000  1
  Yb  Yb4  1  0.666667  0.333333  0.962228  1
  Yb  Yb5  1  0.333333  0.666667  0.250000  1
  Zn  Zn6  1  0.000000  0.000000  0.000000  1
  Zn  Zn7  1  0.000000  0.000000  0.500000  1
  Co  Co8  1  0.166464  0.332927  0.656905  1
  Co  Co9  1  0.332927  0.166464  0.343095  1
  Co  Co10  1  0.332927  0.166464  0.156905  1
  Co  Co11  1  0.166464  0.833536  0.843095  1
  Co  Co12  1  0.833536  0.667073  0.343095  1
  Co  Co13  1  0.833536  0.166464  0.156905  1
  Co  Co14  1  0.667073  0.833536  0.656905  1
  Co  Co15  1  0.667073  0.833536  0.843095  1
  Co  Co16  1  0.166464  0.833536  0.656905  1
  Co  Co17  1  0.833536  0.667073  0.156905  1
  Co  Co18  1  0.166464  0.332927  0.843095  1
  Co  Co19  1  0.833536  0.166464  0.343095  1
  C  C20  1  0.666667  0.333333  0.250000  1
  C  C21  1  0.000000  0.000000  0.750000  1
  C  C22  1  0.333333  0.666667  0.750000  1
  C  C23  1  0.000000  0.000000  0.250000  1
