# generated using pymatgen
data_Tb8Hf11Si16W
_symmetry_space_group_name_H-M   'P 1'
_cell_length_a   7.26152073
_cell_length_b   7.26152073
_cell_length_c   13.33477688
_cell_angle_alpha   89.93813812
_cell_angle_beta   90.06186188
_cell_angle_gamma   90.04939437
_symmetry_Int_Tables_number   1
_chemical_formula_structural   Tb8Hf11Si16W
_chemical_formula_sum   'Tb8 Hf11 Si16 W1'
_cell_volume   703.13748226
_cell_formula_units_Z   1
loop_
 _symmetry_equiv_pos_site_id
 _symmetry_equiv_pos_as_xyz
  1  'x, y, z'
loop_
 _atom_site_type_symbol
 _atom_site_label
 _atom_site_symmetry_multiplicity
 _atom_site_fract_x
 _atom_site_fract_y
 _atom_site_fract_z
 _atom_site_occupancy
  Tb  Tb0  1  0.998431  0.342964  0.212743  1
  Tb  Tb1  1  0.004178  0.656808  0.716504  1
  Tb  Tb2  1  0.156820  0.495471  0.465528  1
  Tb  Tb3  1  0.501658  0.845169  0.034212  1
  Tb  Tb4  1  0.845169  0.501658  0.965788  1
  Tb  Tb5  1  0.495471  0.156820  0.534472  1
  Tb  Tb6  1  0.342964  0.998431  0.787257  1
  Tb  Tb7  1  0.656808  0.004178  0.283496  1
  Hf  Hf8  1  0.825699  0.825699  0.500000  1
  Hf  Hf9  1  0.324493  0.674241  0.248936  1
  Hf  Hf10  1  0.674241  0.324493  0.751064  1
  Hf  Hf11  1  0.148684  0.996972  0.373663  1
  Hf  Hf12  1  0.852809  0.005170  0.877328  1
  Hf  Hf13  1  0.504126  0.648809  0.624654  1
  Hf  Hf14  1  0.348736  0.493328  0.877259  1
  Hf  Hf15  1  0.493328  0.348736  0.122741  1
  Hf  Hf16  1  0.648809  0.504126  0.375346  1
  Hf  Hf17  1  0.996972  0.148684  0.626337  1
  Hf  Hf18  1  0.005170  0.852809  0.122672  1
  Si  Si19  1  0.362869  0.295127  0.316314  1
  Si  Si20  1  0.636342  0.704898  0.817443  1
  Si  Si21  1  0.205016  0.863115  0.567130  1
  Si  Si22  1  0.137773  0.797586  0.933246  1
  Si  Si23  1  0.797586  0.137773  0.066754  1
  Si  Si24  1  0.863115  0.205016  0.432870  1
  Si  Si25  1  0.295127  0.362869  0.683686  1
  Si  Si26  1  0.704898  0.636342  0.182557  1
  Si  Si27  1  0.294178  0.050945  0.182580  1
  Si  Si28  1  0.704221  0.951975  0.686000  1
  Si  Si29  1  0.450823  0.795567  0.435086  1
  Si  Si30  1  0.203786  0.545902  0.064178  1
  Si  Si31  1  0.545902  0.203786  0.935822  1
  Si  Si32  1  0.795567  0.450823  0.564914  1
  Si  Si33  1  0.050945  0.294178  0.817420  1
  Si  Si34  1  0.951975  0.704221  0.314000  1
  W  W35  1  0.175311  0.175311  0.000000  1
