# generated using pymatgen
data_Er3Tm7CuRuPb6
_symmetry_space_group_name_H-M   'P 1'
_cell_length_a   9.09664300
_cell_length_b   9.09664381
_cell_length_c   6.73210200
_cell_angle_alpha   90.00000000
_cell_angle_beta   90.00000000
_cell_angle_gamma   120.00000795
_symmetry_Int_Tables_number   1
_chemical_formula_structural   Er3Tm7CuRuPb6
_chemical_formula_sum   'Er3 Tm7 Cu1 Ru1 Pb6'
_cell_volume   482.44035158
_cell_formula_units_Z   1
loop_
 _symmetry_equiv_pos_site_id
 _symmetry_equiv_pos_as_xyz
  1  'x, y, z'
loop_
 _atom_site_type_symbol
 _atom_site_label
 _atom_site_symmetry_multiplicity
 _atom_site_fract_x
 _atom_site_fract_y
 _atom_site_fract_z
 _atom_site_occupancy
  Er  Er0  1  0.666667  0.333333  0.000000  1
  Er  Er1  1  0.666667  0.333333  0.500000  1
  Er  Er2  1  0.333333  0.666667  0.500000  1
  Tm  Tm3  1  0.242189  0.999955  0.233563  1
  Tm  Tm4  1  0.757765  0.999955  0.766437  1
  Tm  Tm5  1  0.000045  0.242235  0.233563  1
  Tm  Tm6  1  0.000045  0.757811  0.766437  1
  Tm  Tm7  1  0.757765  0.757811  0.233563  1
  Tm  Tm8  1  0.242189  0.242235  0.766437  1
  Tm  Tm9  1  0.333333  0.666667  0.000000  1
  Cu  Cu10  1  0.000000  0.000000  0.500000  1
  Ru  Ru11  1  0.000000  0.000000  0.000000  1
  Pb  Pb12  1  0.601949  0.999805  0.252870  1
  Pb  Pb13  1  0.397855  0.999805  0.747130  1
  Pb  Pb14  1  0.000195  0.602145  0.252870  1
  Pb  Pb15  1  0.000195  0.398051  0.747130  1
  Pb  Pb16  1  0.397855  0.398051  0.252870  1
  Pb  Pb17  1  0.601949  0.602145  0.747130  1
