# generated using pymatgen
data_Sc6Zn22AgSe
_symmetry_space_group_name_H-M   'P 1'
_cell_length_a   8.82826942
_cell_length_b   8.82826845
_cell_length_c   8.82826800
_cell_angle_alpha   60.00000170
_cell_angle_beta   60.00000532
_cell_angle_gamma   59.99999993
_symmetry_Int_Tables_number   1
_chemical_formula_structural   Sc6Zn22AgSe
_chemical_formula_sum   'Sc6 Zn22 Ag1 Se1'
_cell_volume   486.53226119
_cell_formula_units_Z   1
loop_
 _symmetry_equiv_pos_site_id
 _symmetry_equiv_pos_as_xyz
  1  'x, y, z'
loop_
 _atom_site_type_symbol
 _atom_site_label
 _atom_site_symmetry_multiplicity
 _atom_site_fract_x
 _atom_site_fract_y
 _atom_site_fract_z
 _atom_site_occupancy
  Sc  Sc0  1  0.712493  0.287507  0.287507  1
  Sc  Sc1  1  0.287507  0.712493  0.712493  1
  Sc  Sc2  1  0.287507  0.712493  0.287507  1
  Sc  Sc3  1  0.712493  0.287507  0.712493  1
  Sc  Sc4  1  0.287507  0.287507  0.712493  1
  Sc  Sc5  1  0.712493  0.712493  0.287507  1
  Zn  Zn6  1  0.124287  0.124287  0.124287  1
  Zn  Zn7  1  0.875713  0.875713  0.875713  1
  Zn  Zn8  1  0.124287  0.124287  0.627140  1
  Zn  Zn9  1  0.124287  0.627140  0.124287  1
  Zn  Zn10  1  0.875713  0.875713  0.372860  1
  Zn  Zn11  1  0.875713  0.372860  0.875713  1
  Zn  Zn12  1  0.627140  0.124287  0.124287  1
  Zn  Zn13  1  0.372860  0.875713  0.875713  1
  Zn  Zn14  1  0.500000  0.000000  0.000000  1
  Zn  Zn15  1  0.000000  0.500000  0.500000  1
  Zn  Zn16  1  0.000000  0.500000  0.000000  1
  Zn  Zn17  1  0.500000  0.000000  0.500000  1
  Zn  Zn18  1  0.000000  0.000000  0.500000  1
  Zn  Zn19  1  0.500000  0.500000  0.000000  1
  Zn  Zn20  1  0.332218  0.332218  0.332218  1
  Zn  Zn21  1  0.667782  0.667782  0.667782  1
  Zn  Zn22  1  0.332218  0.332218  0.003345  1
  Zn  Zn23  1  0.332218  0.003345  0.332218  1
  Zn  Zn24  1  0.667782  0.667782  0.996655  1
  Zn  Zn25  1  0.667782  0.996655  0.667782  1
  Zn  Zn26  1  0.003345  0.332218  0.332218  1
  Zn  Zn27  1  0.996655  0.667782  0.667782  1
  Ag  Ag28  1  0.000000  0.000000  0.000000  1
  Se  Se29  1  0.500000  0.500000  0.500000  1
