# generated using pymatgen
data_Dy3Er2Tm3Cd2PdPt
_symmetry_space_group_name_H-M   'P 1'
_cell_length_a   9.61193261
_cell_length_b   9.61193238
_cell_length_c   9.61193200
_cell_angle_alpha   60.00000132
_cell_angle_beta   60.00000211
_cell_angle_gamma   60.00000062
_symmetry_Int_Tables_number   1
_chemical_formula_structural   Dy3Er2Tm3Cd2PdPt
_chemical_formula_sum   'Dy6 Er4 Tm6 Cd4 Pd2 Pt2'
_cell_volume   627.93852659
_cell_formula_units_Z   2
loop_
 _symmetry_equiv_pos_site_id
 _symmetry_equiv_pos_as_xyz
  1  'x, y, z'
loop_
 _atom_site_type_symbol
 _atom_site_label
 _atom_site_symmetry_multiplicity
 _atom_site_fract_x
 _atom_site_fract_y
 _atom_site_fract_z
 _atom_site_occupancy
  Dy  Dy0  1  0.935649  0.564845  0.563845  1
  Dy  Dy1  1  0.564845  0.935649  0.935661  1
  Dy  Dy2  1  0.564845  0.935649  0.563845  1
  Dy  Dy3  1  0.935649  0.564844  0.935661  1
  Dy  Dy4  1  0.563854  0.563854  0.936146  1
  Dy  Dy5  1  0.935116  0.935116  0.564883  1
  Er  Er6  1  0.353501  0.353501  0.351562  1
  Er  Er7  1  0.353501  0.353501  0.941439  1
  Er  Er8  1  0.354535  0.940507  0.352481  1
  Er  Er9  1  0.940507  0.354535  0.352481  1
  Tm  Tm10  1  0.810354  0.188672  0.188463  1
  Tm  Tm11  1  0.188672  0.810354  0.812510  1
  Tm  Tm12  1  0.188672  0.810354  0.188463  1
  Tm  Tm13  1  0.810354  0.188672  0.812510  1
  Tm  Tm14  1  0.188589  0.188589  0.811411  1
  Tm  Tm15  1  0.811422  0.811422  0.188578  1
  Cd  Cd16  1  0.581639  0.581639  0.581619  1
  Cd  Cd17  1  0.581639  0.581639  0.255103  1
  Cd  Cd18  1  0.581640  0.255318  0.581521  1
  Cd  Cd19  1  0.255318  0.581640  0.581521  1
  Pd  Pd20  1  0.143374  0.143374  0.143912  1
  Pd  Pd21  1  0.143374  0.143374  0.569341  1
  Pt  Pt22  1  0.143131  0.569825  0.143523  1
  Pt  Pt23  1  0.569825  0.143131  0.143523  1
