# generated using pymatgen
data_Mg5Si16NiPt7Rh2
_symmetry_space_group_name_H-M   'P 1'
_cell_length_a   8.86987705
_cell_length_b   8.91837746
_cell_length_c   8.88405686
_cell_angle_alpha   59.80174581
_cell_angle_beta   60.34886792
_cell_angle_gamma   59.95972761
_symmetry_Int_Tables_number   1
_chemical_formula_structural   Mg5Si16NiPt7Rh2
_chemical_formula_sum   'Mg5 Si16 Ni1 Pt7 Rh2'
_cell_volume   497.32547375
_cell_formula_units_Z   1
loop_
 _symmetry_equiv_pos_site_id
 _symmetry_equiv_pos_as_xyz
  1  'x, y, z'
loop_
 _atom_site_type_symbol
 _atom_site_label
 _atom_site_symmetry_multiplicity
 _atom_site_fract_x
 _atom_site_fract_y
 _atom_site_fract_z
 _atom_site_occupancy
  Mg  Mg0  1  0.199849  0.600848  0.600689  1
  Mg  Mg1  1  0.601547  0.599099  0.200054  1
  Mg  Mg2  1  0.600779  0.599920  0.600289  1
  Mg  Mg3  1  0.602203  0.198807  0.599610  1
  Mg  Mg4  1  0.250361  0.243109  0.256766  1
  Si  Si5  1  0.203528  0.663992  0.203664  1
  Si  Si6  1  0.927016  0.663649  0.197686  1
  Si  Si7  1  0.208571  0.199661  0.663039  1
  Si  Si8  1  0.660250  0.202533  0.211218  1
  Si  Si9  1  0.927251  0.200922  0.661572  1
  Si  Si10  1  0.199462  0.661959  0.926102  1
  Si  Si11  1  0.925988  0.208019  0.205367  1
  Si  Si12  1  0.661940  0.926923  0.210181  1
  Si  Si13  1  0.199883  0.927541  0.209800  1
  Si  Si14  1  0.207716  0.925545  0.658707  1
  Si  Si15  1  0.533384  0.826176  0.815036  1
  Si  Si16  1  0.832470  0.816707  0.820864  1
  Si  Si17  1  0.662998  0.204595  0.927993  1
  Si  Si18  1  0.820341  0.830296  0.530629  1
  Si  Si19  1  0.828809  0.533145  0.827880  1
  Si  Si20  1  0.196300  0.210307  0.929081  1
  Ni  Ni21  1  0.986510  0.514148  0.986279  1
  Pt  Pt22  1  0.369723  0.377827  0.872294  1
  Pt  Pt23  1  0.376049  0.380087  0.378746  1
  Pt  Pt24  1  0.868589  0.382183  0.370427  1
  Pt  Pt25  1  0.981493  0.517363  0.519221  1
  Pt  Pt26  1  0.518477  0.516778  0.982514  1
  Pt  Pt27  1  0.381145  0.860627  0.377074  1
  Pt  Pt28  1  0.518451  0.981999  0.981880  1
  Rh  Rh29  1  0.987312  0.987058  0.513371  1
  Rh  Rh30  1  0.511606  0.988174  0.511964  1
