# generated using pymatgen
data_LaTm2Th(Al3Ir)6
_symmetry_space_group_name_H-M   'P 1'
_cell_length_a   7.59988897
_cell_length_b   7.60002789
_cell_length_c   9.50431900
_cell_angle_alpha   90.00000000
_cell_angle_beta   90.00000000
_cell_angle_gamma   119.41400459
_symmetry_Int_Tables_number   1
_chemical_formula_structural   LaTm2Th(Al3Ir)6
_chemical_formula_sum   'La1 Tm2 Th1 Al18 Ir6'
_cell_volume   478.19866392
_cell_formula_units_Z   1
loop_
 _symmetry_equiv_pos_site_id
 _symmetry_equiv_pos_as_xyz
  1  'x, y, z'
loop_
 _atom_site_type_symbol
 _atom_site_label
 _atom_site_symmetry_multiplicity
 _atom_site_fract_x
 _atom_site_fract_y
 _atom_site_fract_z
 _atom_site_occupancy
  La  La0  1  0.671381  0.994416  0.250000  1
  Tm  Tm1  1  0.003656  0.327512  0.750000  1
  Tm  Tm2  1  0.327452  0.004492  0.750000  1
  Th  Th3  1  0.995194  0.671521  0.250000  1
  Al  Al4  1  0.135837  0.134595  0.250000  1
  Al  Al5  1  0.873178  0.873891  0.750000  1
  Al  Al6  1  0.004391  0.333819  0.068740  1
  Al  Al7  1  0.000174  0.663996  0.917493  1
  Al  Al8  1  0.000174  0.663996  0.582507  1
  Al  Al9  1  0.337267  0.005597  0.431369  1
  Al  Al10  1  0.004391  0.333819  0.431260  1
  Al  Al11  1  0.664025  0.000453  0.581003  1
  Al  Al12  1  0.664025  0.000453  0.918997  1
  Al  Al13  1  0.337267  0.005597  0.068631  1
  Al  Al14  1  0.331849  0.331908  0.558028  1
  Al  Al15  1  0.663364  0.664484  0.459823  1
  Al  Al16  1  0.663364  0.664484  0.040177  1
  Al  Al17  1  0.331849  0.331908  0.941972  1
  Al  Al18  1  0.339491  0.544000  0.250000  1
  Al  Al19  1  0.657960  0.448224  0.750000  1
  Al  Al20  1  0.544603  0.341294  0.250000  1
  Al  Al21  1  0.447499  0.659130  0.750000  1
  Ir  Ir22  1  0.673018  0.329329  0.998779  1
  Ir  Ir23  1  0.326166  0.671222  0.998830  1
  Ir  Ir24  1  0.326166  0.671222  0.501170  1
  Ir  Ir25  1  0.673018  0.329329  0.501221  1
  Ir  Ir26  1  0.001618  0.999653  0.998767  1
  Ir  Ir27  1  0.001618  0.999653  0.501233  1
