# generated using pymatgen
data_Li4Th6IrPd12
_symmetry_space_group_name_H-M   'P 1'
_cell_length_a   8.35310496
_cell_length_b   8.35310541
_cell_length_c   8.35310600
_cell_angle_alpha   109.47121721
_cell_angle_beta   109.47121829
_cell_angle_gamma   109.47122532
_symmetry_Int_Tables_number   1
_chemical_formula_structural   Li4Th6IrPd12
_chemical_formula_sum   'Li4 Th6 Ir1 Pd12'
_cell_volume   448.66481037
_cell_formula_units_Z   1
loop_
 _symmetry_equiv_pos_site_id
 _symmetry_equiv_pos_as_xyz
  1  'x, y, z'
loop_
 _atom_site_type_symbol
 _atom_site_label
 _atom_site_symmetry_multiplicity
 _atom_site_fract_x
 _atom_site_fract_y
 _atom_site_fract_z
 _atom_site_occupancy
  Li  Li0  1  0.000000  0.000000  0.500000  1
  Li  Li1  1  0.000000  0.500000  0.000000  1
  Li  Li2  1  0.500000  0.000000  0.000000  1
  Li  Li3  1  0.500000  0.500000  0.500000  1
  Th  Th4  1  0.699969  0.699969  0.000000  1
  Th  Th5  1  0.300031  0.000000  0.300031  1
  Th  Th6  1  0.000000  0.300031  0.300031  1
  Th  Th7  1  0.300031  0.300031  0.000000  1
  Th  Th8  1  0.699969  0.000000  0.699969  1
  Th  Th9  1  0.000000  0.699969  0.699969  1
  Ir  Ir10  1  0.000000  0.000000  0.000000  1
  Pd  Pd11  1  0.332760  0.332760  0.665520  1
  Pd  Pd12  1  0.667240  0.000000  0.332760  1
  Pd  Pd13  1  0.000000  0.667240  0.332760  1
  Pd  Pd14  1  0.667240  0.332760  0.000000  1
  Pd  Pd15  1  0.332760  0.665520  0.332760  1
  Pd  Pd16  1  0.000000  0.332760  0.667240  1
  Pd  Pd17  1  0.332760  0.667240  0.000000  1
  Pd  Pd18  1  0.332760  0.000000  0.667240  1
  Pd  Pd19  1  0.665520  0.332760  0.332760  1
  Pd  Pd20  1  0.667240  0.667240  0.334480  1
  Pd  Pd21  1  0.667240  0.334480  0.667240  1
  Pd  Pd22  1  0.334480  0.667240  0.667240  1
