# generated using pymatgen
data_NbAl2Ni(PdPt3)2
_symmetry_space_group_name_H-M   'P 1'
_cell_length_a   3.95260400
_cell_length_b   3.95260400
_cell_length_c   11.48178000
_cell_angle_alpha   90.00000000
_cell_angle_beta   90.00000000
_cell_angle_gamma   90.00000000
_symmetry_Int_Tables_number   1
_chemical_formula_structural   NbAl2Ni(PdPt3)2
_chemical_formula_sum   'Nb1 Al2 Ni1 Pd2 Pt6'
_cell_volume   179.38074889
_cell_formula_units_Z   1
loop_
 _symmetry_equiv_pos_site_id
 _symmetry_equiv_pos_as_xyz
  1  'x, y, z'
loop_
 _atom_site_type_symbol
 _atom_site_label
 _atom_site_symmetry_multiplicity
 _atom_site_fract_x
 _atom_site_fract_y
 _atom_site_fract_z
 _atom_site_occupancy
  Nb  Nb0  1  0.000000  0.000000  0.997149  1
  Al  Al1  1  0.000000  0.000000  0.345686  1
  Al  Al2  1  0.000000  0.000000  0.662078  1
  Ni  Ni3  1  0.500000  0.500000  0.665362  1
  Pd  Pd4  1  0.500000  0.500000  0.994672  1
  Pd  Pd5  1  0.500000  0.500000  0.338218  1
  Pt  Pt6  1  0.500000  0.000000  0.166501  1
  Pt  Pt7  1  0.500000  0.000000  0.510740  1
  Pt  Pt8  1  0.500000  0.000000  0.821176  1
  Pt  Pt9  1  0.000000  0.500000  0.166501  1
  Pt  Pt10  1  0.000000  0.500000  0.510740  1
  Pt  Pt11  1  0.000000  0.500000  0.821176  1
