# generated using pymatgen
data_Yb5(BiO4)3
_symmetry_space_group_name_H-M   'P 1'
_cell_length_a   5.68727358
_cell_length_b   5.96514824
_cell_length_c   8.23113740
_cell_angle_alpha   90.18404595
_cell_angle_beta   89.43059388
_cell_angle_gamma   90.08331206
_symmetry_Int_Tables_number   1
_chemical_formula_structural   Yb5(BiO4)3
_chemical_formula_sum   'Yb5 Bi3 O12'
_cell_volume   279.22936301
_cell_formula_units_Z   1
loop_
 _symmetry_equiv_pos_site_id
 _symmetry_equiv_pos_as_xyz
  1  'x, y, z'
loop_
 _atom_site_type_symbol
 _atom_site_label
 _atom_site_symmetry_multiplicity
 _atom_site_fract_x
 _atom_site_fract_y
 _atom_site_fract_z
 _atom_site_occupancy
  Yb  Yb0  1  0.000000  0.000000  0.000000  1
  Yb  Yb1  1  0.976144  0.431839  0.229762  1
  Yb  Yb2  1  0.517903  0.943242  0.235708  1
  Yb  Yb3  1  0.482097  0.056758  0.764292  1
  Yb  Yb4  1  0.023856  0.568161  0.770238  1
  Bi  Bi5  1  0.500000  0.500000  0.500000  1
  Bi  Bi6  1  0.500000  0.500000  0.000000  1
  Bi  Bi7  1  0.000000  0.000000  0.500000  1
  O  O8  1  0.864176  0.935102  0.735558  1
  O  O9  1  0.803803  0.706051  0.411247  1
  O  O10  1  0.803869  0.682035  0.053211  1
  O  O11  1  0.700208  0.198616  0.419765  1
  O  O12  1  0.677773  0.202594  0.062346  1
  O  O13  1  0.638829  0.433216  0.750645  1
  O  O14  1  0.361171  0.566784  0.249355  1
  O  O15  1  0.322227  0.797406  0.937654  1
  O  O16  1  0.299792  0.801384  0.580235  1
  O  O17  1  0.196131  0.317965  0.946789  1
  O  O18  1  0.196197  0.293949  0.588753  1
  O  O19  1  0.135824  0.064898  0.264442  1
