# generated using pymatgen
data_Ho5Th5Ru6
_symmetry_space_group_name_H-M   'P 1'
_cell_length_a   8.28364702
_cell_length_b   8.17147838
_cell_length_c   6.46400500
_cell_angle_alpha   90.00000000
_cell_angle_beta   90.00000000
_cell_angle_gamma   119.55307240
_symmetry_Int_Tables_number   1
_chemical_formula_structural   Ho5Th5Ru6
_chemical_formula_sum   'Ho5 Th5 Ru6'
_cell_volume   380.62107708
_cell_formula_units_Z   1
loop_
 _symmetry_equiv_pos_site_id
 _symmetry_equiv_pos_as_xyz
  1  'x, y, z'
loop_
 _atom_site_type_symbol
 _atom_site_label
 _atom_site_symmetry_multiplicity
 _atom_site_fract_x
 _atom_site_fract_y
 _atom_site_fract_z
 _atom_site_occupancy
  Ho  Ho0  1  0.668031  0.336204  0.501168  1
  Ho  Ho1  1  0.331969  0.668174  0.501168  1
  Ho  Ho2  1  0.331969  0.668174  0.998832  1
  Ho  Ho3  1  0.668031  0.336204  0.998832  1
  Ho  Ho4  1  0.000000  0.743015  0.750000  1
  Th  Th5  1  0.752010  0.750733  0.250000  1
  Th  Th6  1  0.247990  0.998724  0.250000  1
  Th  Th7  1  0.000000  0.251816  0.250000  1
  Th  Th8  1  0.250039  0.245749  0.750000  1
  Th  Th9  1  0.749961  0.995710  0.750000  1
  Ru  Ru10  1  0.375518  0.378083  0.250000  1
  Ru  Ru11  1  0.624482  0.002565  0.250000  1
  Ru  Ru12  1  0.000000  0.620466  0.250000  1
  Ru  Ru13  1  0.605861  0.617062  0.750000  1
  Ru  Ru14  1  0.394139  0.011202  0.750000  1
  Ru  Ru15  1  0.000000  0.376118  0.750000  1
