# generated using pymatgen
data_YbTh3CoOs7
_symmetry_space_group_name_H-M   'P 1'
_cell_length_a   5.38299198
_cell_length_b   5.38299225
_cell_length_c   8.88872586
_cell_angle_alpha   89.84418779
_cell_angle_beta   90.15581321
_cell_angle_gamma   120.50050748
_symmetry_Int_Tables_number   1
_chemical_formula_structural   YbTh3CoOs7
_chemical_formula_sum   'Yb1 Th3 Co1 Os7'
_cell_volume   221.92334609
_cell_formula_units_Z   1
loop_
 _symmetry_equiv_pos_site_id
 _symmetry_equiv_pos_as_xyz
  1  'x, y, z'
loop_
 _atom_site_type_symbol
 _atom_site_label
 _atom_site_symmetry_multiplicity
 _atom_site_fract_x
 _atom_site_fract_y
 _atom_site_fract_z
 _atom_site_occupancy
  Yb  Yb0  1  0.332645  0.667355  0.064438  1
  Th  Th1  1  0.330100  0.669900  0.419370  1
  Th  Th2  1  0.668018  0.331982  0.566956  1
  Th  Th3  1  0.669830  0.330170  0.943274  1
  Co  Co4  1  0.830507  0.169493  0.248318  1
  Os  Os5  1  0.994249  0.005751  0.497114  1
  Os  Os6  1  0.998001  0.001999  0.005877  1
  Os  Os7  1  0.823298  0.661566  0.248518  1
  Os  Os8  1  0.338434  0.176702  0.248518  1
  Os  Os9  1  0.176942  0.823058  0.751070  1
  Os  Os10  1  0.175196  0.337220  0.753273  1
  Os  Os11  1  0.662780  0.824804  0.753273  1
