# generated using pymatgen
data_U4Cr4(ReP2)3
_symmetry_space_group_name_H-M   'P 1'
_cell_length_a   6.93839386
_cell_length_b   6.93662960
_cell_length_c   6.93663027
_cell_angle_alpha   109.58246916
_cell_angle_beta   109.41049809
_cell_angle_gamma   109.41048556
_symmetry_Int_Tables_number   1
_chemical_formula_structural   U4Cr4(ReP2)3
_chemical_formula_sum   'U4 Cr4 Re3 P6'
_cell_volume   257.03238000
_cell_formula_units_Z   1
loop_
 _symmetry_equiv_pos_site_id
 _symmetry_equiv_pos_as_xyz
  1  'x, y, z'
loop_
 _atom_site_type_symbol
 _atom_site_label
 _atom_site_symmetry_multiplicity
 _atom_site_fract_x
 _atom_site_fract_y
 _atom_site_fract_z
 _atom_site_occupancy
  U  U0  1  0.994286  0.997143  0.497143  1
  U  U1  1  0.504854  0.007074  0.007074  1
  U  U2  1  0.994286  0.497143  0.997143  1
  U  U3  1  0.504854  0.497780  0.497780  1
  Cr  Cr4  1  0.749240  0.499466  0.249774  1
  Cr  Cr5  1  0.500886  0.750443  0.250443  1
  Cr  Cr6  1  0.500886  0.250443  0.750443  1
  Cr  Cr7  1  0.749240  0.249774  0.499466  1
  Re  Re8  1  0.250604  0.750994  0.499610  1
  Re  Re9  1  0.250604  0.499610  0.750994  1
  Re  Re10  1  0.999797  0.999899  0.999899  1
  P  P11  1  0.323761  0.004225  0.319536  1
  P  P12  1  0.992398  0.312565  0.312565  1
  P  P13  1  0.992398  0.679833  0.679833  1
  P  P14  1  0.323761  0.319536  0.004225  1
  P  P15  1  0.684071  0.680148  0.003923  1
  P  P16  1  0.684071  0.003923  0.680148  1
