# generated using pymatgen
data_Er8Ti2Si16Tc9Mo
_symmetry_space_group_name_H-M   'P 1'
_cell_length_a   6.75550997
_cell_length_b   6.75551024
_cell_length_c   12.89850203
_cell_angle_alpha   89.98885480
_cell_angle_beta   90.01114202
_cell_angle_gamma   88.99882201
_symmetry_Int_Tables_number   1
_chemical_formula_structural   Er8Ti2Si16Tc9Mo
_chemical_formula_sum   'Er8 Ti2 Si16 Tc9 Mo1'
_cell_volume   588.55797594
_cell_formula_units_Z   1
loop_
 _symmetry_equiv_pos_site_id
 _symmetry_equiv_pos_as_xyz
  1  'x, y, z'
loop_
 _atom_site_type_symbol
 _atom_site_label
 _atom_site_symmetry_multiplicity
 _atom_site_fract_x
 _atom_site_fract_y
 _atom_site_fract_z
 _atom_site_occupancy
  Er  Er0  1  0.338012  0.001501  0.472702  1
  Er  Er1  1  0.511479  0.822417  0.716634  1
  Er  Er2  1  0.488448  0.177796  0.216843  1
  Er  Er3  1  0.822417  0.511479  0.283366  1
  Er  Er4  1  0.177796  0.488448  0.783157  1
  Er  Er5  1  0.661555  0.998509  0.972147  1
  Er  Er6  1  0.001501  0.338012  0.527298  1
  Er  Er7  1  0.998509  0.661555  0.027853  1
  Ti  Ti8  1  0.156280  0.843822  0.249644  1
  Ti  Ti9  1  0.843822  0.156280  0.750356  1
  Si  Si10  1  0.212165  0.118800  0.681558  1
  Si  Si11  1  0.396804  0.681947  0.940143  1
  Si  Si12  1  0.604912  0.314532  0.439073  1
  Si  Si13  1  0.681947  0.396804  0.059857  1
  Si  Si14  1  0.314532  0.604912  0.560927  1
  Si  Si15  1  0.787572  0.881567  0.181461  1
  Si  Si16  1  0.118800  0.212165  0.318442  1
  Si  Si17  1  0.881567  0.787572  0.818539  1
  Si  Si18  1  0.262836  0.983833  0.055522  1
  Si  Si19  1  0.528735  0.804013  0.317062  1
  Si  Si20  1  0.470942  0.195835  0.816813  1
  Si  Si21  1  0.804013  0.528735  0.682938  1
  Si  Si22  1  0.195835  0.470942  0.183187  1
  Si  Si23  1  0.736207  0.018966  0.556140  1
  Si  Si24  1  0.983833  0.262836  0.944478  1
  Si  Si25  1  0.018966  0.736207  0.443860  1
  Tc  Tc26  1  0.333497  0.333497  0.000000  1
  Tc  Tc27  1  0.181937  0.980419  0.864525  1
  Tc  Tc28  1  0.474071  0.692613  0.133481  1
  Tc  Tc29  1  0.523403  0.308460  0.634203  1
  Tc  Tc30  1  0.692613  0.474071  0.866519  1
  Tc  Tc31  1  0.308460  0.523403  0.365797  1
  Tc  Tc32  1  0.819922  0.019478  0.363537  1
  Tc  Tc33  1  0.980419  0.181937  0.135475  1
  Tc  Tc34  1  0.019478  0.819922  0.636463  1
  Mo  Mo35  1  0.666716  0.666716  0.500000  1
