# generated using pymatgen
data_Sc4ReOs2Ru5
_symmetry_space_group_name_H-M   'P 1'
_cell_length_a   5.13947010
_cell_length_b   5.20638612
_cell_length_c   8.71927800
_cell_angle_alpha   90.00000000
_cell_angle_beta   90.00000000
_cell_angle_gamma   120.43163857
_symmetry_Int_Tables_number   1
_chemical_formula_structural   Sc4ReOs2Ru5
_chemical_formula_sum   'Sc4 Re1 Os2 Ru5'
_cell_volume   201.16871454
_cell_formula_units_Z   1
loop_
 _symmetry_equiv_pos_site_id
 _symmetry_equiv_pos_as_xyz
  1  'x, y, z'
loop_
 _atom_site_type_symbol
 _atom_site_label
 _atom_site_symmetry_multiplicity
 _atom_site_fract_x
 _atom_site_fract_y
 _atom_site_fract_z
 _atom_site_occupancy
  Sc  Sc0  1  0.338083  0.669042  0.433270  1
  Sc  Sc1  1  0.668706  0.334352  0.567685  1
  Sc  Sc2  1  0.668706  0.334352  0.932315  1
  Sc  Sc3  1  0.338083  0.669042  0.066730  1
  Re  Re4  1  0.327441  0.163720  0.250000  1
  Os  Os5  1  0.162925  0.336483  0.750000  1
  Os  Os6  1  0.162925  0.826442  0.750000  1
  Ru  Ru7  1  0.814428  0.648873  0.250000  1
  Ru  Ru8  1  0.648489  0.824245  0.750000  1
  Ru  Ru9  1  0.027893  0.013946  0.000102  1
  Ru  Ru10  1  0.814428  0.165555  0.250000  1
  Ru  Ru11  1  0.027893  0.013946  0.499898  1
