# generated using pymatgen
data_Ac2SmCuS5
_symmetry_space_group_name_H-M   'P 1'
_cell_length_a   11.82014700
_cell_length_b   4.07317900
_cell_length_c   17.28265100
_cell_angle_alpha   90.00000000
_cell_angle_beta   90.00000000
_cell_angle_gamma   90.00000000
_symmetry_Int_Tables_number   1
_chemical_formula_structural   Ac2SmCuS5
_chemical_formula_sum   'Ac8 Sm4 Cu4 S20'
_cell_volume   832.08316192
_cell_formula_units_Z   4
loop_
 _symmetry_equiv_pos_site_id
 _symmetry_equiv_pos_as_xyz
  1  'x, y, z'
loop_
 _atom_site_type_symbol
 _atom_site_label
 _atom_site_symmetry_multiplicity
 _atom_site_fract_x
 _atom_site_fract_y
 _atom_site_fract_z
 _atom_site_occupancy
  Ac  Ac0  1  0.366044  0.750000  0.096539  1
  Ac  Ac1  1  0.017890  0.750000  0.174648  1
  Ac  Ac2  1  0.517889  0.750000  0.325352  1
  Ac  Ac3  1  0.866044  0.750000  0.403462  1
  Ac  Ac4  1  0.133956  0.250001  0.596538  1
  Ac  Ac5  1  0.482110  0.250001  0.674648  1
  Ac  Ac6  1  0.982110  0.250001  0.825352  1
  Ac  Ac7  1  0.633956  0.250001  0.903462  1
  Sm  Sm8  1  0.694730  0.250001  0.137392  1
  Sm  Sm9  1  0.194730  0.250001  0.362608  1
  Sm  Sm10  1  0.805270  0.750000  0.637392  1
  Sm  Sm11  1  0.305270  0.750000  0.862608  1
  Cu  Cu12  1  0.911159  0.750000  0.998826  1
  Cu  Cu13  1  0.411158  0.750000  0.501174  1
  Cu  Cu14  1  0.588842  0.250001  0.498826  1
  Cu  Cu15  1  0.088842  0.250001  0.001174  1
  S  S16  1  0.613661  0.750000  0.036283  1
  S  S17  1  0.901675  0.250001  0.066194  1
  S  S18  1  0.183441  0.250001  0.115493  1
  S  S19  1  0.482145  0.250001  0.199182  1
  S  S20  1  0.761746  0.750000  0.231030  1
  S  S21  1  0.261746  0.750000  0.268970  1
  S  S22  1  0.982145  0.250001  0.300818  1
  S  S23  1  0.683441  0.250001  0.384507  1
  S  S24  1  0.401675  0.250001  0.433806  1
  S  S25  1  0.113661  0.750000  0.463717  1
  S  S26  1  0.886339  0.250001  0.536283  1
  S  S27  1  0.598326  0.750000  0.566195  1
  S  S28  1  0.316559  0.750000  0.615493  1
  S  S29  1  0.017855  0.750000  0.699182  1
  S  S30  1  0.738254  0.250001  0.731030  1
  S  S31  1  0.238254  0.250001  0.768970  1
  S  S32  1  0.517855  0.750000  0.800818  1
  S  S33  1  0.816559  0.750000  0.884507  1
  S  S34  1  0.098326  0.750000  0.933805  1
  S  S35  1  0.386339  0.250001  0.963717  1
