# generated using pymatgen
data_Lu8Ta12Si15As
_symmetry_space_group_name_H-M   'P 1'
_cell_length_a   6.80622153
_cell_length_b   6.98952064
_cell_length_c   13.27132118
_cell_angle_alpha   89.97844048
_cell_angle_beta   90.25949058
_cell_angle_gamma   90.13997217
_symmetry_Int_Tables_number   1
_chemical_formula_structural   Lu8Ta12Si15As
_chemical_formula_sum   'Lu8 Ta12 Si15 As1'
_cell_volume   631.33788713
_cell_formula_units_Z   1
loop_
 _symmetry_equiv_pos_site_id
 _symmetry_equiv_pos_as_xyz
  1  'x, y, z'
loop_
 _atom_site_type_symbol
 _atom_site_label
 _atom_site_symmetry_multiplicity
 _atom_site_fract_x
 _atom_site_fract_y
 _atom_site_fract_z
 _atom_site_occupancy
  Lu  Lu0  1  0.498318  0.674354  0.595234  1
  Lu  Lu1  1  0.000780  0.828195  0.904633  1
  Lu  Lu2  1  0.498530  0.327754  0.094632  1
  Lu  Lu3  1  0.004864  0.175343  0.403369  1
  Lu  Lu4  1  0.500292  0.326660  0.404858  1
  Lu  Lu5  1  0.999554  0.171492  0.094886  1
  Lu  Lu6  1  0.501512  0.672339  0.905225  1
  Lu  Lu7  1  0.999967  0.825083  0.597105  1
  Ta  Ta8  1  0.658616  0.173726  0.625975  1
  Ta  Ta9  1  0.161925  0.325772  0.875104  1
  Ta  Ta10  1  0.338263  0.826519  0.125120  1
  Ta  Ta11  1  0.841748  0.668617  0.373615  1
  Ta  Ta12  1  0.338892  0.827803  0.375892  1
  Ta  Ta13  1  0.837619  0.674175  0.124832  1
  Ta  Ta14  1  0.661078  0.173918  0.874800  1
  Ta  Ta15  1  0.159016  0.328094  0.625645  1
  Ta  Ta16  1  0.837166  0.492689  0.749689  1
  Ta  Ta17  1  0.336084  0.007516  0.749959  1
  Ta  Ta18  1  0.162830  0.507356  0.250377  1
  Ta  Ta19  1  0.664584  0.991410  0.248204  1
  Si  Si20  1  0.165875  0.535061  0.040469  1
  Si  Si21  1  0.333261  0.034641  0.958965  1
  Si  Si22  1  0.831074  0.463969  0.540427  1
  Si  Si23  1  0.321104  0.038709  0.542525  1
  Si  Si24  1  0.834059  0.465443  0.959119  1
  Si  Si25  1  0.666252  0.965428  0.040699  1
  Si  Si26  1  0.168908  0.536283  0.460081  1
  Si  Si27  1  0.457640  0.381042  0.750310  1
  Si  Si28  1  0.957235  0.119141  0.750216  1
  Si  Si29  1  0.540798  0.619300  0.250126  1
  Si  Si30  1  0.042890  0.880095  0.249852  1
  Si  Si31  1  0.703079  0.866966  0.750579  1
  Si  Si32  1  0.204422  0.632722  0.751129  1
  Si  Si33  1  0.297827  0.132953  0.249368  1
  Si  Si34  1  0.796352  0.366283  0.248710  1
  As  As35  1  0.677588  0.963148  0.458269  1
