# generated using pymatgen
data_Yb4Zn2(OsRu)3
_symmetry_space_group_name_H-M   'P 1'
_cell_length_a   5.25417945
_cell_length_b   5.29875901
_cell_length_c   8.81822200
_cell_angle_alpha   90.00000000
_cell_angle_beta   90.00000000
_cell_angle_gamma   120.02875307
_symmetry_Int_Tables_number   1
_chemical_formula_structural   Yb4Zn2(OsRu)3
_chemical_formula_sum   'Yb4 Zn2 Os3 Ru3'
_cell_volume   212.55181916
_cell_formula_units_Z   1
loop_
 _symmetry_equiv_pos_site_id
 _symmetry_equiv_pos_as_xyz
  1  'x, y, z'
loop_
 _atom_site_type_symbol
 _atom_site_label
 _atom_site_symmetry_multiplicity
 _atom_site_fract_x
 _atom_site_fract_y
 _atom_site_fract_z
 _atom_site_occupancy
  Yb  Yb0  1  0.671543  0.335625  0.565547  1
  Yb  Yb1  1  0.338966  0.669174  0.442913  1
  Yb  Yb2  1  0.338966  0.669174  0.057087  1
  Yb  Yb3  1  0.671543  0.335625  0.934453  1
  Zn  Zn4  1  0.807968  0.652978  0.250000  1
  Zn  Zn5  1  0.809554  0.155504  0.250000  1
  Os  Os6  1  0.169679  0.338397  0.750000  1
  Os  Os7  1  0.168474  0.833835  0.750000  1
  Os  Os8  1  0.652857  0.826290  0.750000  1
  Ru  Ru9  1  0.032210  0.015007  0.495756  1
  Ru  Ru10  1  0.032210  0.015007  0.004244  1
  Ru  Ru11  1  0.306028  0.153386  0.250000  1
