# generated using pymatgen
data_Lu5(GaSb)2
_symmetry_space_group_name_H-M   'P 1'
_cell_length_a   8.52366900
_cell_length_b   8.52366806
_cell_length_c   7.82036900
_cell_angle_alpha   89.99806407
_cell_angle_beta   89.99805735
_cell_angle_gamma   125.41982342
_symmetry_Int_Tables_number   1
_chemical_formula_structural   Lu5(GaSb)2
_chemical_formula_sum   'Lu10 Ga4 Sb4'
_cell_volume   463.01944481
_cell_formula_units_Z   2
loop_
 _symmetry_equiv_pos_site_id
 _symmetry_equiv_pos_as_xyz
  1  'x, y, z'
loop_
 _atom_site_type_symbol
 _atom_site_label
 _atom_site_symmetry_multiplicity
 _atom_site_fract_x
 _atom_site_fract_y
 _atom_site_fract_z
 _atom_site_occupancy
  Lu  Lu0  1  0.539171  0.796810  0.166928  1
  Lu  Lu1  1  0.296949  0.039235  0.333137  1
  Lu  Lu2  1  0.203190  0.460829  0.833072  1
  Lu  Lu3  1  0.960765  0.703051  0.666863  1
  Lu  Lu4  1  0.703051  0.960765  0.666863  1
  Lu  Lu5  1  0.460829  0.203190  0.833072  1
  Lu  Lu6  1  0.796810  0.539171  0.166928  1
  Lu  Lu7  1  0.039235  0.296949  0.333137  1
  Lu  Lu8  1  0.000000  0.000000  0.000000  1
  Lu  Lu9  1  0.500000  0.500000  0.500000  1
  Ga  Ga10  1  0.627660  0.627660  0.872445  1
  Ga  Ga11  1  0.127817  0.127817  0.627424  1
  Ga  Ga12  1  0.872183  0.872183  0.372576  1
  Ga  Ga13  1  0.372340  0.372340  0.127555  1
  Sb  Sb14  1  0.294236  0.705764  0.500000  1
  Sb  Sb15  1  0.205883  0.794117  0.000000  1
  Sb  Sb16  1  0.705764  0.294236  0.500000  1
  Sb  Sb17  1  0.794117  0.205883  0.000000  1
