# generated using pymatgen
data_CsAlCdF6
_symmetry_space_group_name_H-M   'P 1'
_cell_length_a   7.35838200
_cell_length_b   7.78112600
_cell_length_c   10.57025800
_cell_angle_alpha   90.00000000
_cell_angle_beta   90.00000000
_cell_angle_gamma   90.00000000
_symmetry_Int_Tables_number   1
_chemical_formula_structural   CsAlCdF6
_chemical_formula_sum   'Cs4 Al4 Cd4 F24'
_cell_volume   605.21595073
_cell_formula_units_Z   4
loop_
 _symmetry_equiv_pos_site_id
 _symmetry_equiv_pos_as_xyz
  1  'x, y, z'
loop_
 _atom_site_type_symbol
 _atom_site_label
 _atom_site_symmetry_multiplicity
 _atom_site_fract_x
 _atom_site_fract_y
 _atom_site_fract_z
 _atom_site_occupancy
  Cs  Cs0  1  0.250000  0.995633  0.640154  1
  Cs  Cs1  1  0.750000  0.004367  0.359846  1
  Cs  Cs2  1  0.250000  0.495633  0.859846  1
  Cs  Cs3  1  0.750000  0.504367  0.140154  1
  Al  Al4  1  0.000000  0.500000  0.500000  1
  Al  Al5  1  0.500000  0.500000  0.500000  1
  Al  Al6  1  0.500000  0.000000  0.000000  1
  Al  Al7  1  0.000000  0.000000  0.000000  1
  Cd  Cd8  1  0.250000  0.755256  0.251949  1
  Cd  Cd9  1  0.750000  0.244744  0.748051  1
  Cd  Cd10  1  0.250000  0.255256  0.248051  1
  Cd  Cd11  1  0.750000  0.744744  0.751949  1
  F  F12  1  0.981556  0.328196  0.616029  1
  F  F13  1  0.481556  0.671804  0.383971  1
  F  F14  1  0.518444  0.828196  0.883971  1
  F  F15  1  0.018444  0.171804  0.116029  1
  F  F16  1  0.018444  0.671804  0.383971  1
  F  F17  1  0.518444  0.328196  0.616029  1
  F  F18  1  0.481556  0.171804  0.116029  1
  F  F19  1  0.981556  0.828196  0.883971  1
  F  F20  1  0.987888  0.158708  0.873711  1
  F  F21  1  0.487888  0.841292  0.126289  1
  F  F22  1  0.512112  0.658708  0.626289  1
  F  F23  1  0.012112  0.341292  0.373711  1
  F  F24  1  0.750000  0.992922  0.648260  1
  F  F25  1  0.250000  0.007078  0.351740  1
  F  F26  1  0.750000  0.492922  0.851740  1
  F  F27  1  0.250000  0.507078  0.148260  1
  F  F28  1  0.750000  0.005694  0.018588  1
  F  F29  1  0.250000  0.994306  0.981412  1
  F  F30  1  0.750000  0.505694  0.481412  1
  F  F31  1  0.250000  0.494306  0.518588  1
  F  F32  1  0.987888  0.658708  0.626289  1
  F  F33  1  0.487888  0.341292  0.373711  1
  F  F34  1  0.512112  0.158708  0.873711  1
  F  F35  1  0.012112  0.841292  0.126289  1
