# generated using pymatgen
data_NdMn2InF14
_symmetry_space_group_name_H-M   'P 1'
_cell_length_a   5.49340776
_cell_length_b   8.86988534
_cell_length_c   11.88929200
_cell_angle_alpha   62.13521565
_cell_angle_beta   89.79911941
_cell_angle_gamma   89.93565726
_symmetry_Int_Tables_number   1
_chemical_formula_structural   NdMn2InF14
_chemical_formula_sum   'Nd2 Mn4 In2 F28'
_cell_volume   512.14322025
_cell_formula_units_Z   2
loop_
 _symmetry_equiv_pos_site_id
 _symmetry_equiv_pos_as_xyz
  1  'x, y, z'
loop_
 _atom_site_type_symbol
 _atom_site_label
 _atom_site_symmetry_multiplicity
 _atom_site_fract_x
 _atom_site_fract_y
 _atom_site_fract_z
 _atom_site_occupancy
  Nd  Nd0  1  0.261330  0.815159  0.265630  1
  Nd  Nd1  1  0.738670  0.184841  0.734370  1
  Mn  Mn2  1  0.763518  0.716782  0.042611  1
  Mn  Mn3  1  0.236482  0.283218  0.957389  1
  Mn  Mn4  1  0.262636  0.269545  0.449276  1
  Mn  Mn5  1  0.737364  0.730455  0.550724  1
  In  In6  1  0.770747  0.200013  0.233946  1
  In  In7  1  0.229253  0.799987  0.766054  1
  F  F8  1  0.932451  0.713026  0.430814  1
  F  F9  1  0.067549  0.286974  0.569186  1
  F  F10  1  0.426832  0.308215  0.072090  1
  F  F11  1  0.573168  0.691785  0.927910  1
  F  F12  1  0.494344  0.727499  0.132109  1
  F  F13  1  0.505656  0.272501  0.867891  1
  F  F14  1  0.985964  0.274592  0.357490  1
  F  F15  1  0.014036  0.725408  0.642510  1
  F  F16  1  0.953991  0.736873  0.164882  1
  F  F17  1  0.046009  0.263127  0.835118  1
  F  F18  1  0.461917  0.256609  0.324057  1
  F  F19  1  0.538083  0.743391  0.675943  1
  F  F20  1  0.773967  0.478971  0.142810  1
  F  F21  1  0.226033  0.521029  0.857190  1
  F  F22  1  0.275679  0.506197  0.360211  1
  F  F23  1  0.724321  0.493803  0.639789  1
  F  F24  1  0.952552  0.291540  0.040989  1
  F  F25  1  0.047448  0.708460  0.959011  1
  F  F26  1  0.462835  0.723496  0.463798  1
  F  F27  1  0.537165  0.276504  0.536202  1
  F  F28  1  0.742371  0.960980  0.464106  1
  F  F29  1  0.257629  0.039020  0.535894  1
  F  F30  1  0.238002  0.049937  0.048034  1
  F  F31  1  0.761998  0.950063  0.951966  1
  F  F32  1  0.595661  0.994830  0.229137  1
  F  F33  1  0.404339  0.005170  0.770863  1
  F  F34  1  0.077165  0.043061  0.270510  1
  F  F35  1  0.922835  0.956939  0.729490  1
