# generated using pymatgen
data_Tm(Lu2Zn)4
_symmetry_space_group_name_H-M   'P 1'
_cell_length_a   8.36390246
_cell_length_b   8.36390239
_cell_length_c   8.37254417
_cell_angle_alpha   94.98597746
_cell_angle_beta   95.13006747
_cell_angle_gamma   145.43558571
_symmetry_Int_Tables_number   1
_chemical_formula_structural   Tm(Lu2Zn)4
_chemical_formula_sum   'Tm1 Lu8 Zn4'
_cell_volume   317.31636077
_cell_formula_units_Z   1
loop_
 _symmetry_equiv_pos_site_id
 _symmetry_equiv_pos_as_xyz
  1  'x, y, z'
loop_
 _atom_site_type_symbol
 _atom_site_label
 _atom_site_symmetry_multiplicity
 _atom_site_fract_x
 _atom_site_fract_y
 _atom_site_fract_z
 _atom_site_occupancy
  Tm  Tm0  1  0.817864  0.111222  0.929086  1
  Lu  Lu1  1  0.500749  0.499872  0.000623  1
  Lu  Lu2  1  0.181903  0.889220  0.071125  1
  Lu  Lu3  1  0.111255  0.181615  0.292871  1
  Lu  Lu4  1  0.883409  0.401074  0.284486  1
  Lu  Lu5  1  0.599708  0.882934  0.482644  1
  Lu  Lu6  1  0.400185  0.116142  0.516326  1
  Lu  Lu7  1  0.115602  0.599736  0.715336  1
  Lu  Lu8  1  0.889471  0.817810  0.707284  1
  Zn  Zn9  1  0.393737  0.736118  0.129856  1
  Zn  Zn10  1  0.736299  0.606910  0.343212  1
  Zn  Zn11  1  0.264054  0.393233  0.657286  1
  Zn  Zn12  1  0.605760  0.264105  0.869866  1
