# generated using pymatgen
data_YHo3Np2O12
_symmetry_space_group_name_H-M   'P 1'
_cell_length_a   5.52517300
_cell_length_b   7.82646040
_cell_length_c   11.82763769
_cell_angle_alpha   73.78237788
_cell_angle_beta   90.00000000
_cell_angle_gamma   90.00000000
_symmetry_Int_Tables_number   1
_chemical_formula_structural   YHo3Np2O12
_chemical_formula_sum   'Y2 Ho6 Np4 O24'
_cell_volume   491.10519722
_cell_formula_units_Z   2
loop_
 _symmetry_equiv_pos_site_id
 _symmetry_equiv_pos_as_xyz
  1  'x, y, z'
loop_
 _atom_site_type_symbol
 _atom_site_label
 _atom_site_symmetry_multiplicity
 _atom_site_fract_x
 _atom_site_fract_y
 _atom_site_fract_z
 _atom_site_occupancy
  Y  Y0  1  0.303311  0.500000  0.750000  1
  Y  Y1  1  0.696689  0.500000  0.250000  1
  Ho  Ho2  1  0.186164  0.794517  0.079327  1
  Ho  Ho3  1  0.255465  0.000000  0.750000  1
  Ho  Ho4  1  0.744535  0.000000  0.250000  1
  Ho  Ho5  1  0.186164  0.205483  0.420673  1
  Ho  Ho6  1  0.813836  0.205483  0.920673  1
  Ho  Ho7  1  0.813836  0.794517  0.579327  1
  Np  Np8  1  0.744015  0.721735  0.886302  1
  Np  Np9  1  0.255985  0.721735  0.386302  1
  Np  Np10  1  0.744015  0.278265  0.613698  1
  Np  Np11  1  0.255985  0.278265  0.113698  1
  O  O12  1  0.874330  0.371816  0.445568  1
  O  O13  1  0.445619  0.849174  0.931359  1
  O  O14  1  0.874330  0.628184  0.054432  1
  O  O15  1  0.034972  0.286140  0.733184  1
  O  O16  1  0.965028  0.286140  0.233184  1
  O  O17  1  0.125670  0.371816  0.945568  1
  O  O18  1  0.613468  0.480680  0.883876  1
  O  O19  1  0.554381  0.150826  0.068641  1
  O  O20  1  0.125670  0.628184  0.554432  1
  O  O21  1  0.034972  0.713860  0.766816  1
  O  O22  1  0.450520  0.198487  0.274183  1
  O  O23  1  0.043773  0.945213  0.396205  1
  O  O24  1  0.445619  0.150826  0.568641  1
  O  O25  1  0.965028  0.713860  0.266816  1
  O  O26  1  0.956227  0.054787  0.603795  1
  O  O27  1  0.549480  0.198487  0.774183  1
  O  O28  1  0.549480  0.801513  0.725817  1
  O  O29  1  0.043773  0.054787  0.103795  1
  O  O30  1  0.613468  0.519320  0.616124  1
  O  O31  1  0.386532  0.519320  0.116124  1
  O  O32  1  0.450520  0.801513  0.225817  1
  O  O33  1  0.386532  0.480680  0.383876  1
  O  O34  1  0.554381  0.849174  0.431359  1
  O  O35  1  0.956227  0.945213  0.896205  1
