# generated using pymatgen
data_NdH7Os
_symmetry_space_group_name_H-M   'P 1'
_cell_length_a   4.79068708
_cell_length_b   4.71475716
_cell_length_c   7.98690200
_cell_angle_alpha   90.00000000
_cell_angle_beta   90.00000000
_cell_angle_gamma   62.61491265
_symmetry_Int_Tables_number   1
_chemical_formula_structural   NdH7Os
_chemical_formula_sum   'Nd2 H14 Os2'
_cell_volume   160.18311272
_cell_formula_units_Z   2
loop_
 _symmetry_equiv_pos_site_id
 _symmetry_equiv_pos_as_xyz
  1  'x, y, z'
loop_
 _atom_site_type_symbol
 _atom_site_label
 _atom_site_symmetry_multiplicity
 _atom_site_fract_x
 _atom_site_fract_y
 _atom_site_fract_z
 _atom_site_occupancy
  Nd  Nd0  1  0.000000  0.000000  0.000000  1
  Nd  Nd1  1  0.000000  0.000000  0.500000  1
  H  H2  1  0.786528  0.917076  0.250000  1
  H  H3  1  0.213472  0.082924  0.750000  1
  H  H4  1  0.704243  0.683777  0.456410  1
  H  H5  1  0.295757  0.316223  0.956410  1
  H  H6  1  0.295757  0.316223  0.543590  1
  H  H7  1  0.704243  0.683777  0.043590  1
  H  H8  1  0.498961  0.450007  0.357344  1
  H  H9  1  0.501039  0.549993  0.857344  1
  H  H10  1  0.501039  0.549993  0.642656  1
  H  H11  1  0.498961  0.450007  0.142656  1
  H  H12  1  0.304012  0.967910  0.250000  1
  H  H13  1  0.695988  0.032090  0.750000  1
  H  H14  1  0.030170  0.343211  0.250000  1
  H  H15  1  0.969830  0.656789  0.750000  1
  Os  Os16  1  0.656483  0.637462  0.250000  1
  Os  Os17  1  0.343517  0.362538  0.750000  1
