# generated using pymatgen
data_Pr2Sm6Be3Si12Pd
_symmetry_space_group_name_H-M   'P 1'
_cell_length_a   8.01812300
_cell_length_b   8.01812344
_cell_length_c   8.48344600
_cell_angle_alpha   90.00000000
_cell_angle_beta   90.00000000
_cell_angle_gamma   119.99999408
_symmetry_Int_Tables_number   1
_chemical_formula_structural   Pr2Sm6Be3Si12Pd
_chemical_formula_sum   'Pr2 Sm6 Be3 Si12 Pd1'
_cell_volume   472.33313073
_cell_formula_units_Z   1
loop_
 _symmetry_equiv_pos_site_id
 _symmetry_equiv_pos_as_xyz
  1  'x, y, z'
loop_
 _atom_site_type_symbol
 _atom_site_label
 _atom_site_symmetry_multiplicity
 _atom_site_fract_x
 _atom_site_fract_y
 _atom_site_fract_z
 _atom_site_occupancy
  Pr  Pr0  1  0.000000  0.000000  0.750096  1
  Pr  Pr1  1  0.000000  0.000000  0.249969  1
  Sm  Sm2  1  0.498452  0.501548  0.752328  1
  Sm  Sm3  1  0.498548  0.501452  0.247743  1
  Sm  Sm4  1  0.003096  0.501548  0.752328  1
  Sm  Sm5  1  0.002905  0.501452  0.247743  1
  Sm  Sm6  1  0.498452  0.996904  0.752328  1
  Sm  Sm7  1  0.498548  0.997095  0.247743  1
  Be  Be8  1  0.666667  0.333333  0.998892  1
  Be  Be9  1  0.333333  0.666667  0.001118  1
  Be  Be10  1  0.333333  0.666667  0.499428  1
  Si  Si11  1  0.826854  0.173146  0.000134  1
  Si  Si12  1  0.172998  0.827002  0.000011  1
  Si  Si13  1  0.346291  0.173146  0.000134  1
  Si  Si14  1  0.171293  0.828707  0.499882  1
  Si  Si15  1  0.654005  0.827002  0.000011  1
  Si  Si16  1  0.833058  0.166942  0.500108  1
  Si  Si17  1  0.826854  0.653709  0.000134  1
  Si  Si18  1  0.657413  0.828707  0.499882  1
  Si  Si19  1  0.172998  0.345995  0.000011  1
  Si  Si20  1  0.333884  0.166942  0.500108  1
  Si  Si21  1  0.171293  0.342587  0.499882  1
  Si  Si22  1  0.833058  0.666116  0.500108  1
  Pd  Pd23  1  0.666667  0.333333  0.499882  1
