# generated using pymatgen
data_Tm3Zr2Pt3O
_symmetry_space_group_name_H-M   'P 1'
_cell_length_a   8.35411100
_cell_length_b   8.35411131
_cell_length_c   5.63477000
_cell_angle_alpha   90.00000000
_cell_angle_beta   90.00000000
_cell_angle_gamma   119.99999481
_symmetry_Int_Tables_number   1
_chemical_formula_structural   Tm3Zr2Pt3O
_chemical_formula_sum   'Tm6 Zr4 Pt6 O2'
_cell_volume   340.57075104
_cell_formula_units_Z   2
loop_
 _symmetry_equiv_pos_site_id
 _symmetry_equiv_pos_as_xyz
  1  'x, y, z'
loop_
 _atom_site_type_symbol
 _atom_site_label
 _atom_site_symmetry_multiplicity
 _atom_site_fract_x
 _atom_site_fract_y
 _atom_site_fract_z
 _atom_site_occupancy
  Tm  Tm0  1  0.000000  0.763239  0.750000  1
  Tm  Tm1  1  0.000000  0.236761  0.250000  1
  Tm  Tm2  1  0.236761  0.236761  0.750000  1
  Tm  Tm3  1  0.236761  0.000000  0.250000  1
  Tm  Tm4  1  0.763239  0.763239  0.250000  1
  Tm  Tm5  1  0.763239  0.000000  0.750000  1
  Zr  Zr6  1  0.333333  0.666667  0.000000  1
  Zr  Zr7  1  0.333333  0.666667  0.500000  1
  Zr  Zr8  1  0.666667  0.333333  0.000000  1
  Zr  Zr9  1  0.666667  0.333333  0.500000  1
  Pt  Pt10  1  0.000000  0.595212  0.250000  1
  Pt  Pt11  1  0.000000  0.404788  0.750000  1
  Pt  Pt12  1  0.404788  0.404788  0.250000  1
  Pt  Pt13  1  0.595212  0.595212  0.750000  1
  Pt  Pt14  1  0.404788  0.000000  0.750000  1
  Pt  Pt15  1  0.595212  0.000000  0.250000  1
  O  O16  1  0.000000  0.000000  0.000000  1
  O  O17  1  0.000000  0.000000  0.500000  1
