# generated using pymatgen
data_RbHo2ErSe5
_symmetry_space_group_name_H-M   'P 1'
_cell_length_a   4.11474700
_cell_length_b   12.28674900
_cell_length_c   21.95033600
_cell_angle_alpha   90.00000000
_cell_angle_beta   90.00000000
_cell_angle_gamma   90.00000000
_symmetry_Int_Tables_number   1
_chemical_formula_structural   RbHo2ErSe5
_chemical_formula_sum   'Rb4 Ho8 Er4 Se20'
_cell_volume   1109.74014285
_cell_formula_units_Z   4
loop_
 _symmetry_equiv_pos_site_id
 _symmetry_equiv_pos_as_xyz
  1  'x, y, z'
loop_
 _atom_site_type_symbol
 _atom_site_label
 _atom_site_symmetry_multiplicity
 _atom_site_fract_x
 _atom_site_fract_y
 _atom_site_fract_z
 _atom_site_occupancy
  Rb  Rb0  1  0.250000  0.851621  0.093278  1
  Rb  Rb1  1  0.750000  0.148379  0.906722  1
  Rb  Rb2  1  0.750000  0.351621  0.406722  1
  Rb  Rb3  1  0.250000  0.648379  0.593278  1
  Ho  Ho4  1  0.750000  0.798883  0.826429  1
  Ho  Ho5  1  0.250000  0.201117  0.173571  1
  Ho  Ho6  1  0.250000  0.298883  0.673571  1
  Ho  Ho7  1  0.750000  0.701117  0.326429  1
  Ho  Ho8  1  0.250000  0.956297  0.697930  1
  Ho  Ho9  1  0.750000  0.043703  0.302070  1
  Ho  Ho10  1  0.750000  0.456297  0.802070  1
  Ho  Ho11  1  0.250000  0.543703  0.197930  1
  Er  Er12  1  0.750000  0.391304  0.053679  1
  Er  Er13  1  0.250000  0.608696  0.946321  1
  Er  Er14  1  0.250000  0.891304  0.446321  1
  Er  Er15  1  0.750000  0.108696  0.553679  1
  Se  Se16  1  0.250000  0.947375  0.569033  1
  Se  Se17  1  0.750000  0.052625  0.430967  1
  Se  Se18  1  0.750000  0.447375  0.930967  1
  Se  Se19  1  0.250000  0.552625  0.069033  1
  Se  Se20  1  0.750000  0.765683  0.954698  1
  Se  Se21  1  0.250000  0.234317  0.045302  1
  Se  Se22  1  0.250000  0.265683  0.545302  1
  Se  Se23  1  0.750000  0.734317  0.454698  1
  Se  Se24  1  0.250000  0.953961  0.827123  1
  Se  Se25  1  0.750000  0.046039  0.172877  1
  Se  Se26  1  0.750000  0.453961  0.672877  1
  Se  Se27  1  0.250000  0.546039  0.327123  1
  Se  Se28  1  0.750000  0.126590  0.684480  1
  Se  Se29  1  0.250000  0.873410  0.315520  1
  Se  Se30  1  0.250000  0.626590  0.815520  1
  Se  Se31  1  0.750000  0.373410  0.184480  1
  Se  Se32  1  0.750000  0.697300  0.197109  1
  Se  Se33  1  0.250000  0.302700  0.802891  1
  Se  Se34  1  0.250000  0.197300  0.302891  1
  Se  Se35  1  0.750000  0.802700  0.697109  1
