# generated using pymatgen
data_Yb2ScGa3Ge2Pt
_symmetry_space_group_name_H-M   'P 1'
_cell_length_a   6.93091500
_cell_length_b   6.87957334
_cell_length_c   4.20817200
_cell_angle_alpha   90.00000000
_cell_angle_beta   90.00000000
_cell_angle_gamma   120.24718462
_symmetry_Int_Tables_number   1
_chemical_formula_structural   Yb2ScGa3Ge2Pt
_chemical_formula_sum   'Yb2 Sc1 Ga3 Ge2 Pt1'
_cell_volume   173.33611346
_cell_formula_units_Z   1
loop_
 _symmetry_equiv_pos_site_id
 _symmetry_equiv_pos_as_xyz
  1  'x, y, z'
loop_
 _atom_site_type_symbol
 _atom_site_label
 _atom_site_symmetry_multiplicity
 _atom_site_fract_x
 _atom_site_fract_y
 _atom_site_fract_z
 _atom_site_occupancy
  Yb  Yb0  1  0.997765  0.419907  0.000000  1
  Yb  Yb1  1  0.577858  0.580093  0.000000  1
  Sc  Sc2  1  0.414825  0.000000  0.000000  1
  Ga  Ga3  1  0.761942  0.000000  0.500000  1
  Ga  Ga4  1  0.239312  0.239403  0.500000  1
  Ga  Ga5  1  0.999910  0.760597  0.500000  1
  Ge  Ge6  1  0.655979  0.318263  0.500000  1
  Ge  Ge7  1  0.337716  0.681737  0.500000  1
  Pt  Pt8  1  0.014690  0.000000  0.000000  1
