# generated using pymatgen
data_Pr10Al9Si9Au2
_symmetry_space_group_name_H-M   'P 1'
_cell_length_a   4.18139774
_cell_length_b   4.33622129
_cell_length_c   37.27588102
_cell_angle_alpha   86.66557871
_cell_angle_beta   86.78474702
_cell_angle_gamma   90.00000856
_symmetry_Int_Tables_number   1
_chemical_formula_structural   Pr10Al9Si9Au2
_chemical_formula_sum   'Pr10 Al9 Si9 Au2'
_cell_volume   673.65645030
_cell_formula_units_Z   1
loop_
 _symmetry_equiv_pos_site_id
 _symmetry_equiv_pos_as_xyz
  1  'x, y, z'
loop_
 _atom_site_type_symbol
 _atom_site_label
 _atom_site_symmetry_multiplicity
 _atom_site_fract_x
 _atom_site_fract_y
 _atom_site_fract_z
 _atom_site_occupancy
  Pr  Pr0  1  0.949856  0.449856  0.100289  1
  Pr  Pr1  1  0.351231  0.851231  0.297540  1
  Pr  Pr2  1  0.752509  0.252509  0.494981  1
  Pr  Pr3  1  0.148302  0.648302  0.703396  1
  Pr  Pr4  1  0.544364  0.044364  0.911271  1
  Pr  Pr5  1  0.999225  0.999225  0.001551  1
  Pr  Pr6  1  0.400838  0.400838  0.198323  1
  Pr  Pr7  1  0.802096  0.802096  0.395808  1
  Pr  Pr8  1  0.203647  0.203647  0.592706  1
  Pr  Pr9  1  0.600170  0.600170  0.799660  1
  Al  Al10  1  0.466700  0.966700  0.066601  1
  Al  Al11  1  0.868053  0.368053  0.263892  1
  Al  Al12  1  0.269221  0.769221  0.461559  1
  Al  Al13  1  0.667110  0.167110  0.665779  1
  Al  Al14  1  0.063931  0.563931  0.872139  1
  Al  Al15  1  0.916931  0.916931  0.166137  1
  Al  Al16  1  0.318200  0.318200  0.363598  1
  Al  Al17  1  0.718822  0.718822  0.562355  1
  Al  Al18  1  0.115170  0.115170  0.769660  1
  Si  Si19  1  0.514354  0.514354  0.971289  1
  Si  Si20  1  0.433906  0.933906  0.132186  1
  Si  Si21  1  0.835241  0.335241  0.329519  1
  Si  Si22  1  0.236367  0.736367  0.527268  1
  Si  Si23  1  0.633251  0.133251  0.733497  1
  Si  Si24  1  0.030506  0.530506  0.938989  1
  Si  Si25  1  0.482467  0.482467  0.035066  1
  Si  Si26  1  0.884105  0.884105  0.231791  1
  Si  Si27  1  0.285404  0.285404  0.429192  1
  Au  Au28  1  0.684385  0.684385  0.631228  1
  Au  Au29  1  0.080834  0.080834  0.838331  1
