# generated using pymatgen
data_Mn5InPt10
_symmetry_space_group_name_H-M   'P 1'
_cell_length_a   4.05602200
_cell_length_b   5.56143262
_cell_length_c   11.05825527
_cell_angle_alpha   90.39703872
_cell_angle_beta   90.00000000
_cell_angle_gamma   90.00000000
_symmetry_Int_Tables_number   1
_chemical_formula_structural   Mn5InPt10
_chemical_formula_sum   'Mn5 In1 Pt10'
_cell_volume   249.43831567
_cell_formula_units_Z   1
loop_
 _symmetry_equiv_pos_site_id
 _symmetry_equiv_pos_as_xyz
  1  'x, y, z'
loop_
 _atom_site_type_symbol
 _atom_site_label
 _atom_site_symmetry_multiplicity
 _atom_site_fract_x
 _atom_site_fract_y
 _atom_site_fract_z
 _atom_site_occupancy
  Mn  Mn0  1  0.500000  0.205809  0.631464  1
  Mn  Mn1  1  0.500000  0.794191  0.368536  1
  Mn  Mn2  1  0.500000  0.706869  0.861170  1
  Mn  Mn3  1  0.500000  0.293131  0.138830  1
  Mn  Mn4  1  0.000000  0.500000  0.500000  1
  In  In5  1  0.000000  0.000000  0.000000  1
  Pt  Pt6  1  0.500000  0.286292  0.387644  1
  Pt  Pt7  1  0.500000  0.713708  0.612356  1
  Pt  Pt8  1  0.500000  0.773070  0.123200  1
  Pt  Pt9  1  0.500000  0.226930  0.876800  1
  Pt  Pt10  1  0.000000  0.456410  0.740627  1
  Pt  Pt11  1  0.000000  0.543590  0.259373  1
  Pt  Pt12  1  0.000000  0.956367  0.750036  1
  Pt  Pt13  1  0.000000  0.043633  0.249964  1
  Pt  Pt14  1  0.000000  0.500000  0.000000  1
  Pt  Pt15  1  0.000000  0.000000  0.500000  1
