# generated using pymatgen
data_RbBaCaTcN4
_symmetry_space_group_name_H-M   'P 1'
_cell_length_a   10.83486407
_cell_length_b   10.50986034
_cell_length_c   8.14444946
_cell_angle_alpha   69.36589116
_cell_angle_beta   65.47857761
_cell_angle_gamma   45.35590421
_symmetry_Int_Tables_number   1
_chemical_formula_structural   RbBaCaTcN4
_chemical_formula_sum   'Rb4 Ba4 Ca4 Tc4 N16'
_cell_volume   597.68961598
_cell_formula_units_Z   4
loop_
 _symmetry_equiv_pos_site_id
 _symmetry_equiv_pos_as_xyz
  1  'x, y, z'
loop_
 _atom_site_type_symbol
 _atom_site_label
 _atom_site_symmetry_multiplicity
 _atom_site_fract_x
 _atom_site_fract_y
 _atom_site_fract_z
 _atom_site_occupancy
  Rb  Rb0  1  0.566283  0.928053  0.923237  1
  Rb  Rb1  1  0.929372  0.563619  0.583736  1
  Rb  Rb2  1  0.320974  0.678922  0.679270  1
  Rb  Rb3  1  0.113373  0.112154  0.891901  1
  Ba  Ba4  1  0.136750  0.134614  0.369295  1
  Ba  Ba5  1  0.353639  0.364703  0.143997  1
  Ba  Ba6  1  0.678737  0.323802  0.321125  1
  Ba  Ba7  1  0.888141  0.892587  0.108417  1
  Ca  Ca8  1  0.336854  0.333794  0.664971  1
  Ca  Ca9  1  0.897529  0.915055  0.601512  1
  Ca  Ca10  1  0.664217  0.664962  0.337161  1
  Ca  Ca11  1  0.579266  0.602416  0.916240  1
  Tc  Tc12  1  0.504282  0.001718  0.485504  1
  Tc  Tc13  1  0.999197  0.503336  0.011717  1
  Tc  Tc14  1  0.751916  0.247962  0.748570  1
  Tc  Tc15  1  0.246530  0.748173  0.251775  1
  N  N16  1  0.997674  0.662882  0.824817  1
  N  N17  1  0.680837  0.305101  0.979799  1
  N  N18  1  0.656329  0.023527  0.490803  1
  N  N19  1  0.530291  0.811540  0.636903  1
  N  N20  1  0.266027  0.568990  0.420094  1
  N  N21  1  0.761147  0.404303  0.563425  1
  N  N22  1  0.974483  0.028226  0.715562  1
  N  N23  1  0.554317  0.968072  0.253554  1
  N  N24  1  0.427139  0.738050  0.233454  1
  N  N25  1  0.965023  0.566356  0.219143  1
  N  N26  1  0.278762  0.699443  0.037568  1
  N  N27  1  0.819762  0.504815  0.043194  1
  N  N28  1  0.219802  0.278694  0.976562  1
  N  N29  1  0.600674  0.235612  0.723927  1
  N  N30  1  0.273931  0.213016  0.539180  1
  N  N31  1  0.026743  0.975507  0.303584  1
