# generated using pymatgen
data_Ho3Er9InCo4Au
_symmetry_space_group_name_H-M   'P 1'
_cell_length_a   8.27378550
_cell_length_b   8.27378683
_cell_length_c   8.27458191
_cell_angle_alpha   111.09544191
_cell_angle_beta   110.59189647
_cell_angle_gamma   106.75619097
_symmetry_Int_Tables_number   1
_chemical_formula_structural   Ho3Er9InCo4Au
_chemical_formula_sum   'Ho3 Er9 In1 Co4 Au1'
_cell_volume   435.33077139
_cell_formula_units_Z   1
loop_
 _symmetry_equiv_pos_site_id
 _symmetry_equiv_pos_as_xyz
  1  'x, y, z'
loop_
 _atom_site_type_symbol
 _atom_site_label
 _atom_site_symmetry_multiplicity
 _atom_site_fract_x
 _atom_site_fract_y
 _atom_site_fract_z
 _atom_site_occupancy
  Ho  Ho0  1  0.187235  0.291965  0.479201  1
  Ho  Ho1  1  0.812546  0.708113  0.520658  1
  Ho  Ho2  1  0.187668  0.708111  0.895779  1
  Er  Er3  1  0.812594  0.291726  0.104320  1
  Er  Er4  1  0.315534  0.619574  0.303883  1
  Er  Er5  1  0.684081  0.380082  0.696099  1
  Er  Er6  1  0.316018  0.012018  0.696099  1
  Er  Er7  1  0.684308  0.988349  0.303883  1
  Er  Er8  1  0.426286  0.220878  0.204699  1
  Er  Er9  1  0.575697  0.780003  0.795938  1
  Er  Er10  1  0.015936  0.220241  0.795938  1
  Er  Er11  1  0.983821  0.778413  0.204699  1
  In  In12  1  0.500568  0.500355  0.000923  1
  Co  Co13  1  0.112381  0.612655  0.499151  1
  Co  Co14  1  0.886496  0.386770  0.499151  1
  Co  Co15  1  0.377395  0.000142  0.377536  1
  Co  Co16  1  0.621385  0.999954  0.621339  1
  Au  Au17  1  0.000055  0.000651  0.000706  1
