# generated using pymatgen
data_Sm4ThMnFeB6
_symmetry_space_group_name_H-M   'P 1'
_cell_length_a   5.48067505
_cell_length_b   5.48067649
_cell_length_c   8.31620270
_cell_angle_alpha   70.76049091
_cell_angle_beta   70.76048487
_cell_angle_gamma   60.00000168
_symmetry_Int_Tables_number   1
_chemical_formula_structural   Sm4ThMnFeB6
_chemical_formula_sum   'Sm4 Th1 Mn1 Fe1 B6'
_cell_volume   200.06165955
_cell_formula_units_Z   1
loop_
 _symmetry_equiv_pos_site_id
 _symmetry_equiv_pos_as_xyz
  1  'x, y, z'
loop_
 _atom_site_type_symbol
 _atom_site_label
 _atom_site_symmetry_multiplicity
 _atom_site_fract_x
 _atom_site_fract_y
 _atom_site_fract_z
 _atom_site_occupancy
  Sm  Sm0  1  0.747874  0.747874  0.756379  1
  Sm  Sm1  1  0.252065  0.252065  0.243806  1
  Sm  Sm2  1  0.584479  0.584479  0.246562  1
  Sm  Sm3  1  0.415204  0.415204  0.754388  1
  Th  Th4  1  0.998779  0.998779  0.003662  1
  Mn  Mn5  1  0.886947  0.886947  0.339159  1
  Fe  Fe6  1  0.113999  0.113999  0.658004  1
  B  B7  1  0.500283  0.165822  0.499673  1
  B  B8  1  0.834222  0.500283  0.499673  1
  B  B9  1  0.165822  0.834223  0.499673  1
  B  B10  1  0.165822  0.500283  0.499673  1
  B  B11  1  0.834222  0.165822  0.499673  1
  B  B12  1  0.500283  0.834222  0.499673  1
