# generated using pymatgen
data_Y4LuHf3Pt4
_symmetry_space_group_name_H-M   'P 1'
_cell_length_a   4.70907600
_cell_length_b   7.09678225
_cell_length_c   8.33021905
_cell_angle_alpha   90.71167569
_cell_angle_beta   90.00000000
_cell_angle_gamma   90.00000000
_symmetry_Int_Tables_number   1
_chemical_formula_structural   Y4LuHf3Pt4
_chemical_formula_sum   'Y4 Lu1 Hf3 Pt4'
_cell_volume   278.36850552
_cell_formula_units_Z   1
loop_
 _symmetry_equiv_pos_site_id
 _symmetry_equiv_pos_as_xyz
  1  'x, y, z'
loop_
 _atom_site_type_symbol
 _atom_site_label
 _atom_site_symmetry_multiplicity
 _atom_site_fract_x
 _atom_site_fract_y
 _atom_site_fract_z
 _atom_site_occupancy
  Y  Y0  1  0.250000  0.982206  0.327712  1
  Y  Y1  1  0.250000  0.486387  0.174274  1
  Y  Y2  1  0.750000  0.019042  0.680585  1
  Y  Y3  1  0.750000  0.516867  0.818473  1
  Lu  Lu4  1  0.750000  0.143136  0.079860  1
  Hf  Hf5  1  0.250000  0.360908  0.574665  1
  Hf  Hf6  1  0.250000  0.852671  0.924568  1
  Hf  Hf7  1  0.750000  0.647852  0.423184  1
  Pt  Pt8  1  0.250000  0.228439  0.890762  1
  Pt  Pt9  1  0.250000  0.731165  0.595717  1
  Pt  Pt10  1  0.750000  0.756069  0.094376  1
  Pt  Pt11  1  0.750000  0.275257  0.415825  1
