# generated using pymatgen
data_Nb12Co8Os3WN4
_symmetry_space_group_name_H-M   'P 1'
_cell_length_a   8.12766926
_cell_length_b   8.09886963
_cell_length_c   8.12766300
_cell_angle_alpha   59.88259573
_cell_angle_beta   59.99963277
_cell_angle_gamma   59.88126931
_symmetry_Int_Tables_number   1
_chemical_formula_structural   Nb12Co8Os3WN4
_chemical_formula_sum   'Nb12 Co8 Os3 W1 N4'
_cell_volume   377.62659513
_cell_formula_units_Z   1
loop_
 _symmetry_equiv_pos_site_id
 _symmetry_equiv_pos_as_xyz
  1  'x, y, z'
loop_
 _atom_site_type_symbol
 _atom_site_label
 _atom_site_symmetry_multiplicity
 _atom_site_fract_x
 _atom_site_fract_y
 _atom_site_fract_z
 _atom_site_occupancy
  Nb  Nb0  1  0.806296  0.805545  0.194091  1
  Nb  Nb1  1  0.188412  0.193833  0.808878  1
  Nb  Nb2  1  0.808890  0.193837  0.808872  1
  Nb  Nb3  1  0.194061  0.805541  0.194096  1
  Nb  Nb4  1  0.194099  0.805533  0.806265  1
  Nb  Nb5  1  0.808890  0.193814  0.188403  1
  Nb  Nb6  1  0.443704  0.444455  0.055909  1
  Nb  Nb7  1  0.061588  0.056167  0.441122  1
  Nb  Nb8  1  0.441110  0.056163  0.441128  1
  Nb  Nb9  1  0.055939  0.444459  0.055904  1
  Nb  Nb10  1  0.055901  0.444467  0.443735  1
  Nb  Nb11  1  0.441110  0.056186  0.061597  1
  Co  Co12  1  0.734459  0.421346  0.422097  1
  Co  Co13  1  0.423685  0.728926  0.423680  1
  Co  Co14  1  0.422083  0.421310  0.734523  1
  Co  Co15  1  0.422097  0.421339  0.422089  1
  Co  Co16  1  0.515541  0.828654  0.827903  1
  Co  Co17  1  0.826315  0.521074  0.826320  1
  Co  Co18  1  0.827917  0.828690  0.515477  1
  Co  Co19  1  0.827903  0.828661  0.827911  1
  Os  Os20  1  0.125000  0.625000  0.625000  1
  Os  Os21  1  0.625000  0.625000  0.125000  1
  Os  Os22  1  0.625000  0.625000  0.625000  1
  W  W23  1  0.625000  0.125000  0.625000  1
  N  N24  1  0.625000  0.125000  0.125000  1
  N  N25  1  0.125000  0.625000  0.125000  1
  N  N26  1  0.125000  0.125000  0.625000  1
  N  N27  1  0.125000  0.125000  0.125000  1
