# generated using pymatgen
data_LaSmHo4Ta2O14
_symmetry_space_group_name_H-M   'P 1'
_cell_length_a   6.49444428
_cell_length_b   6.49444381
_cell_length_c   7.59218403
_cell_angle_alpha   89.99217048
_cell_angle_beta   90.00783368
_cell_angle_gamma   109.18071881
_symmetry_Int_Tables_number   1
_chemical_formula_structural   LaSmHo4Ta2O14
_chemical_formula_sum   'La1 Sm1 Ho4 Ta2 O14'
_cell_volume   302.44517302
_cell_formula_units_Z   1
loop_
 _symmetry_equiv_pos_site_id
 _symmetry_equiv_pos_as_xyz
  1  'x, y, z'
loop_
 _atom_site_type_symbol
 _atom_site_label
 _atom_site_symmetry_multiplicity
 _atom_site_fract_x
 _atom_site_fract_y
 _atom_site_fract_z
 _atom_site_occupancy
  La  La0  1  0.500000  0.500000  0.500000  1
  Sm  Sm1  1  0.500000  0.500000  0.000000  1
  Ho  Ho2  1  0.533015  0.001178  0.751681  1
  Ho  Ho3  1  0.001178  0.533015  0.248319  1
  Ho  Ho4  1  0.466985  0.998822  0.248319  1
  Ho  Ho5  1  0.998822  0.466985  0.751681  1
  Ta  Ta6  1  0.000000  0.000000  0.500000  1
  Ta  Ta7  1  0.000000  0.000000  0.000000  1
  O  O8  1  0.679859  0.933711  0.467127  1
  O  O9  1  0.933711  0.679859  0.532873  1
  O  O10  1  0.679452  0.930019  0.032453  1
  O  O11  1  0.930019  0.679452  0.967547  1
  O  O12  1  0.320141  0.066289  0.532873  1
  O  O13  1  0.066289  0.320141  0.467127  1
  O  O14  1  0.320548  0.069981  0.967547  1
  O  O15  1  0.069981  0.320548  0.032453  1
  O  O16  1  0.935279  0.064721  0.749919  1
  O  O17  1  0.064721  0.935279  0.250081  1
  O  O18  1  0.363396  0.636603  0.755997  1
  O  O19  1  0.636603  0.363396  0.244003  1
  O  O20  1  0.643179  0.356821  0.754822  1
  O  O21  1  0.356821  0.643179  0.245178  1
