# generated using pymatgen
data_Al5V6GaFe12
_symmetry_space_group_name_H-M   'P 1'
_cell_length_a   4.03552200
_cell_length_b   5.71032400
_cell_length_c   12.10826500
_cell_angle_alpha   90.00000000
_cell_angle_beta   89.99968767
_cell_angle_gamma   90.00000000
_symmetry_Int_Tables_number   1
_chemical_formula_structural   Al5V6GaFe12
_chemical_formula_sum   'Al5 V6 Ga1 Fe12'
_cell_volume   279.02453116
_cell_formula_units_Z   1
loop_
 _symmetry_equiv_pos_site_id
 _symmetry_equiv_pos_as_xyz
  1  'x, y, z'
loop_
 _atom_site_type_symbol
 _atom_site_label
 _atom_site_symmetry_multiplicity
 _atom_site_fract_x
 _atom_site_fract_y
 _atom_site_fract_z
 _atom_site_occupancy
  Al  Al0  1  0.500125  0.000000  0.166703  1
  Al  Al1  1  0.000123  0.500000  0.333360  1
  Al  Al2  1  0.500001  0.000000  0.500000  1
  Al  Al3  1  0.999877  0.500000  0.666640  1
  Al  Al4  1  0.499875  0.000000  0.833296  1
  V  V5  1  0.000000  0.000000  0.000000  1
  V  V6  1  0.500058  0.500000  0.166488  1
  V  V7  1  0.000057  0.000000  0.333215  1
  V  V8  1  0.500001  0.500000  0.500000  1
  V  V9  1  0.999943  0.000000  0.666785  1
  V  V10  1  0.499942  0.500000  0.833512  1
  Ga  Ga11  1  0.000000  0.500000  0.000000  1
  Fe  Fe12  1  0.500001  0.248138  0.000000  1
  Fe  Fe13  1  0.500001  0.751861  0.000000  1
  Fe  Fe14  1  0.000128  0.249161  0.167273  1
  Fe  Fe15  1  0.000128  0.750839  0.167273  1
  Fe  Fe16  1  0.500125  0.250108  0.333296  1
  Fe  Fe17  1  0.500125  0.749892  0.333296  1
  Fe  Fe18  1  0.000000  0.250116  0.500000  1
  Fe  Fe19  1  0.000000  0.749884  0.500000  1
  Fe  Fe20  1  0.499875  0.250108  0.666704  1
  Fe  Fe21  1  0.499875  0.749892  0.666704  1
  Fe  Fe22  1  0.999872  0.249161  0.832727  1
  Fe  Fe23  1  0.999872  0.750839  0.832727  1
