# generated using pymatgen
data_Ho20Ir5Pt2Rh5
_symmetry_space_group_name_H-M   'P 1'
_cell_length_a   10.90037957
_cell_length_b   10.90037950
_cell_length_c   6.32972825
_cell_angle_alpha   90.01482217
_cell_angle_beta   90.01482360
_cell_angle_gamma   90.37331942
_symmetry_Int_Tables_number   1
_chemical_formula_structural   Ho20Ir5Pt2Rh5
_chemical_formula_sum   'Ho20 Ir5 Pt2 Rh5'
_cell_volume   752.07137052
_cell_formula_units_Z   1
loop_
 _symmetry_equiv_pos_site_id
 _symmetry_equiv_pos_as_xyz
  1  'x, y, z'
loop_
 _atom_site_type_symbol
 _atom_site_label
 _atom_site_symmetry_multiplicity
 _atom_site_fract_x
 _atom_site_fract_y
 _atom_site_fract_z
 _atom_site_occupancy
  Ho  Ho0  1  0.293183  0.087709  0.374542  1
  Ho  Ho1  1  0.291634  0.907745  0.879899  1
  Ho  Ho2  1  0.707682  0.092056  0.879244  1
  Ho  Ho3  1  0.706021  0.910381  0.374537  1
  Ho  Ho4  1  0.585696  0.789858  0.880222  1
  Ho  Ho5  1  0.588098  0.210029  0.379504  1
  Ho  Ho6  1  0.409973  0.790227  0.379875  1
  Ho  Ho7  1  0.413969  0.209753  0.879784  1
  Ho  Ho8  1  0.210142  0.414304  0.619778  1
  Ho  Ho9  1  0.209773  0.590027  0.120125  1
  Ho  Ho10  1  0.789971  0.411902  0.120496  1
  Ho  Ho11  1  0.790247  0.586031  0.620216  1
  Ho  Ho12  1  0.912291  0.706817  0.125458  1
  Ho  Ho13  1  0.907944  0.292318  0.620756  1
  Ho  Ho14  1  0.092255  0.708366  0.620101  1
  Ho  Ho15  1  0.089619  0.293979  0.125463  1
  Ho  Ho16  1  0.000043  0.999879  0.498499  1
  Ho  Ho17  1  0.000121  0.999957  0.001501  1
  Ho  Ho18  1  0.499914  0.499698  0.000367  1
  Ho  Ho19  1  0.500302  0.500086  0.499633  1
  Ir  Ir20  1  0.153105  0.846895  0.250000  1
  Ir  Ir21  1  0.654505  0.345495  0.750000  1
  Ir  Ir22  1  0.655354  0.654977  0.249718  1
  Ir  Ir23  1  0.345023  0.344646  0.250282  1
  Ir  Ir24  1  0.346179  0.653821  0.750000  1
  Pt  Pt25  1  0.845215  0.845781  0.749811  1
  Pt  Pt26  1  0.154219  0.154785  0.750189  1
  Rh  Rh27  1  0.846836  0.153164  0.250000  1
  Rh  Rh28  1  0.500570  0.000131  0.122680  1
  Rh  Rh29  1  0.500373  0.000128  0.624657  1
  Rh  Rh30  1  0.999872  0.499627  0.875343  1
  Rh  Rh31  1  0.999869  0.499430  0.377320  1
