# generated using pymatgen
data_Ca3(Si3Os)4
_symmetry_space_group_name_H-M   'P 1'
_cell_length_a   10.19851027
_cell_length_b   10.19851096
_cell_length_c   8.19925614
_cell_angle_alpha   90.00883551
_cell_angle_beta   90.00884276
_cell_angle_gamma   132.56134895
_symmetry_Int_Tables_number   1
_chemical_formula_structural   Ca3(Si3Os)4
_chemical_formula_sum   'Ca6 Si24 Os8'
_cell_volume   628.13391461
_cell_formula_units_Z   2
loop_
 _symmetry_equiv_pos_site_id
 _symmetry_equiv_pos_as_xyz
  1  'x, y, z'
loop_
 _atom_site_type_symbol
 _atom_site_label
 _atom_site_symmetry_multiplicity
 _atom_site_fract_x
 _atom_site_fract_y
 _atom_site_fract_z
 _atom_site_occupancy
  Ca  Ca0  1  0.500786  0.000906  0.749993  1
  Ca  Ca1  1  0.999094  0.499214  0.250007  1
  Ca  Ca2  1  0.999971  0.000029  0.000000  1
  Ca  Ca3  1  0.499561  0.999464  0.249983  1
  Ca  Ca4  1  0.000536  0.500439  0.750017  1
  Ca  Ca5  1  0.500000  0.500000  0.500000  1
  Si  Si6  1  0.794527  0.205473  0.500000  1
  Si  Si7  1  0.705364  0.294636  0.000000  1
  Si  Si8  1  0.205574  0.794426  0.500000  1
  Si  Si9  1  0.294526  0.705474  0.000000  1
  Si  Si10  1  0.666527  0.668796  0.167285  1
  Si  Si11  1  0.168527  0.166082  0.332387  1
  Si  Si12  1  0.833918  0.831473  0.667613  1
  Si  Si13  1  0.331204  0.333473  0.832715  1
  Si  Si14  1  0.847298  0.613646  0.991574  1
  Si  Si15  1  0.113455  0.347207  0.508172  1
  Si  Si16  1  0.652793  0.886545  0.491828  1
  Si  Si17  1  0.386354  0.152702  0.008426  1
  Si  Si18  1  0.152138  0.386146  0.009281  1
  Si  Si19  1  0.886348  0.652259  0.491033  1
  Si  Si20  1  0.127087  0.893686  0.731409  1
  Si  Si21  1  0.393685  0.627191  0.768670  1
  Si  Si22  1  0.372809  0.606315  0.231330  1
  Si  Si23  1  0.106314  0.872913  0.268591  1
  Si  Si24  1  0.873997  0.107130  0.268999  1
  Si  Si25  1  0.607149  0.373929  0.230963  1
  Si  Si26  1  0.626071  0.392851  0.769037  1
  Si  Si27  1  0.892870  0.126003  0.731001  1
  Si  Si28  1  0.613854  0.847862  0.990719  1
  Si  Si29  1  0.347741  0.113652  0.508967  1
  Os  Os30  1  0.626125  0.625875  0.874726  1
  Os  Os31  1  0.125979  0.126288  0.625240  1
  Os  Os32  1  0.374125  0.373875  0.125274  1
  Os  Os33  1  0.873712  0.874021  0.374760  1
  Os  Os34  1  0.169579  0.830421  0.000000  1
  Os  Os35  1  0.330446  0.669554  0.500000  1
  Os  Os36  1  0.830381  0.169619  0.000000  1
  Os  Os37  1  0.669577  0.330423  0.500000  1
