# generated using pymatgen
data_SmDy2Tm3(Si3Ru)8
_symmetry_space_group_name_H-M   'P 1'
_cell_length_a   10.10773799
_cell_length_b   10.10773730
_cell_length_c   8.13284471
_cell_angle_alpha   89.86033104
_cell_angle_beta   90.13967035
_cell_angle_gamma   132.51609110
_symmetry_Int_Tables_number   1
_chemical_formula_structural   SmDy2Tm3(Si3Ru)8
_chemical_formula_sum   'Sm1 Dy2 Tm3 Si24 Ru8'
_cell_volume   612.44620920
_cell_formula_units_Z   1
loop_
 _symmetry_equiv_pos_site_id
 _symmetry_equiv_pos_as_xyz
  1  'x, y, z'
loop_
 _atom_site_type_symbol
 _atom_site_label
 _atom_site_symmetry_multiplicity
 _atom_site_fract_x
 _atom_site_fract_y
 _atom_site_fract_z
 _atom_site_occupancy
  Sm  Sm0  1  0.997203  0.497203  0.250000  1
  Dy  Dy1  1  0.497766  0.997766  0.250000  1
  Dy  Dy2  1  0.002109  0.502109  0.750000  1
  Tm  Tm3  1  0.499966  0.499904  0.500149  1
  Tm  Tm4  1  0.999904  0.999966  0.999851  1
  Tm  Tm5  1  0.502365  0.002365  0.750000  1
  Si  Si6  1  0.794012  0.204654  0.501408  1
  Si  Si7  1  0.295076  0.705732  0.998549  1
  Si  Si8  1  0.205732  0.795076  0.501451  1
  Si  Si9  1  0.704654  0.294012  0.998592  1
  Si  Si10  1  0.332028  0.332591  0.833023  1
  Si  Si11  1  0.667809  0.667748  0.167199  1
  Si  Si12  1  0.167748  0.167809  0.332801  1
  Si  Si13  1  0.832591  0.832028  0.666977  1
  Si  Si14  1  0.120971  0.887378  0.728266  1
  Si  Si15  1  0.111714  0.877666  0.271194  1
  Si  Si16  1  0.613319  0.379367  0.229165  1
  Si  Si17  1  0.621698  0.387705  0.772288  1
  Si  Si18  1  0.879367  0.113319  0.270835  1
  Si  Si19  1  0.887705  0.121698  0.727712  1
  Si  Si20  1  0.387378  0.620971  0.771734  1
  Si  Si21  1  0.377666  0.611714  0.228806  1
  Si  Si22  1  0.343416  0.110827  0.504983  1
  Si  Si23  1  0.886639  0.652693  0.495552  1
  Si  Si24  1  0.389195  0.156831  0.003249  1
  Si  Si25  1  0.847372  0.613191  0.994985  1
  Si  Si26  1  0.656831  0.889195  0.496751  1
  Si  Si27  1  0.113191  0.347372  0.505015  1
  Si  Si28  1  0.610827  0.843416  0.995017  1
  Si  Si29  1  0.152693  0.386639  0.004448  1
  Ru  Ru30  1  0.664299  0.327380  0.502463  1
  Ru  Ru31  1  0.172812  0.835756  0.998609  1
  Ru  Ru32  1  0.335756  0.672812  0.501391  1
  Ru  Ru33  1  0.827380  0.164299  0.997537  1
  Ru  Ru34  1  0.125943  0.126740  0.626850  1
  Ru  Ru35  1  0.874116  0.874008  0.372685  1
  Ru  Ru36  1  0.374008  0.374116  0.127315  1
  Ru  Ru37  1  0.626740  0.625943  0.873150  1
