# generated using pymatgen
data_K2BaFe5NiP6
_symmetry_space_group_name_H-M   'P 1'
_cell_length_a   8.42100765
_cell_length_b   8.42100743
_cell_length_c   6.96912339
_cell_angle_alpha   68.72009471
_cell_angle_beta   68.72010028
_cell_angle_gamma   36.85517840
_symmetry_Int_Tables_number   1
_chemical_formula_structural   K2BaFe5NiP6
_chemical_formula_sum   'K2 Ba1 Fe5 Ni1 P6'
_cell_volume   273.87480101
_cell_formula_units_Z   1
loop_
 _symmetry_equiv_pos_site_id
 _symmetry_equiv_pos_as_xyz
  1  'x, y, z'
loop_
 _atom_site_type_symbol
 _atom_site_label
 _atom_site_symmetry_multiplicity
 _atom_site_fract_x
 _atom_site_fract_y
 _atom_site_fract_z
 _atom_site_occupancy
  K  K0  1  0.672051  0.671110  0.001198  1
  K  K1  1  0.328890  0.327949  0.998802  1
  Ba  Ba2  1  0.998920  0.001080  0.000000  1
  Fe  Fe3  1  0.082164  0.582868  0.499670  1
  Fe  Fe4  1  0.417132  0.917836  0.500330  1
  Fe  Fe5  1  0.585047  0.084586  0.499782  1
  Fe  Fe6  1  0.915414  0.414953  0.500218  1
  Fe  Fe7  1  0.250029  0.749971  0.500000  1
  Ni  Ni8  1  0.749879  0.250121  0.500000  1
  P  P9  1  0.892139  0.877048  0.679792  1
  P  P10  1  0.220001  0.220310  0.677686  1
  P  P11  1  0.548515  0.562822  0.680067  1
  P  P12  1  0.437178  0.451485  0.319933  1
  P  P13  1  0.779690  0.779999  0.322314  1
  P  P14  1  0.122952  0.107861  0.320208  1
