# generated using pymatgen
data_Lu5Th(Si3Os)8
_symmetry_space_group_name_H-M   'P 1'
_cell_length_a   10.11424687
_cell_length_b   10.11424497
_cell_length_c   8.15213451
_cell_angle_alpha   89.80936132
_cell_angle_beta   90.19063645
_cell_angle_gamma   132.56559923
_symmetry_Int_Tables_number   1
_chemical_formula_structural   Lu5Th(Si3Os)8
_chemical_formula_sum   'Lu5 Th1 Si24 Os8'
_cell_volume   614.20057197
_cell_formula_units_Z   1
loop_
 _symmetry_equiv_pos_site_id
 _symmetry_equiv_pos_as_xyz
  1  'x, y, z'
loop_
 _atom_site_type_symbol
 _atom_site_label
 _atom_site_symmetry_multiplicity
 _atom_site_fract_x
 _atom_site_fract_y
 _atom_site_fract_z
 _atom_site_occupancy
  Lu  Lu0  1  0.999978  0.000033  0.999493  1
  Lu  Lu1  1  0.500033  0.499978  0.500507  1
  Lu  Lu2  1  0.002048  0.502048  0.250000  1
  Lu  Lu3  1  0.997607  0.497607  0.750000  1
  Lu  Lu4  1  0.497854  0.997854  0.750000  1
  Th  Th5  1  0.503150  0.003150  0.250000  1
  Si  Si6  1  0.707910  0.297956  0.996501  1
  Si  Si7  1  0.291657  0.700967  0.996904  1
  Si  Si8  1  0.797956  0.207910  0.503499  1
  Si  Si9  1  0.200967  0.791657  0.503096  1
  Si  Si10  1  0.332088  0.333089  0.168520  1
  Si  Si11  1  0.668128  0.666744  0.832185  1
  Si  Si12  1  0.166744  0.168128  0.667815  1
  Si  Si13  1  0.833089  0.832088  0.331480  1
  Si  Si14  1  0.843947  0.611195  0.002201  1
  Si  Si15  1  0.156046  0.388792  0.995968  1
  Si  Si16  1  0.653883  0.888917  0.505518  1
  Si  Si17  1  0.111195  0.343947  0.497799  1
  Si  Si18  1  0.344768  0.111110  0.499458  1
  Si  Si19  1  0.888792  0.656046  0.504032  1
  Si  Si20  1  0.388917  0.153883  0.994482  1
  Si  Si21  1  0.611110  0.844768  0.000542  1
  Si  Si22  1  0.888894  0.123719  0.270928  1
  Si  Si23  1  0.112658  0.879874  0.727499  1
  Si  Si24  1  0.614324  0.380703  0.772819  1
  Si  Si25  1  0.623719  0.388894  0.229072  1
  Si  Si26  1  0.385092  0.619225  0.228815  1
  Si  Si27  1  0.379874  0.612658  0.772501  1
  Si  Si28  1  0.880703  0.114324  0.727181  1
  Si  Si29  1  0.119225  0.885092  0.271185  1
  Os  Os30  1  0.834186  0.170399  0.997052  1
  Os  Os31  1  0.165811  0.828838  0.997706  1
  Os  Os32  1  0.670399  0.334186  0.502948  1
  Os  Os33  1  0.328838  0.665811  0.502294  1
  Os  Os34  1  0.127174  0.127228  0.372434  1
  Os  Os35  1  0.871326  0.872682  0.626276  1
  Os  Os36  1  0.372682  0.371326  0.873724  1
  Os  Os37  1  0.627228  0.627174  0.127566  1
