# generated using pymatgen
data_SrLaMgRhO6
_symmetry_space_group_name_H-M   'P 1'
_cell_length_a   5.65540100
_cell_length_b   5.63916856
_cell_length_c   9.71311747
_cell_angle_alpha   54.80275577
_cell_angle_beta   90.00000000
_cell_angle_gamma   90.00000000
_symmetry_Int_Tables_number   1
_chemical_formula_structural   SrLaMgRhO6
_chemical_formula_sum   'Sr2 La2 Mg2 Rh2 O12'
_cell_volume   253.13426112
_cell_formula_units_Z   2
loop_
 _symmetry_equiv_pos_site_id
 _symmetry_equiv_pos_as_xyz
  1  'x, y, z'
loop_
 _atom_site_type_symbol
 _atom_site_label
 _atom_site_symmetry_multiplicity
 _atom_site_fract_x
 _atom_site_fract_y
 _atom_site_fract_z
 _atom_site_occupancy
  Sr  Sr0  1  0.278359  0.255573  0.749602  1
  Sr  Sr1  1  0.721641  0.255573  0.249602  1
  La  La2  1  0.212592  0.740663  0.249181  1
  La  La3  1  0.787408  0.740663  0.749181  1
  Mg  Mg4  1  0.253507  0.999877  0.499404  1
  Mg  Mg5  1  0.746493  0.999877  0.999404  1
  Rh  Rh6  1  0.748776  0.499589  0.500266  1
  Rh  Rh7  1  0.251224  0.499589  0.000266  1
  O  O8  1  0.738303  0.170949  0.744707  1
  O  O9  1  0.261697  0.170949  0.244707  1
  O  O10  1  0.769650  0.810050  0.255184  1
  O  O11  1  0.230350  0.810050  0.755184  1
  O  O12  1  0.972702  0.269578  0.463045  1
  O  O13  1  0.027298  0.269578  0.963045  1
  O  O14  1  0.539340  0.736246  0.541998  1
  O  O15  1  0.460660  0.736246  0.041998  1
  O  O16  1  0.469392  0.335716  0.456561  1
  O  O17  1  0.530608  0.335716  0.956561  1
  O  O18  1  0.018122  0.681760  0.540051  1
  O  O19  1  0.981878  0.681760  0.040051  1
