# generated using pymatgen
data_Dy2ErAl12CoRu3
_symmetry_space_group_name_H-M   'P 1'
_cell_length_a   8.75412256
_cell_length_b   8.75412366
_cell_length_c   9.51252000
_cell_angle_alpha   90.00000000
_cell_angle_beta   90.00000000
_cell_angle_gamma   120.04089964
_symmetry_Int_Tables_number   1
_chemical_formula_structural   Dy2ErAl12CoRu3
_chemical_formula_sum   'Dy4 Er2 Al24 Co2 Ru6'
_cell_volume   631.06250907
_cell_formula_units_Z   2
loop_
 _symmetry_equiv_pos_site_id
 _symmetry_equiv_pos_as_xyz
  1  'x, y, z'
loop_
 _atom_site_type_symbol
 _atom_site_label
 _atom_site_symmetry_multiplicity
 _atom_site_fract_x
 _atom_site_fract_y
 _atom_site_fract_z
 _atom_site_occupancy
  Dy  Dy0  1  0.193804  0.387697  0.250000  1
  Dy  Dy1  1  0.806196  0.612303  0.750000  1
  Dy  Dy2  1  0.612303  0.806196  0.250000  1
  Dy  Dy3  1  0.387697  0.193804  0.750000  1
  Er  Er4  1  0.194042  0.805958  0.250000  1
  Er  Er5  1  0.805958  0.194042  0.750000  1
  Al  Al6  1  0.333229  0.666771  0.016509  1
  Al  Al7  1  0.666771  0.333229  0.983491  1
  Al  Al8  1  0.666771  0.333229  0.516509  1
  Al  Al9  1  0.333229  0.666771  0.483491  1
  Al  Al10  1  0.159531  0.319327  0.576911  1
  Al  Al11  1  0.840469  0.680673  0.423089  1
  Al  Al12  1  0.680673  0.840469  0.576911  1
  Al  Al13  1  0.840469  0.680673  0.076911  1
  Al  Al14  1  0.319327  0.159531  0.423089  1
  Al  Al15  1  0.159531  0.319327  0.923089  1
  Al  Al16  1  0.159708  0.840292  0.576696  1
  Al  Al17  1  0.319327  0.159531  0.076911  1
  Al  Al18  1  0.840292  0.159708  0.423304  1
  Al  Al19  1  0.680673  0.840469  0.923089  1
  Al  Al20  1  0.840292  0.159708  0.076696  1
  Al  Al21  1  0.159708  0.840292  0.923304  1
  Al  Al22  1  0.561126  0.122621  0.250000  1
  Al  Al23  1  0.438874  0.877379  0.750000  1
  Al  Al24  1  0.877379  0.438874  0.250000  1
  Al  Al25  1  0.122621  0.561126  0.750000  1
  Al  Al26  1  0.561448  0.438552  0.250000  1
  Al  Al27  1  0.438552  0.561448  0.750000  1
  Al  Al28  1  0.000143  0.999857  0.250000  1
  Al  Al29  1  0.999857  0.000143  0.750000  1
  Co  Co30  1  0.000000  0.000000  0.000000  1
  Co  Co31  1  0.000000  0.000000  0.500000  1
  Ru  Ru32  1  0.500000  0.000000  0.000000  1
  Ru  Ru33  1  0.000000  0.500000  0.000000  1
  Ru  Ru34  1  0.500000  0.000000  0.500000  1
  Ru  Ru35  1  0.500000  0.500000  0.000000  1
  Ru  Ru36  1  0.000000  0.500000  0.500000  1
  Ru  Ru37  1  0.500000  0.500000  0.500000  1
