# generated using pymatgen
data_TiGaGeRh5
_symmetry_space_group_name_H-M   'P 1'
_cell_length_a   4.06046200
_cell_length_b   5.40835600
_cell_length_c   10.45829600
_cell_angle_alpha   90.00000000
_cell_angle_beta   90.00000000
_cell_angle_gamma   90.00000000
_symmetry_Int_Tables_number   1
_chemical_formula_structural   TiGaGeRh5
_chemical_formula_sum   'Ti2 Ga2 Ge2 Rh10'
_cell_volume   229.66861469
_cell_formula_units_Z   2
loop_
 _symmetry_equiv_pos_site_id
 _symmetry_equiv_pos_as_xyz
  1  'x, y, z'
loop_
 _atom_site_type_symbol
 _atom_site_label
 _atom_site_symmetry_multiplicity
 _atom_site_fract_x
 _atom_site_fract_y
 _atom_site_fract_z
 _atom_site_occupancy
  Ti  Ti0  1  0.500000  0.842835  0.361149  1
  Ti  Ti1  1  0.500000  0.342835  0.138851  1
  Ga  Ga2  1  0.500000  0.142885  0.645459  1
  Ga  Ga3  1  0.500000  0.642885  0.854541  1
  Ge  Ge4  1  0.000000  0.527749  0.494211  1
  Ge  Ge5  1  0.000000  0.027749  0.005789  1
  Rh  Rh6  1  0.000000  0.382223  0.727024  1
  Rh  Rh7  1  0.000000  0.081722  0.247387  1
  Rh  Rh8  1  0.000000  0.882223  0.772976  1
  Rh  Rh9  1  0.500000  0.823295  0.110349  1
  Rh  Rh10  1  0.500000  0.178602  0.893683  1
  Rh  Rh11  1  0.500000  0.678602  0.606317  1
  Rh  Rh12  1  0.000000  0.020688  0.507089  1
  Rh  Rh13  1  0.500000  0.323295  0.389651  1
  Rh  Rh14  1  0.000000  0.520688  0.992911  1
  Rh  Rh15  1  0.000000  0.581722  0.252613  1
