# generated using pymatgen
data_LiPr4Mn3O12
_symmetry_space_group_name_H-M   'P 1'
_cell_length_a   5.50163882
_cell_length_b   5.56012351
_cell_length_c   7.78445234
_cell_angle_alpha   90.00280715
_cell_angle_beta   89.70917311
_cell_angle_gamma   89.64680065
_symmetry_Int_Tables_number   1
_chemical_formula_structural   LiPr4Mn3O12
_chemical_formula_sum   'Li1 Pr4 Mn3 O12'
_cell_volume   238.11717989
_cell_formula_units_Z   1
loop_
 _symmetry_equiv_pos_site_id
 _symmetry_equiv_pos_as_xyz
  1  'x, y, z'
loop_
 _atom_site_type_symbol
 _atom_site_label
 _atom_site_symmetry_multiplicity
 _atom_site_fract_x
 _atom_site_fract_y
 _atom_site_fract_z
 _atom_site_occupancy
  Li  Li0  1  0.500000  0.000000  0.500000  1
  Pr  Pr1  1  0.004316  0.962677  0.738545  1
  Pr  Pr2  1  0.514504  0.548574  0.262692  1
  Pr  Pr3  1  0.485496  0.451426  0.737308  1
  Pr  Pr4  1  0.995684  0.037323  0.261455  1
  Mn  Mn5  1  0.000000  0.500000  0.500000  1
  Mn  Mn6  1  0.000000  0.500000  0.000000  1
  Mn  Mn7  1  0.500000  0.000000  0.000000  1
  O  O8  1  0.728326  0.296144  0.462645  1
  O  O9  1  0.202782  0.224828  0.538309  1
  O  O10  1  0.789568  0.781615  0.045853  1
  O  O11  1  0.279940  0.711452  0.952910  1
  O  O12  1  0.271674  0.703856  0.537355  1
  O  O13  1  0.797218  0.775172  0.461691  1
  O  O14  1  0.210432  0.218385  0.954147  1
  O  O15  1  0.720060  0.288548  0.047090  1
  O  O16  1  0.081168  0.483428  0.250627  1
  O  O17  1  0.575931  0.018239  0.762900  1
  O  O18  1  0.424069  0.981761  0.237100  1
  O  O19  1  0.918832  0.516572  0.749373  1
