# generated using pymatgen
data_Tb6YRuI12
_symmetry_space_group_name_H-M   'P 1'
_cell_length_a   9.85630376
_cell_length_b   9.85630347
_cell_length_c   9.85630360
_cell_angle_alpha   107.27337504
_cell_angle_beta   107.27337137
_cell_angle_gamma   107.27337299
_symmetry_Int_Tables_number   1
_chemical_formula_structural   Tb6YRuI12
_chemical_formula_sum   'Tb6 Y1 Ru1 I12'
_cell_volume   791.39955271
_cell_formula_units_Z   1
loop_
 _symmetry_equiv_pos_site_id
 _symmetry_equiv_pos_as_xyz
  1  'x, y, z'
loop_
 _atom_site_type_symbol
 _atom_site_label
 _atom_site_symmetry_multiplicity
 _atom_site_fract_x
 _atom_site_fract_y
 _atom_site_fract_z
 _atom_site_occupancy
  Tb  Tb0  1  0.906885  0.704851  0.978875  1
  Tb  Tb1  1  0.978875  0.906885  0.704851  1
  Tb  Tb2  1  0.704851  0.978875  0.906885  1
  Tb  Tb3  1  0.093115  0.295149  0.021125  1
  Tb  Tb4  1  0.021125  0.093115  0.295149  1
  Tb  Tb5  1  0.295149  0.021125  0.093115  1
  Y  Y6  1  0.500000  0.500000  0.500000  1
  Ru  Ru7  1  0.000000  0.000000  0.000000  1
  I  I8  1  0.613577  0.837909  0.536676  1
  I  I9  1  0.536676  0.613577  0.837909  1
  I  I10  1  0.837909  0.536676  0.613577  1
  I  I11  1  0.386423  0.162091  0.463324  1
  I  I12  1  0.463324  0.386423  0.162091  1
  I  I13  1  0.162091  0.463324  0.386423  1
  I  I14  1  0.679477  0.073621  0.225986  1
  I  I15  1  0.225986  0.679477  0.073621  1
  I  I16  1  0.073621  0.225986  0.679477  1
  I  I17  1  0.320523  0.926379  0.774014  1
  I  I18  1  0.774014  0.320523  0.926379  1
  I  I19  1  0.926379  0.774014  0.320523  1
