# generated using pymatgen
data_Hf3TiI12
_symmetry_space_group_name_H-M   'P 1'
_cell_length_a   6.57772846
_cell_length_b   7.95819274
_cell_length_c   13.87946800
_cell_angle_alpha   90.00000000
_cell_angle_beta   90.00000000
_cell_angle_gamma   89.88565606
_symmetry_Int_Tables_number   1
_chemical_formula_structural   Hf3TiI12
_chemical_formula_sum   'Hf3 Ti1 I12'
_cell_volume   726.54471758
_cell_formula_units_Z   1
loop_
 _symmetry_equiv_pos_site_id
 _symmetry_equiv_pos_as_xyz
  1  'x, y, z'
loop_
 _atom_site_type_symbol
 _atom_site_label
 _atom_site_symmetry_multiplicity
 _atom_site_fract_x
 _atom_site_fract_y
 _atom_site_fract_z
 _atom_site_occupancy
  Hf  Hf0  1  0.248722  0.249455  0.500000  1
  Hf  Hf1  1  0.751373  0.249413  0.500000  1
  Hf  Hf2  1  0.751189  0.750520  0.000000  1
  Ti  Ti3  1  0.248328  0.750558  0.000000  1
  I  I4  1  0.500066  0.398563  0.351193  1
  I  I5  1  0.001984  0.603894  0.853557  1
  I  I6  1  0.001984  0.603894  0.146443  1
  I  I7  1  0.500066  0.398563  0.648807  1
  I  I8  1  0.498148  0.896555  0.854623  1
  I  I9  1  0.000058  0.099542  0.350698  1
  I  I10  1  0.000058  0.099542  0.649302  1
  I  I11  1  0.498148  0.896555  0.145377  1
  I  I12  1  0.500128  0.950185  0.500000  1
  I  I13  1  0.003730  0.044241  0.000000  1
  I  I14  1  0.496121  0.458706  0.000000  1
  I  I15  1  0.999897  0.549814  0.500000  1
