# generated using pymatgen
data_Ba2LiAc(AsPt)4
_symmetry_space_group_name_H-M   'P 1'
_cell_length_a   4.40522300
_cell_length_b   4.40532629
_cell_length_c   16.69139100
_cell_angle_alpha   89.99925315
_cell_angle_beta   89.99869405
_cell_angle_gamma   119.99999952
_symmetry_Int_Tables_number   1
_chemical_formula_structural   Ba2LiAc(AsPt)4
_chemical_formula_sum   'Ba2 Li1 Ac1 As4 Pt4'
_cell_volume   280.52343202
_cell_formula_units_Z   1
loop_
 _symmetry_equiv_pos_site_id
 _symmetry_equiv_pos_as_xyz
  1  'x, y, z'
loop_
 _atom_site_type_symbol
 _atom_site_label
 _atom_site_symmetry_multiplicity
 _atom_site_fract_x
 _atom_site_fract_y
 _atom_site_fract_z
 _atom_site_occupancy
  Ba  Ba0  1  0.999981  0.999995  0.270532  1
  Ba  Ba1  1  0.000019  0.000005  0.729468  1
  Li  Li2  1  0.000000  0.000000  0.500000  1
  Ac  Ac3  1  0.000000  0.000000  0.000000  1
  As  As4  1  0.333341  0.666669  0.866699  1
  As  As5  1  0.666659  0.333331  0.133301  1
  As  As6  1  0.666625  0.333297  0.414001  1
  As  As7  1  0.333375  0.666703  0.585999  1
  Pt  Pt8  1  0.333294  0.666635  0.426334  1
  Pt  Pt9  1  0.666706  0.333365  0.573666  1
  Pt  Pt10  1  0.666674  0.333337  0.875127  1
  Pt  Pt11  1  0.333326  0.666663  0.124873  1
