# generated using pymatgen
data_HoEr11Ir3Os
_symmetry_space_group_name_H-M   'P 1'
_cell_length_a   6.36546950
_cell_length_b   7.25474989
_cell_length_c   9.01751100
_cell_angle_alpha   90.00000000
_cell_angle_beta   90.00000000
_cell_angle_gamma   90.00558232
_symmetry_Int_Tables_number   1
_chemical_formula_structural   HoEr11Ir3Os
_chemical_formula_sum   'Ho1 Er11 Ir3 Os1'
_cell_volume   416.42765643
_cell_formula_units_Z   1
loop_
 _symmetry_equiv_pos_site_id
 _symmetry_equiv_pos_as_xyz
  1  'x, y, z'
loop_
 _atom_site_type_symbol
 _atom_site_label
 _atom_site_symmetry_multiplicity
 _atom_site_fract_x
 _atom_site_fract_y
 _atom_site_fract_z
 _atom_site_occupancy
  Ho  Ho0  1  0.871684  0.534548  0.250000  1
  Er  Er1  1  0.328292  0.677369  0.062073  1
  Er  Er2  1  0.169790  0.176443  0.439775  1
  Er  Er3  1  0.673987  0.321825  0.563579  1
  Er  Er4  1  0.827929  0.824553  0.936687  1
  Er  Er5  1  0.673987  0.321825  0.936421  1
  Er  Er6  1  0.827929  0.824553  0.563313  1
  Er  Er7  1  0.328292  0.677369  0.437927  1
  Er  Er8  1  0.169790  0.176443  0.060225  1
  Er  Er9  1  0.628036  0.035538  0.250000  1
  Er  Er10  1  0.127498  0.464899  0.750000  1
  Er  Er11  1  0.372271  0.965215  0.750000  1
  Ir  Ir12  1  0.041271  0.884069  0.250000  1
  Ir  Ir13  1  0.457563  0.384218  0.250000  1
  Ir  Ir14  1  0.539497  0.615470  0.750000  1
  Os  Os15  1  0.962185  0.115661  0.750000  1
