# generated using pymatgen
data_Li8Y7HoSn5Bi3
_symmetry_space_group_name_H-M   'P 1'
_cell_length_a   9.49877109
_cell_length_b   9.49830097
_cell_length_c   7.24363010
_cell_angle_alpha   90.00029105
_cell_angle_beta   90.00091282
_cell_angle_gamma   119.98942381
_symmetry_Int_Tables_number   1
_chemical_formula_structural   Li8Y7HoSn5Bi3
_chemical_formula_sum   'Li8 Y7 Ho1 Sn5 Bi3'
_cell_volume   566.03921351
_cell_formula_units_Z   1
loop_
 _symmetry_equiv_pos_site_id
 _symmetry_equiv_pos_as_xyz
  1  'x, y, z'
loop_
 _atom_site_type_symbol
 _atom_site_label
 _atom_site_symmetry_multiplicity
 _atom_site_fract_x
 _atom_site_fract_y
 _atom_site_fract_z
 _atom_site_occupancy
  Li  Li0  1  0.167077  0.334043  0.279254  1
  Li  Li1  1  0.167122  0.832907  0.279628  1
  Li  Li2  1  0.665888  0.832898  0.279355  1
  Li  Li3  1  0.831656  0.663254  0.787130  1
  Li  Li4  1  0.831623  0.168395  0.787775  1
  Li  Li5  1  0.336816  0.168481  0.787282  1
  Li  Li6  1  0.333310  0.666611  0.672864  1
  Li  Li7  1  0.666480  0.333408  0.179967  1
  Y  Y8  1  0.514307  0.028369  0.489068  1
  Y  Y9  1  0.513983  0.485877  0.488869  1
  Y  Y10  1  0.971732  0.485699  0.488993  1
  Y  Y11  1  0.491271  0.982525  0.999678  1
  Y  Y12  1  0.491139  0.508863  0.999584  1
  Y  Y13  1  0.017492  0.508745  0.999685  1
  Y  Y14  1  0.000004  0.999994  0.493087  1
  Ho  Ho15  1  0.000046  0.999961  0.008598  1
  Sn  Sn16  1  0.833539  0.666961  0.233174  1
  Sn  Sn17  1  0.833496  0.166505  0.233108  1
  Sn  Sn18  1  0.333064  0.166441  0.233195  1
  Sn  Sn19  1  0.333357  0.666738  0.258633  1
  Sn  Sn20  1  0.666619  0.333393  0.760100  1
  Bi  Bi21  1  0.166515  0.333151  0.734302  1
  Bi  Bi22  1  0.166801  0.833365  0.734329  1
  Bi  Bi23  1  0.666662  0.833417  0.734311  1
