# generated using pymatgen
data_Ta7Nb3Al4Zn
_symmetry_space_group_name_H-M   'P 1'
_cell_length_a   9.95463859
_cell_length_b   9.95474400
_cell_length_c   5.19551212
_cell_angle_alpha   90.00000000
_cell_angle_beta   89.91078837
_cell_angle_gamma   90.00000000
_symmetry_Int_Tables_number   1
_chemical_formula_structural   Ta7Nb3Al4Zn
_chemical_formula_sum   'Ta14 Nb6 Al8 Zn2'
_cell_volume   514.85321461
_cell_formula_units_Z   2
loop_
 _symmetry_equiv_pos_site_id
 _symmetry_equiv_pos_as_xyz
  1  'x, y, z'
loop_
 _atom_site_type_symbol
 _atom_site_label
 _atom_site_symmetry_multiplicity
 _atom_site_fract_x
 _atom_site_fract_y
 _atom_site_fract_z
 _atom_site_occupancy
  Ta  Ta0  1  0.398618  0.397807  0.999665  1
  Ta  Ta1  1  0.898618  0.102193  0.499665  1
  Ta  Ta2  1  0.101807  0.898996  0.499674  1
  Ta  Ta3  1  0.601807  0.601004  0.999674  1
  Ta  Ta4  1  0.128805  0.463780  0.001199  1
  Ta  Ta5  1  0.964660  0.370834  0.500242  1
  Ta  Ta6  1  0.035880  0.628894  0.499757  1
  Ta  Ta7  1  0.870740  0.535025  0.998896  1
  Ta  Ta8  1  0.370740  0.964975  0.498896  1
  Ta  Ta9  1  0.628805  0.036220  0.501199  1
  Ta  Ta10  1  0.464660  0.129166  0.000242  1
  Ta  Ta11  1  0.535880  0.871106  0.999757  1
  Ta  Ta12  1  0.181483  0.181758  0.252227  1
  Ta  Ta13  1  0.681483  0.318242  0.752227  1
  Nb  Nb14  1  0.318275  0.681519  0.752107  1
  Nb  Nb15  1  0.818275  0.818481  0.252107  1
  Nb  Nb16  1  0.318316  0.681533  0.247926  1
  Nb  Nb17  1  0.681512  0.318314  0.248036  1
  Nb  Nb18  1  0.181512  0.181686  0.748036  1
  Nb  Nb19  1  0.818316  0.818467  0.747926  1
  Al  Al20  1  0.260136  0.933747  0.999576  1
  Al  Al21  1  0.433493  0.240075  0.500311  1
  Al  Al22  1  0.566267  0.760251  0.499825  1
  Al  Al23  1  0.739965  0.066548  0.000584  1
  Al  Al24  1  0.239965  0.433452  0.500584  1
  Al  Al25  1  0.760136  0.566253  0.499576  1
  Al  Al26  1  0.933493  0.259925  0.000311  1
  Al  Al27  1  0.066267  0.739749  0.999825  1
  Zn  Zn28  1  0.000044  0.000225  0.999974  1
  Zn  Zn29  1  0.500044  0.499775  0.499974  1
