# generated using pymatgen
data_YbEu4Ag3
_symmetry_space_group_name_H-M   'P 1'
_cell_length_a   9.56251835
_cell_length_b   9.56251828
_cell_length_c   9.56251755
_cell_angle_alpha   129.47691673
_cell_angle_beta   129.47691563
_cell_angle_gamma   74.24440048
_symmetry_Int_Tables_number   1
_chemical_formula_structural   YbEu4Ag3
_chemical_formula_sum   'Yb2 Eu8 Ag6'
_cell_volume   507.89603687
_cell_formula_units_Z   2
loop_
 _symmetry_equiv_pos_site_id
 _symmetry_equiv_pos_as_xyz
  1  'x, y, z'
loop_
 _atom_site_type_symbol
 _atom_site_label
 _atom_site_symmetry_multiplicity
 _atom_site_fract_x
 _atom_site_fract_y
 _atom_site_fract_z
 _atom_site_occupancy
  Yb  Yb0  1  0.000000  0.000000  0.000000  1
  Yb  Yb1  1  0.500000  0.500000  0.000000  1
  Eu  Eu2  1  0.811947  0.977466  0.500000  1
  Eu  Eu3  1  0.688053  0.188053  0.165518  1
  Eu  Eu4  1  0.522534  0.688053  0.500000  1
  Eu  Eu5  1  0.022534  0.522534  0.834482  1
  Eu  Eu6  1  0.477466  0.311947  0.500000  1
  Eu  Eu7  1  0.311947  0.811947  0.834482  1
  Eu  Eu8  1  0.188053  0.022534  0.500000  1
  Eu  Eu9  1  0.977466  0.477466  0.165518  1
  Ag  Ag10  1  0.129140  0.370860  0.500000  1
  Ag  Ag11  1  0.250000  0.250000  0.000000  1
  Ag  Ag12  1  0.870860  0.629140  0.500000  1
  Ag  Ag13  1  0.750000  0.750000  0.000000  1
  Ag  Ag14  1  0.629140  0.129140  0.758281  1
  Ag  Ag15  1  0.370860  0.870860  0.241719  1
