# generated using pymatgen
data_Yb6Pa2CrPd24
_symmetry_space_group_name_H-M   'P 1'
_cell_length_a   8.36547364
_cell_length_b   8.36547368
_cell_length_c   8.36547400
_cell_angle_alpha   89.30657559
_cell_angle_beta   89.30657559
_cell_angle_gamma   89.30657615
_symmetry_Int_Tables_number   1
_chemical_formula_structural   Yb6Pa2CrPd24
_chemical_formula_sum   'Yb6 Pa2 Cr1 Pd24'
_cell_volume   585.29789527
_cell_formula_units_Z   1
loop_
 _symmetry_equiv_pos_site_id
 _symmetry_equiv_pos_as_xyz
  1  'x, y, z'
loop_
 _atom_site_type_symbol
 _atom_site_label
 _atom_site_symmetry_multiplicity
 _atom_site_fract_x
 _atom_site_fract_y
 _atom_site_fract_z
 _atom_site_occupancy
  Yb  Yb0  1  0.749399  0.749399  0.247736  1
  Yb  Yb1  1  0.749399  0.247736  0.749399  1
  Yb  Yb2  1  0.250601  0.250601  0.752264  1
  Yb  Yb3  1  0.250601  0.752264  0.250601  1
  Yb  Yb4  1  0.247736  0.749399  0.749399  1
  Yb  Yb5  1  0.752264  0.250601  0.250601  1
  Pa  Pa6  1  0.258742  0.258742  0.258742  1
  Pa  Pa7  1  0.741258  0.741258  0.741258  1
  Cr  Cr8  1  0.000000  0.000000  0.000000  1
  Pd  Pd9  1  0.261655  0.499061  0.006881  1
  Pd  Pd10  1  0.738345  0.500939  0.993119  1
  Pd  Pd11  1  0.006881  0.261655  0.499061  1
  Pd  Pd12  1  0.499061  0.261655  0.006881  1
  Pd  Pd13  1  0.993119  0.738345  0.500939  1
  Pd  Pd14  1  0.500939  0.738345  0.993119  1
  Pd  Pd15  1  0.499061  0.006881  0.261655  1
  Pd  Pd16  1  0.261655  0.006881  0.499061  1
  Pd  Pd17  1  0.500939  0.993119  0.738345  1
  Pd  Pd18  1  0.738345  0.993119  0.500939  1
  Pd  Pd19  1  0.006881  0.499061  0.261655  1
  Pd  Pd20  1  0.993119  0.500939  0.738345  1
  Pd  Pd21  1  0.253823  0.498960  0.498960  1
  Pd  Pd22  1  0.746177  0.501040  0.501040  1
  Pd  Pd23  1  0.498960  0.253823  0.498960  1
  Pd  Pd24  1  0.501040  0.746177  0.501040  1
  Pd  Pd25  1  0.498960  0.498960  0.253823  1
  Pd  Pd26  1  0.501040  0.501040  0.746177  1
  Pd  Pd27  1  0.293911  0.005140  0.005140  1
  Pd  Pd28  1  0.706089  0.994860  0.994860  1
  Pd  Pd29  1  0.005140  0.293911  0.005140  1
  Pd  Pd30  1  0.994860  0.706089  0.994860  1
  Pd  Pd31  1  0.005140  0.005140  0.293911  1
  Pd  Pd32  1  0.994860  0.994860  0.706089  1
