# generated using pymatgen
data_DyEr19Si15As
_symmetry_space_group_name_H-M   'P 1'
_cell_length_a   7.43501833
_cell_length_b   7.59612970
_cell_length_c   14.48723700
_cell_angle_alpha   90.11845624
_cell_angle_beta   93.68357936
_cell_angle_gamma   90.02750615
_symmetry_Int_Tables_number   1
_chemical_formula_structural   DyEr19Si15As
_chemical_formula_sum   'Dy1 Er19 Si15 As1'
_cell_volume   816.50870754
_cell_formula_units_Z   1
loop_
 _symmetry_equiv_pos_site_id
 _symmetry_equiv_pos_as_xyz
  1  'x, y, z'
loop_
 _atom_site_type_symbol
 _atom_site_label
 _atom_site_symmetry_multiplicity
 _atom_site_fract_x
 _atom_site_fract_y
 _atom_site_fract_z
 _atom_site_occupancy
  Dy  Dy0  1  0.002697  0.816344  0.599340  1
  Er  Er1  1  0.498996  0.676608  0.599409  1
  Er  Er2  1  0.322038  0.823986  0.122582  1
  Er  Er3  1  0.822186  0.676001  0.122696  1
  Er  Er4  1  0.834129  0.505893  0.745994  1
  Er  Er5  1  0.471711  0.315035  0.101885  1
  Er  Er6  1  0.028273  0.815232  0.898482  1
  Er  Er7  1  0.497071  0.321114  0.401190  1
  Er  Er8  1  0.664681  0.005735  0.251665  1
  Er  Er9  1  0.528865  0.685984  0.898854  1
  Er  Er10  1  0.677049  0.176728  0.878119  1
  Er  Er11  1  0.149759  0.333479  0.621317  1
  Er  Er12  1  0.177822  0.323978  0.878088  1
  Er  Er13  1  0.850810  0.664508  0.378244  1
  Er  Er14  1  0.348871  0.833160  0.380188  1
  Er  Er15  1  0.335058  0.994505  0.745335  1
  Er  Er16  1  0.648789  0.166703  0.619608  1
  Er  Er17  1  0.165986  0.494048  0.253573  1
  Er  Er18  1  0.972319  0.184824  0.101402  1
  Er  Er19  1  0.003606  0.181950  0.400543  1
  Si  Si20  1  0.219061  0.629994  0.752336  1
  Si  Si21  1  0.295581  0.036271  0.542257  1
  Si  Si22  1  0.038108  0.891547  0.248910  1
  Si  Si23  1  0.717552  0.870580  0.751375  1
  Si  Si24  1  0.283395  0.130439  0.249088  1
  Si  Si25  1  0.800641  0.464001  0.541411  1
  Si  Si26  1  0.461970  0.391245  0.752572  1
  Si  Si27  1  0.197500  0.535447  0.457715  1
  Si  Si28  1  0.144018  0.528011  0.043072  1
  Si  Si29  1  0.960612  0.109021  0.751997  1
  Si  Si30  1  0.783036  0.368158  0.248549  1
  Si  Si31  1  0.354790  0.028616  0.957981  1
  Si  Si32  1  0.855617  0.472789  0.957180  1
  Si  Si33  1  0.644712  0.972279  0.042662  1
  Si  Si34  1  0.537915  0.609337  0.248419  1
  As  As35  1  0.704779  0.966448  0.455964  1
