# generated using pymatgen
data_ErLu4(Sc5Bi4)3
_symmetry_space_group_name_H-M   'P 1'
_cell_length_a   7.84503304
_cell_length_b   9.06173700
_cell_length_c   11.51038910
_cell_angle_alpha   90.00000000
_cell_angle_beta   89.99838022
_cell_angle_gamma   90.00000000
_symmetry_Int_Tables_number   1
_chemical_formula_structural   ErLu4(Sc5Bi4)3
_chemical_formula_sum   'Er1 Lu4 Sc15 Bi12'
_cell_volume   818.26925861
_cell_formula_units_Z   1
loop_
 _symmetry_equiv_pos_site_id
 _symmetry_equiv_pos_as_xyz
  1  'x, y, z'
loop_
 _atom_site_type_symbol
 _atom_site_label
 _atom_site_symmetry_multiplicity
 _atom_site_fract_x
 _atom_site_fract_y
 _atom_site_fract_z
 _atom_site_occupancy
  Er  Er0  1  0.815530  0.750000  0.218955  1
  Lu  Lu1  1  0.850965  0.250000  0.219117  1
  Lu  Lu2  1  0.187070  0.250000  0.780367  1
  Lu  Lu3  1  0.316315  0.750000  0.281774  1
  Lu  Lu4  1  0.685144  0.250000  0.717532  1
  Sc  Sc5  1  0.018752  0.250000  0.511876  1
  Sc  Sc6  1  0.981072  0.750000  0.490161  1
  Sc  Sc7  1  0.479912  0.750000  0.009997  1
  Sc  Sc8  1  0.518172  0.250000  0.987932  1
  Sc  Sc9  1  0.350938  0.250000  0.279689  1
  Sc  Sc10  1  0.649098  0.750000  0.720381  1
  Sc  Sc11  1  0.149072  0.750000  0.779721  1
  Sc  Sc12  1  0.193220  0.067310  0.060213  1
  Sc  Sc13  1  0.805997  0.932664  0.938731  1
  Sc  Sc14  1  0.306475  0.932992  0.562080  1
  Sc  Sc15  1  0.805997  0.567336  0.938731  1
  Sc  Sc16  1  0.693007  0.066200  0.441131  1
  Sc  Sc17  1  0.193220  0.432690  0.060213  1
  Sc  Sc18  1  0.693007  0.433800  0.441131  1
  Sc  Sc19  1  0.306475  0.567008  0.562080  1
  Bi  Bi20  1  0.402469  0.250000  0.535042  1
  Bi  Bi21  1  0.596316  0.750000  0.465637  1
  Bi  Bi22  1  0.097322  0.750000  0.034281  1
  Bi  Bi23  1  0.903066  0.250000  0.959455  1
  Bi  Bi24  1  0.068652  0.005924  0.330270  1
  Bi  Bi25  1  0.935090  0.991814  0.672696  1
  Bi  Bi26  1  0.435364  0.991934  0.827167  1
  Bi  Bi27  1  0.935090  0.508186  0.672696  1
  Bi  Bi28  1  0.561587  0.006901  0.171755  1
  Bi  Bi29  1  0.068652  0.494076  0.330270  1
  Bi  Bi30  1  0.561587  0.493099  0.171755  1
  Bi  Bi31  1  0.435364  0.508066  0.827167  1
