# generated using pymatgen
data_Sm2Co5As6Ru5
_symmetry_space_group_name_H-M   'P 1'
_cell_length_a   3.90896800
_cell_length_b   11.02164600
_cell_length_c   12.48038000
_cell_angle_alpha   90.00000000
_cell_angle_beta   90.00000000
_cell_angle_gamma   90.00000000
_symmetry_Int_Tables_number   1
_chemical_formula_structural   Sm2Co5As6Ru5
_chemical_formula_sum   'Sm4 Co10 As12 Ru10'
_cell_volume   537.69547543
_cell_formula_units_Z   2
loop_
 _symmetry_equiv_pos_site_id
 _symmetry_equiv_pos_as_xyz
  1  'x, y, z'
loop_
 _atom_site_type_symbol
 _atom_site_label
 _atom_site_symmetry_multiplicity
 _atom_site_fract_x
 _atom_site_fract_y
 _atom_site_fract_z
 _atom_site_occupancy
  Sm  Sm0  1  0.250000  0.586367  0.705510  1
  Sm  Sm1  1  0.250000  0.913633  0.205510  1
  Sm  Sm2  1  0.750000  0.414850  0.295202  1
  Sm  Sm3  1  0.750000  0.085150  0.795202  1
  Co  Co4  1  0.750000  0.779448  0.821776  1
  Co  Co5  1  0.750000  0.720552  0.321776  1
  Co  Co6  1  0.250000  0.881588  0.695959  1
  Co  Co7  1  0.250000  0.618412  0.195959  1
  Co  Co8  1  0.750000  0.110660  0.305104  1
  Co  Co9  1  0.750000  0.389340  0.805104  1
  Co  Co10  1  0.250000  0.467567  0.934021  1
  Co  Co11  1  0.250000  0.032433  0.434021  1
  Co  Co12  1  0.750000  0.535477  0.066480  1
  Co  Co13  1  0.750000  0.964523  0.566480  1
  As  As14  1  0.250000  0.424389  0.112723  1
  As  As15  1  0.250000  0.075611  0.612723  1
  As  As16  1  0.750000  0.581434  0.886942  1
  As  As17  1  0.750000  0.918566  0.386942  1
  As  As18  1  0.250000  0.273739  0.872655  1
  As  As19  1  0.250000  0.226261  0.372655  1
  As  As20  1  0.750000  0.726202  0.133006  1
  As  As21  1  0.750000  0.773798  0.633006  1
  As  As22  1  0.250000  0.602963  0.383973  1
  As  As23  1  0.250000  0.897037  0.883973  1
  As  As24  1  0.750000  0.401490  0.612971  1
  As  As25  1  0.750000  0.098510  0.112971  1
  Ru  Ru26  1  0.250000  0.705454  0.984271  1
  Ru  Ru27  1  0.250000  0.794546  0.484271  1
  Ru  Ru28  1  0.750000  0.294118  0.012640  1
  Ru  Ru29  1  0.750000  0.205882  0.512640  1
  Ru  Ru30  1  0.250000  0.407723  0.486510  1
  Ru  Ru31  1  0.250000  0.092277  0.986510  1
  Ru  Ru32  1  0.750000  0.598634  0.511234  1
  Ru  Ru33  1  0.750000  0.901366  0.011234  1
  Ru  Ru34  1  0.250000  0.220170  0.179022  1
  Ru  Ru35  1  0.250000  0.279830  0.679022  1
