# generated using pymatgen
data_Hf18BeFeMo8
_symmetry_space_group_name_H-M   'P 1'
_cell_length_a   8.50217200
_cell_length_b   8.64977927
_cell_length_c   8.64977964
_cell_angle_alpha   119.99663755
_cell_angle_beta   90.00000000
_cell_angle_gamma   90.00000000
_symmetry_Int_Tables_number   1
_chemical_formula_structural   Hf18BeFeMo8
_chemical_formula_sum   'Hf18 Be1 Fe1 Mo8'
_cell_volume   550.91589235
_cell_formula_units_Z   1
loop_
 _symmetry_equiv_pos_site_id
 _symmetry_equiv_pos_as_xyz
  1  'x, y, z'
loop_
 _atom_site_type_symbol
 _atom_site_label
 _atom_site_symmetry_multiplicity
 _atom_site_fract_x
 _atom_site_fract_y
 _atom_site_fract_z
 _atom_site_occupancy
  Hf  Hf0  1  0.555060  0.800433  0.600845  1
  Hf  Hf1  1  0.555080  0.800408  0.199592  1
  Hf  Hf2  1  0.555060  0.399155  0.199567  1
  Hf  Hf3  1  0.441731  0.202616  0.405228  1
  Hf  Hf4  1  0.441703  0.202619  0.797381  1
  Hf  Hf5  1  0.441731  0.594772  0.797384  1
  Hf  Hf6  1  0.058269  0.202616  0.405228  1
  Hf  Hf7  1  0.058297  0.202619  0.797381  1
  Hf  Hf8  1  0.058269  0.594772  0.797384  1
  Hf  Hf9  1  0.944940  0.800433  0.600845  1
  Hf  Hf10  1  0.944920  0.800408  0.199592  1
  Hf  Hf11  1  0.944940  0.399155  0.199567  1
  Hf  Hf12  1  0.750000  0.460143  0.920326  1
  Hf  Hf13  1  0.750000  0.460178  0.539822  1
  Hf  Hf14  1  0.750000  0.079674  0.539857  1
  Hf  Hf15  1  0.250000  0.540556  0.081075  1
  Hf  Hf16  1  0.250000  0.540538  0.459462  1
  Hf  Hf17  1  0.250000  0.918925  0.459444  1
  Be  Be18  1  0.750000  0.666636  0.333364  1
  Fe  Fe19  1  0.250000  0.333371  0.666629  1
  Mo  Mo20  1  0.750000  0.111765  0.223559  1
  Mo  Mo21  1  0.750000  0.111769  0.888231  1
  Mo  Mo22  1  0.750000  0.776441  0.888235  1
  Mo  Mo23  1  0.250000  0.887778  0.775545  1
  Mo  Mo24  1  0.250000  0.887775  0.112225  1
  Mo  Mo25  1  0.250000  0.224455  0.112222  1
  Mo  Mo26  1  0.498336  0.999995  0.000005  1
  Mo  Mo27  1  0.001664  0.999995  0.000005  1
