# generated using pymatgen
data_Ta4MnAl4V2Cu
_symmetry_space_group_name_H-M   'P 1'
_cell_length_a   4.99068794
_cell_length_b   4.94576808
_cell_length_c   8.32640200
_cell_angle_alpha   90.00000000
_cell_angle_beta   90.00000000
_cell_angle_gamma   60.75983437
_symmetry_Int_Tables_number   1
_chemical_formula_structural   Ta4MnAl4V2Cu
_chemical_formula_sum   'Ta4 Mn1 Al4 V2 Cu1'
_cell_volume   179.33155838
_cell_formula_units_Z   1
loop_
 _symmetry_equiv_pos_site_id
 _symmetry_equiv_pos_as_xyz
  1  'x, y, z'
loop_
 _atom_site_type_symbol
 _atom_site_label
 _atom_site_symmetry_multiplicity
 _atom_site_fract_x
 _atom_site_fract_y
 _atom_site_fract_z
 _atom_site_occupancy
  Ta  Ta0  1  0.335268  0.332760  0.555110  1
  Ta  Ta1  1  0.661398  0.667247  0.432980  1
  Ta  Ta2  1  0.661398  0.667247  0.067020  1
  Ta  Ta3  1  0.335268  0.332760  0.944890  1
  Mn  Mn4  1  0.168570  0.654633  0.250000  1
  Al  Al5  1  0.996424  0.989294  0.497871  1
  Al  Al6  1  0.996424  0.989294  0.002129  1
  Al  Al7  1  0.837775  0.350569  0.750000  1
  Al  Al8  1  0.351120  0.834910  0.750000  1
  V  V9  1  0.648140  0.171431  0.250000  1
  V  V10  1  0.170959  0.171700  0.250000  1
  Cu  Cu11  1  0.837257  0.838157  0.750000  1
