# generated using pymatgen
data_Y4Al24Pd8Au
_symmetry_space_group_name_H-M   'P 1'
_cell_length_a   7.56896005
_cell_length_b   7.59178772
_cell_length_c   13.18402015
_cell_angle_alpha   84.52546655
_cell_angle_beta   79.00072114
_cell_angle_gamma   59.91043623
_symmetry_Int_Tables_number   1
_chemical_formula_structural   Y4Al24Pd8Au
_chemical_formula_sum   'Y4 Al24 Pd8 Au1'
_cell_volume   643.44838876
_cell_formula_units_Z   1
loop_
 _symmetry_equiv_pos_site_id
 _symmetry_equiv_pos_as_xyz
  1  'x, y, z'
loop_
 _atom_site_type_symbol
 _atom_site_label
 _atom_site_symmetry_multiplicity
 _atom_site_fract_x
 _atom_site_fract_y
 _atom_site_fract_z
 _atom_site_occupancy
  Y  Y0  1  0.391847  0.169613  0.809242  1
  Y  Y1  1  0.606484  0.831653  0.191459  1
  Y  Y2  1  0.734561  0.498221  0.809071  1
  Y  Y3  1  0.266859  0.501472  0.191050  1
  Al  Al4  1  0.683031  0.834212  0.945421  1
  Al  Al5  1  0.315525  0.166108  0.055758  1
  Al  Al6  1  0.146159  0.839066  0.560131  1
  Al  Al7  1  0.854847  0.166498  0.436287  1
  Al  Al8  1  0.487250  0.160259  0.557893  1
  Al  Al9  1  0.520545  0.833443  0.439434  1
  Al  Al10  1  0.217678  0.165219  0.328481  1
  Al  Al11  1  0.776848  0.839774  0.673494  1
  Al  Al12  1  0.440335  0.507299  0.673803  1
  Al  Al13  1  0.563714  0.493021  0.328025  1
  Al  Al14  1  0.108501  0.153232  0.672266  1
  Al  Al15  1  0.890938  0.840259  0.329382  1
  Al  Al16  1  0.353550  0.499021  0.945181  1
  Al  Al17  1  0.647312  0.500353  0.055759  1
  Al  Al18  1  0.015046  0.167369  0.954986  1
  Al  Al19  1  0.984401  0.832537  0.046391  1
  Al  Al20  1  0.188347  0.499772  0.435994  1
  Al  Al21  1  0.807283  0.499712  0.557775  1
  Al  Al22  1  0.733748  0.163719  0.183787  1
  Al  Al23  1  0.267562  0.835896  0.816676  1
  Al  Al24  1  0.060406  0.634496  0.818442  1
  Al  Al25  1  0.938319  0.369071  0.185150  1
  Al  Al26  1  0.853641  0.043000  0.816421  1
  Al  Al27  1  0.144847  0.958120  0.183980  1
  Pd  Pd28  1  0.879659  0.507753  0.361768  1
  Pd  Pd29  1  0.657318  0.171303  0.999674  1
  Pd  Pd30  1  0.342812  0.828332  0.999867  1
  Pd  Pd31  1  0.537855  0.166736  0.361894  1
  Pd  Pd32  1  0.462263  0.832992  0.637613  1
  Pd  Pd33  1  0.778920  0.174791  0.637038  1
  Pd  Pd34  1  0.221403  0.824967  0.362403  1
  Pd  Pd35  1  0.000039  0.499814  0.000087  1
  Au  Au36  1  0.120146  0.490897  0.637916  1
