# generated using pymatgen
data_Y4Co19Si12Os
_symmetry_space_group_name_H-M   'P 1'
_cell_length_a   3.71555600
_cell_length_b   10.49451778
_cell_length_c   11.92298981
_cell_angle_alpha   89.91568181
_cell_angle_beta   90.00000000
_cell_angle_gamma   90.00000000
_symmetry_Int_Tables_number   1
_chemical_formula_structural   Y4Co19Si12Os
_chemical_formula_sum   'Y4 Co19 Si12 Os1'
_cell_volume   464.91226261
_cell_formula_units_Z   1
loop_
 _symmetry_equiv_pos_site_id
 _symmetry_equiv_pos_as_xyz
  1  'x, y, z'
loop_
 _atom_site_type_symbol
 _atom_site_label
 _atom_site_symmetry_multiplicity
 _atom_site_fract_x
 _atom_site_fract_y
 _atom_site_fract_z
 _atom_site_occupancy
  Y  Y0  1  0.250000  0.914662  0.202380  1
  Y  Y1  1  0.750000  0.083196  0.797375  1
  Y  Y2  1  0.750000  0.416209  0.295622  1
  Y  Y3  1  0.250000  0.583258  0.703087  1
  Co  Co4  1  0.750000  0.205173  0.510138  1
  Co  Co5  1  0.750000  0.292999  0.009210  1
  Co  Co6  1  0.250000  0.706312  0.990447  1
  Co  Co7  1  0.250000  0.094318  0.991626  1
  Co  Co8  1  0.750000  0.906208  0.010603  1
  Co  Co9  1  0.750000  0.592373  0.509807  1
  Co  Co10  1  0.250000  0.404889  0.490567  1
  Co  Co11  1  0.250000  0.285141  0.676187  1
  Co  Co12  1  0.750000  0.715661  0.323469  1
  Co  Co13  1  0.750000  0.785245  0.825867  1
  Co  Co14  1  0.250000  0.215034  0.176072  1
  Co  Co15  1  0.250000  0.614619  0.196391  1
  Co  Co16  1  0.750000  0.383348  0.801646  1
  Co  Co17  1  0.750000  0.117121  0.301695  1
  Co  Co18  1  0.250000  0.885692  0.700179  1
  Co  Co19  1  0.250000  0.032509  0.431573  1
  Co  Co20  1  0.750000  0.971737  0.568485  1
  Co  Co21  1  0.750000  0.528064  0.067812  1
  Co  Co22  1  0.250000  0.471004  0.929904  1
  Si  Si23  1  0.250000  0.086872  0.610651  1
  Si  Si24  1  0.750000  0.916849  0.388105  1
  Si  Si25  1  0.750000  0.586023  0.890287  1
  Si  Si26  1  0.250000  0.413453  0.108221  1
  Si  Si27  1  0.250000  0.229127  0.371365  1
  Si  Si28  1  0.750000  0.772798  0.631947  1
  Si  Si29  1  0.750000  0.725406  0.127896  1
  Si  Si30  1  0.250000  0.272594  0.872704  1
  Si  Si31  1  0.250000  0.896915  0.894594  1
  Si  Si32  1  0.750000  0.103944  0.107182  1
  Si  Si33  1  0.750000  0.395906  0.606278  1
  Si  Si34  1  0.250000  0.599691  0.390496  1
  Os  Os35  1  0.250000  0.795652  0.490131  1
