# generated using pymatgen
data_HoTm3InNi
_symmetry_space_group_name_H-M   'P 1'
_cell_length_a   9.46410135
_cell_length_b   9.46410180
_cell_length_c   9.46410100
_cell_angle_alpha   59.99999929
_cell_angle_beta   59.99999771
_cell_angle_gamma   60.00000409
_symmetry_Int_Tables_number   1
_chemical_formula_structural   HoTm3InNi
_chemical_formula_sum   'Ho4 Tm12 In4 Ni4'
_cell_volume   599.40885896
_cell_formula_units_Z   4
loop_
 _symmetry_equiv_pos_site_id
 _symmetry_equiv_pos_as_xyz
  1  'x, y, z'
loop_
 _atom_site_type_symbol
 _atom_site_label
 _atom_site_symmetry_multiplicity
 _atom_site_fract_x
 _atom_site_fract_y
 _atom_site_fract_z
 _atom_site_occupancy
  Ho  Ho0  1  0.348241  0.348241  0.348241  1
  Ho  Ho1  1  0.348241  0.348241  0.955276  1
  Ho  Ho2  1  0.348241  0.955276  0.348241  1
  Ho  Ho3  1  0.955276  0.348241  0.348241  1
  Tm  Tm4  1  0.812410  0.187590  0.187590  1
  Tm  Tm5  1  0.187590  0.812410  0.812410  1
  Tm  Tm6  1  0.187590  0.812410  0.187590  1
  Tm  Tm7  1  0.812410  0.187590  0.812410  1
  Tm  Tm8  1  0.187590  0.187590  0.812410  1
  Tm  Tm9  1  0.812410  0.812410  0.187590  1
  Tm  Tm10  1  0.937371  0.562629  0.562629  1
  Tm  Tm11  1  0.562629  0.937371  0.937371  1
  Tm  Tm12  1  0.562629  0.937371  0.562629  1
  Tm  Tm13  1  0.937371  0.562629  0.937371  1
  Tm  Tm14  1  0.562629  0.562629  0.937371  1
  Tm  Tm15  1  0.937371  0.937371  0.562629  1
  In  In16  1  0.582876  0.582876  0.582876  1
  In  In17  1  0.582876  0.582876  0.251372  1
  In  In18  1  0.582876  0.251372  0.582876  1
  In  In19  1  0.251372  0.582876  0.582876  1
  Ni  Ni20  1  0.141955  0.141955  0.141955  1
  Ni  Ni21  1  0.141955  0.141955  0.574138  1
  Ni  Ni22  1  0.141955  0.574138  0.141955  1
  Ni  Ni23  1  0.574138  0.141955  0.141955  1
