# generated using pymatgen
data_Tm2Pa(AlNi)3
_symmetry_space_group_name_H-M   'P 1'
_cell_length_a   6.96560057
_cell_length_b   7.04238001
_cell_length_c   3.76706900
_cell_angle_alpha   90.00000000
_cell_angle_beta   90.00000000
_cell_angle_gamma   120.36529834
_symmetry_Int_Tables_number   1
_chemical_formula_structural   Tm2Pa(AlNi)3
_chemical_formula_sum   'Tm2 Pa1 Al3 Ni3'
_cell_volume   159.44165703
_cell_formula_units_Z   1
loop_
 _symmetry_equiv_pos_site_id
 _symmetry_equiv_pos_as_xyz
  1  'x, y, z'
loop_
 _atom_site_type_symbol
 _atom_site_label
 _atom_site_symmetry_multiplicity
 _atom_site_fract_x
 _atom_site_fract_y
 _atom_site_fract_z
 _atom_site_occupancy
  Tm  Tm0  1  0.584253  0.582468  0.500000  1
  Tm  Tm1  1  0.415747  0.998215  0.500000  1
  Pa  Pa2  1  0.000000  0.423002  0.500000  1
  Al  Al3  1  0.000000  0.771513  0.000000  1
  Al  Al4  1  0.243845  0.238384  0.000000  1
  Al  Al5  1  0.756155  0.994540  0.000000  1
  Ni  Ni6  1  0.311066  0.646483  0.000000  1
  Ni  Ni7  1  0.688934  0.335416  0.000000  1
  Ni  Ni8  1  0.000000  0.009977  0.500000  1
