# generated using pymatgen
data_Tm9Al(Ni2Bi)2
_symmetry_space_group_name_H-M   'P 1'
_cell_length_a   8.85405673
_cell_length_b   8.85405657
_cell_length_c   8.85405675
_cell_angle_alpha   131.62902259
_cell_angle_beta   131.62902230
_cell_angle_gamma   70.81558198
_symmetry_Int_Tables_number   1
_chemical_formula_structural   Tm9Al(Ni2Bi)2
_chemical_formula_sum   'Tm9 Al1 Ni4 Bi2'
_cell_volume   379.82679666
_cell_formula_units_Z   1
loop_
 _symmetry_equiv_pos_site_id
 _symmetry_equiv_pos_as_xyz
  1  'x, y, z'
loop_
 _atom_site_type_symbol
 _atom_site_label
 _atom_site_symmetry_multiplicity
 _atom_site_fract_x
 _atom_site_fract_y
 _atom_site_fract_z
 _atom_site_occupancy
  Tm  Tm0  1  0.000000  0.000000  0.000000  1
  Tm  Tm1  1  0.777459  0.308712  0.835299  1
  Tm  Tm2  1  0.222541  0.691288  0.164701  1
  Tm  Tm3  1  0.473414  0.942160  0.164701  1
  Tm  Tm4  1  0.308712  0.473414  0.531253  1
  Tm  Tm5  1  0.057840  0.222541  0.531253  1
  Tm  Tm6  1  0.526586  0.057840  0.835299  1
  Tm  Tm7  1  0.691288  0.526586  0.468747  1
  Tm  Tm8  1  0.942160  0.777459  0.468747  1
  Al  Al9  1  0.500000  0.500000  0.000000  1
  Ni  Ni10  1  0.129041  0.625489  0.754531  1
  Ni  Ni11  1  0.870959  0.374511  0.245469  1
  Ni  Ni12  1  0.625489  0.870959  0.496448  1
  Ni  Ni13  1  0.374511  0.129041  0.503552  1
  Bi  Bi14  1  0.231658  0.231658  0.000000  1
  Bi  Bi15  1  0.768342  0.768342  0.000000  1
