# generated using pymatgen
data_Y2As4O9
_symmetry_space_group_name_H-M   'P 1'
_cell_length_a   6.77125104
_cell_length_b   7.56134289
_cell_length_c   9.82224435
_cell_angle_alpha   94.98675725
_cell_angle_beta   104.13545741
_cell_angle_gamma   104.74208978
_symmetry_Int_Tables_number   1
_chemical_formula_structural   Y2As4O9
_chemical_formula_sum   'Y4 As8 O18'
_cell_volume   465.61932659
_cell_formula_units_Z   2
loop_
 _symmetry_equiv_pos_site_id
 _symmetry_equiv_pos_as_xyz
  1  'x, y, z'
loop_
 _atom_site_type_symbol
 _atom_site_label
 _atom_site_symmetry_multiplicity
 _atom_site_fract_x
 _atom_site_fract_y
 _atom_site_fract_z
 _atom_site_occupancy
  Y  Y0  1  0.244101  0.939217  0.615464  1
  Y  Y1  1  0.755899  0.060783  0.384536  1
  Y  Y2  1  0.720953  0.530530  0.408628  1
  Y  Y3  1  0.279047  0.469470  0.591372  1
  As  As4  1  0.680990  0.774465  0.076630  1
  As  As5  1  0.319010  0.225535  0.923370  1
  As  As6  1  0.171991  0.753135  0.913385  1
  As  As7  1  0.828009  0.246865  0.086615  1
  As  As8  1  0.744988  0.915431  0.709834  1
  As  As9  1  0.255012  0.084569  0.290166  1
  As  As10  1  0.809541  0.351165  0.701871  1
  As  As11  1  0.190459  0.648835  0.298129  1
  O  O12  1  0.724775  0.750878  0.257726  1
  O  O13  1  0.275225  0.249122  0.742274  1
  O  O14  1  0.316043  0.979029  0.871255  1
  O  O15  1  0.683957  0.020971  0.128745  1
  O  O16  1  0.608103  0.324488  0.985268  1
  O  O17  1  0.391897  0.675512  0.014732  1
  O  O18  1  0.128457  0.648001  0.738218  1
  O  O19  1  0.871543  0.351999  0.261782  1
  O  O20  1  0.846688  0.874755  0.559105  1
  O  O21  1  0.153312  0.125245  0.440895  1
  O  O22  1  0.484748  0.769370  0.667338  1
  O  O23  1  0.515252  0.230630  0.332662  1
  O  O24  1  0.372920  0.534805  0.379222  1
  O  O25  1  0.627080  0.465195  0.620778  1
  O  O26  1  0.089488  0.668988  0.453092  1
  O  O27  1  0.910512  0.331012  0.546908  1
  O  O28  1  0.374143  0.898942  0.358233  1
  O  O29  1  0.625857  0.101058  0.641767  1
