# generated using pymatgen
data_Pr3Nd7Sn4(BiBr)2
_symmetry_space_group_name_H-M   'P 1'
_cell_length_a   9.62658116
_cell_length_b   9.62781261
_cell_length_c   6.80732400
_cell_angle_alpha   90.00000000
_cell_angle_beta   90.00000000
_cell_angle_gamma   120.40170003
_symmetry_Int_Tables_number   1
_chemical_formula_structural   Pr3Nd7Sn4(BiBr)2
_chemical_formula_sum   'Pr3 Nd7 Sn4 Bi2 Br2'
_cell_volume   544.16994706
_cell_formula_units_Z   1
loop_
 _symmetry_equiv_pos_site_id
 _symmetry_equiv_pos_as_xyz
  1  'x, y, z'
loop_
 _atom_site_type_symbol
 _atom_site_label
 _atom_site_symmetry_multiplicity
 _atom_site_fract_x
 _atom_site_fract_y
 _atom_site_fract_z
 _atom_site_occupancy
  Pr  Pr0  1  0.004893  0.730831  0.250000  1
  Pr  Pr1  1  0.733798  0.733912  0.750000  1
  Pr  Pr2  1  0.265973  0.265963  0.250000  1
  Nd  Nd3  1  0.269155  0.995035  0.750000  1
  Nd  Nd4  1  0.731050  0.005097  0.250000  1
  Nd  Nd5  1  0.994937  0.269055  0.750000  1
  Nd  Nd6  1  0.330168  0.669997  0.500157  1
  Nd  Nd7  1  0.669906  0.329833  0.500146  1
  Nd  Nd8  1  0.669906  0.329833  0.999854  1
  Nd  Nd9  1  0.330168  0.669997  0.999843  1
  Sn  Sn10  1  0.613033  0.999663  0.750000  1
  Sn  Sn11  1  0.387717  0.000930  0.250000  1
  Sn  Sn12  1  0.999635  0.612916  0.750000  1
  Sn  Sn13  1  0.000439  0.386189  0.250000  1
  Bi  Bi14  1  0.384278  0.384312  0.750000  1
  Bi  Bi15  1  0.614953  0.615523  0.250000  1
  Br  Br16  1  0.999995  0.000457  0.500447  1
  Br  Br17  1  0.999995  0.000457  0.999553  1
