# generated using pymatgen
data_Dy16Cd3Co2Ni2Ag
_symmetry_space_group_name_H-M   'P 1'
_cell_length_a   9.51253391
_cell_length_b   9.48285792
_cell_length_c   9.49794088
_cell_angle_alpha   59.89504980
_cell_angle_beta   59.94915875
_cell_angle_gamma   59.89642328
_symmetry_Int_Tables_number   1
_chemical_formula_structural   Dy16Cd3Co2Ni2Ag
_chemical_formula_sum   'Dy16 Cd3 Co2 Ni2 Ag1'
_cell_volume   604.64028865
_cell_formula_units_Z   1
loop_
 _symmetry_equiv_pos_site_id
 _symmetry_equiv_pos_as_xyz
  1  'x, y, z'
loop_
 _atom_site_type_symbol
 _atom_site_label
 _atom_site_symmetry_multiplicity
 _atom_site_fract_x
 _atom_site_fract_y
 _atom_site_fract_z
 _atom_site_occupancy
  Dy  Dy0  1  0.151924  0.541624  0.154527  1
  Dy  Dy1  1  0.691358  0.312663  0.685537  1
  Dy  Dy2  1  0.688307  0.311702  0.311682  1
  Dy  Dy3  1  0.937644  0.559481  0.565230  1
  Dy  Dy4  1  0.543916  0.151965  0.153236  1
  Dy  Dy5  1  0.151840  0.154238  0.542081  1
  Dy  Dy6  1  0.935345  0.936964  0.563831  1
  Dy  Dy7  1  0.310750  0.685958  0.312259  1
  Dy  Dy8  1  0.564201  0.935436  0.936162  1
  Dy  Dy9  1  0.563860  0.936964  0.563831  1
  Dy  Dy10  1  0.691031  0.685958  0.312259  1
  Dy  Dy11  1  0.565689  0.559149  0.939035  1
  Dy  Dy12  1  0.936126  0.559149  0.939035  1
  Dy  Dy13  1  0.310839  0.689410  0.688912  1
  Dy  Dy14  1  0.150881  0.151965  0.153236  1
  Dy  Dy15  1  0.310441  0.312663  0.685537  1
  Cd  Cd16  1  0.918289  0.922668  0.919492  1
  Cd  Cd17  1  0.918168  0.921582  0.242083  1
  Cd  Cd18  1  0.239552  0.922668  0.919492  1
  Co  Co19  1  0.926153  0.357733  0.356810  1
  Co  Co20  1  0.359305  0.357733  0.356810  1
  Ni  Ni21  1  0.359183  0.355844  0.925791  1
  Ni  Ni22  1  0.358600  0.925546  0.357256  1
  Ag  Ag23  1  0.916596  0.250936  0.915871  1
