# generated using pymatgen
data_Nd6LuSc3(In2Pt)4
_symmetry_space_group_name_H-M   'P 1'
_cell_length_a   3.68240600
_cell_length_b   8.25103565
_cell_length_c   18.06751374
_cell_angle_alpha   89.74373101
_cell_angle_beta   90.00000000
_cell_angle_gamma   90.00000000
_symmetry_Int_Tables_number   1
_chemical_formula_structural   Nd6LuSc3(In2Pt)4
_chemical_formula_sum   'Nd6 Lu1 Sc3 In8 Pt4'
_cell_volume   548.95176094
_cell_formula_units_Z   1
loop_
 _symmetry_equiv_pos_site_id
 _symmetry_equiv_pos_as_xyz
  1  'x, y, z'
loop_
 _atom_site_type_symbol
 _atom_site_label
 _atom_site_symmetry_multiplicity
 _atom_site_fract_x
 _atom_site_fract_y
 _atom_site_fract_z
 _atom_site_occupancy
  Nd  Nd0  1  0.000000  0.232075  0.211320  1
  Nd  Nd1  1  0.000000  0.770377  0.789096  1
  Nd  Nd2  1  0.000000  0.271447  0.707495  1
  Nd  Nd3  1  0.000000  0.730616  0.292916  1
  Nd  Nd4  1  0.000000  0.997540  0.998018  1
  Nd  Nd5  1  0.000000  0.500643  0.500654  1
  Lu  Lu6  1  0.000000  0.616408  0.089452  1
  Sc  Sc7  1  0.000000  0.114484  0.411091  1
  Sc  Sc8  1  0.000000  0.885829  0.589632  1
  Sc  Sc9  1  0.000000  0.382722  0.908765  1
  In  In10  1  0.500000  0.395009  0.349855  1
  In  In11  1  0.500000  0.605447  0.652172  1
  In  In12  1  0.500000  0.104521  0.845211  1
  In  In13  1  0.500000  0.904399  0.155081  1
  In  In14  1  0.500000  0.313353  0.053353  1
  In  In15  1  0.500000  0.676586  0.942509  1
  In  In16  1  0.500000  0.177191  0.552440  1
  In  In17  1  0.500000  0.822673  0.447915  1
  Pt  Pt18  1  0.500000  0.026747  0.310189  1
  Pt  Pt19  1  0.500000  0.974626  0.690442  1
  Pt  Pt20  1  0.500000  0.472019  0.807171  1
  Pt  Pt21  1  0.500000  0.525288  0.195226  1
