# generated using pymatgen
data_SrY6P12Pd17
_symmetry_space_group_name_H-M   'P 1'
_cell_length_a   12.33071329
_cell_length_b   12.33071401
_cell_length_c   13.61736300
_cell_angle_alpha   68.34069999
_cell_angle_beta   68.34069865
_cell_angle_gamma   18.67598323
_symmetry_Int_Tables_number   1
_chemical_formula_structural   SrY6P12Pd17
_chemical_formula_sum   'Sr1 Y6 P12 Pd17'
_cell_volume   614.87197887
_cell_formula_units_Z   1
loop_
 _symmetry_equiv_pos_site_id
 _symmetry_equiv_pos_as_xyz
  1  'x, y, z'
loop_
 _atom_site_type_symbol
 _atom_site_label
 _atom_site_symmetry_multiplicity
 _atom_site_fract_x
 _atom_site_fract_y
 _atom_site_fract_z
 _atom_site_occupancy
  Sr  Sr0  1  0.500000  0.500000  0.500000  1
  Y  Y1  1  0.365631  0.365631  0.000771  1
  Y  Y2  1  0.634369  0.634369  0.999229  1
  Y  Y3  1  0.235428  0.235428  0.311782  1
  Y  Y4  1  0.764572  0.764572  0.688218  1
  Y  Y5  1  0.418341  0.418341  0.259154  1
  Y  Y6  1  0.581659  0.581659  0.740846  1
  P  P7  1  0.062380  0.062380  0.924067  1
  P  P8  1  0.937620  0.937620  0.075933  1
  P  P9  1  0.887050  0.887050  0.830555  1
  P  P10  1  0.112950  0.112950  0.169445  1
  P  P11  1  0.188675  0.188675  0.622749  1
  P  P12  1  0.811325  0.811325  0.377251  1
  P  P13  1  0.362117  0.362117  0.583407  1
  P  P14  1  0.637883  0.637883  0.416593  1
  P  P15  1  0.013562  0.013562  0.676122  1
  P  P16  1  0.986438  0.986438  0.323878  1
  P  P17  1  0.230712  0.230712  0.882698  1
  P  P18  1  0.769288  0.769288  0.117302  1
  Pd  Pd19  1  0.839210  0.839210  0.193755  1
  Pd  Pd20  1  0.160790  0.160790  0.806245  1
  Pd  Pd21  1  0.026296  0.026296  0.122999  1
  Pd  Pd22  1  0.973704  0.973704  0.877001  1
  Pd  Pd23  1  0.887996  0.887996  0.455051  1
  Pd  Pd24  1  0.112004  0.112004  0.544949  1
  Pd  Pd25  1  0.500000  0.500000  0.000000  1
  Pd  Pd26  1  0.547557  0.547557  0.251897  1
  Pd  Pd27  1  0.452443  0.452443  0.748103  1
  Pd  Pd28  1  0.295229  0.295229  0.490881  1
  Pd  Pd29  1  0.704771  0.704771  0.509119  1
  Pd  Pd30  1  0.669220  0.669220  0.222921  1
  Pd  Pd31  1  0.330780  0.330780  0.777079  1
  Pd  Pd32  1  0.903714  0.903714  0.646326  1
  Pd  Pd33  1  0.096286  0.096286  0.353674  1
  Pd  Pd34  1  0.216189  0.216189  0.067654  1
  Pd  Pd35  1  0.783811  0.783811  0.932346  1
