# generated using pymatgen
data_YHo7(ThRh)6
_symmetry_space_group_name_H-M   'P 1'
_cell_length_a   9.88336500
_cell_length_b   9.78769218
_cell_length_c   6.34067201
_cell_angle_alpha   90.14235273
_cell_angle_beta   90.00000000
_cell_angle_gamma   120.32388171
_symmetry_Int_Tables_number   1
_chemical_formula_structural   YHo7(ThRh)6
_chemical_formula_sum   'Y1 Ho7 Th6 Rh6'
_cell_volume   529.44713450
_cell_formula_units_Z   1
loop_
 _symmetry_equiv_pos_site_id
 _symmetry_equiv_pos_as_xyz
  1  'x, y, z'
loop_
 _atom_site_type_symbol
 _atom_site_label
 _atom_site_symmetry_multiplicity
 _atom_site_fract_x
 _atom_site_fract_y
 _atom_site_fract_z
 _atom_site_occupancy
  Y  Y0  1  0.333059  0.666120  0.456525  1
  Ho  Ho1  1  0.872795  0.745591  0.742175  1
  Ho  Ho2  1  0.540304  0.462836  0.445301  1
  Ho  Ho3  1  0.922531  0.462836  0.445301  1
  Ho  Ho4  1  0.539099  0.078196  0.444995  1
  Ho  Ho5  1  0.461852  0.540562  0.940447  1
  Ho  Ho6  1  0.078708  0.540562  0.940447  1
  Ho  Ho7  1  0.460741  0.921483  0.940947  1
  Th  Th8  1  0.666260  0.332519  0.959692  1
  Th  Th9  1  0.127505  0.869651  0.244521  1
  Th  Th10  1  0.742146  0.869651  0.244521  1
  Th  Th11  1  0.129041  0.258081  0.243378  1
  Th  Th12  1  0.869397  0.124872  0.740321  1
  Th  Th13  1  0.255475  0.124872  0.740321  1
  Rh  Rh14  1  0.813247  0.185518  0.194452  1
  Rh  Rh15  1  0.372268  0.185518  0.194452  1
  Rh  Rh16  1  0.813540  0.627082  0.196472  1
  Rh  Rh17  1  0.190527  0.819425  0.693989  1
  Rh  Rh18  1  0.628899  0.819425  0.693989  1
  Rh  Rh19  1  0.182602  0.365205  0.701294  1
