# generated using pymatgen
data_HoEr(LuSb5)2
_symmetry_space_group_name_H-M   'P 1'
_cell_length_a   4.20376100
_cell_length_b   13.13695025
_cell_length_c   14.51389500
_cell_angle_alpha   78.53084054
_cell_angle_beta   90.00000000
_cell_angle_gamma   90.00000000
_symmetry_Int_Tables_number   1
_chemical_formula_structural   HoEr(LuSb5)2
_chemical_formula_sum   'Ho2 Er2 Lu4 Sb20'
_cell_volume   785.51910186
_cell_formula_units_Z   2
loop_
 _symmetry_equiv_pos_site_id
 _symmetry_equiv_pos_as_xyz
  1  'x, y, z'
loop_
 _atom_site_type_symbol
 _atom_site_label
 _atom_site_symmetry_multiplicity
 _atom_site_fract_x
 _atom_site_fract_y
 _atom_site_fract_z
 _atom_site_occupancy
  Ho  Ho0  1  0.250000  0.953522  0.358346  1
  Ho  Ho1  1  0.750000  0.046478  0.641654  1
  Er  Er2  1  0.250000  0.668655  0.576111  1
  Er  Er3  1  0.750000  0.331345  0.423889  1
  Lu  Lu4  1  0.250000  0.395892  0.770853  1
  Lu  Lu5  1  0.750000  0.604108  0.229147  1
  Lu  Lu6  1  0.250000  0.661244  0.856194  1
  Lu  Lu7  1  0.750000  0.338756  0.143806  1
  Sb  Sb8  1  0.250000  0.145237  0.778849  1
  Sb  Sb9  1  0.750000  0.854763  0.221151  1
  Sb  Sb10  1  0.250000  0.144111  0.482702  1
  Sb  Sb11  1  0.750000  0.855889  0.517298  1
  Sb  Sb12  1  0.250000  0.154811  0.169676  1
  Sb  Sb13  1  0.750000  0.845189  0.830324  1
  Sb  Sb14  1  0.250000  0.420904  0.975339  1
  Sb  Sb15  1  0.750000  0.579096  0.024661  1
  Sb  Sb16  1  0.750000  0.028817  0.910658  1
  Sb  Sb17  1  0.250000  0.971183  0.089342  1
  Sb  Sb18  1  0.750000  0.140437  0.321624  1
  Sb  Sb19  1  0.250000  0.859563  0.678376  1
  Sb  Sb20  1  0.750000  0.279406  0.936604  1
  Sb  Sb21  1  0.250000  0.720594  0.063396  1
  Sb  Sb22  1  0.750000  0.286073  0.653830  1
  Sb  Sb23  1  0.250000  0.713927  0.346170  1
  Sb  Sb24  1  0.750000  0.576013  0.735780  1
  Sb  Sb25  1  0.250000  0.423987  0.264220  1
  Sb  Sb26  1  0.750000  0.571423  0.446592  1
  Sb  Sb27  1  0.250000  0.428577  0.553408  1
