# generated using pymatgen
data_Lu2ZnNiIr
_symmetry_space_group_name_H-M   'P 1'
_cell_length_a   5.31510819
_cell_length_b   5.31510847
_cell_length_c   5.31510839
_cell_angle_alpha   133.79852877
_cell_angle_beta   116.94674960
_cell_angle_gamma   81.64611677
_symmetry_Int_Tables_number   1
_chemical_formula_structural   Lu2ZnNiIr
_chemical_formula_sum   'Lu2 Zn1 Ni1 Ir1'
_cell_volume   93.24492529
_cell_formula_units_Z   1
loop_
 _symmetry_equiv_pos_site_id
 _symmetry_equiv_pos_as_xyz
  1  'x, y, z'
loop_
 _atom_site_type_symbol
 _atom_site_label
 _atom_site_symmetry_multiplicity
 _atom_site_fract_x
 _atom_site_fract_y
 _atom_site_fract_z
 _atom_site_occupancy
  Lu  Lu0  1  0.697616  0.202734  0.494882  1
  Lu  Lu1  1  0.292148  0.797266  0.494882  1
  Zn  Zn2  1  0.989356  0.000000  0.989356  1
  Ni  Ni3  1  0.739974  0.500000  0.239974  1
  Ir  Ir4  1  0.280906  0.500000  0.780906  1
