# generated using pymatgen
data_Ac5Pr(AlGa)6
_symmetry_space_group_name_H-M   'P 1'
_cell_length_a   4.42980600
_cell_length_b   4.42980518
_cell_length_c   27.85538500
_cell_angle_alpha   90.00000000
_cell_angle_beta   90.00000000
_cell_angle_gamma   120.00002109
_symmetry_Int_Tables_number   1
_chemical_formula_structural   Ac5Pr(AlGa)6
_chemical_formula_sum   'Ac5 Pr1 Al6 Ga6'
_cell_volume   473.37905460
_cell_formula_units_Z   1
loop_
 _symmetry_equiv_pos_site_id
 _symmetry_equiv_pos_as_xyz
  1  'x, y, z'
loop_
 _atom_site_type_symbol
 _atom_site_label
 _atom_site_symmetry_multiplicity
 _atom_site_fract_x
 _atom_site_fract_y
 _atom_site_fract_z
 _atom_site_occupancy
  Ac  Ac0  1  0.000000  0.000000  0.336099  1
  Ac  Ac1  1  0.000000  0.000000  0.827787  1
  Ac  Ac2  1  0.000000  0.000000  0.166812  1
  Ac  Ac3  1  0.000000  0.000000  0.997225  1
  Ac  Ac4  1  0.000000  0.000000  0.505369  1
  Pr  Pr5  1  0.000000  0.000000  0.666570  1
  Al  Al6  1  0.333333  0.666667  0.419743  1
  Al  Al7  1  0.333333  0.666667  0.251244  1
  Al  Al8  1  0.333333  0.666667  0.083452  1
  Al  Al9  1  0.666667  0.333333  0.911942  1
  Al  Al10  1  0.666667  0.333333  0.741079  1
  Al  Al11  1  0.666667  0.333333  0.592333  1
  Ga  Ga12  1  0.333333  0.666667  0.588873  1
  Ga  Ga13  1  0.333333  0.666667  0.914243  1
  Ga  Ga14  1  0.333333  0.666667  0.743909  1
  Ga  Ga15  1  0.666667  0.333333  0.251091  1
  Ga  Ga16  1  0.666667  0.333333  0.080860  1
  Ga  Ga17  1  0.666667  0.333333  0.421368  1
