# generated using pymatgen
data_MgTiBeB2Ir5
_symmetry_space_group_name_H-M   'P 1'
_cell_length_a   9.27207000
_cell_length_b   9.25528300
_cell_length_c   2.89066900
_cell_angle_alpha   90.00000000
_cell_angle_beta   90.00000000
_cell_angle_gamma   90.00000000
_symmetry_Int_Tables_number   1
_chemical_formula_structural   MgTiBeB2Ir5
_chemical_formula_sum   'Mg2 Ti2 Be2 B4 Ir10'
_cell_volume   248.06458669
_cell_formula_units_Z   2
loop_
 _symmetry_equiv_pos_site_id
 _symmetry_equiv_pos_as_xyz
  1  'x, y, z'
loop_
 _atom_site_type_symbol
 _atom_site_label
 _atom_site_symmetry_multiplicity
 _atom_site_fract_x
 _atom_site_fract_y
 _atom_site_fract_z
 _atom_site_occupancy
  Mg  Mg0  1  0.324400  0.178463  0.000000  1
  Mg  Mg1  1  0.824400  0.321537  0.000000  1
  Ti  Ti2  1  0.176386  0.673812  0.000000  1
  Ti  Ti3  1  0.676386  0.826188  0.000000  1
  Be  Be4  1  0.999519  0.997513  0.000000  1
  Be  Be5  1  0.499519  0.502487  0.000000  1
  B  B6  1  0.630066  0.133736  0.000000  1
  B  B7  1  0.130066  0.366264  0.000000  1
  B  B8  1  0.870853  0.626487  0.000000  1
  B  B9  1  0.370854  0.873512  0.000000  1
  Ir  Ir10  1  0.501746  0.999139  0.499999  1
  Ir  Ir11  1  0.791886  0.060349  0.499999  1
  Ir  Ir12  1  0.067589  0.203434  0.499999  1
  Ir  Ir13  1  0.567588  0.296566  0.499999  1
  Ir  Ir14  1  0.291886  0.439652  0.499999  1
  Ir  Ir15  1  0.001746  0.500861  0.499999  1
  Ir  Ir16  1  0.704987  0.575484  0.499999  1
  Ir  Ir17  1  0.432567  0.708302  0.499999  1
  Ir  Ir18  1  0.932566  0.791697  0.499999  1
  Ir  Ir19  1  0.204988  0.924515  0.499999  1
