# generated using pymatgen
data_TbTm3Al8
_symmetry_space_group_name_H-M   'P 1'
_cell_length_a   9.58978537
_cell_length_b   9.58978521
_cell_length_c   9.58978531
_cell_angle_alpha   33.53074990
_cell_angle_beta   33.53075129
_cell_angle_gamma   33.53075528
_symmetry_Int_Tables_number   1
_chemical_formula_structural   TbTm3Al8
_chemical_formula_sum   'Tb1 Tm3 Al8'
_cell_volume   239.68096785
_cell_formula_units_Z   1
loop_
 _symmetry_equiv_pos_site_id
 _symmetry_equiv_pos_as_xyz
  1  'x, y, z'
loop_
 _atom_site_type_symbol
 _atom_site_label
 _atom_site_symmetry_multiplicity
 _atom_site_fract_x
 _atom_site_fract_y
 _atom_site_fract_z
 _atom_site_occupancy
  Tb  Tb0  1  0.812483  0.812483  0.812483  1
  Tm  Tm1  1  0.312590  0.312590  0.312590  1
  Tm  Tm2  1  0.687530  0.687530  0.687530  1
  Tm  Tm3  1  0.187395  0.187395  0.187395  1
  Al  Al4  1  0.500066  0.500066  0.500066  1
  Al  Al5  1  0.999999  0.999999  0.999999  1
  Al  Al6  1  0.249791  0.249791  0.750048  1
  Al  Al7  1  0.750020  0.750020  0.250267  1
  Al  Al8  1  0.249791  0.750048  0.249791  1
  Al  Al9  1  0.750020  0.250267  0.750020  1
  Al  Al10  1  0.750048  0.249791  0.249791  1
  Al  Al11  1  0.250267  0.750020  0.750020  1
