# generated using pymatgen
data_Ho20Ge2IrRu9
_symmetry_space_group_name_H-M   'P 1'
_cell_length_a   10.85139865
_cell_length_b   10.85139816
_cell_length_c   6.38298504
_cell_angle_alpha   89.72902037
_cell_angle_beta   89.72902384
_cell_angle_gamma   89.60617927
_symmetry_Int_Tables_number   1
_chemical_formula_structural   Ho20Ge2IrRu9
_chemical_formula_sum   'Ho20 Ge2 Ir1 Ru9'
_cell_volume   751.58021078
_cell_formula_units_Z   1
loop_
 _symmetry_equiv_pos_site_id
 _symmetry_equiv_pos_as_xyz
  1  'x, y, z'
loop_
 _atom_site_type_symbol
 _atom_site_label
 _atom_site_symmetry_multiplicity
 _atom_site_fract_x
 _atom_site_fract_y
 _atom_site_fract_z
 _atom_site_occupancy
  Ho  Ho0  1  0.289536  0.086274  0.376429  1
  Ho  Ho1  1  0.292670  0.913003  0.878613  1
  Ho  Ho2  1  0.703530  0.076249  0.866401  1
  Ho  Ho3  1  0.705215  0.908017  0.377078  1
  Ho  Ho4  1  0.586554  0.790354  0.877228  1
  Ho  Ho5  1  0.576332  0.202721  0.366157  1
  Ho  Ho6  1  0.412630  0.793056  0.379522  1
  Ho  Ho7  1  0.407893  0.205603  0.877546  1
  Ho  Ho8  1  0.209646  0.413446  0.622772  1
  Ho  Ho9  1  0.206944  0.587370  0.120478  1
  Ho  Ho10  1  0.797279  0.423668  0.133843  1
  Ho  Ho11  1  0.794397  0.592107  0.622454  1
  Ho  Ho12  1  0.913726  0.710464  0.123571  1
  Ho  Ho13  1  0.923751  0.296470  0.633599  1
  Ho  Ho14  1  0.086997  0.707330  0.621387  1
  Ho  Ho15  1  0.091983  0.294785  0.122922  1
  Ho  Ho16  1  0.002143  0.997090  0.501160  1
  Ho  Ho17  1  0.002910  0.997857  0.998840  1
  Ho  Ho18  1  0.498237  0.501647  0.000983  1
  Ho  Ho19  1  0.498353  0.501763  0.499017  1
  Ge  Ge20  1  0.842090  0.157910  0.250000  1
  Ge  Ge21  1  0.658967  0.341033  0.750000  1
  Ir  Ir22  1  0.346107  0.653893  0.750000  1
  Ru  Ru23  1  0.848753  0.848816  0.750133  1
  Ru  Ru24  1  0.151184  0.151247  0.749867  1
  Ru  Ru25  1  0.153624  0.846376  0.250000  1
  Ru  Ru26  1  0.649694  0.650807  0.250494  1
  Ru  Ru27  1  0.349193  0.350306  0.249506  1
  Ru  Ru28  1  0.498266  0.998488  0.123008  1
  Ru  Ru29  1  0.498921  0.999034  0.623048  1
  Ru  Ru30  1  0.000966  0.501079  0.876952  1
  Ru  Ru31  1  0.001512  0.501734  0.376992  1
