# generated using pymatgen
data_LaNd2Mg3Ir2Pd
_symmetry_space_group_name_H-M   'P 1'
_cell_length_a   7.62267600
_cell_length_b   7.54071709
_cell_length_c   4.10165000
_cell_angle_alpha   90.00000000
_cell_angle_beta   90.00000000
_cell_angle_gamma   120.36019466
_symmetry_Int_Tables_number   1
_chemical_formula_structural   LaNd2Mg3Ir2Pd
_chemical_formula_sum   'La1 Nd2 Mg3 Ir2 Pd1'
_cell_volume   203.43307780
_cell_formula_units_Z   1
loop_
 _symmetry_equiv_pos_site_id
 _symmetry_equiv_pos_as_xyz
  1  'x, y, z'
loop_
 _atom_site_type_symbol
 _atom_site_label
 _atom_site_symmetry_multiplicity
 _atom_site_fract_x
 _atom_site_fract_y
 _atom_site_fract_z
 _atom_site_occupancy
  La  La0  1  0.578466  0.000000  0.000000  1
  Nd  Nd1  1  0.999949  0.582794  0.000000  1
  Nd  Nd2  1  0.417155  0.417206  0.000000  1
  Mg  Mg3  1  0.242195  0.000000  0.500000  1
  Mg  Mg4  1  0.001910  0.246018  0.500000  1
  Mg  Mg5  1  0.755892  0.753982  0.500000  1
  Ir  Ir6  1  0.335608  0.668057  0.500000  1
  Ir  Ir7  1  0.667552  0.331943  0.500000  1
  Pd  Pd8  1  0.001275  0.000000  0.000000  1
