# generated using pymatgen
data_Dy2Si14IrRh5
_symmetry_space_group_name_H-M   'P 1'
_cell_length_a   8.00021083
_cell_length_b   8.00870417
_cell_length_c   8.00870462
_cell_angle_alpha   56.97383482
_cell_angle_beta   56.96696770
_cell_angle_gamma   56.96696696
_symmetry_Int_Tables_number   1
_chemical_formula_structural   Dy2Si14IrRh5
_chemical_formula_sum   'Dy2 Si14 Ir1 Rh5'
_cell_volume   337.47690317
_cell_formula_units_Z   1
loop_
 _symmetry_equiv_pos_site_id
 _symmetry_equiv_pos_as_xyz
  1  'x, y, z'
loop_
 _atom_site_type_symbol
 _atom_site_label
 _atom_site_symmetry_multiplicity
 _atom_site_fract_x
 _atom_site_fract_y
 _atom_site_fract_z
 _atom_site_occupancy
  Dy  Dy0  1  0.999893  0.999859  0.000564  1
  Dy  Dy1  1  0.500107  0.499436  0.500141  1
  Si  Si2  1  0.750000  0.748810  0.751190  1
  Si  Si3  1  0.250000  0.250090  0.249910  1
  Si  Si4  1  0.851562  0.066720  0.671892  1
  Si  Si5  1  0.672988  0.851280  0.063844  1
  Si  Si6  1  0.064232  0.673708  0.850363  1
  Si  Si7  1  0.648438  0.828108  0.433280  1
  Si  Si8  1  0.435768  0.649637  0.826292  1
  Si  Si9  1  0.827012  0.436156  0.648720  1
  Si  Si10  1  0.173791  0.562909  0.351323  1
  Si  Si11  1  0.563419  0.351223  0.171880  1
  Si  Si12  1  0.350975  0.171017  0.567260  1
  Si  Si13  1  0.936581  0.328120  0.148777  1
  Si  Si14  1  0.326209  0.148677  0.937091  1
  Si  Si15  1  0.149025  0.932740  0.328983  1
  Ir  Ir16  1  0.750000  0.070182  0.429818  1
  Rh  Rh17  1  0.070198  0.429426  0.750337  1
  Rh  Rh18  1  0.250000  0.930994  0.569006  1
  Rh  Rh19  1  0.570170  0.250181  0.928934  1
  Rh  Rh20  1  0.929830  0.571066  0.249819  1
  Rh  Rh21  1  0.429802  0.749663  0.070574  1
