# generated using pymatgen
data_DyY19(Sn3Sb)4
_symmetry_space_group_name_H-M   'P 1'
_cell_length_a   8.15982003
_cell_length_b   8.17315103
_cell_length_c   15.45876801
_cell_angle_alpha   90.00292288
_cell_angle_beta   89.99844863
_cell_angle_gamma   89.98991095
_symmetry_Int_Tables_number   1
_chemical_formula_structural   DyY19(Sn3Sb)4
_chemical_formula_sum   'Dy1 Y19 Sn12 Sb4'
_cell_volume   1030.96750504
_cell_formula_units_Z   1
loop_
 _symmetry_equiv_pos_site_id
 _symmetry_equiv_pos_as_xyz
  1  'x, y, z'
loop_
 _atom_site_type_symbol
 _atom_site_label
 _atom_site_symmetry_multiplicity
 _atom_site_fract_x
 _atom_site_fract_y
 _atom_site_fract_z
 _atom_site_occupancy
  Dy  Dy0  1  0.280219  0.000997  0.251950  1
  Y  Y1  1  0.388799  0.839907  0.880225  1
  Y  Y2  1  0.888863  0.660268  0.619904  1
  Y  Y3  1  0.611235  0.160289  0.379882  1
  Y  Y4  1  0.111070  0.339554  0.120101  1
  Y  Y5  1  0.613269  0.161292  0.119715  1
  Y  Y6  1  0.113160  0.338542  0.380106  1
  Y  Y7  1  0.386548  0.838622  0.619566  1
  Y  Y8  1  0.886580  0.661398  0.880384  1
  Y  Y9  1  0.555964  0.331584  0.892162  1
  Y  Y10  1  0.055864  0.168656  0.607795  1
  Y  Y11  1  0.444119  0.668483  0.391973  1
  Y  Y12  1  0.944192  0.831371  0.107953  1
  Y  Y13  1  0.455053  0.670407  0.105121  1
  Y  Y14  1  0.955393  0.829456  0.394803  1
  Y  Y15  1  0.544736  0.329660  0.605026  1
  Y  Y16  1  0.044803  0.170378  0.895129  1
  Y  Y17  1  0.219841  0.500965  0.748359  1
  Y  Y18  1  0.719818  0.999114  0.751569  1
  Y  Y19  1  0.780236  0.499158  0.248322  1
  Sn  Sn20  1  0.724627  0.974321  0.955801  1
  Sn  Sn21  1  0.224538  0.525674  0.544072  1
  Sn  Sn22  1  0.275489  0.025832  0.455654  1
  Sn  Sn23  1  0.775389  0.474214  0.044309  1
  Sn  Sn24  1  0.585125  0.627279  0.749087  1
  Sn  Sn25  1  0.085185  0.872935  0.750939  1
  Sn  Sn26  1  0.414842  0.372899  0.249005  1
  Sn  Sn27  1  0.914847  0.126840  0.250842  1
  Sn  Sn28  1  0.356004  0.144598  0.750752  1
  Sn  Sn29  1  0.856024  0.355468  0.749336  1
  Sn  Sn30  1  0.643927  0.855489  0.250654  1
  Sn  Sn31  1  0.144338  0.644680  0.249194  1
  Sb  Sb32  1  0.269266  0.020237  0.046536  1
  Sb  Sb33  1  0.769351  0.479406  0.453764  1
  Sb  Sb34  1  0.730703  0.979454  0.546021  1
  Sb  Sb35  1  0.230585  0.520574  0.953990  1
