# generated using pymatgen
data_Sc8Cr2B24RuRh
_symmetry_space_group_name_H-M   'P 1'
_cell_length_a   3.42607100
_cell_length_b   8.88846249
_cell_length_c   11.20360558
_cell_angle_alpha   89.89533960
_cell_angle_beta   90.00000000
_cell_angle_gamma   90.00000000
_symmetry_Int_Tables_number   1
_chemical_formula_structural   Sc8Cr2B24RuRh
_chemical_formula_sum   'Sc8 Cr2 B24 Ru1 Rh1'
_cell_volume   341.17726966
_cell_formula_units_Z   1
loop_
 _symmetry_equiv_pos_site_id
 _symmetry_equiv_pos_as_xyz
  1  'x, y, z'
loop_
 _atom_site_type_symbol
 _atom_site_label
 _atom_site_symmetry_multiplicity
 _atom_site_fract_x
 _atom_site_fract_y
 _atom_site_fract_z
 _atom_site_occupancy
  Sc  Sc0  1  0.000000  0.815633  0.090667  1
  Sc  Sc1  1  0.000000  0.186540  0.912963  1
  Sc  Sc2  1  0.000000  0.323641  0.415380  1
  Sc  Sc3  1  0.000000  0.674826  0.581408  1
  Sc  Sc4  1  0.000000  0.444899  0.129284  1
  Sc  Sc5  1  0.000000  0.553666  0.871006  1
  Sc  Sc6  1  0.000000  0.941936  0.372023  1
  Sc  Sc7  1  0.000000  0.059670  0.626760  1
  Cr  Cr8  1  0.000000  0.639595  0.319274  1
  Cr  Cr9  1  0.000000  0.360262  0.681186  1
  B  B10  1  0.500000  0.053179  0.064661  1
  B  B11  1  0.500000  0.946480  0.935753  1
  B  B12  1  0.500000  0.552825  0.434221  1
  B  B13  1  0.500000  0.447188  0.565635  1
  B  B14  1  0.500000  0.252673  0.078668  1
  B  B15  1  0.500000  0.747164  0.922358  1
  B  B16  1  0.500000  0.750534  0.420731  1
  B  B17  1  0.500000  0.249531  0.579315  1
  B  B18  1  0.500000  0.294547  0.236678  1
  B  B19  1  0.500000  0.705171  0.762955  1
  B  B20  1  0.500000  0.793701  0.264437  1
  B  B21  1  0.500000  0.206045  0.736182  1
  B  B22  1  0.500000  0.130153  0.317702  1
  B  B23  1  0.500000  0.869461  0.681093  1
  B  B24  1  0.500000  0.629921  0.183420  1
  B  B25  1  0.500000  0.370076  0.816920  1
  B  B26  1  0.500000  0.479776  0.288017  1
  B  B27  1  0.500000  0.520383  0.711755  1
  B  B28  1  0.500000  0.978811  0.212750  1
  B  B29  1  0.500000  0.021259  0.786979  1
  B  B30  1  0.500000  0.101071  0.472442  1
  B  B31  1  0.500000  0.898513  0.527689  1
  B  B32  1  0.500000  0.601136  0.027593  1
  B  B33  1  0.500000  0.399612  0.972440  1
  Ru  Ru34  1  0.000000  0.139078  0.179199  1
  Rh  Rh35  1  0.000000  0.861045  0.820457  1
