# generated using pymatgen
data_Ca7Yb3
_symmetry_space_group_name_H-M   'P 1'
_cell_length_a   14.55060932
_cell_length_b   14.55060926
_cell_length_c   5.82801000
_cell_angle_alpha   90.00000000
_cell_angle_beta   90.00000000
_cell_angle_gamma   160.33488836
_symmetry_Int_Tables_number   1
_chemical_formula_structural   Ca7Yb3
_chemical_formula_sum   'Ca7 Yb3'
_cell_volume   415.23696058
_cell_formula_units_Z   1
loop_
 _symmetry_equiv_pos_site_id
 _symmetry_equiv_pos_as_xyz
  1  'x, y, z'
loop_
 _atom_site_type_symbol
 _atom_site_label
 _atom_site_symmetry_multiplicity
 _atom_site_fract_x
 _atom_site_fract_y
 _atom_site_fract_z
 _atom_site_occupancy
  Ca  Ca0  1  0.000000  0.000000  0.000000  1
  Ca  Ca1  1  0.599021  0.400979  0.000000  1
  Ca  Ca2  1  0.400979  0.599021  0.000000  1
  Ca  Ca3  1  0.899848  0.100151  0.500000  1
  Ca  Ca4  1  0.700003  0.299997  0.500000  1
  Ca  Ca5  1  0.299997  0.700003  0.500000  1
  Ca  Ca6  1  0.100151  0.899848  0.500000  1
  Yb  Yb7  1  0.800785  0.199215  0.000000  1
  Yb  Yb8  1  0.199215  0.800785  0.000000  1
  Yb  Yb9  1  0.500000  0.500000  0.500000  1
