# generated using pymatgen
data_Dy3Ho5InAgRh2
_symmetry_space_group_name_H-M   'P 1'
_cell_length_a   9.56780945
_cell_length_b   9.56396745
_cell_length_c   9.56996425
_cell_angle_alpha   59.84432997
_cell_angle_beta   59.84164897
_cell_angle_gamma   59.93755980
_symmetry_Int_Tables_number   1
_chemical_formula_structural   Dy3Ho5InAgRh2
_chemical_formula_sum   'Dy6 Ho10 In2 Ag2 Rh4'
_cell_volume   617.45709027
_cell_formula_units_Z   2
loop_
 _symmetry_equiv_pos_site_id
 _symmetry_equiv_pos_as_xyz
  1  'x, y, z'
loop_
 _atom_site_type_symbol
 _atom_site_label
 _atom_site_symmetry_multiplicity
 _atom_site_fract_x
 _atom_site_fract_y
 _atom_site_fract_z
 _atom_site_occupancy
  Dy  Dy0  1  0.186076  0.186210  0.813863  1
  Dy  Dy1  1  0.600987  0.600799  0.197833  1
  Dy  Dy2  1  0.439240  0.059619  0.440313  1
  Dy  Dy3  1  0.441162  0.441341  0.057905  1
  Dy  Dy4  1  0.812934  0.182895  0.814567  1
  Dy  Dy5  1  0.182149  0.812502  0.190673  1
  Ho  Ho6  1  0.438387  0.060992  0.059776  1
  Ho  Ho7  1  0.183324  0.812418  0.814406  1
  Ho  Ho8  1  0.060860  0.438536  0.059927  1
  Ho  Ho9  1  0.811485  0.811256  0.188663  1
  Ho  Ho10  1  0.197875  0.601523  0.601608  1
  Ho  Ho11  1  0.059389  0.439273  0.440331  1
  Ho  Ho12  1  0.061507  0.061653  0.437093  1
  Ho  Ho13  1  0.812375  0.182499  0.190775  1
  Ho  Ho14  1  0.601537  0.198188  0.601387  1
  Ho  Ho15  1  0.600231  0.599949  0.600108  1
  In  In16  1  0.507989  0.833240  0.829320  1
  In  In17  1  0.833262  0.508011  0.829317  1
  Ag  Ag18  1  0.833792  0.833593  0.831698  1
  Ag  Ag19  1  0.833756  0.833891  0.500422  1
  Rh  Rh20  1  0.393125  0.822364  0.392836  1
  Rh  Rh21  1  0.392910  0.393009  0.392198  1
  Rh  Rh22  1  0.822673  0.393119  0.392685  1
  Rh  Rh23  1  0.392976  0.393121  0.822296  1
