# generated using pymatgen
data_MgFe(AuO2)2
_symmetry_space_group_name_H-M   'P 1'
_cell_length_a   5.34137285
_cell_length_b   6.20461610
_cell_length_c   7.09956982
_cell_angle_alpha   64.06420162
_cell_angle_beta   75.57993187
_cell_angle_gamma   89.88565235
_symmetry_Int_Tables_number   1
_chemical_formula_structural   MgFe(AuO2)2
_chemical_formula_sum   'Mg2 Fe2 Au4 O8'
_cell_volume   203.37492710
_cell_formula_units_Z   2
loop_
 _symmetry_equiv_pos_site_id
 _symmetry_equiv_pos_as_xyz
  1  'x, y, z'
loop_
 _atom_site_type_symbol
 _atom_site_label
 _atom_site_symmetry_multiplicity
 _atom_site_fract_x
 _atom_site_fract_y
 _atom_site_fract_z
 _atom_site_occupancy
  Mg  Mg0  1  0.500148  0.749293  0.999908  1
  Mg  Mg1  1  0.999853  0.500715  0.000092  1
  Fe  Fe2  1  0.499873  0.252261  0.000076  1
  Fe  Fe3  1  0.000134  0.997713  0.999907  1
  Au  Au4  1  0.004637  0.000525  0.500948  1
  Au  Au5  1  0.995277  0.501562  0.499048  1
  Au  Au6  1  0.504820  0.748447  0.500940  1
  Au  Au7  1  0.495258  0.249467  0.499071  1
  O  O8  1  0.895827  0.842281  0.830551  1
  O  O9  1  0.885755  0.328096  0.831296  1
  O  O10  1  0.395814  0.577650  0.830496  1
  O  O11  1  0.385825  0.090883  0.831264  1
  O  O12  1  0.114186  0.159133  0.168729  1
  O  O13  1  0.104279  0.672363  0.169476  1
  O  O14  1  0.614232  0.921913  0.168714  1
  O  O15  1  0.604081  0.407698  0.169483  1
