# generated using pymatgen
data_V9B4P2W
_symmetry_space_group_name_H-M   'P 1'
_cell_length_a   6.69911225
_cell_length_b   6.72955563
_cell_length_c   6.72362631
_cell_angle_alpha   129.30319164
_cell_angle_beta   129.18040851
_cell_angle_gamma   74.51778378
_symmetry_Int_Tables_number   1
_chemical_formula_structural   V9B4P2W
_chemical_formula_sum   'V9 B4 P2 W1'
_cell_volume   177.27322306
_cell_formula_units_Z   1
loop_
 _symmetry_equiv_pos_site_id
 _symmetry_equiv_pos_as_xyz
  1  'x, y, z'
loop_
 _atom_site_type_symbol
 _atom_site_label
 _atom_site_symmetry_multiplicity
 _atom_site_fract_x
 _atom_site_fract_y
 _atom_site_fract_z
 _atom_site_occupancy
  V  V0  1  0.029777  0.529395  0.838996  1
  V  V1  1  0.690781  0.190400  0.161004  1
  V  V2  1  0.972039  0.470180  0.162470  1
  V  V3  1  0.190014  0.031781  0.500000  1
  V  V4  1  0.470361  0.307727  0.500000  1
  V  V5  1  0.808415  0.971117  0.500000  1
  V  V6  1  0.309568  0.807710  0.837530  1
  V  V7  1  0.002732  0.002673  0.002871  1
  V  V8  1  0.499862  0.499801  0.997129  1
  B  B9  1  0.617080  0.120369  0.734108  1
  B  B10  1  0.114025  0.385190  0.500000  1
  B  B11  1  0.886985  0.614562  0.500000  1
  B  B12  1  0.382972  0.886261  0.265892  1
  P  P13  1  0.245346  0.241835  0.991623  1
  P  P14  1  0.753723  0.750212  0.008377  1
  W  W15  1  0.526319  0.690788  0.500000  1
