# generated using pymatgen
data_Rb3ErNb2O8
_symmetry_space_group_name_H-M   'P 1'
_cell_length_a   6.21606700
_cell_length_b   6.21606644
_cell_length_c   8.23460700
_cell_angle_alpha   90.00000000
_cell_angle_beta   90.00000000
_cell_angle_gamma   120.00000829
_symmetry_Int_Tables_number   1
_chemical_formula_structural   Rb3ErNb2O8
_chemical_formula_sum   'Rb3 Er1 Nb2 O8'
_cell_volume   275.55278656
_cell_formula_units_Z   1
loop_
 _symmetry_equiv_pos_site_id
 _symmetry_equiv_pos_as_xyz
  1  'x, y, z'
loop_
 _atom_site_type_symbol
 _atom_site_label
 _atom_site_symmetry_multiplicity
 _atom_site_fract_x
 _atom_site_fract_y
 _atom_site_fract_z
 _atom_site_occupancy
  Rb  Rb0  1  0.333333  0.666667  0.708137  1
  Rb  Rb1  1  0.666667  0.333333  0.291863  1
  Rb  Rb2  1  0.000000  0.000000  0.000000  1
  Er  Er3  1  0.000000  0.000000  0.500000  1
  Nb  Nb4  1  0.333333  0.666667  0.259291  1
  Nb  Nb5  1  0.666667  0.333333  0.740709  1
  O  O6  1  0.333333  0.666667  0.037978  1
  O  O7  1  0.666667  0.333333  0.962022  1
  O  O8  1  0.167355  0.832645  0.336339  1
  O  O9  1  0.665291  0.832645  0.336339  1
  O  O10  1  0.167355  0.334709  0.336339  1
  O  O11  1  0.832645  0.167355  0.663661  1
  O  O12  1  0.334709  0.167355  0.663661  1
  O  O13  1  0.832645  0.665291  0.663661  1
