# generated using pymatgen
data_Yb5Ho5Rh4
_symmetry_space_group_name_H-M   'P 1'
_cell_length_a   6.40523033
_cell_length_b   7.26578774
_cell_length_c   8.50436400
_cell_angle_alpha   96.83904149
_cell_angle_beta   112.84595709
_cell_angle_gamma   90.46380177
_symmetry_Int_Tables_number   1
_chemical_formula_structural   Yb5Ho5Rh4
_chemical_formula_sum   'Yb5 Ho5 Rh4'
_cell_volume   361.50227388
_cell_formula_units_Z   1
loop_
 _symmetry_equiv_pos_site_id
 _symmetry_equiv_pos_as_xyz
  1  'x, y, z'
loop_
 _atom_site_type_symbol
 _atom_site_label
 _atom_site_symmetry_multiplicity
 _atom_site_fract_x
 _atom_site_fract_y
 _atom_site_fract_z
 _atom_site_occupancy
  Yb  Yb0  1  0.980133  0.920353  0.183391  1
  Yb  Yb1  1  0.793858  0.580406  0.813773  1
  Yb  Yb2  1  0.018470  0.080452  0.815333  1
  Yb  Yb3  1  0.205510  0.417238  0.187833  1
  Yb  Yb4  1  0.642045  0.813380  0.436310  1
  Ho  Ho5  1  0.208712  0.682824  0.565044  1
  Ho  Ho6  1  0.362706  0.186359  0.565518  1
  Ho  Ho7  1  0.795567  0.314916  0.433882  1
  Ho  Ho8  1  0.427177  0.750665  0.001400  1
  Ho  Ho9  1  0.570461  0.251061  0.000867  1
  Rh  Rh10  1  0.819327  0.571201  0.223566  1
  Rh  Rh11  1  0.586921  0.928605  0.783060  1
  Rh  Rh12  1  0.182032  0.426395  0.767760  1
  Rh  Rh13  1  0.407082  0.076149  0.222261  1
