# generated using pymatgen
data_Li3La3CeAlRh4
_symmetry_space_group_name_H-M   'P 1'
_cell_length_a   4.05133900
_cell_length_b   7.11690664
_cell_length_c   8.72907880
_cell_angle_alpha   90.19116790
_cell_angle_beta   90.00000000
_cell_angle_gamma   90.00000000
_symmetry_Int_Tables_number   1
_chemical_formula_structural   Li3La3CeAlRh4
_chemical_formula_sum   'Li3 La3 Ce1 Al1 Rh4'
_cell_volume   251.68414065
_cell_formula_units_Z   1
loop_
 _symmetry_equiv_pos_site_id
 _symmetry_equiv_pos_as_xyz
  1  'x, y, z'
loop_
 _atom_site_type_symbol
 _atom_site_label
 _atom_site_symmetry_multiplicity
 _atom_site_fract_x
 _atom_site_fract_y
 _atom_site_fract_z
 _atom_site_occupancy
  Li  Li0  1  0.250000  0.622618  0.549982  1
  Li  Li1  1  0.750000  0.379773  0.453048  1
  Li  Li2  1  0.750000  0.872002  0.047839  1
  La  La3  1  0.250000  0.548139  0.177652  1
  La  La4  1  0.750000  0.958593  0.685590  1
  La  La5  1  0.250000  0.044563  0.314041  1
  Ce  Ce6  1  0.750000  0.450501  0.822262  1
  Al  Al7  1  0.250000  0.120086  0.944994  1
  Rh  Rh8  1  0.250000  0.733832  0.877461  1
  Rh  Rh9  1  0.750000  0.245017  0.096351  1
  Rh  Rh10  1  0.750000  0.769714  0.367376  1
  Rh  Rh11  1  0.250000  0.255163  0.663404  1
