# generated using pymatgen
data_La2ErUO7
_symmetry_space_group_name_H-M   'P 1'
_cell_length_a   7.84075262
_cell_length_b   7.78547057
_cell_length_c   7.84075297
_cell_angle_alpha   60.23295605
_cell_angle_beta   60.95999423
_cell_angle_gamma   60.23295497
_symmetry_Int_Tables_number   1
_chemical_formula_structural   La2ErUO7
_chemical_formula_sum   'La4 Er2 U2 O14'
_cell_volume   342.04257346
_cell_formula_units_Z   2
loop_
 _symmetry_equiv_pos_site_id
 _symmetry_equiv_pos_as_xyz
  1  'x, y, z'
loop_
 _atom_site_type_symbol
 _atom_site_label
 _atom_site_symmetry_multiplicity
 _atom_site_fract_x
 _atom_site_fract_y
 _atom_site_fract_z
 _atom_site_occupancy
  La  La0  1  0.625000  0.125000  0.125000  1
  La  La1  1  0.125000  0.125000  0.125000  1
  La  La2  1  0.125000  0.625000  0.125000  1
  La  La3  1  0.125000  0.125000  0.625000  1
  Er  Er4  1  0.625000  0.625000  0.625000  1
  Er  Er5  1  0.625000  0.125000  0.625000  1
  U  U6  1  0.625000  0.625000  0.125000  1
  U  U7  1  0.125000  0.625000  0.625000  1
  O  O8  1  0.720639  0.294368  0.277759  1
  O  O9  1  0.720639  0.707234  0.277759  1
  O  O10  1  0.290638  0.709362  0.290638  1
  O  O11  1  0.003655  0.996345  0.003655  1
  O  O12  1  0.726537  0.273463  0.726537  1
  O  O13  1  0.972241  0.542766  0.529361  1
  O  O14  1  0.277759  0.707234  0.720639  1
  O  O15  1  0.523463  0.976537  0.523463  1
  O  O16  1  0.246345  0.253655  0.246345  1
  O  O17  1  0.959362  0.540638  0.959362  1
  O  O18  1  0.529361  0.542766  0.972241  1
  O  O19  1  0.972241  0.955632  0.529361  1
  O  O20  1  0.529361  0.955632  0.972241  1
  O  O21  1  0.277759  0.294368  0.720639  1
