# generated using pymatgen
data_SrCaNdTaO6
_symmetry_space_group_name_H-M   'P 1'
_cell_length_a   8.30766573
_cell_length_b   8.30766564
_cell_length_c   10.05301170
_cell_angle_alpha   66.74940755
_cell_angle_beta   66.74939870
_cell_angle_gamma   92.40752347
_symmetry_Int_Tables_number   1
_chemical_formula_structural   SrCaNdTaO6
_chemical_formula_sum   'Sr4 Ca4 Nd4 Ta4 O24'
_cell_volume   569.40009205
_cell_formula_units_Z   4
loop_
 _symmetry_equiv_pos_site_id
 _symmetry_equiv_pos_as_xyz
  1  'x, y, z'
loop_
 _atom_site_type_symbol
 _atom_site_label
 _atom_site_symmetry_multiplicity
 _atom_site_fract_x
 _atom_site_fract_y
 _atom_site_fract_z
 _atom_site_occupancy
  Sr  Sr0  1  0.393382  0.349004  0.248018  1
  Sr  Sr1  1  0.893382  0.849004  0.248017  1
  Sr  Sr2  1  0.099003  0.643381  0.748018  1
  Sr  Sr3  1  0.599003  0.143382  0.748019  1
  Ca  Ca4  1  0.997574  0.505957  0.498200  1
  Ca  Ca5  1  0.255957  0.247574  0.998201  1
  Ca  Ca6  1  0.497573  0.005956  0.498201  1
  Ca  Ca7  1  0.755957  0.747574  0.998200  1
  Nd  Nd8  1  0.419240  0.856061  0.243541  1
  Nd  Nd9  1  0.919240  0.356061  0.243540  1
  Nd  Nd10  1  0.106062  0.169240  0.743540  1
  Nd  Nd11  1  0.606062  0.669241  0.743541  1
  Ta  Ta12  1  0.748921  0.252596  0.999624  1
  Ta  Ta13  1  0.248920  0.752597  0.999624  1
  Ta  Ta14  1  0.002598  0.998921  0.499624  1
  Ta  Ta15  1  0.502598  0.498922  0.499624  1
  O  O16  1  0.344015  0.794872  0.769434  1
  O  O17  1  0.844016  0.294873  0.769434  1
  O  O18  1  0.544873  0.594017  0.269434  1
  O  O19  1  0.044872  0.094016  0.269434  1
  O  O20  1  0.754619  0.989359  0.063800  1
  O  O21  1  0.254616  0.489358  0.063802  1
  O  O22  1  0.239359  0.504619  0.563800  1
  O  O23  1  0.739358  0.004617  0.563803  1
  O  O24  1  0.565402  0.756111  0.454596  1
  O  O25  1  0.065402  0.256111  0.454597  1
  O  O26  1  0.006111  0.315403  0.954597  1
  O  O27  1  0.506111  0.815401  0.954595  1
  O  O28  1  0.489261  0.163959  0.057636  1
  O  O29  1  0.989261  0.663960  0.057637  1
  O  O30  1  0.913960  0.739261  0.557637  1
  O  O31  1  0.413960  0.239262  0.557636  1
  O  O32  1  0.257522  0.964412  0.436489  1
  O  O33  1  0.757522  0.464411  0.436489  1
  O  O34  1  0.714411  0.507521  0.936490  1
  O  O35  1  0.214411  0.007522  0.936489  1
  O  O36  1  0.970237  0.927496  0.728659  1
  O  O37  1  0.470236  0.427497  0.728659  1
  O  O38  1  0.177497  0.720236  0.228659  1
  O  O39  1  0.677496  0.220235  0.228659  1
