# generated using pymatgen
data_Hf6Co16Si9Mo2P3
_symmetry_space_group_name_H-M   'P 1'
_cell_length_a   12.10379733
_cell_length_b   12.09630984
_cell_length_c   3.66988300
_cell_angle_alpha   90.00000000
_cell_angle_beta   90.00000000
_cell_angle_gamma   119.94379279
_symmetry_Int_Tables_number   1
_chemical_formula_structural   Hf6Co16Si9Mo2P3
_chemical_formula_sum   'Hf6 Co16 Si9 Mo2 P3'
_cell_volume   465.58941004
_cell_formula_units_Z   1
loop_
 _symmetry_equiv_pos_site_id
 _symmetry_equiv_pos_as_xyz
  1  'x, y, z'
loop_
 _atom_site_type_symbol
 _atom_site_label
 _atom_site_symmetry_multiplicity
 _atom_site_fract_x
 _atom_site_fract_y
 _atom_site_fract_z
 _atom_site_occupancy
  Hf  Hf0  1  0.812849  0.814628  0.500000  1
  Hf  Hf1  1  0.998985  0.178083  0.500000  1
  Hf  Hf2  1  0.337171  0.667678  0.000000  1
  Hf  Hf3  1  0.665226  0.332708  0.000000  1
  Hf  Hf4  1  0.001316  0.558692  0.000000  1
  Hf  Hf5  1  0.189120  0.001571  0.500000  1
  Co  Co6  1  0.628695  0.825279  0.000000  1
  Co  Co7  1  0.372751  0.191810  0.000000  1
  Co  Co8  1  0.001937  0.728104  0.500000  1
  Co  Co9  1  0.278814  0.275705  0.500000  1
  Co  Co10  1  0.874537  0.354112  0.500000  1
  Co  Co11  1  0.724344  0.998294  0.500000  1
  Co  Co12  1  0.822384  0.631491  0.000000  1
  Co  Co13  1  0.181736  0.812945  0.000000  1
  Co  Co14  1  0.357272  0.882164  0.500000  1
  Co  Co15  1  0.124567  0.480019  0.500000  1
  Co  Co16  1  0.642622  0.522826  0.500000  1
  Co  Co17  1  0.994906  0.994467  0.000000  1
  Co  Co18  1  0.518795  0.647074  0.500000  1
  Co  Co19  1  0.479726  0.125874  0.500000  1
  Co  Co20  1  0.195888  0.369819  0.000000  1
  Co  Co21  1  0.803480  0.170905  0.000000  1
  Si  Si22  1  0.999071  0.345936  0.000000  1
  Si  Si23  1  0.823743  0.516821  0.500000  1
  Si  Si24  1  0.687291  0.168853  0.500000  1
  Si  Si25  1  0.176073  0.173912  0.000000  1
  Si  Si26  1  0.640200  0.643469  0.000000  1
  Si  Si27  1  0.517214  0.833608  0.500000  1
  Si  Si28  1  0.178176  0.693631  0.500000  1
  Si  Si29  1  0.483224  0.314401  0.500000  1
  Si  Si30  1  0.311480  0.481203  0.500000  1
  Mo  Mo31  1  0.438034  0.438574  0.000000  1
  Mo  Mo32  1  0.556092  0.001705  0.000000  1
  P  P33  1  0.821432  0.997787  0.000000  1
  P  P34  1  0.359975  0.002681  0.000000  1
  P  P35  1  0.000872  0.823173  0.000000  1
