# generated using pymatgen
data_Dy4Ga4NiRu3
_symmetry_space_group_name_H-M   'P 1'
_cell_length_a   4.48719700
_cell_length_b   7.11156539
_cell_length_c   7.13719097
_cell_angle_alpha   89.30085831
_cell_angle_beta   90.00000000
_cell_angle_gamma   90.00000000
_symmetry_Int_Tables_number   1
_chemical_formula_structural   Dy4Ga4NiRu3
_chemical_formula_sum   'Dy4 Ga4 Ni1 Ru3'
_cell_volume   227.73790870
_cell_formula_units_Z   1
loop_
 _symmetry_equiv_pos_site_id
 _symmetry_equiv_pos_as_xyz
  1  'x, y, z'
loop_
 _atom_site_type_symbol
 _atom_site_label
 _atom_site_symmetry_multiplicity
 _atom_site_fract_x
 _atom_site_fract_y
 _atom_site_fract_z
 _atom_site_occupancy
  Dy  Dy0  1  0.250000  0.019150  0.803149  1
  Dy  Dy1  1  0.250000  0.519864  0.694538  1
  Dy  Dy2  1  0.750000  0.984996  0.199183  1
  Dy  Dy3  1  0.750000  0.482815  0.303173  1
  Ga  Ga4  1  0.250000  0.200227  0.400491  1
  Ga  Ga5  1  0.250000  0.692197  0.103130  1
  Ga  Ga6  1  0.750000  0.796204  0.604460  1
  Ga  Ga7  1  0.750000  0.309783  0.893573  1
  Ni  Ni8  1  0.750000  0.664665  0.934374  1
  Ru  Ru9  1  0.250000  0.838704  0.433549  1
  Ru  Ru10  1  0.250000  0.332908  0.063727  1
  Ru  Ru11  1  0.750000  0.158487  0.566651  1
