# generated using pymatgen
data_NdZn2AgPd2
_symmetry_space_group_name_H-M   'P 1'
_cell_length_a   5.31679721
_cell_length_b   5.31679623
_cell_length_c   5.59178800
_cell_angle_alpha   58.27381182
_cell_angle_beta   58.27381831
_cell_angle_gamma   60.37463669
_symmetry_Int_Tables_number   1
_chemical_formula_structural   NdZn2AgPd2
_chemical_formula_sum   'Nd1 Zn2 Ag1 Pd2'
_cell_volume   109.05423567
_cell_formula_units_Z   1
loop_
 _symmetry_equiv_pos_site_id
 _symmetry_equiv_pos_as_xyz
  1  'x, y, z'
loop_
 _atom_site_type_symbol
 _atom_site_label
 _atom_site_symmetry_multiplicity
 _atom_site_fract_x
 _atom_site_fract_y
 _atom_site_fract_z
 _atom_site_occupancy
  Nd  Nd0  1  0.256955  0.256955  0.243045  1
  Zn  Zn1  1  0.617462  0.117601  0.632469  1
  Zn  Zn2  1  0.117601  0.617462  0.632469  1
  Ag  Ag3  1  0.009586  0.009586  0.990414  1
  Pd  Pd4  1  0.624199  0.624199  0.625375  1
  Pd  Pd5  1  0.624199  0.624199  0.126229  1
