# generated using pymatgen
data_Ta9Be4Tc7Te16
_symmetry_space_group_name_H-M   'P 1'
_cell_length_a   4.65835900
_cell_length_b   10.88550800
_cell_length_c   18.83645701
_cell_angle_alpha   90.00269331
_cell_angle_beta   90.00000000
_cell_angle_gamma   90.00000000
_symmetry_Int_Tables_number   1
_chemical_formula_structural   Ta9Be4Tc7Te16
_chemical_formula_sum   'Ta9 Be4 Tc7 Te16'
_cell_volume   955.17044129
_cell_formula_units_Z   1
loop_
 _symmetry_equiv_pos_site_id
 _symmetry_equiv_pos_as_xyz
  1  'x, y, z'
loop_
 _atom_site_type_symbol
 _atom_site_label
 _atom_site_symmetry_multiplicity
 _atom_site_fract_x
 _atom_site_fract_y
 _atom_site_fract_z
 _atom_site_occupancy
  Ta  Ta0  1  0.500000  0.802105  0.035347  1
  Ta  Ta1  1  0.000000  0.677507  0.445851  1
  Ta  Ta2  1  0.000000  0.322345  0.553944  1
  Ta  Ta3  1  0.000000  0.178094  0.053567  1
  Ta  Ta4  1  0.000000  0.820665  0.945091  1
  Ta  Ta5  1  0.000000  0.407167  0.398126  1
  Ta  Ta6  1  0.000000  0.592841  0.601880  1
  Ta  Ta7  1  0.000000  0.906109  0.103593  1
  Ta  Ta8  1  0.000000  0.094195  0.897988  1
  Be  Be9  1  0.266332  0.499921  0.499931  1
  Be  Be10  1  0.739950  0.998576  0.000322  1
  Be  Be11  1  0.733668  0.499921  0.499931  1
  Be  Be12  1  0.260050  0.998576  0.000322  1
  Tc  Tc13  1  0.500000  0.559181  0.391848  1
  Tc  Tc14  1  0.500000  0.440675  0.608067  1
  Tc  Tc15  1  0.500000  0.059429  0.108518  1
  Tc  Tc16  1  0.500000  0.941929  0.891349  1
  Tc  Tc17  1  0.500000  0.687735  0.532934  1
  Tc  Tc18  1  0.500000  0.312223  0.466944  1
  Tc  Tc19  1  0.500000  0.187692  0.966641  1
  Te  Te20  1  0.000000  0.843270  0.561788  1
  Te  Te21  1  0.000000  0.156721  0.438169  1
  Te  Te22  1  0.000000  0.345201  0.938007  1
  Te  Te23  1  0.000000  0.650604  0.062929  1
  Te  Te24  1  0.500000  0.337322  0.320804  1
  Te  Te25  1  0.500000  0.662791  0.678921  1
  Te  Te26  1  0.500000  0.845197  0.186466  1
  Te  Te27  1  0.500000  0.164028  0.821233  1
  Te  Te28  1  0.500000  0.811598  0.404984  1
  Te  Te29  1  0.500000  0.188199  0.595097  1
  Te  Te30  1  0.500000  0.311297  0.094166  1
  Te  Te31  1  0.500000  0.688478  0.896847  1
  Te  Te32  1  0.000000  0.606575  0.301471  1
  Te  Te33  1  0.000000  0.393699  0.698432  1
  Te  Te34  1  0.000000  0.110474  0.198151  1
  Te  Te35  1  0.000000  0.897657  0.800340  1
