# generated using pymatgen
data_HoSb16
_symmetry_space_group_name_H-M   'P 1'
_cell_length_a   4.29151190
_cell_length_b   4.29150998
_cell_length_c   32.76457300
_cell_angle_alpha   86.24501183
_cell_angle_beta   86.24501351
_cell_angle_gamma   60.00001122
_symmetry_Int_Tables_number   1
_chemical_formula_structural   HoSb16
_chemical_formula_sum   'Ho1 Sb16'
_cell_volume   521.08707663
_cell_formula_units_Z   1
loop_
 _symmetry_equiv_pos_site_id
 _symmetry_equiv_pos_as_xyz
  1  'x, y, z'
loop_
 _atom_site_type_symbol
 _atom_site_label
 _atom_site_symmetry_multiplicity
 _atom_site_fract_x
 _atom_site_fract_y
 _atom_site_fract_z
 _atom_site_occupancy
  Ho  Ho0  1  0.000000  0.000000  0.000000  1
  Sb  Sb1  1  0.292127  0.292127  0.123621  1
  Sb  Sb2  1  0.707873  0.707873  0.876379  1
  Sb  Sb3  1  0.236247  0.236247  0.291258  1
  Sb  Sb4  1  0.763753  0.763753  0.708742  1
  Sb  Sb5  1  0.469245  0.469245  0.592266  1
  Sb  Sb6  1  0.530755  0.530755  0.407734  1
  Sb  Sb7  1  0.352598  0.352598  0.942206  1
  Sb  Sb8  1  0.647402  0.647402  0.057794  1
  Sb  Sb9  1  0.058133  0.058133  0.825602  1
  Sb  Sb10  1  0.941867  0.941867  0.174398  1
  Sb  Sb11  1  0.414051  0.414051  0.757849  1
  Sb  Sb12  1  0.585949  0.585949  0.242151  1
  Sb  Sb13  1  0.119889  0.119889  0.640334  1
  Sb  Sb14  1  0.880111  0.880111  0.359666  1
  Sb  Sb15  1  0.174656  0.174656  0.476031  1
  Sb  Sb16  1  0.825344  0.825344  0.523969  1
