# generated using pymatgen
data_Nd6Al24NiPd2Ru5
_symmetry_space_group_name_H-M   'P 1'
_cell_length_a   8.93203432
_cell_length_b   8.90417240
_cell_length_c   9.64348218
_cell_angle_alpha   90.24395905
_cell_angle_beta   89.96736084
_cell_angle_gamma   119.97074983
_symmetry_Int_Tables_number   1
_chemical_formula_structural   Nd6Al24NiPd2Ru5
_chemical_formula_sum   'Nd6 Al24 Ni1 Pd2 Ru5'
_cell_volume   664.40325116
_cell_formula_units_Z   1
loop_
 _symmetry_equiv_pos_site_id
 _symmetry_equiv_pos_as_xyz
  1  'x, y, z'
loop_
 _atom_site_type_symbol
 _atom_site_label
 _atom_site_symmetry_multiplicity
 _atom_site_fract_x
 _atom_site_fract_y
 _atom_site_fract_z
 _atom_site_occupancy
  Nd  Nd0  1  0.193272  0.383851  0.247824  1
  Nd  Nd1  1  0.806728  0.616149  0.752176  1
  Nd  Nd2  1  0.617517  0.806649  0.251048  1
  Nd  Nd3  1  0.382483  0.193351  0.748952  1
  Nd  Nd4  1  0.189745  0.809022  0.248743  1
  Nd  Nd5  1  0.810255  0.190978  0.751257  1
  Al  Al6  1  0.339637  0.670997  0.018595  1
  Al  Al7  1  0.660363  0.329003  0.981405  1
  Al  Al8  1  0.669654  0.338946  0.518058  1
  Al  Al9  1  0.330346  0.661054  0.481942  1
  Al  Al10  1  0.163822  0.327167  0.575179  1
  Al  Al11  1  0.836178  0.672833  0.424821  1
  Al  Al12  1  0.674823  0.831714  0.576785  1
  Al  Al13  1  0.830787  0.673607  0.077882  1
  Al  Al14  1  0.325177  0.168286  0.423215  1
  Al  Al15  1  0.169213  0.326393  0.922118  1
  Al  Al16  1  0.156518  0.832371  0.576553  1
  Al  Al17  1  0.326113  0.165436  0.075136  1
  Al  Al18  1  0.843482  0.167629  0.423447  1
  Al  Al19  1  0.673887  0.834564  0.924864  1
  Al  Al20  1  0.833353  0.158004  0.078065  1
  Al  Al21  1  0.166647  0.841996  0.921935  1
  Al  Al22  1  0.562252  0.124594  0.243738  1
  Al  Al23  1  0.437748  0.875406  0.756262  1
  Al  Al24  1  0.873230  0.436314  0.252967  1
  Al  Al25  1  0.126770  0.563686  0.747033  1
  Al  Al26  1  0.561566  0.437922  0.249096  1
  Al  Al27  1  0.438434  0.562078  0.750904  1
  Al  Al28  1  0.998826  0.997822  0.250128  1
  Al  Al29  1  0.001174  0.002178  0.749872  1
  Ni  Ni30  1  0.500000  0.000000  0.000000  1
  Pd  Pd31  1  0.000000  0.500000  0.000000  1
  Pd  Pd32  1  0.500000  0.000000  0.500000  1
  Ru  Ru33  1  0.500000  0.500000  0.000000  1
  Ru  Ru34  1  0.000000  0.500000  0.500000  1
  Ru  Ru35  1  0.500000  0.500000  0.500000  1
  Ru  Ru36  1  0.000000  0.000000  0.000000  1
  Ru  Ru37  1  0.000000  0.000000  0.500000  1
