# generated using pymatgen
data_Y4Al18(CoPd)3
_symmetry_space_group_name_H-M   'P 1'
_cell_length_a   7.53150791
_cell_length_b   7.53150800
_cell_length_c   9.39186332
_cell_angle_alpha   89.94467632
_cell_angle_beta   89.94467522
_cell_angle_gamma   119.74602217
_symmetry_Int_Tables_number   1
_chemical_formula_structural   Y4Al18(CoPd)3
_chemical_formula_sum   'Y4 Al18 Co3 Pd3'
_cell_volume   462.54208988
_cell_formula_units_Z   1
loop_
 _symmetry_equiv_pos_site_id
 _symmetry_equiv_pos_as_xyz
  1  'x, y, z'
loop_
 _atom_site_type_symbol
 _atom_site_label
 _atom_site_symmetry_multiplicity
 _atom_site_fract_x
 _atom_site_fract_y
 _atom_site_fract_z
 _atom_site_occupancy
  Y  Y0  1  0.995849  0.667792  0.249501  1
  Y  Y1  1  0.007724  0.335040  0.750447  1
  Y  Y2  1  0.664960  0.992276  0.249553  1
  Y  Y3  1  0.332208  0.004151  0.750499  1
  Al  Al4  1  0.116473  0.117794  0.247807  1
  Al  Al5  1  0.882206  0.883527  0.752193  1
  Al  Al6  1  0.988612  0.325244  0.071943  1
  Al  Al7  1  0.993458  0.666778  0.928183  1
  Al  Al8  1  0.998052  0.675255  0.575431  1
  Al  Al9  1  0.324745  0.001948  0.424569  1
  Al  Al10  1  0.999795  0.323943  0.425240  1
  Al  Al11  1  0.676057  0.000205  0.574760  1
  Al  Al12  1  0.674756  0.011388  0.928057  1
  Al  Al13  1  0.333222  0.006542  0.071817  1
  Al  Al14  1  0.325514  0.325088  0.553680  1
  Al  Al15  1  0.674912  0.674486  0.446320  1
  Al  Al16  1  0.675254  0.669250  0.047476  1
  Al  Al17  1  0.330750  0.324746  0.952524  1
  Al  Al18  1  0.339309  0.541028  0.248896  1
  Al  Al19  1  0.660128  0.449370  0.759171  1
  Al  Al20  1  0.550630  0.339872  0.240829  1
  Al  Al21  1  0.458972  0.660691  0.751104  1
  Co  Co22  1  0.670792  0.329208  0.000000  1
  Co  Co23  1  0.999530  0.000470  0.000000  1
  Co  Co24  1  0.999873  0.000127  0.500000  1
  Pd  Pd25  1  0.327044  0.672956  0.000000  1
  Pd  Pd26  1  0.327378  0.672622  0.500000  1
  Pd  Pd27  1  0.671796  0.328204  0.500000  1
