# generated using pymatgen
data_YCo3P3Ir2
_symmetry_space_group_name_H-M   'P 1'
_cell_length_a   11.92448800
_cell_length_b   3.81325400
_cell_length_c   10.63761700
_cell_angle_alpha   90.00000000
_cell_angle_beta   90.00000000
_cell_angle_gamma   90.00000000
_symmetry_Int_Tables_number   1
_chemical_formula_structural   YCo3P3Ir2
_chemical_formula_sum   'Y4 Co12 P12 Ir8'
_cell_volume   483.70416301
_cell_formula_units_Z   4
loop_
 _symmetry_equiv_pos_site_id
 _symmetry_equiv_pos_as_xyz
  1  'x, y, z'
loop_
 _atom_site_type_symbol
 _atom_site_label
 _atom_site_symmetry_multiplicity
 _atom_site_fract_x
 _atom_site_fract_y
 _atom_site_fract_z
 _atom_site_occupancy
  Y  Y0  1  0.201319  0.250001  0.915179  1
  Y  Y1  1  0.298682  0.750000  0.415178  1
  Y  Y2  1  0.701319  0.250001  0.584822  1
  Y  Y3  1  0.798682  0.750000  0.084822  1
  Co  Co4  1  0.989309  0.250001  0.091523  1
  Co  Co5  1  0.510691  0.750000  0.591523  1
  Co  Co6  1  0.489309  0.250001  0.408477  1
  Co  Co7  1  0.010691  0.750000  0.908477  1
  Co  Co8  1  0.431514  0.250001  0.035591  1
  Co  Co9  1  0.068485  0.750000  0.535590  1
  Co  Co10  1  0.931514  0.250001  0.464409  1
  Co  Co11  1  0.568485  0.750000  0.964409  1
  Co  Co12  1  0.204793  0.250001  0.610411  1
  Co  Co13  1  0.295206  0.750000  0.110411  1
  Co  Co14  1  0.704794  0.250001  0.889589  1
  Co  Co15  1  0.795206  0.750000  0.389588  1
  P  P16  1  0.374618  0.250001  0.229521  1
  P  P17  1  0.125382  0.750000  0.729521  1
  P  P18  1  0.874619  0.250001  0.270480  1
  P  P19  1  0.625382  0.750000  0.770479  1
  P  P20  1  0.892810  0.250001  0.910262  1
  P  P21  1  0.607190  0.750000  0.410262  1
  P  P22  1  0.392810  0.250001  0.589737  1
  P  P23  1  0.107189  0.750000  0.089737  1
  P  P24  1  0.613113  0.250001  0.068880  1
  P  P25  1  0.886887  0.750000  0.568880  1
  P  P26  1  0.113113  0.250001  0.431119  1
  P  P27  1  0.386887  0.750000  0.931119  1
  Ir  Ir28  1  0.496838  0.250001  0.777328  1
  Ir  Ir29  1  0.003162  0.750000  0.277329  1
  Ir  Ir30  1  0.996838  0.250001  0.722671  1
  Ir  Ir31  1  0.503162  0.750000  0.222671  1
  Ir  Ir32  1  0.678531  0.250001  0.272074  1
  Ir  Ir33  1  0.821469  0.750000  0.772074  1
  Ir  Ir34  1  0.178531  0.250001  0.227927  1
  Ir  Ir35  1  0.321469  0.750000  0.727927  1
