# generated using pymatgen
data_PrY4Rh3
_symmetry_space_group_name_H-M   'P 1'
_cell_length_a   11.07161000
_cell_length_b   11.04901900
_cell_length_c   6.41769900
_cell_angle_alpha   90.00000000
_cell_angle_beta   90.00000000
_cell_angle_gamma   90.00000000
_symmetry_Int_Tables_number   1
_chemical_formula_structural   PrY4Rh3
_chemical_formula_sum   'Pr4 Y16 Rh12'
_cell_volume   785.07987347
_cell_formula_units_Z   4
loop_
 _symmetry_equiv_pos_site_id
 _symmetry_equiv_pos_as_xyz
  1  'x, y, z'
loop_
 _atom_site_type_symbol
 _atom_site_label
 _atom_site_symmetry_multiplicity
 _atom_site_fract_x
 _atom_site_fract_y
 _atom_site_fract_z
 _atom_site_occupancy
  Pr  Pr0  1  0.906482  0.710737  0.120954  1
  Pr  Pr1  1  0.906482  0.289263  0.620954  1
  Pr  Pr2  1  0.093518  0.710737  0.620954  1
  Pr  Pr3  1  0.093518  0.289263  0.120954  1
  Y  Y4  1  0.293525  0.085582  0.383310  1
  Y  Y5  1  0.293525  0.914418  0.883310  1
  Y  Y6  1  0.706475  0.085582  0.883310  1
  Y  Y7  1  0.706475  0.914418  0.383310  1
  Y  Y8  1  0.586588  0.791408  0.882278  1
  Y  Y9  1  0.586588  0.208592  0.382278  1
  Y  Y10  1  0.413412  0.791408  0.382278  1
  Y  Y11  1  0.413412  0.208592  0.882278  1
  Y  Y12  1  0.211005  0.409360  0.618900  1
  Y  Y13  1  0.211005  0.590640  0.118900  1
  Y  Y14  1  0.788995  0.409360  0.118900  1
  Y  Y15  1  0.788995  0.590640  0.618900  1
  Y  Y16  1  0.000000  0.000000  0.493071  1
  Y  Y17  1  0.000000  0.000000  0.993071  1
  Y  Y18  1  0.500000  0.500000  0.996775  1
  Y  Y19  1  0.500000  0.500000  0.496775  1
  Rh  Rh20  1  0.841166  0.149561  0.247215  1
  Rh  Rh21  1  0.841166  0.850439  0.747215  1
  Rh  Rh22  1  0.158834  0.149561  0.747215  1
  Rh  Rh23  1  0.158834  0.850439  0.247215  1
  Rh  Rh24  1  0.649609  0.346053  0.751777  1
  Rh  Rh25  1  0.649609  0.653947  0.251777  1
  Rh  Rh26  1  0.350391  0.346053  0.251777  1
  Rh  Rh27  1  0.350391  0.653947  0.751777  1
  Rh  Rh28  1  0.500000  0.000000  0.128350  1
  Rh  Rh29  1  0.500000  0.000000  0.628350  1
  Rh  Rh30  1  0.000000  0.500000  0.872935  1
  Rh  Rh31  1  0.000000  0.500000  0.372935  1
