# generated using pymatgen
data_La3Th(Al3Rh)6
_symmetry_space_group_name_H-M   'P 1'
_cell_length_a   7.67340202
_cell_length_b   7.67437005
_cell_length_c   9.63024600
_cell_angle_alpha   90.00000000
_cell_angle_beta   90.00000000
_cell_angle_gamma   119.27638232
_symmetry_Int_Tables_number   1
_chemical_formula_structural   La3Th(Al3Rh)6
_chemical_formula_sum   'La3 Th1 Al18 Rh6'
_cell_volume   494.67443495
_cell_formula_units_Z   1
loop_
 _symmetry_equiv_pos_site_id
 _symmetry_equiv_pos_as_xyz
  1  'x, y, z'
loop_
 _atom_site_type_symbol
 _atom_site_label
 _atom_site_symmetry_multiplicity
 _atom_site_fract_x
 _atom_site_fract_y
 _atom_site_fract_z
 _atom_site_occupancy
  La  La0  1  0.004430  0.329009  0.750000  1
  La  La1  1  0.670566  0.995507  0.250000  1
  La  La2  1  0.329900  0.004667  0.750000  1
  Th  Th3  1  0.996053  0.670988  0.250000  1
  Al  Al4  1  0.132384  0.131598  0.250000  1
  Al  Al5  1  0.868432  0.868507  0.750000  1
  Al  Al6  1  0.004231  0.334406  0.074075  1
  Al  Al7  1  0.995688  0.664576  0.925181  1
  Al  Al8  1  0.995688  0.664576  0.574819  1
  Al  Al9  1  0.336427  0.005264  0.425951  1
  Al  Al10  1  0.004231  0.334406  0.425925  1
  Al  Al11  1  0.664630  0.995698  0.573684  1
  Al  Al12  1  0.664630  0.995698  0.926316  1
  Al  Al13  1  0.336427  0.005264  0.074049  1
  Al  Al14  1  0.334983  0.335014  0.544359  1
  Al  Al15  1  0.664278  0.665009  0.454955  1
  Al  Al16  1  0.664278  0.665009  0.045045  1
  Al  Al17  1  0.334983  0.335014  0.955641  1
  Al  Al18  1  0.339149  0.545019  0.250000  1
  Al  Al19  1  0.659857  0.454452  0.750000  1
  Al  Al20  1  0.545565  0.341285  0.250000  1
  Al  Al21  1  0.454300  0.659969  0.750000  1
  Rh  Rh22  1  0.672363  0.331126  0.001795  1
  Rh  Rh23  1  0.327554  0.670723  0.001964  1
  Rh  Rh24  1  0.327554  0.670723  0.498036  1
  Rh  Rh25  1  0.672363  0.331126  0.498205  1
  Rh  Rh26  1  0.999528  0.997683  0.002061  1
  Rh  Rh27  1  0.999528  0.997683  0.497939  1
