# generated using pymatgen
data_Tm5P12Ir4(RuRh4)3
_symmetry_space_group_name_H-M   'P 1'
_cell_length_a   12.66622400
_cell_length_b   12.66622371
_cell_length_c   3.91571100
_cell_angle_alpha   90.00000000
_cell_angle_beta   90.00000000
_cell_angle_gamma   119.99999553
_symmetry_Int_Tables_number   1
_chemical_formula_structural   Tm5P12Ir4(RuRh4)3
_chemical_formula_sum   'Tm5 P12 Ir4 Ru3 Rh12'
_cell_volume   544.04597410
_cell_formula_units_Z   1
loop_
 _symmetry_equiv_pos_site_id
 _symmetry_equiv_pos_as_xyz
  1  'x, y, z'
loop_
 _atom_site_type_symbol
 _atom_site_label
 _atom_site_symmetry_multiplicity
 _atom_site_fract_x
 _atom_site_fract_y
 _atom_site_fract_z
 _atom_site_occupancy
  Tm  Tm0  1  0.333333  0.666667  0.500000  1
  Tm  Tm1  1  0.666667  0.333333  0.500000  1
  Tm  Tm2  1  0.186252  0.187240  0.000000  1
  Tm  Tm3  1  0.812760  0.999012  0.000000  1
  Tm  Tm4  1  0.000988  0.813748  0.000000  1
  P  P5  1  0.309307  0.826949  0.000000  1
  P  P6  1  0.173051  0.482359  0.000000  1
  P  P7  1  0.517641  0.690693  0.000000  1
  P  P8  1  0.831707  0.315217  0.000000  1
  P  P9  1  0.483509  0.168293  0.000000  1
  P  P10  1  0.684783  0.516491  0.000000  1
  P  P11  1  0.358505  0.363419  0.500000  1
  P  P12  1  0.636581  0.995086  0.500000  1
  P  P13  1  0.004914  0.641495  0.500000  1
  P  P14  1  0.818275  0.820872  0.500000  1
  P  P15  1  0.179128  0.997402  0.500000  1
  P  P16  1  0.002598  0.181725  0.500000  1
  Ir  Ir17  1  0.718190  0.717438  0.000000  1
  Ir  Ir18  1  0.282562  0.000752  0.000000  1
  Ir  Ir19  1  0.999248  0.281810  0.000000  1
  Ir  Ir20  1  0.000000  0.000000  0.500000  1
  Ru  Ru21  1  0.199887  0.820069  0.500000  1
  Ru  Ru22  1  0.179931  0.379818  0.500000  1
  Ru  Ru23  1  0.620182  0.800113  0.500000  1
  Rh  Rh24  1  0.818179  0.190662  0.500000  1
  Rh  Rh25  1  0.372483  0.181821  0.500000  1
  Rh  Rh26  1  0.809338  0.627517  0.500000  1
  Rh  Rh27  1  0.128557  0.636588  0.000000  1
  Rh  Rh28  1  0.363412  0.491968  0.000000  1
  Rh  Rh29  1  0.508032  0.871443  0.000000  1
  Rh  Rh30  1  0.643551  0.135009  0.000000  1
  Rh  Rh31  1  0.491458  0.356449  0.000000  1
  Rh  Rh32  1  0.864991  0.508542  0.000000  1
  Rh  Rh33  1  0.547886  0.541403  0.500000  1
  Rh  Rh34  1  0.458597  0.006483  0.500000  1
  Rh  Rh35  1  0.993517  0.452114  0.500000  1
