# generated using pymatgen
data_Y11Er5Cd4NiOs3
_symmetry_space_group_name_H-M   'P 1'
_cell_length_a   9.57504113
_cell_length_b   9.70536457
_cell_length_c   9.69818556
_cell_angle_alpha   59.51287828
_cell_angle_beta   59.28728873
_cell_angle_gamma   59.32666828
_symmetry_Int_Tables_number   1
_chemical_formula_structural   Y11Er5Cd4NiOs3
_chemical_formula_sum   'Y11 Er5 Cd4 Ni1 Os3'
_cell_volume   628.21466477
_cell_formula_units_Z   1
loop_
 _symmetry_equiv_pos_site_id
 _symmetry_equiv_pos_as_xyz
  1  'x, y, z'
loop_
 _atom_site_type_symbol
 _atom_site_label
 _atom_site_symmetry_multiplicity
 _atom_site_fract_x
 _atom_site_fract_y
 _atom_site_fract_z
 _atom_site_occupancy
  Y  Y0  1  0.183520  0.809741  0.809676  1
  Y  Y1  1  0.187328  0.811463  0.189684  1
  Y  Y2  1  0.809091  0.189459  0.809256  1
  Y  Y3  1  0.187480  0.189832  0.811293  1
  Y  Y4  1  0.809146  0.808855  0.189590  1
  Y  Y5  1  0.941078  0.557430  0.557588  1
  Y  Y6  1  0.558979  0.937011  0.937162  1
  Y  Y7  1  0.553480  0.940397  0.566128  1
  Y  Y8  1  0.940823  0.554750  0.942034  1
  Y  Y9  1  0.553518  0.566495  0.940219  1
  Y  Y10  1  0.940373  0.942056  0.554987  1
  Er  Er11  1  0.353261  0.346461  0.346391  1
  Er  Er12  1  0.351331  0.343727  0.962930  1
  Er  Er13  1  0.350877  0.962630  0.344073  1
  Er  Er14  1  0.962430  0.346288  0.346497  1
  Er  Er15  1  0.809642  0.189218  0.188876  1
  Cd  Cd16  1  0.577808  0.580543  0.580181  1
  Cd  Cd17  1  0.579129  0.580940  0.258484  1
  Cd  Cd18  1  0.579094  0.258636  0.580826  1
  Cd  Cd19  1  0.257587  0.581079  0.580708  1
  Ni  Ni20  1  0.578841  0.143786  0.143980  1
  Os  Os21  1  0.139351  0.142286  0.142457  1
  Os  Os22  1  0.147911  0.141648  0.575311  1
  Os  Os23  1  0.147924  0.575269  0.141666  1
