# generated using pymatgen
data_LaP12IrOs3
_symmetry_space_group_name_H-M   'P 1'
_cell_length_a   7.04502820
_cell_length_b   7.04502758
_cell_length_c   7.04502767
_cell_angle_alpha   109.43174525
_cell_angle_beta   109.43174893
_cell_angle_gamma   109.43173481
_symmetry_Int_Tables_number   1
_chemical_formula_structural   LaP12IrOs3
_chemical_formula_sum   'La1 P12 Ir1 Os3'
_cell_volume   269.56245333
_cell_formula_units_Z   1
loop_
 _symmetry_equiv_pos_site_id
 _symmetry_equiv_pos_as_xyz
  1  'x, y, z'
loop_
 _atom_site_type_symbol
 _atom_site_label
 _atom_site_symmetry_multiplicity
 _atom_site_fract_x
 _atom_site_fract_y
 _atom_site_fract_z
 _atom_site_occupancy
  La  La0  1  0.000000  0.000000  0.000000  1
  P  P1  1  0.859237  0.645598  0.500696  1
  P  P2  1  0.140763  0.354402  0.499304  1
  P  P3  1  0.143726  0.644169  0.787748  1
  P  P4  1  0.856274  0.355831  0.212252  1
  P  P5  1  0.645598  0.500696  0.859237  1
  P  P6  1  0.354402  0.499304  0.140763  1
  P  P7  1  0.644169  0.787748  0.143726  1
  P  P8  1  0.355831  0.212252  0.856274  1
  P  P9  1  0.500696  0.859237  0.645598  1
  P  P10  1  0.499304  0.140763  0.354402  1
  P  P11  1  0.787748  0.143726  0.644169  1
  P  P12  1  0.212252  0.856274  0.355831  1
  Ir  Ir13  1  0.500000  0.500000  0.500000  1
  Os  Os14  1  0.500000  0.000000  0.000000  1
  Os  Os15  1  0.000000  0.500000  0.000000  1
  Os  Os16  1  0.000000  0.000000  0.500000  1
