# generated using pymatgen
data_La5SiSb2
_symmetry_space_group_name_H-M   'P 1'
_cell_length_a   8.31847300
_cell_length_b   9.53267600
_cell_length_c   12.81025800
_cell_angle_alpha   90.00000000
_cell_angle_beta   90.00000000
_cell_angle_gamma   90.00000000
_symmetry_Int_Tables_number   1
_chemical_formula_structural   La5SiSb2
_chemical_formula_sum   'La20 Si4 Sb8'
_cell_volume   1015.81897321
_cell_formula_units_Z   4
loop_
 _symmetry_equiv_pos_site_id
 _symmetry_equiv_pos_as_xyz
  1  'x, y, z'
loop_
 _atom_site_type_symbol
 _atom_site_label
 _atom_site_symmetry_multiplicity
 _atom_site_fract_x
 _atom_site_fract_y
 _atom_site_fract_z
 _atom_site_occupancy
  La  La0  1  0.029882  0.750000  0.502147  1
  La  La1  1  0.970118  0.250000  0.497853  1
  La  La2  1  0.529882  0.250000  0.997853  1
  La  La3  1  0.470118  0.750000  0.002147  1
  La  La4  1  0.864599  0.750000  0.792692  1
  La  La5  1  0.135401  0.250000  0.207308  1
  La  La6  1  0.364599  0.250000  0.707308  1
  La  La7  1  0.635401  0.750000  0.292692  1
  La  La8  1  0.694355  0.541427  0.561794  1
  La  La9  1  0.305645  0.458573  0.438206  1
  La  La10  1  0.194355  0.458573  0.938206  1
  La  La11  1  0.305645  0.041427  0.438206  1
  La  La12  1  0.805645  0.541427  0.061794  1
  La  La13  1  0.694355  0.958573  0.561794  1
  La  La14  1  0.805645  0.958573  0.061794  1
  La  La15  1  0.194355  0.041427  0.938206  1
  La  La16  1  0.342584  0.750000  0.713405  1
  La  La17  1  0.657416  0.250000  0.286595  1
  La  La18  1  0.842584  0.250000  0.786595  1
  La  La19  1  0.157416  0.750000  0.213405  1
  Si  Si20  1  0.072691  0.750000  0.983097  1
  Si  Si21  1  0.927309  0.250000  0.016903  1
  Si  Si22  1  0.572691  0.250000  0.516903  1
  Si  Si23  1  0.427309  0.750000  0.483097  1
  Sb  Sb24  1  0.575858  0.508045  0.826100  1
  Sb  Sb25  1  0.424142  0.491955  0.173900  1
  Sb  Sb26  1  0.075858  0.491955  0.673900  1
  Sb  Sb27  1  0.424142  0.008045  0.173900  1
  Sb  Sb28  1  0.924142  0.508045  0.326100  1
  Sb  Sb29  1  0.575858  0.991955  0.826100  1
  Sb  Sb30  1  0.924142  0.991955  0.326100  1
  Sb  Sb31  1  0.075858  0.008045  0.673900  1
