# generated using pymatgen
data_Lu3PaPt4
_symmetry_space_group_name_H-M   'P 1'
_cell_length_a   4.49913800
_cell_length_b   5.52645307
_cell_length_c   6.87707120
_cell_angle_alpha   89.63405871
_cell_angle_beta   90.00000000
_cell_angle_gamma   90.00000000
_symmetry_Int_Tables_number   1
_chemical_formula_structural   Lu3PaPt4
_chemical_formula_sum   'Lu3 Pa1 Pt4'
_cell_volume   170.98990208
_cell_formula_units_Z   1
loop_
 _symmetry_equiv_pos_site_id
 _symmetry_equiv_pos_as_xyz
  1  'x, y, z'
loop_
 _atom_site_type_symbol
 _atom_site_label
 _atom_site_symmetry_multiplicity
 _atom_site_fract_x
 _atom_site_fract_y
 _atom_site_fract_z
 _atom_site_occupancy
  Lu  Lu0  1  0.750000  0.355471  0.815356  1
  Lu  Lu1  1  0.750000  0.144123  0.321623  1
  Lu  Lu2  1  0.250000  0.858030  0.682683  1
  Pa  Pa3  1  0.250000  0.643630  0.181422  1
  Pt  Pt4  1  0.250000  0.161243  0.047680  1
  Pt  Pt5  1  0.750000  0.835991  0.956711  1
  Pt  Pt6  1  0.750000  0.658253  0.451893  1
  Pt  Pt7  1  0.250000  0.343258  0.542633  1
