# generated using pymatgen
data_Nd3(CdBi3)2
_symmetry_space_group_name_H-M   'P 1'
_cell_length_a   4.46441200
_cell_length_b   11.04961000
_cell_length_c   13.96799700
_cell_angle_alpha   90.00000000
_cell_angle_beta   90.00000000
_cell_angle_gamma   90.00000000
_symmetry_Int_Tables_number   1
_chemical_formula_structural   Nd3(CdBi3)2
_chemical_formula_sum   'Nd6 Cd4 Bi12'
_cell_volume   689.04145235
_cell_formula_units_Z   2
loop_
 _symmetry_equiv_pos_site_id
 _symmetry_equiv_pos_as_xyz
  1  'x, y, z'
loop_
 _atom_site_type_symbol
 _atom_site_label
 _atom_site_symmetry_multiplicity
 _atom_site_fract_x
 _atom_site_fract_y
 _atom_site_fract_z
 _atom_site_occupancy
  Nd  Nd0  1  0.750000  0.259493  0.750000  1
  Nd  Nd1  1  0.750000  0.269737  0.412066  1
  Nd  Nd2  1  0.250000  0.730263  0.912066  1
  Nd  Nd3  1  0.250000  0.730263  0.587934  1
  Nd  Nd4  1  0.250000  0.740507  0.250000  1
  Nd  Nd5  1  0.750000  0.269737  0.087934  1
  Cd  Cd6  1  0.250000  0.001943  0.093922  1
  Cd  Cd7  1  0.250000  0.001943  0.406078  1
  Cd  Cd8  1  0.750000  0.998057  0.593922  1
  Cd  Cd9  1  0.750000  0.998057  0.906078  1
  Bi  Bi10  1  0.750000  0.503333  0.250000  1
  Bi  Bi11  1  0.750000  0.491989  0.916777  1
  Bi  Bi12  1  0.750000  0.814396  0.750000  1
  Bi  Bi13  1  0.750000  0.815555  0.418688  1
  Bi  Bi14  1  0.250000  0.184445  0.918688  1
  Bi  Bi15  1  0.250000  0.184445  0.581312  1
  Bi  Bi16  1  0.250000  0.185604  0.250000  1
  Bi  Bi17  1  0.250000  0.508011  0.083223  1
  Bi  Bi18  1  0.250000  0.496667  0.750000  1
  Bi  Bi19  1  0.250000  0.508011  0.416777  1
  Bi  Bi20  1  0.750000  0.491989  0.583223  1
  Bi  Bi21  1  0.750000  0.815555  0.081312  1
