# generated using pymatgen
data_Tm9Sc(Ga2Sb)2
_symmetry_space_group_name_H-M   'P 1'
_cell_length_a   8.54928977
_cell_length_b   8.56069008
_cell_length_c   6.37103775
_cell_angle_alpha   89.94416027
_cell_angle_beta   90.02795449
_cell_angle_gamma   120.04411985
_symmetry_Int_Tables_number   1
_chemical_formula_structural   Tm9Sc(Ga2Sb)2
_chemical_formula_sum   'Tm9 Sc1 Ga4 Sb2'
_cell_volume   403.63253503
_cell_formula_units_Z   1
loop_
 _symmetry_equiv_pos_site_id
 _symmetry_equiv_pos_as_xyz
  1  'x, y, z'
loop_
 _atom_site_type_symbol
 _atom_site_label
 _atom_site_symmetry_multiplicity
 _atom_site_fract_x
 _atom_site_fract_y
 _atom_site_fract_z
 _atom_site_occupancy
  Tm  Tm0  1  0.313970  0.656985  0.000000  1
  Tm  Tm1  1  0.669238  0.334619  0.500000  1
  Tm  Tm2  1  0.669149  0.334574  0.000000  1
  Tm  Tm3  1  0.233840  0.999295  0.251620  1
  Tm  Tm4  1  0.233840  0.234545  0.748380  1
  Tm  Tm5  1  0.013766  0.764567  0.747354  1
  Tm  Tm6  1  0.013766  0.249199  0.252646  1
  Tm  Tm7  1  0.763670  0.750400  0.250105  1
  Tm  Tm8  1  0.763670  0.013271  0.749895  1
  Sc  Sc9  1  0.314507  0.657253  0.500000  1
  Ga  Ga10  1  0.001159  0.401010  0.743801  1
  Ga  Ga11  1  0.001159  0.600149  0.256199  1
  Ga  Ga12  1  0.401826  0.400247  0.252966  1
  Ga  Ga13  1  0.401826  0.001578  0.747034  1
  Sb  Sb14  1  0.602307  0.992256  0.255089  1
  Sb  Sb15  1  0.602307  0.610051  0.744911  1
