# generated using pymatgen
data_Rb4CePaS6
_symmetry_space_group_name_H-M   'P 1'
_cell_length_a   7.49262223
_cell_length_b   7.49262357
_cell_length_c   8.09273000
_cell_angle_alpha   80.88591154
_cell_angle_beta   80.88590990
_cell_angle_gamma   119.89408176
_symmetry_Int_Tables_number   1
_chemical_formula_structural   Rb4CePaS6
_chemical_formula_sum   'Rb4 Ce1 Pa1 S6'
_cell_volume   373.65163366
_cell_formula_units_Z   1
loop_
 _symmetry_equiv_pos_site_id
 _symmetry_equiv_pos_as_xyz
  1  'x, y, z'
loop_
 _atom_site_type_symbol
 _atom_site_label
 _atom_site_symmetry_multiplicity
 _atom_site_fract_x
 _atom_site_fract_y
 _atom_site_fract_z
 _atom_site_occupancy
  Rb  Rb0  1  0.499806  0.500194  0.000000  1
  Rb  Rb1  1  0.654364  0.345636  0.500000  1
  Rb  Rb2  1  0.344887  0.655113  0.500000  1
  Rb  Rb3  1  0.000411  0.999589  0.500000  1
  Ce  Ce4  1  0.167816  0.832184  0.000000  1
  Pa  Pa5  1  0.832528  0.167472  0.000000  1
  S  S6  1  0.804458  0.822834  0.196414  1
  S  S7  1  0.177166  0.195542  0.803586  1
  S  S8  1  0.451016  0.060050  0.199616  1
  S  S9  1  0.587380  0.959779  0.801149  1
  S  S10  1  0.939950  0.548984  0.800384  1
  S  S11  1  0.040221  0.412620  0.198851  1
