# generated using pymatgen
data_K2Ti(AgSe2)2
_symmetry_space_group_name_H-M   'P 1'
_cell_length_a   6.17103300
_cell_length_b   6.17103300
_cell_length_c   13.79054000
_cell_angle_alpha   90.00000000
_cell_angle_beta   90.00000000
_cell_angle_gamma   90.00000000
_symmetry_Int_Tables_number   1
_chemical_formula_structural   K2Ti(AgSe2)2
_chemical_formula_sum   'K4 Ti2 Ag4 Se8'
_cell_volume   525.16649397
_cell_formula_units_Z   2
loop_
 _symmetry_equiv_pos_site_id
 _symmetry_equiv_pos_as_xyz
  1  'x, y, z'
loop_
 _atom_site_type_symbol
 _atom_site_label
 _atom_site_symmetry_multiplicity
 _atom_site_fract_x
 _atom_site_fract_y
 _atom_site_fract_z
 _atom_site_occupancy
  K  K0  1  0.256509  0.256509  0.000000  1
  K  K1  1  0.743491  0.743491  0.000000  1
  K  K2  1  0.743491  0.256509  0.500000  1
  K  K3  1  0.256509  0.743491  0.500000  1
  Ti  Ti4  1  0.000000  0.000000  0.250000  1
  Ti  Ti5  1  0.000000  0.000000  0.750000  1
  Ag  Ag6  1  0.000000  0.500000  0.250000  1
  Ag  Ag7  1  0.000000  0.500000  0.750000  1
  Ag  Ag8  1  0.500000  0.000000  0.750000  1
  Ag  Ag9  1  0.500000  0.000000  0.250000  1
  Se  Se10  1  0.220678  0.220678  0.359287  1
  Se  Se11  1  0.779322  0.779322  0.640713  1
  Se  Se12  1  0.779322  0.779322  0.359287  1
  Se  Se13  1  0.779322  0.220678  0.859287  1
  Se  Se14  1  0.779322  0.220678  0.140713  1
  Se  Se15  1  0.220678  0.220678  0.640713  1
  Se  Se16  1  0.220678  0.779322  0.140713  1
  Se  Se17  1  0.220678  0.779322  0.859287  1
