# generated using pymatgen
data_Ho3Mg2PaIr3
_symmetry_space_group_name_H-M   'P 1'
_cell_length_a   7.54179514
_cell_length_b   7.46299125
_cell_length_c   4.00663500
_cell_angle_alpha   90.00000000
_cell_angle_beta   90.00000000
_cell_angle_gamma   119.65493475
_symmetry_Int_Tables_number   1
_chemical_formula_structural   Ho3Mg2PaIr3
_chemical_formula_sum   'Ho3 Mg2 Pa1 Ir3'
_cell_volume   195.97365239
_cell_formula_units_Z   1
loop_
 _symmetry_equiv_pos_site_id
 _symmetry_equiv_pos_as_xyz
  1  'x, y, z'
loop_
 _atom_site_type_symbol
 _atom_site_label
 _atom_site_symmetry_multiplicity
 _atom_site_fract_x
 _atom_site_fract_y
 _atom_site_fract_z
 _atom_site_occupancy
  Ho  Ho0  1  0.558614  0.590777  0.000000  1
  Ho  Ho1  1  0.441386  0.032163  0.000000  1
  Ho  Ho2  1  0.000000  0.377951  0.000000  1
  Mg  Mg3  1  0.254505  0.251104  0.500000  1
  Mg  Mg4  1  0.745495  0.996600  0.500000  1
  Pa  Pa5  1  0.000000  0.737103  0.500000  1
  Ir  Ir6  1  0.000000  0.984659  0.000000  1
  Ir  Ir7  1  0.682521  0.356080  0.500000  1
  Ir  Ir8  1  0.317479  0.673560  0.500000  1
