# generated using pymatgen
data_Nd4Ga18(RuPt)3
_symmetry_space_group_name_H-M   'P 1'
_cell_length_a   7.67178330
_cell_length_b   7.67178301
_cell_length_c   9.65614295
_cell_angle_alpha   89.96399356
_cell_angle_beta   89.96399217
_cell_angle_gamma   119.32633865
_symmetry_Int_Tables_number   1
_chemical_formula_structural   Nd4Ga18(RuPt)3
_chemical_formula_sum   'Nd4 Ga18 Ru3 Pt3'
_cell_volume   495.48998063
_cell_formula_units_Z   1
loop_
 _symmetry_equiv_pos_site_id
 _symmetry_equiv_pos_as_xyz
  1  'x, y, z'
loop_
 _atom_site_type_symbol
 _atom_site_label
 _atom_site_symmetry_multiplicity
 _atom_site_fract_x
 _atom_site_fract_y
 _atom_site_fract_z
 _atom_site_occupancy
  Nd  Nd0  1  0.999561  0.670476  0.250554  1
  Nd  Nd1  1  0.003113  0.332157  0.749538  1
  Nd  Nd2  1  0.667843  0.996887  0.250462  1
  Nd  Nd3  1  0.329524  0.000439  0.749446  1
  Ga  Ga4  1  0.123687  0.125591  0.250319  1
  Ga  Ga5  1  0.874409  0.876313  0.749681  1
  Ga  Ga6  1  0.002674  0.330115  0.079187  1
  Ga  Ga7  1  0.996288  0.670150  0.920018  1
  Ga  Ga8  1  0.990774  0.664413  0.577854  1
  Ga  Ga9  1  0.335587  0.009226  0.422146  1
  Ga  Ga10  1  0.998525  0.331453  0.421893  1
  Ga  Ga11  1  0.668547  0.001475  0.578107  1
  Ga  Ga12  1  0.669885  0.997326  0.920813  1
  Ga  Ga13  1  0.329850  0.003712  0.079982  1
  Ga  Ga14  1  0.331922  0.325580  0.557225  1
  Ga  Ga15  1  0.674420  0.668078  0.442775  1
  Ga  Ga16  1  0.673165  0.673005  0.060933  1
  Ga  Ga17  1  0.326995  0.326835  0.939067  1
  Ga  Ga18  1  0.341564  0.541758  0.250304  1
  Ga  Ga19  1  0.656921  0.451839  0.745665  1
  Ga  Ga20  1  0.548161  0.343079  0.254335  1
  Ga  Ga21  1  0.458242  0.658436  0.749696  1
  Ru  Ru22  1  0.671237  0.328763  0.500000  1
  Ru  Ru23  1  0.999958  0.000042  0.000000  1
  Ru  Ru24  1  0.999126  0.000874  0.500000  1
  Pt  Pt25  1  0.670471  0.329529  0.000000  1
  Pt  Pt26  1  0.329262  0.670738  0.000000  1
  Pt  Pt27  1  0.328292  0.671708  0.500000  1
