# generated using pymatgen
data_Tm6NbCo16P12W
_symmetry_space_group_name_H-M   'P 1'
_cell_length_a   3.69293200
_cell_length_b   10.55937800
_cell_length_c   12.23303100
_cell_angle_alpha   90.00000000
_cell_angle_beta   90.00000000
_cell_angle_gamma   90.00000000
_symmetry_Int_Tables_number   1
_chemical_formula_structural   Tm6NbCo16P12W
_chemical_formula_sum   'Tm6 Nb1 Co16 P12 W1'
_cell_volume   477.02783797
_cell_formula_units_Z   1
loop_
 _symmetry_equiv_pos_site_id
 _symmetry_equiv_pos_as_xyz
  1  'x, y, z'
loop_
 _atom_site_type_symbol
 _atom_site_label
 _atom_site_symmetry_multiplicity
 _atom_site_fract_x
 _atom_site_fract_y
 _atom_site_fract_z
 _atom_site_occupancy
  Tm  Tm0  1  0.000000  0.500000  0.525845  1
  Tm  Tm1  1  0.500000  0.000000  0.472812  1
  Tm  Tm2  1  0.500000  0.819858  0.205135  1
  Tm  Tm3  1  0.500000  0.180142  0.205135  1
  Tm  Tm4  1  0.000000  0.679203  0.794558  1
  Tm  Tm5  1  0.000000  0.320797  0.794558  1
  Nb  Nb6  1  0.000000  0.000000  0.842901  1
  Co  Co7  1  0.500000  0.500000  0.701486  1
  Co  Co8  1  0.000000  0.000000  0.298348  1
  Co  Co9  1  0.000000  0.500000  0.987960  1
  Co  Co10  1  0.500000  0.000000  0.014723  1
  Co  Co11  1  0.500000  0.334455  0.991862  1
  Co  Co12  1  0.500000  0.665545  0.991862  1
  Co  Co13  1  0.000000  0.169256  0.010230  1
  Co  Co14  1  0.000000  0.830744  0.010230  1
  Co  Co15  1  0.500000  0.296184  0.431570  1
  Co  Co16  1  0.500000  0.703816  0.431570  1
  Co  Co17  1  0.000000  0.204865  0.567177  1
  Co  Co18  1  0.000000  0.795135  0.567177  1
  Co  Co19  1  0.500000  0.876321  0.704440  1
  Co  Co20  1  0.500000  0.123679  0.704440  1
  Co  Co21  1  0.000000  0.622270  0.293894  1
  Co  Co22  1  0.000000  0.377730  0.293894  1
  P  P23  1  0.500000  0.500000  0.880266  1
  P  P24  1  0.000000  0.000000  0.119357  1
  P  P25  1  0.500000  0.500000  0.353167  1
  P  P26  1  0.000000  0.000000  0.642583  1
  P  P27  1  0.500000  0.312804  0.615716  1
  P  P28  1  0.500000  0.687196  0.615716  1
  P  P29  1  0.000000  0.188042  0.383356  1
  P  P30  1  0.000000  0.811958  0.383356  1
  P  P31  1  0.500000  0.839921  0.893506  1
  P  P32  1  0.500000  0.160079  0.893506  1
  P  P33  1  0.000000  0.656065  0.109596  1
  P  P34  1  0.000000  0.343935  0.109596  1
  W  W35  1  0.500000  0.500000  0.158470  1
