# generated using pymatgen
data_Ce(GaCu)2
_symmetry_space_group_name_H-M   'P 1'
_cell_length_a   4.20756800
_cell_length_b   4.20756800
_cell_length_c   10.01201200
_cell_angle_alpha   90.00000000
_cell_angle_beta   90.00000000
_cell_angle_gamma   90.00000000
_symmetry_Int_Tables_number   1
_chemical_formula_structural   Ce(GaCu)2
_chemical_formula_sum   'Ce2 Ga4 Cu4'
_cell_volume   177.24894073
_cell_formula_units_Z   2
loop_
 _symmetry_equiv_pos_site_id
 _symmetry_equiv_pos_as_xyz
  1  'x, y, z'
loop_
 _atom_site_type_symbol
 _atom_site_label
 _atom_site_symmetry_multiplicity
 _atom_site_fract_x
 _atom_site_fract_y
 _atom_site_fract_z
 _atom_site_occupancy
  Ce  Ce0  1  0.000000  0.500000  0.247417  1
  Ce  Ce1  1  0.500000  0.000000  0.752583  1
  Ga  Ga2  1  0.000000  0.000000  0.500000  1
  Ga  Ga3  1  0.500000  0.500000  0.500000  1
  Ga  Ga4  1  0.000000  0.500000  0.870085  1
  Ga  Ga5  1  0.500000  0.000000  0.129915  1
  Cu  Cu6  1  0.000000  0.000000  0.000000  1
  Cu  Cu7  1  0.500000  0.500000  0.000000  1
  Cu  Cu8  1  0.000000  0.500000  0.630953  1
  Cu  Cu9  1  0.500000  0.000000  0.369047  1
