# generated using pymatgen
data_Li2Th3ZnIr2Pd
_symmetry_space_group_name_H-M   'P 1'
_cell_length_a   7.28026400
_cell_length_b   7.29786435
_cell_length_c   4.04642800
_cell_angle_alpha   90.00000000
_cell_angle_beta   90.00000000
_cell_angle_gamma   120.07999828
_symmetry_Int_Tables_number   1
_chemical_formula_structural   Li2Th3ZnIr2Pd
_chemical_formula_sum   'Li2 Th3 Zn1 Ir2 Pd1'
_cell_volume   186.03502084
_cell_formula_units_Z   1
loop_
 _symmetry_equiv_pos_site_id
 _symmetry_equiv_pos_as_xyz
  1  'x, y, z'
loop_
 _atom_site_type_symbol
 _atom_site_label
 _atom_site_symmetry_multiplicity
 _atom_site_fract_x
 _atom_site_fract_y
 _atom_site_fract_z
 _atom_site_occupancy
  Li  Li0  1  0.767159  0.770072  0.500000  1
  Li  Li1  1  0.232841  0.002912  0.500000  1
  Th  Th2  1  0.415726  0.416471  0.000000  1
  Th  Th3  1  0.584274  0.000747  0.000000  1
  Th  Th4  1  0.000000  0.582459  0.000000  1
  Zn  Zn5  1  0.000000  0.233641  0.500000  1
  Ir  Ir6  1  0.667290  0.330959  0.500000  1
  Ir  Ir7  1  0.332710  0.663671  0.500000  1
  Pd  Pd8  1  0.000000  0.999065  0.000000  1
