# generated using pymatgen
data_Er3Mn(P3Ir4)2
_symmetry_space_group_name_H-M   'P 1'
_cell_length_a   3.95410000
_cell_length_b   11.24533400
_cell_length_c   12.49435400
_cell_angle_alpha   90.00000000
_cell_angle_beta   90.00000000
_cell_angle_gamma   90.00000000
_symmetry_Int_Tables_number   1
_chemical_formula_structural   Er3Mn(P3Ir4)2
_chemical_formula_sum   'Er6 Mn2 P12 Ir16'
_cell_volume   555.56363924
_cell_formula_units_Z   2
loop_
 _symmetry_equiv_pos_site_id
 _symmetry_equiv_pos_as_xyz
  1  'x, y, z'
loop_
 _atom_site_type_symbol
 _atom_site_label
 _atom_site_symmetry_multiplicity
 _atom_site_fract_x
 _atom_site_fract_y
 _atom_site_fract_z
 _atom_site_occupancy
  Er  Er0  1  0.000000  0.500000  0.524507  1
  Er  Er1  1  0.500000  0.000000  0.475493  1
  Er  Er2  1  0.500000  0.823194  0.201110  1
  Er  Er3  1  0.500000  0.176806  0.201110  1
  Er  Er4  1  0.000000  0.676806  0.798890  1
  Er  Er5  1  0.000000  0.323194  0.798890  1
  Mn  Mn6  1  0.000000  0.500000  0.999590  1
  Mn  Mn7  1  0.500000  0.000000  0.000410  1
  P  P8  1  0.500000  0.500000  0.883909  1
  P  P9  1  0.000000  0.000000  0.116091  1
  P  P10  1  0.500000  0.500000  0.355602  1
  P  P11  1  0.000000  0.000000  0.644398  1
  P  P12  1  0.500000  0.315242  0.620343  1
  P  P13  1  0.500000  0.684758  0.620343  1
  P  P14  1  0.000000  0.184758  0.379657  1
  P  P15  1  0.000000  0.815242  0.379657  1
  P  P16  1  0.500000  0.844243  0.896437  1
  P  P17  1  0.500000  0.155757  0.896437  1
  P  P18  1  0.000000  0.655757  0.103563  1
  P  P19  1  0.000000  0.344243  0.103563  1
  Ir  Ir20  1  0.500000  0.500000  0.168903  1
  Ir  Ir21  1  0.000000  0.000000  0.831097  1
  Ir  Ir22  1  0.500000  0.500000  0.699631  1
  Ir  Ir23  1  0.000000  0.000000  0.300369  1
  Ir  Ir24  1  0.500000  0.335792  0.992149  1
  Ir  Ir25  1  0.500000  0.664208  0.992149  1
  Ir  Ir26  1  0.000000  0.164208  0.007851  1
  Ir  Ir27  1  0.000000  0.835792  0.007851  1
  Ir  Ir28  1  0.500000  0.298772  0.429925  1
  Ir  Ir29  1  0.500000  0.701228  0.429925  1
  Ir  Ir30  1  0.000000  0.201228  0.570075  1
  Ir  Ir31  1  0.000000  0.798772  0.570075  1
  Ir  Ir32  1  0.500000  0.868916  0.715083  1
  Ir  Ir33  1  0.500000  0.131084  0.715083  1
  Ir  Ir34  1  0.000000  0.631084  0.284917  1
  Ir  Ir35  1  0.000000  0.368916  0.284917  1
