# generated using pymatgen
data_Ho5Tm11In2(AgRh2)2
_symmetry_space_group_name_H-M   'P 1'
_cell_length_a   9.51028641
_cell_length_b   9.51409032
_cell_length_c   9.51409007
_cell_angle_alpha   59.74210685
_cell_angle_beta   59.62316095
_cell_angle_gamma   59.62317272
_symmetry_Int_Tables_number   1
_chemical_formula_structural   Ho5Tm11In2(AgRh2)2
_chemical_formula_sum   'Ho5 Tm11 In2 Ag2 Rh4'
_cell_volume   604.04871663
_cell_formula_units_Z   1
loop_
 _symmetry_equiv_pos_site_id
 _symmetry_equiv_pos_as_xyz
  1  'x, y, z'
loop_
 _atom_site_type_symbol
 _atom_site_label
 _atom_site_symmetry_multiplicity
 _atom_site_fract_x
 _atom_site_fract_y
 _atom_site_fract_z
 _atom_site_occupancy
  Ho  Ho0  1  0.059299  0.067749  0.436959  1
  Ho  Ho1  1  0.436269  0.065187  0.437116  1
  Ho  Ho2  1  0.059299  0.436959  0.067749  1
  Ho  Ho3  1  0.053522  0.648381  0.648381  1
  Ho  Ho4  1  0.436269  0.437116  0.065187  1
  Tm  Tm5  1  0.648064  0.051954  0.648584  1
  Tm  Tm6  1  0.189087  0.812205  0.188393  1
  Tm  Tm7  1  0.189087  0.188393  0.812205  1
  Tm  Tm8  1  0.810378  0.810876  0.190550  1
  Tm  Tm9  1  0.436672  0.063020  0.063020  1
  Tm  Tm10  1  0.813362  0.187944  0.187944  1
  Tm  Tm11  1  0.060420  0.438894  0.438894  1
  Tm  Tm12  1  0.810378  0.190550  0.810876  1
  Tm  Tm13  1  0.191703  0.810092  0.810092  1
  Tm  Tm14  1  0.648064  0.648584  0.051954  1
  Tm  Tm15  1  0.649471  0.649856  0.649856  1
  In  In16  1  0.421824  0.743115  0.416383  1
  In  In17  1  0.421824  0.416383  0.743115  1
  Ag  Ag18  1  0.418288  0.416731  0.416731  1
  Ag  Ag19  1  0.750130  0.416399  0.416399  1
  Rh  Rh20  1  0.855991  0.856788  0.427966  1
  Rh  Rh21  1  0.856604  0.857804  0.857804  1
  Rh  Rh22  1  0.428001  0.857056  0.857056  1
  Rh  Rh23  1  0.855991  0.427966  0.856788  1
