# generated using pymatgen
data_Gd7BI12
_symmetry_space_group_name_H-M   'P 1'
_cell_length_a   9.64969086
_cell_length_b   9.64969088
_cell_length_c   9.64969100
_cell_angle_alpha   107.74978650
_cell_angle_beta   107.74978654
_cell_angle_gamma   107.74977982
_symmetry_Int_Tables_number   1
_chemical_formula_structural   Gd7BI12
_chemical_formula_sum   'Gd7 B1 I12'
_cell_volume   732.47316450
_cell_formula_units_Z   1
loop_
 _symmetry_equiv_pos_site_id
 _symmetry_equiv_pos_as_xyz
  1  'x, y, z'
loop_
 _atom_site_type_symbol
 _atom_site_label
 _atom_site_symmetry_multiplicity
 _atom_site_fract_x
 _atom_site_fract_y
 _atom_site_fract_z
 _atom_site_occupancy
  Gd  Gd0  1  0.704589  0.969303  0.901098  1
  Gd  Gd1  1  0.969303  0.901098  0.704589  1
  Gd  Gd2  1  0.500000  0.500000  0.500000  1
  Gd  Gd3  1  0.098902  0.295411  0.030697  1
  Gd  Gd4  1  0.295411  0.030697  0.098902  1
  Gd  Gd5  1  0.901098  0.704589  0.969303  1
  Gd  Gd6  1  0.030697  0.098902  0.295411  1
  B  B7  1  0.000000  0.000000  0.000000  1
  I  I8  1  0.076219  0.229138  0.683671  1
  I  I9  1  0.389442  0.151480  0.470749  1
  I  I10  1  0.610558  0.848520  0.529251  1
  I  I11  1  0.229138  0.683671  0.076219  1
  I  I12  1  0.770862  0.316329  0.923781  1
  I  I13  1  0.683671  0.076219  0.229138  1
  I  I14  1  0.529251  0.610558  0.848520  1
  I  I15  1  0.848520  0.529251  0.610558  1
  I  I16  1  0.923781  0.770862  0.316329  1
  I  I17  1  0.316329  0.923781  0.770862  1
  I  I18  1  0.470749  0.389442  0.151480  1
  I  I19  1  0.151480  0.470749  0.389442  1
