# generated using pymatgen
data_Dy4Ga6CoCu
_symmetry_space_group_name_H-M   'P 1'
_cell_length_a   7.00077000
_cell_length_b   8.76457123
_cell_length_c   8.76456100
_cell_angle_alpha   119.99997171
_cell_angle_beta   90.00014557
_cell_angle_gamma   89.99976754
_symmetry_Int_Tables_number   1
_chemical_formula_structural   Dy4Ga6CoCu
_chemical_formula_sum   'Dy8 Ga12 Co2 Cu2'
_cell_volume   465.73342536
_cell_formula_units_Z   2
loop_
 _symmetry_equiv_pos_site_id
 _symmetry_equiv_pos_as_xyz
  1  'x, y, z'
loop_
 _atom_site_type_symbol
 _atom_site_label
 _atom_site_symmetry_multiplicity
 _atom_site_fract_x
 _atom_site_fract_y
 _atom_site_fract_z
 _atom_site_occupancy
  Dy  Dy0  1  0.745628  0.000000  0.000000  1
  Dy  Dy1  1  0.254372  0.000000  0.000000  1
  Dy  Dy2  1  0.742799  0.477517  0.522482  1
  Dy  Dy3  1  0.257201  0.522483  0.477518  1
  Dy  Dy4  1  0.742800  0.044965  0.522482  1
  Dy  Dy5  1  0.257200  0.955035  0.477518  1
  Dy  Dy6  1  0.742800  0.477517  0.955035  1
  Dy  Dy7  1  0.257200  0.522483  0.044965  1
  Ga  Ga8  1  0.954597  0.830767  0.169233  1
  Ga  Ga9  1  0.045403  0.169233  0.830767  1
  Ga  Ga10  1  0.954596  0.338466  0.169233  1
  Ga  Ga11  1  0.455539  0.172837  0.827162  1
  Ga  Ga12  1  0.045404  0.661534  0.830767  1
  Ga  Ga13  1  0.544461  0.827163  0.172838  1
  Ga  Ga14  1  0.954597  0.830768  0.661535  1
  Ga  Ga15  1  0.455539  0.654325  0.827163  1
  Ga  Ga16  1  0.045403  0.169232  0.338465  1
  Ga  Ga17  1  0.544461  0.345675  0.172837  1
  Ga  Ga18  1  0.455539  0.172837  0.345674  1
  Ga  Ga19  1  0.544461  0.827163  0.654326  1
  Co  Co20  1  0.486171  0.333333  0.666667  1
  Co  Co21  1  0.513829  0.666667  0.333333  1
  Cu  Cu22  1  0.948350  0.666668  0.333334  1
  Cu  Cu23  1  0.051650  0.333332  0.666666  1
