# generated using pymatgen
data_LiEr(ReH9)2
_symmetry_space_group_name_H-M   'P 1'
_cell_length_a   5.05170919
_cell_length_b   5.05151643
_cell_length_c   8.27198700
_cell_angle_alpha   92.08823816
_cell_angle_beta   87.89770014
_cell_angle_gamma   125.05112506
_symmetry_Int_Tables_number   1
_chemical_formula_structural   LiEr(ReH9)2
_chemical_formula_sum   'Li1 Er1 Re2 H18'
_cell_volume   172.66081629
_cell_formula_units_Z   1
loop_
 _symmetry_equiv_pos_site_id
 _symmetry_equiv_pos_as_xyz
  1  'x, y, z'
loop_
 _atom_site_type_symbol
 _atom_site_label
 _atom_site_symmetry_multiplicity
 _atom_site_fract_x
 _atom_site_fract_y
 _atom_site_fract_z
 _atom_site_occupancy
  Li  Li0  1  0.000000  0.000000  0.000000  1
  Er  Er1  1  0.000000  0.000000  0.500000  1
  Re  Re2  1  0.340321  0.659221  0.731262  1
  Re  Re3  1  0.659679  0.340779  0.268738  1
  H  H4  1  0.387295  0.612230  0.528462  1
  H  H5  1  0.612705  0.387770  0.471538  1
  H  H6  1  0.425017  0.574552  0.907741  1
  H  H7  1  0.574983  0.425448  0.092259  1
  H  H8  1  0.478345  0.963367  0.868923  1
  H  H9  1  0.963864  0.478884  0.131058  1
  H  H10  1  0.599714  0.026791  0.653600  1
  H  H11  1  0.027216  0.600192  0.346289  1
  H  H12  1  0.521655  0.036633  0.131077  1
  H  H13  1  0.036136  0.521116  0.868942  1
  H  H14  1  0.400286  0.973209  0.346400  1
  H  H15  1  0.972784  0.399808  0.653711  1
  H  H16  1  0.715498  0.728119  0.727564  1
  H  H17  1  0.728530  0.715936  0.272367  1
  H  H18  1  0.284502  0.271881  0.272436  1
  H  H19  1  0.271470  0.284064  0.727633  1
  H  H20  1  0.153295  0.846166  0.706484  1
  H  H21  1  0.846705  0.153834  0.293516  1
