# generated using pymatgen
data_Ho2PaSn3IrRh2
_symmetry_space_group_name_H-M   'P 1'
_cell_length_a   7.56516826
_cell_length_b   7.63698855
_cell_length_c   3.85136600
_cell_angle_alpha   90.00000000
_cell_angle_beta   90.00000000
_cell_angle_gamma   120.47406996
_symmetry_Int_Tables_number   1
_chemical_formula_structural   Ho2PaSn3IrRh2
_chemical_formula_sum   'Ho2 Pa1 Sn3 Ir1 Rh2'
_cell_volume   191.77483878
_cell_formula_units_Z   1
loop_
 _symmetry_equiv_pos_site_id
 _symmetry_equiv_pos_as_xyz
  1  'x, y, z'
loop_
 _atom_site_type_symbol
 _atom_site_label
 _atom_site_symmetry_multiplicity
 _atom_site_fract_x
 _atom_site_fract_y
 _atom_site_fract_z
 _atom_site_occupancy
  Ho  Ho0  1  0.597370  0.593226  0.000000  1
  Ho  Ho1  1  0.405657  0.002319  0.000000  1
  Pa  Pa2  1  0.999296  0.412338  0.000000  1
  Sn  Sn3  1  0.271160  0.259853  0.500000  1
  Sn  Sn4  1  0.002633  0.756608  0.500000  1
  Sn  Sn5  1  0.726096  0.984114  0.500000  1
  Ir  Ir6  1  0.695060  0.336607  0.500000  1
  Rh  Rh7  1  0.303532  0.640466  0.500000  1
  Rh  Rh8  1  0.999195  0.014469  0.000000  1
