# generated using pymatgen
data_Dy5YLu4(Si3H)2
_symmetry_space_group_name_H-M   'P 1'
_cell_length_a   8.39170204
_cell_length_b   8.39170431
_cell_length_c   6.14219100
_cell_angle_alpha   90.00000000
_cell_angle_beta   90.00000000
_cell_angle_gamma   119.98860566
_symmetry_Int_Tables_number   1
_chemical_formula_structural   Dy5YLu4(Si3H)2
_chemical_formula_sum   'Dy5 Y1 Lu4 Si6 H2'
_cell_volume   374.63127447
_cell_formula_units_Z   1
loop_
 _symmetry_equiv_pos_site_id
 _symmetry_equiv_pos_as_xyz
  1  'x, y, z'
loop_
 _atom_site_type_symbol
 _atom_site_label
 _atom_site_symmetry_multiplicity
 _atom_site_fract_x
 _atom_site_fract_y
 _atom_site_fract_z
 _atom_site_occupancy
  Dy  Dy0  1  0.250383  0.000007  0.750000  1
  Dy  Dy1  1  0.000007  0.250383  0.750000  1
  Dy  Dy2  1  0.250393  0.250393  0.250000  1
  Dy  Dy3  1  0.749642  0.000035  0.250000  1
  Dy  Dy4  1  0.000035  0.749642  0.250000  1
  Y  Y5  1  0.749594  0.749594  0.750000  1
  Lu  Lu6  1  0.666672  0.333328  0.999990  1
  Lu  Lu7  1  0.333328  0.666672  0.999990  1
  Lu  Lu8  1  0.333328  0.666672  0.500010  1
  Lu  Lu9  1  0.666672  0.333328  0.500010  1
  Si  Si10  1  0.391516  0.391516  0.750000  1
  Si  Si11  1  0.608455  0.999989  0.750000  1
  Si  Si12  1  0.999989  0.608455  0.750000  1
  Si  Si13  1  0.608439  0.608439  0.250000  1
  Si  Si14  1  0.391544  0.999993  0.250000  1
  Si  Si15  1  0.999993  0.391544  0.250000  1
  H  H16  1  0.000005  0.000005  0.500023  1
  H  H17  1  0.000005  0.000005  0.999977  1
