# generated using pymatgen
data_Y4(Ga8Pt3)3
_symmetry_space_group_name_H-M   'P 1'
_cell_length_a   7.52264389
_cell_length_b   7.60292078
_cell_length_c   13.40608745
_cell_angle_alpha   84.80500000
_cell_angle_beta   79.55594297
_cell_angle_gamma   60.29044295
_symmetry_Int_Tables_number   1
_chemical_formula_structural   Y4(Ga8Pt3)3
_chemical_formula_sum   'Y4 Ga24 Pt9'
_cell_volume   654.92508169
_cell_formula_units_Z   1
loop_
 _symmetry_equiv_pos_site_id
 _symmetry_equiv_pos_as_xyz
  1  'x, y, z'
loop_
 _atom_site_type_symbol
 _atom_site_label
 _atom_site_symmetry_multiplicity
 _atom_site_fract_x
 _atom_site_fract_y
 _atom_site_fract_z
 _atom_site_occupancy
  Y  Y0  1  0.392993  0.169052  0.811685  1
  Y  Y1  1  0.607007  0.830948  0.188315  1
  Y  Y2  1  0.732470  0.497372  0.811837  1
  Y  Y3  1  0.267530  0.502628  0.188163  1
  Ga  Ga4  1  0.685906  0.833814  0.938358  1
  Ga  Ga5  1  0.314094  0.166186  0.061642  1
  Ga  Ga6  1  0.145639  0.832847  0.558734  1
  Ga  Ga7  1  0.854361  0.167153  0.441266  1
  Ga  Ga8  1  0.478047  0.166973  0.555686  1
  Ga  Ga9  1  0.521953  0.833027  0.444314  1
  Ga  Ga10  1  0.219677  0.165599  0.324809  1
  Ga  Ga11  1  0.780323  0.834401  0.675191  1
  Ga  Ga12  1  0.438320  0.503377  0.674473  1
  Ga  Ga13  1  0.561680  0.496623  0.325527  1
  Ga  Ga14  1  0.107301  0.163459  0.673734  1
  Ga  Ga15  1  0.892699  0.836541  0.326266  1
  Ga  Ga16  1  0.357558  0.498081  0.938633  1
  Ga  Ga17  1  0.642442  0.501919  0.061367  1
  Ga  Ga18  1  0.019486  0.169244  0.943921  1
  Ga  Ga19  1  0.980514  0.830756  0.056079  1
  Ga  Ga20  1  0.187183  0.498896  0.443370  1
  Ga  Ga21  1  0.812817  0.501104  0.556630  1
  Ga  Ga22  1  0.734299  0.163048  0.182282  1
  Ga  Ga23  1  0.265701  0.836952  0.817718  1
  Ga  Ga24  1  0.061045  0.630934  0.817141  1
  Ga  Ga25  1  0.938955  0.369066  0.182859  1
  Ga  Ga26  1  0.856198  0.040471  0.816993  1
  Ga  Ga27  1  0.143802  0.959529  0.183008  1
  Pt  Pt28  1  0.117896  0.495631  0.638675  1
  Pt  Pt29  1  0.882104  0.504369  0.361325  1
  Pt  Pt30  1  0.659882  0.169829  0.999472  1
  Pt  Pt31  1  0.340118  0.830171  0.000528  1
  Pt  Pt32  1  0.540763  0.166759  0.360608  1
  Pt  Pt33  1  0.459237  0.833241  0.639392  1
  Pt  Pt34  1  0.779686  0.171636  0.636846  1
  Pt  Pt35  1  0.220314  0.828364  0.363154  1
  Pt  Pt36  1  0.000000  0.500000  0.000000  1
