# generated using pymatgen
data_Ca14TaMn4NbN18
_symmetry_space_group_name_H-M   'P 1'
_cell_length_a   10.00521700
_cell_length_b   6.07323812
_cell_length_c   9.01802802
_cell_angle_alpha   87.76370771
_cell_angle_beta   90.00000000
_cell_angle_gamma   90.00000000
_symmetry_Int_Tables_number   1
_chemical_formula_structural   Ca14TaMn4NbN18
_chemical_formula_sum   'Ca14 Ta1 Mn4 Nb1 N18'
_cell_volume   547.55470821
_cell_formula_units_Z   1
loop_
 _symmetry_equiv_pos_site_id
 _symmetry_equiv_pos_as_xyz
  1  'x, y, z'
loop_
 _atom_site_type_symbol
 _atom_site_label
 _atom_site_symmetry_multiplicity
 _atom_site_fract_x
 _atom_site_fract_y
 _atom_site_fract_z
 _atom_site_occupancy
  Ca  Ca0  1  0.933828  0.427983  0.160892  1
  Ca  Ca1  1  0.080812  0.247427  0.493109  1
  Ca  Ca2  1  0.250000  0.091973  0.804825  1
  Ca  Ca3  1  0.433802  0.573243  0.840715  1
  Ca  Ca4  1  0.580844  0.752385  0.506321  1
  Ca  Ca5  1  0.580051  0.066595  0.831229  1
  Ca  Ca6  1  0.919949  0.066595  0.831229  1
  Ca  Ca7  1  0.420371  0.934001  0.168837  1
  Ca  Ca8  1  0.419188  0.247427  0.493109  1
  Ca  Ca9  1  0.079629  0.934001  0.168837  1
  Ca  Ca10  1  0.919156  0.752385  0.506321  1
  Ca  Ca11  1  0.066198  0.573243  0.840715  1
  Ca  Ca12  1  0.750000  0.906946  0.195895  1
  Ca  Ca13  1  0.566172  0.427983  0.160892  1
  Ta  Ta14  1  0.750000  0.277264  0.439357  1
  Mn  Mn15  1  0.250000  0.329186  0.069779  1
  Mn  Mn16  1  0.750000  0.456781  0.721250  1
  Mn  Mn17  1  0.750000  0.670129  0.930219  1
  Mn  Mn18  1  0.250000  0.543790  0.277965  1
  Nb  Nb19  1  0.250000  0.722697  0.561953  1
  N  N20  1  0.404595  0.230075  0.979969  1
  N  N21  1  0.250000  0.237681  0.272317  1
  N  N22  1  0.901436  0.115157  0.343594  1
  N  N23  1  0.608528  0.362907  0.625767  1
  N  N24  1  0.750000  0.553794  0.331382  1
  N  N25  1  0.250000  0.638761  0.078854  1
  N  N26  1  0.891472  0.362907  0.625767  1
  N  N27  1  0.392839  0.635290  0.371612  1
  N  N28  1  0.750000  0.361645  0.920392  1
  N  N29  1  0.097630  0.885523  0.657668  1
  N  N30  1  0.750000  0.762299  0.727536  1
  N  N31  1  0.107161  0.635290  0.371612  1
  N  N32  1  0.595312  0.770174  0.019865  1
  N  N33  1  0.250000  0.445535  0.669120  1
  N  N34  1  0.402370  0.885523  0.657668  1
  N  N35  1  0.598564  0.115157  0.343594  1
  N  N36  1  0.095405  0.230075  0.979969  1
  N  N37  1  0.904688  0.770174  0.019865  1
