# generated using pymatgen
data_Sc12Co5As
_symmetry_space_group_name_H-M   'P 1'
_cell_length_a   7.62500728
_cell_length_b   7.62500669
_cell_length_c   7.62500558
_cell_angle_alpha   107.20066254
_cell_angle_beta   110.20301869
_cell_angle_gamma   111.03469959
_symmetry_Int_Tables_number   1
_chemical_formula_structural   Sc12Co5As
_chemical_formula_sum   'Sc12 Co5 As1'
_cell_volume   340.85180239
_cell_formula_units_Z   1
loop_
 _symmetry_equiv_pos_site_id
 _symmetry_equiv_pos_as_xyz
  1  'x, y, z'
loop_
 _atom_site_type_symbol
 _atom_site_label
 _atom_site_symmetry_multiplicity
 _atom_site_fract_x
 _atom_site_fract_y
 _atom_site_fract_z
 _atom_site_occupancy
  Sc  Sc0  1  0.455407  0.275194  0.180213  1
  Sc  Sc1  1  0.094982  0.275194  0.819787  1
  Sc  Sc2  1  0.905018  0.724806  0.180213  1
  Sc  Sc3  1  0.544593  0.724806  0.819787  1
  Sc  Sc4  1  0.305981  0.629294  0.323314  1
  Sc  Sc5  1  0.305981  0.982668  0.676686  1
  Sc  Sc6  1  0.694019  0.370706  0.676686  1
  Sc  Sc7  1  0.694019  0.017332  0.323314  1
  Sc  Sc8  1  0.194155  0.228296  0.422450  1
  Sc  Sc9  1  0.805845  0.771704  0.577550  1
  Sc  Sc10  1  0.194155  0.771704  0.965858  1
  Sc  Sc11  1  0.805845  0.228296  0.034142  1
  Co  Co12  1  0.500000  0.621680  0.121680  1
  Co  Co13  1  0.500000  0.378320  0.878320  1
  Co  Co14  1  0.345096  0.000000  0.345096  1
  Co  Co15  1  0.654904  0.000000  0.654904  1
  Co  Co16  1  0.000000  0.000000  0.000000  1
  As  As17  1  0.000000  0.500000  0.500000  1
