# generated using pymatgen
data_Dy2Ho(In2Ir)2
_symmetry_space_group_name_H-M   'P 1'
_cell_length_a   7.77100913
_cell_length_b   7.76784703
_cell_length_c   3.93371500
_cell_angle_alpha   90.00000000
_cell_angle_beta   90.00000000
_cell_angle_gamma   119.99227942
_symmetry_Int_Tables_number   1
_chemical_formula_structural   Dy2Ho(In2Ir)2
_chemical_formula_sum   'Dy2 Ho1 In4 Ir2'
_cell_volume   205.65789637
_cell_formula_units_Z   1
loop_
 _symmetry_equiv_pos_site_id
 _symmetry_equiv_pos_as_xyz
  1  'x, y, z'
loop_
 _atom_site_type_symbol
 _atom_site_label
 _atom_site_symmetry_multiplicity
 _atom_site_fract_x
 _atom_site_fract_y
 _atom_site_fract_z
 _atom_site_occupancy
  Dy  Dy0  1  0.700440  0.746661  0.500000  1
  Dy  Dy1  1  0.253362  0.953832  0.500000  1
  Ho  Ho2  1  0.045902  0.299296  0.500000  1
  In  In3  1  0.667185  0.078836  0.000000  1
  In  In4  1  0.921332  0.588180  0.000000  1
  In  In5  1  0.411622  0.333037  0.000000  1
  In  In6  1  0.333192  0.666457  0.000000  1
  Ir  Ir7  1  0.666867  0.333301  0.500000  1
  Ir  Ir8  1  0.000099  0.000398  0.000000  1
