# generated using pymatgen
data_Pr3Nd5Zn3Si12Pt
_symmetry_space_group_name_H-M   'P 1'
_cell_length_a   8.21072102
_cell_length_b   8.21072013
_cell_length_c   8.63084100
_cell_angle_alpha   89.99556189
_cell_angle_beta   90.00443811
_cell_angle_gamma   120.02705315
_symmetry_Int_Tables_number   1
_chemical_formula_structural   Pr3Nd5Zn3Si12Pt
_chemical_formula_sum   'Pr3 Nd5 Zn3 Si12 Pt1'
_cell_volume   503.76481996
_cell_formula_units_Z   1
loop_
 _symmetry_equiv_pos_site_id
 _symmetry_equiv_pos_as_xyz
  1  'x, y, z'
loop_
 _atom_site_type_symbol
 _atom_site_label
 _atom_site_symmetry_multiplicity
 _atom_site_fract_x
 _atom_site_fract_y
 _atom_site_fract_z
 _atom_site_occupancy
  Pr  Pr0  1  0.999967  0.000033  0.750536  1
  Pr  Pr1  1  0.999988  0.000012  0.249535  1
  Pr  Pr2  1  0.499939  0.500061  0.749097  1
  Nd  Nd3  1  0.499782  0.999474  0.749259  1
  Nd  Nd4  1  0.000526  0.500218  0.749259  1
  Nd  Nd5  1  0.500210  0.499790  0.250832  1
  Nd  Nd6  1  0.999602  0.499833  0.250802  1
  Nd  Nd7  1  0.500167  0.000398  0.250802  1
  Zn  Zn8  1  0.666820  0.333180  0.000111  1
  Zn  Zn9  1  0.666836  0.333164  0.500775  1
  Zn  Zn10  1  0.333201  0.666799  0.497604  1
  Si  Si11  1  0.835456  0.164544  0.000210  1
  Si  Si12  1  0.835544  0.670948  0.000511  1
  Si  Si13  1  0.329052  0.164456  0.000511  1
  Si  Si14  1  0.833506  0.166494  0.499687  1
  Si  Si15  1  0.833747  0.667063  0.499247  1
  Si  Si16  1  0.332937  0.166253  0.499247  1
  Si  Si17  1  0.166822  0.833178  0.500218  1
  Si  Si18  1  0.666515  0.833391  0.499740  1
  Si  Si19  1  0.166609  0.333485  0.499740  1
  Si  Si20  1  0.168004  0.831996  0.999994  1
  Si  Si21  1  0.663758  0.832046  0.000515  1
  Si  Si22  1  0.167954  0.336242  0.000515  1
  Pt  Pt23  1  0.333060  0.666940  0.001252  1
