# generated using pymatgen
data_Rb3NaSn3Se8
_symmetry_space_group_name_H-M   'P 1'
_cell_length_a   8.65642200
_cell_length_b   8.65642200
_cell_length_c   14.01458600
_cell_angle_alpha   90.00000000
_cell_angle_beta   90.00000000
_cell_angle_gamma   90.00000000
_symmetry_Int_Tables_number   1
_chemical_formula_structural   Rb3NaSn3Se8
_chemical_formula_sum   'Rb6 Na2 Sn6 Se16'
_cell_volume   1050.16396789
_cell_formula_units_Z   2
loop_
 _symmetry_equiv_pos_site_id
 _symmetry_equiv_pos_as_xyz
  1  'x, y, z'
loop_
 _atom_site_type_symbol
 _atom_site_label
 _atom_site_symmetry_multiplicity
 _atom_site_fract_x
 _atom_site_fract_y
 _atom_site_fract_z
 _atom_site_occupancy
  Rb  Rb0  1  0.000000  0.000000  0.719474  1
  Rb  Rb1  1  0.500000  0.500000  0.719474  1
  Rb  Rb2  1  0.500000  0.500000  0.280526  1
  Rb  Rb3  1  0.000000  0.000000  0.280526  1
  Rb  Rb4  1  0.500000  0.500000  0.000000  1
  Rb  Rb5  1  0.000000  0.000000  0.000000  1
  Na  Na6  1  0.000000  0.500000  0.000000  1
  Na  Na7  1  0.500000  0.000000  0.000000  1
  Sn  Sn8  1  0.500000  0.000000  0.753416  1
  Sn  Sn9  1  0.500000  0.000000  0.246584  1
  Sn  Sn10  1  0.000000  0.500000  0.753416  1
  Sn  Sn11  1  0.000000  0.500000  0.246584  1
  Sn  Sn12  1  0.500000  0.000000  0.500000  1
  Sn  Sn13  1  0.000000  0.500000  0.500000  1
  Se  Se14  1  0.342517  0.842517  0.622520  1
  Se  Se15  1  0.172475  0.672475  0.851420  1
  Se  Se16  1  0.842517  0.342517  0.377480  1
  Se  Se17  1  0.342517  0.157483  0.377480  1
  Se  Se18  1  0.672475  0.827525  0.851420  1
  Se  Se19  1  0.672475  0.172475  0.148580  1
  Se  Se20  1  0.827525  0.672475  0.148580  1
  Se  Se21  1  0.327525  0.827525  0.148580  1
  Se  Se22  1  0.842517  0.657483  0.622520  1
  Se  Se23  1  0.827525  0.327525  0.851420  1
  Se  Se24  1  0.657483  0.842517  0.377480  1
  Se  Se25  1  0.657483  0.157483  0.622520  1
  Se  Se26  1  0.157483  0.657483  0.377480  1
  Se  Se27  1  0.172475  0.327525  0.148580  1
  Se  Se28  1  0.157483  0.342517  0.622520  1
  Se  Se29  1  0.327525  0.172475  0.851420  1
