# generated using pymatgen
data_Sr(ZrSe2)8
_symmetry_space_group_name_H-M   'P 1'
_cell_length_a   7.59342500
_cell_length_b   7.59342652
_cell_length_c   14.90302900
_cell_angle_alpha   90.00000000
_cell_angle_beta   90.00000000
_cell_angle_gamma   119.99998901
_symmetry_Int_Tables_number   1
_chemical_formula_structural   Sr(ZrSe2)8
_chemical_formula_sum   'Sr1 Zr8 Se16'
_cell_volume   744.18468657
_cell_formula_units_Z   1
loop_
 _symmetry_equiv_pos_site_id
 _symmetry_equiv_pos_as_xyz
  1  'x, y, z'
loop_
 _atom_site_type_symbol
 _atom_site_label
 _atom_site_symmetry_multiplicity
 _atom_site_fract_x
 _atom_site_fract_y
 _atom_site_fract_z
 _atom_site_occupancy
  Sr  Sr0  1  0.000000  0.000000  0.000000  1
  Zr  Zr1  1  0.502022  0.497978  0.741524  1
  Zr  Zr2  1  0.497978  0.502022  0.258476  1
  Zr  Zr3  1  0.502022  0.004043  0.741524  1
  Zr  Zr4  1  0.497978  0.995957  0.258476  1
  Zr  Zr5  1  0.995957  0.497978  0.741524  1
  Zr  Zr6  1  0.004043  0.502022  0.258476  1
  Zr  Zr7  1  0.000000  0.000000  0.736880  1
  Zr  Zr8  1  0.000000  0.000000  0.263120  1
  Se  Se9  1  0.833351  0.666704  0.149094  1
  Se  Se10  1  0.832492  0.664985  0.633690  1
  Se  Se11  1  0.833351  0.166649  0.149094  1
  Se  Se12  1  0.832492  0.167508  0.633690  1
  Se  Se13  1  0.333333  0.666667  0.148735  1
  Se  Se14  1  0.333333  0.666667  0.637389  1
  Se  Se15  1  0.333296  0.166649  0.149094  1
  Se  Se16  1  0.335015  0.167508  0.633690  1
  Se  Se17  1  0.666704  0.833351  0.850906  1
  Se  Se18  1  0.664985  0.832492  0.366310  1
  Se  Se19  1  0.666667  0.333333  0.851265  1
  Se  Se20  1  0.666667  0.333333  0.362611  1
  Se  Se21  1  0.166649  0.833351  0.850906  1
  Se  Se22  1  0.167508  0.832492  0.366310  1
  Se  Se23  1  0.166649  0.333296  0.850906  1
  Se  Se24  1  0.167508  0.335015  0.366310  1
