# generated using pymatgen
data_Ho3Si6Pd17Pt3
_symmetry_space_group_name_H-M   'P 1'
_cell_length_a   8.72978679
_cell_length_b   8.72980887
_cell_length_c   8.74307381
_cell_angle_alpha   59.78315686
_cell_angle_beta   59.78317983
_cell_angle_gamma   59.76303391
_symmetry_Int_Tables_number   1
_chemical_formula_structural   Ho3Si6Pd17Pt3
_chemical_formula_sum   'Ho3 Si6 Pd17 Pt3'
_cell_volume   468.75689531
_cell_formula_units_Z   1
loop_
 _symmetry_equiv_pos_site_id
 _symmetry_equiv_pos_as_xyz
  1  'x, y, z'
loop_
 _atom_site_type_symbol
 _atom_site_label
 _atom_site_symmetry_multiplicity
 _atom_site_fract_x
 _atom_site_fract_y
 _atom_site_fract_z
 _atom_site_occupancy
  Ho  Ho0  1  0.250589  0.250588  0.249754  1
  Ho  Ho1  1  0.749483  0.749484  0.749908  1
  Ho  Ho2  1  0.000014  0.000015  0.999985  1
  Si  Si3  1  0.730524  0.268391  0.267513  1
  Si  Si4  1  0.269942  0.730594  0.732216  1
  Si  Si5  1  0.268391  0.730524  0.267513  1
  Si  Si6  1  0.730594  0.269942  0.732217  1
  Si  Si7  1  0.268742  0.268742  0.730636  1
  Si  Si8  1  0.732091  0.732091  0.268944  1
  Pd  Pd9  1  0.381765  0.851217  0.382256  1
  Pd  Pd10  1  0.617856  0.617855  0.149271  1
  Pd  Pd11  1  0.619201  0.148001  0.616670  1
  Pd  Pd12  1  0.851216  0.381765  0.382257  1
  Pd  Pd13  1  0.148002  0.619201  0.616671  1
  Pd  Pd14  1  0.344538  0.999796  0.000626  1
  Pd  Pd15  1  0.655342  0.999333  0.000528  1
  Pd  Pd16  1  0.999903  0.344549  0.655892  1
  Pd  Pd17  1  0.999646  0.655476  0.345129  1
  Pd  Pd18  1  0.999797  0.344539  0.000626  1
  Pd  Pd19  1  0.655475  0.999645  0.345130  1
  Pd  Pd20  1  0.999334  0.655341  0.000528  1
  Pd  Pd21  1  0.344550  0.999904  0.655890  1
  Pd  Pd22  1  0.999902  0.999901  0.345271  1
  Pd  Pd23  1  0.999712  0.999713  0.655572  1
  Pd  Pd24  1  0.655550  0.344432  0.000413  1
  Pd  Pd25  1  0.344432  0.655550  0.000414  1
  Pt  Pt26  1  0.383805  0.383806  0.384071  1
  Pt  Pt27  1  0.617170  0.617169  0.614621  1
  Pt  Pt28  1  0.382434  0.382434  0.849476  1
