# generated using pymatgen
data_Dy2TmAl12RuRh3
_symmetry_space_group_name_H-M   'P 1'
_cell_length_a   8.80988249
_cell_length_b   8.79447632
_cell_length_c   9.51874500
_cell_angle_alpha   90.00000000
_cell_angle_beta   90.00000000
_cell_angle_gamma   119.94216894
_symmetry_Int_Tables_number   1
_chemical_formula_structural   Dy2TmAl12RuRh3
_chemical_formula_sum   'Dy4 Tm2 Al24 Ru2 Rh6'
_cell_volume   639.06231953
_cell_formula_units_Z   2
loop_
 _symmetry_equiv_pos_site_id
 _symmetry_equiv_pos_as_xyz
  1  'x, y, z'
loop_
 _atom_site_type_symbol
 _atom_site_label
 _atom_site_symmetry_multiplicity
 _atom_site_fract_x
 _atom_site_fract_y
 _atom_site_fract_z
 _atom_site_occupancy
  Dy  Dy0  1  0.616016  0.808008  0.250000  1
  Dy  Dy1  1  0.808499  0.192050  0.750000  1
  Dy  Dy2  1  0.808499  0.616448  0.750000  1
  Dy  Dy3  1  0.383011  0.191505  0.750000  1
  Tm  Tm4  1  0.192621  0.806580  0.250000  1
  Tm  Tm5  1  0.192621  0.386041  0.250000  1
  Al  Al6  1  0.561543  0.437411  0.250000  1
  Al  Al7  1  0.561543  0.124130  0.250000  1
  Al  Al8  1  0.876780  0.438390  0.250000  1
  Al  Al9  1  0.437824  0.562293  0.750000  1
  Al  Al10  1  0.437824  0.875532  0.750000  1
  Al  Al11  1  0.124256  0.562128  0.750000  1
  Al  Al12  1  0.326243  0.163122  0.422973  1
  Al  Al13  1  0.836949  0.163426  0.422942  1
  Al  Al14  1  0.836949  0.673524  0.422942  1
  Al  Al15  1  0.673150  0.836575  0.576241  1
  Al  Al16  1  0.163549  0.836835  0.575982  1
  Al  Al17  1  0.163549  0.326713  0.575982  1
  Al  Al18  1  0.673150  0.836575  0.923759  1
  Al  Al19  1  0.163549  0.836835  0.924018  1
  Al  Al20  1  0.163549  0.326713  0.924018  1
  Al  Al21  1  0.326243  0.163122  0.077027  1
  Al  Al22  1  0.836949  0.163426  0.077058  1
  Al  Al23  1  0.836949  0.673524  0.077058  1
  Al  Al24  1  0.666632  0.333316  0.528566  1
  Al  Al25  1  0.332724  0.666363  0.470238  1
  Al  Al26  1  0.332724  0.666363  0.029762  1
  Al  Al27  1  0.666632  0.333316  0.971434  1
  Al  Al28  1  0.000971  0.000486  0.250000  1
  Al  Al29  1  0.000142  0.000071  0.750000  1
  Ru  Ru30  1  0.999928  0.999964  0.500016  1
  Ru  Ru31  1  0.999928  0.999964  0.999984  1
  Rh  Rh32  1  0.499423  0.499893  0.499583  1
  Rh  Rh33  1  0.499423  0.999530  0.499583  1
  Rh  Rh34  1  0.000406  0.500203  0.499424  1
  Rh  Rh35  1  0.499423  0.499893  0.000417  1
  Rh  Rh36  1  0.499423  0.999530  0.000417  1
  Rh  Rh37  1  0.000406  0.500203  0.000576  1
