# generated using pymatgen
data_Tb8Lu8Sc3Si16Tc
_symmetry_space_group_name_H-M   'P 1'
_cell_length_a   7.14137807
_cell_length_b   7.55291984
_cell_length_c   14.18393900
_cell_angle_alpha   90.00000000
_cell_angle_beta   90.00000000
_cell_angle_gamma   90.11376883
_symmetry_Int_Tables_number   1
_chemical_formula_structural   Tb8Lu8Sc3Si16Tc
_chemical_formula_sum   'Tb8 Lu8 Sc3 Si16 Tc1'
_cell_volume   765.05542624
_cell_formula_units_Z   1
loop_
 _symmetry_equiv_pos_site_id
 _symmetry_equiv_pos_as_xyz
  1  'x, y, z'
loop_
 _atom_site_type_symbol
 _atom_site_label
 _atom_site_symmetry_multiplicity
 _atom_site_fract_x
 _atom_site_fract_y
 _atom_site_fract_z
 _atom_site_occupancy
  Tb  Tb0  1  0.017192  0.181511  0.094080  1
  Tb  Tb1  1  0.988185  0.814247  0.899622  1
  Tb  Tb2  1  0.482439  0.675832  0.902504  1
  Tb  Tb3  1  0.988185  0.814247  0.600378  1
  Tb  Tb4  1  0.517555  0.319054  0.096678  1
  Tb  Tb5  1  0.017192  0.181511  0.405920  1
  Tb  Tb6  1  0.517555  0.319054  0.403322  1
  Tb  Tb7  1  0.482439  0.675832  0.597496  1
  Lu  Lu8  1  0.320210  0.179523  0.628287  1
  Lu  Lu9  1  0.679232  0.824446  0.374505  1
  Lu  Lu10  1  0.178402  0.674106  0.376511  1
  Lu  Lu11  1  0.679232  0.824446  0.125495  1
  Lu  Lu12  1  0.821542  0.330371  0.629285  1
  Lu  Lu13  1  0.320210  0.179523  0.871713  1
  Lu  Lu14  1  0.821542  0.330371  0.870715  1
  Lu  Lu15  1  0.178402  0.674106  0.123489  1
  Sc  Sc16  1  0.846351  0.490288  0.250000  1
  Sc  Sc17  1  0.346963  0.010248  0.250000  1
  Sc  Sc18  1  0.651092  0.985044  0.750000  1
  Si  Si19  1  0.017355  0.101548  0.750000  1
  Si  Si20  1  0.983784  0.897391  0.250000  1
  Si  Si21  1  0.479424  0.605289  0.250000  1
  Si  Si22  1  0.507266  0.409623  0.750000  1
  Si  Si23  1  0.280078  0.855431  0.750000  1
  Si  Si24  1  0.722309  0.134878  0.250000  1
  Si  Si25  1  0.218421  0.365962  0.250000  1
  Si  Si26  1  0.787244  0.634001  0.750000  1
  Si  Si27  1  0.152249  0.470772  0.548339  1
  Si  Si28  1  0.845956  0.532651  0.462630  1
  Si  Si29  1  0.349020  0.968214  0.462435  1
  Si  Si30  1  0.845956  0.532651  0.037370  1
  Si  Si31  1  0.654756  0.031957  0.540986  1
  Si  Si32  1  0.152249  0.470772  0.951661  1
  Si  Si33  1  0.654756  0.031957  0.959014  1
  Si  Si34  1  0.349020  0.968214  0.037565  1
  Tc  Tc35  1  0.146240  0.504928  0.750000  1
