# generated using pymatgen
data_Hf4NbSi4
_symmetry_space_group_name_H-M   'P 1'
_cell_length_a   7.00549200
_cell_length_b   7.00549200
_cell_length_c   12.79811100
_cell_angle_alpha   90.00000000
_cell_angle_beta   90.00000000
_cell_angle_gamma   90.00000000
_symmetry_Int_Tables_number   1
_chemical_formula_structural   Hf4NbSi4
_chemical_formula_sum   'Hf16 Nb4 Si16'
_cell_volume   628.09184618
_cell_formula_units_Z   4
loop_
 _symmetry_equiv_pos_site_id
 _symmetry_equiv_pos_as_xyz
  1  'x, y, z'
loop_
 _atom_site_type_symbol
 _atom_site_label
 _atom_site_symmetry_multiplicity
 _atom_site_fract_x
 _atom_site_fract_y
 _atom_site_fract_z
 _atom_site_occupancy
  Hf  Hf0  1  0.497685  0.153141  0.531875  1
  Hf  Hf1  1  0.502315  0.846859  0.031875  1
  Hf  Hf2  1  0.653141  0.002315  0.281875  1
  Hf  Hf3  1  0.346859  0.997685  0.781875  1
  Hf  Hf4  1  0.846859  0.502315  0.968125  1
  Hf  Hf5  1  0.153141  0.497685  0.468125  1
  Hf  Hf6  1  0.002315  0.653141  0.718125  1
  Hf  Hf7  1  0.997685  0.346859  0.218125  1
  Hf  Hf8  1  0.497166  0.354938  0.126182  1
  Hf  Hf9  1  0.502834  0.645062  0.626182  1
  Hf  Hf10  1  0.854938  0.002834  0.876182  1
  Hf  Hf11  1  0.145062  0.997166  0.376182  1
  Hf  Hf12  1  0.645062  0.502834  0.373818  1
  Hf  Hf13  1  0.354938  0.497166  0.873818  1
  Hf  Hf14  1  0.002834  0.854938  0.123818  1
  Hf  Hf15  1  0.997166  0.145062  0.623818  1
  Nb  Nb16  1  0.675254  0.324746  0.750000  1
  Nb  Nb17  1  0.324746  0.675254  0.250000  1
  Nb  Nb18  1  0.824746  0.824746  0.500000  1
  Nb  Nb19  1  0.175254  0.175254  0.000000  1
  Si  Si20  1  0.797024  0.147041  0.072335  1
  Si  Si21  1  0.202976  0.852959  0.572335  1
  Si  Si22  1  0.647041  0.702976  0.822335  1
  Si  Si23  1  0.352959  0.297024  0.322335  1
  Si  Si24  1  0.852959  0.202976  0.427665  1
  Si  Si25  1  0.147041  0.797024  0.927665  1
  Si  Si26  1  0.702976  0.647041  0.177665  1
  Si  Si27  1  0.297024  0.352959  0.677665  1
  Si  Si28  1  0.548059  0.197815  0.935442  1
  Si  Si29  1  0.451941  0.802185  0.435442  1
  Si  Si30  1  0.697815  0.951941  0.685442  1
  Si  Si31  1  0.302185  0.048059  0.185442  1
  Si  Si32  1  0.802185  0.451941  0.564558  1
  Si  Si33  1  0.197815  0.548059  0.064558  1
  Si  Si34  1  0.951941  0.697815  0.314558  1
  Si  Si35  1  0.048059  0.302185  0.814558  1
