# generated using pymatgen
data_Ho20Sn5Pb11
_symmetry_space_group_name_H-M   'P 1'
_cell_length_a   8.14391852
_cell_length_b   15.54369400
_cell_length_c   8.19746256
_cell_angle_alpha   90.00000000
_cell_angle_beta   90.07034705
_cell_angle_gamma   90.00000000
_symmetry_Int_Tables_number   1
_chemical_formula_structural   Ho20Sn5Pb11
_chemical_formula_sum   'Ho20 Sn5 Pb11'
_cell_volume   1037.68794691
_cell_formula_units_Z   1
loop_
 _symmetry_equiv_pos_site_id
 _symmetry_equiv_pos_as_xyz
  1  'x, y, z'
loop_
 _atom_site_type_symbol
 _atom_site_label
 _atom_site_symmetry_multiplicity
 _atom_site_fract_x
 _atom_site_fract_y
 _atom_site_fract_z
 _atom_site_occupancy
  Ho  Ho0  1  0.621527  0.623356  0.160916  1
  Ho  Ho1  1  0.121255  0.876778  0.337323  1
  Ho  Ho2  1  0.378212  0.122694  0.837448  1
  Ho  Ho3  1  0.878500  0.377509  0.662218  1
  Ho  Ho4  1  0.378212  0.377306  0.837448  1
  Ho  Ho5  1  0.878500  0.122491  0.662218  1
  Ho  Ho6  1  0.621527  0.876644  0.160916  1
  Ho  Ho7  1  0.121255  0.623222  0.337323  1
  Ho  Ho8  1  0.466570  0.603156  0.675449  1
  Ho  Ho9  1  0.961875  0.897959  0.826810  1
  Ho  Ho10  1  0.535102  0.100372  0.326500  1
  Ho  Ho11  1  0.035671  0.399242  0.173220  1
  Ho  Ho12  1  0.535102  0.399628  0.326500  1
  Ho  Ho13  1  0.035671  0.100758  0.173220  1
  Ho  Ho14  1  0.466570  0.896844  0.675449  1
  Ho  Ho15  1  0.961875  0.602041  0.826810  1
  Ho  Ho16  1  0.787999  0.750000  0.495323  1
  Ho  Ho17  1  0.291770  0.750000  0.005594  1
  Ho  Ho18  1  0.210284  0.250000  0.507532  1
  Ho  Ho19  1  0.710365  0.250000  0.992647  1
  Sn  Sn20  1  0.425619  0.750000  0.376441  1
  Sn  Sn21  1  0.925094  0.750000  0.121229  1
  Sn  Sn22  1  0.574343  0.250000  0.622928  1
  Sn  Sn23  1  0.074019  0.250000  0.876706  1
  Sn  Sn24  1  0.657100  0.750000  0.850482  1
  Pb  Pb25  1  0.716901  0.458382  0.967532  1
  Pb  Pb26  1  0.217164  0.040815  0.532979  1
  Pb  Pb27  1  0.282819  0.958310  0.032484  1
  Pb  Pb28  1  0.782975  0.541760  0.466776  1
  Pb  Pb29  1  0.282819  0.541690  0.032484  1
  Pb  Pb30  1  0.782975  0.958240  0.466776  1
  Pb  Pb31  1  0.716901  0.041618  0.967532  1
  Pb  Pb32  1  0.217164  0.459185  0.532979  1
  Pb  Pb33  1  0.153488  0.750000  0.651426  1
  Pb  Pb34  1  0.346572  0.250000  0.152466  1
  Pb  Pb35  1  0.846205  0.250000  0.347914  1
