# generated using pymatgen
data_U2VFe2(Ni3B)6
_symmetry_space_group_name_H-M   'P 1'
_cell_length_a   7.50667660
_cell_length_b   7.55918329
_cell_length_c   7.55918400
_cell_angle_alpha   59.99999691
_cell_angle_beta   59.76834421
_cell_angle_gamma   59.76835150
_symmetry_Int_Tables_number   1
_chemical_formula_structural   U2VFe2(Ni3B)6
_chemical_formula_sum   'U2 V1 Fe2 Ni18 B6'
_cell_volume   302.24069283
_cell_formula_units_Z   1
loop_
 _symmetry_equiv_pos_site_id
 _symmetry_equiv_pos_as_xyz
  1  'x, y, z'
loop_
 _atom_site_type_symbol
 _atom_site_label
 _atom_site_symmetry_multiplicity
 _atom_site_fract_x
 _atom_site_fract_y
 _atom_site_fract_z
 _atom_site_occupancy
  U  U0  1  0.237248  0.254251  0.254251  1
  U  U1  1  0.762752  0.745749  0.745749  1
  V  V2  1  0.000000  0.000000  0.000000  1
  Fe  Fe3  1  0.881372  0.372876  0.372876  1
  Fe  Fe4  1  0.118628  0.627124  0.627124  1
  Ni  Ni5  1  0.344785  0.996539  0.996539  1
  Ni  Ni6  1  0.655215  0.003461  0.003461  1
  Ni  Ni7  1  0.000000  0.336868  0.663132  1
  Ni  Ni8  1  0.000000  0.663132  0.336868  1
  Ni  Ni9  1  0.000000  0.336868  0.000000  1
  Ni  Ni10  1  0.655215  0.003461  0.337863  1
  Ni  Ni11  1  0.000000  0.663132  0.000000  1
  Ni  Ni12  1  0.344785  0.996539  0.662137  1
  Ni  Ni13  1  0.000000  0.000000  0.336868  1
  Ni  Ni14  1  0.000000  0.000000  0.663132  1
  Ni  Ni15  1  0.655215  0.337863  0.003461  1
  Ni  Ni16  1  0.344785  0.662137  0.996539  1
  Ni  Ni17  1  0.381748  0.389634  0.389634  1
  Ni  Ni18  1  0.618252  0.610366  0.610366  1
  Ni  Ni19  1  0.381748  0.389634  0.838986  1
  Ni  Ni20  1  0.381748  0.838986  0.389634  1
  Ni  Ni21  1  0.618252  0.610366  0.161014  1
  Ni  Ni22  1  0.618252  0.161014  0.610366  1
  B  B23  1  0.731898  0.265905  0.265905  1
  B  B24  1  0.268102  0.734095  0.734095  1
  B  B25  1  0.268102  0.734095  0.263708  1
  B  B26  1  0.731898  0.265905  0.736292  1
  B  B27  1  0.268102  0.263708  0.734095  1
  B  B28  1  0.731898  0.736292  0.265905  1
