# generated using pymatgen
data_Hf2Sc3(Re2Tc)8
_symmetry_space_group_name_H-M   'P 1'
_cell_length_a   8.45708929
_cell_length_b   8.45512105
_cell_length_c   8.44804709
_cell_angle_alpha   109.51183297
_cell_angle_beta   109.47117557
_cell_angle_gamma   109.56035084
_symmetry_Int_Tables_number   1
_chemical_formula_structural   Hf2Sc3(Re2Tc)8
_chemical_formula_sum   'Hf2 Sc3 Re16 Tc8'
_cell_volume   464.27776062
_cell_formula_units_Z   1
loop_
 _symmetry_equiv_pos_site_id
 _symmetry_equiv_pos_as_xyz
  1  'x, y, z'
loop_
 _atom_site_type_symbol
 _atom_site_label
 _atom_site_symmetry_multiplicity
 _atom_site_fract_x
 _atom_site_fract_y
 _atom_site_fract_z
 _atom_site_occupancy
  Hf  Hf0  1  0.001662  0.999919  0.629107  1
  Hf  Hf1  1  0.370072  0.370246  0.370390  1
  Sc  Sc2  1  0.997159  0.997447  0.999282  1
  Sc  Sc3  1  0.627574  0.999881  0.999420  1
  Sc  Sc4  1  0.999655  0.627694  0.999953  1
  Re  Re5  1  0.675721  0.999641  0.396530  1
  Re  Re6  1  0.603366  0.602721  0.277898  1
  Re  Re7  1  0.279151  0.603625  0.604083  1
  Re  Re8  1  0.603529  0.278525  0.603993  1
  Re  Re9  1  0.377514  0.195162  0.000754  1
  Re  Re10  1  0.183136  0.807831  0.808311  1
  Re  Re11  1  0.375160  0.000090  0.192282  1
  Re  Re12  1  0.194961  0.377917  0.001038  1
  Re  Re13  1  0.000184  0.376410  0.192956  1
  Re  Re14  1  0.808496  0.183187  0.807999  1
  Re  Re15  1  0.808542  0.808839  0.183552  1
  Re  Re16  1  0.000348  0.194412  0.377210  1
  Re  Re17  1  0.193694  0.000417  0.377218  1
  Re  Re18  1  0.623208  0.623084  0.814385  1
  Re  Re19  1  0.815048  0.621781  0.622183  1
  Re  Re20  1  0.622713  0.815725  0.622118  1
  Tc  Tc21  1  0.397269  0.677275  0.000349  1
  Tc  Tc22  1  0.720802  0.322532  0.323224  1
  Tc  Tc23  1  0.397136  0.999729  0.676713  1
  Tc  Tc24  1  0.677076  0.397067  0.000295  1
  Tc  Tc25  1  0.000411  0.397637  0.676741  1
  Tc  Tc26  1  0.323264  0.721427  0.323872  1
  Tc  Tc27  1  0.323490  0.323467  0.721496  1
  Tc  Tc28  1  0.999660  0.676314  0.396651  1
