# generated using pymatgen
data_ZrTa2Be9
_symmetry_space_group_name_H-M   'P 1'
_cell_length_a   7.61063861
_cell_length_b   7.61063882
_cell_length_c   7.61063935
_cell_angle_alpha   35.34150873
_cell_angle_beta   35.34150849
_cell_angle_gamma   35.34150466
_symmetry_Int_Tables_number   1
_chemical_formula_structural   ZrTa2Be9
_chemical_formula_sum   'Zr1 Ta2 Be9'
_cell_volume   131.77742787
_cell_formula_units_Z   1
loop_
 _symmetry_equiv_pos_site_id
 _symmetry_equiv_pos_as_xyz
  1  'x, y, z'
loop_
 _atom_site_type_symbol
 _atom_site_label
 _atom_site_symmetry_multiplicity
 _atom_site_fract_x
 _atom_site_fract_y
 _atom_site_fract_z
 _atom_site_occupancy
  Zr  Zr0  1  0.000000  0.000000  0.000000  1
  Ta  Ta1  1  0.857330  0.857330  0.857330  1
  Ta  Ta2  1  0.142670  0.142670  0.142670  1
  Be  Be3  1  0.413233  0.923801  0.413233  1
  Be  Be4  1  0.413233  0.413233  0.923801  1
  Be  Be5  1  0.923801  0.413233  0.413233  1
  Be  Be6  1  0.586767  0.076199  0.586767  1
  Be  Be7  1  0.586767  0.586767  0.076199  1
  Be  Be8  1  0.076199  0.586767  0.586767  1
  Be  Be9  1  0.664793  0.664793  0.664793  1
  Be  Be10  1  0.335207  0.335207  0.335207  1
  Be  Be11  1  0.500000  0.500000  0.500000  1
