# generated using pymatgen
data_Dy4MoWC4
_symmetry_space_group_name_H-M   'P 1'
_cell_length_a   5.74200700
_cell_length_b   5.74219900
_cell_length_c   9.89533900
_cell_angle_alpha   90.00000000
_cell_angle_beta   90.00000000
_cell_angle_gamma   90.00000000
_symmetry_Int_Tables_number   1
_chemical_formula_structural   Dy4MoWC4
_chemical_formula_sum   'Dy8 Mo2 W2 C8'
_cell_volume   326.26661254
_cell_formula_units_Z   2
loop_
 _symmetry_equiv_pos_site_id
 _symmetry_equiv_pos_as_xyz
  1  'x, y, z'
loop_
 _atom_site_type_symbol
 _atom_site_label
 _atom_site_symmetry_multiplicity
 _atom_site_fract_x
 _atom_site_fract_y
 _atom_site_fract_z
 _atom_site_occupancy
  Dy  Dy0  1  0.201329  0.800135  0.156846  1
  Dy  Dy1  1  0.800364  0.201051  0.842893  1
  Dy  Dy2  1  0.201329  0.800135  0.843154  1
  Dy  Dy3  1  0.298671  0.300135  0.343154  1
  Dy  Dy4  1  0.699636  0.701051  0.342893  1
  Dy  Dy5  1  0.298671  0.300135  0.656846  1
  Dy  Dy6  1  0.800364  0.201051  0.157107  1
  Dy  Dy7  1  0.699636  0.701051  0.657107  1
  Mo  Mo8  1  0.677659  0.677175  0.000000  1
  Mo  Mo9  1  0.822341  0.177175  0.500000  1
  W  W10  1  0.323600  0.323145  0.000000  1
  W  W11  1  0.176400  0.823145  0.500000  1
  C  C12  1  0.000355  0.501281  0.500000  1
  C  C13  1  0.001319  0.998351  0.345821  1
  C  C14  1  0.499645  0.001281  0.000000  1
  C  C15  1  0.001319  0.998351  0.654179  1
  C  C16  1  0.498681  0.498351  0.845821  1
  C  C17  1  0.498681  0.498351  0.154179  1
  C  C18  1  0.498781  0.999325  0.500000  1
  C  C19  1  0.001219  0.499325  0.000000  1
