# generated using pymatgen
data_Sr2LuMoO6
_symmetry_space_group_name_H-M   'P 1'
_cell_length_a   5.78608602
_cell_length_b   5.83826100
_cell_length_c   8.27134702
_cell_angle_alpha   89.99887613
_cell_angle_beta   90.57441331
_cell_angle_gamma   90.00040841
_symmetry_Int_Tables_number   1
_chemical_formula_structural   Sr2LuMoO6
_chemical_formula_sum   'Sr4 Lu2 Mo2 O12'
_cell_volume   279.39768818
_cell_formula_units_Z   2
loop_
 _symmetry_equiv_pos_site_id
 _symmetry_equiv_pos_as_xyz
  1  'x, y, z'
loop_
 _atom_site_type_symbol
 _atom_site_label
 _atom_site_symmetry_multiplicity
 _atom_site_fract_x
 _atom_site_fract_y
 _atom_site_fract_z
 _atom_site_occupancy
  Sr  Sr0  1  0.005596  0.032963  0.248630  1
  Sr  Sr1  1  0.494416  0.532975  0.251369  1
  Sr  Sr2  1  0.994370  0.967017  0.751385  1
  Sr  Sr3  1  0.505611  0.467028  0.748639  1
  Lu  Lu4  1  0.499999  0.999944  0.999948  1
  Lu  Lu5  1  0.000090  0.500043  0.500056  1
  Mo  Mo6  1  0.500007  0.000008  0.499976  1
  Mo  Mo7  1  0.999992  0.499989  0.000026  1
  O  O8  1  0.927373  0.482799  0.240604  1
  O  O9  1  0.572617  0.982733  0.259363  1
  O  O10  1  0.072648  0.517215  0.759418  1
  O  O11  1  0.427327  0.017233  0.740602  1
  O  O12  1  0.205571  0.777612  0.040816  1
  O  O13  1  0.294431  0.277587  0.459168  1
  O  O14  1  0.794412  0.222436  0.959188  1
  O  O15  1  0.705588  0.722410  0.540825  1
  O  O16  1  0.268478  0.300283  0.033662  1
  O  O17  1  0.231508  0.800274  0.466345  1
  O  O18  1  0.731467  0.699723  0.966324  1
  O  O19  1  0.768502  0.199729  0.533656  1
