# generated using pymatgen
data_Er3ThCoAg
_symmetry_space_group_name_H-M   'P 1'
_cell_length_a   9.39909162
_cell_length_b   9.39909267
_cell_length_c   9.39909300
_cell_angle_alpha   60.00000235
_cell_angle_beta   59.99999865
_cell_angle_gamma   59.99999671
_symmetry_Int_Tables_number   1
_chemical_formula_structural   Er3ThCoAg
_chemical_formula_sum   'Er12 Th4 Co4 Ag4'
_cell_volume   587.14146984
_cell_formula_units_Z   4
loop_
 _symmetry_equiv_pos_site_id
 _symmetry_equiv_pos_as_xyz
  1  'x, y, z'
loop_
 _atom_site_type_symbol
 _atom_site_label
 _atom_site_symmetry_multiplicity
 _atom_site_fract_x
 _atom_site_fract_y
 _atom_site_fract_z
 _atom_site_occupancy
  Er  Er0  1  0.062320  0.437680  0.437680  1
  Er  Er1  1  0.437680  0.062320  0.062320  1
  Er  Er2  1  0.437680  0.062320  0.437680  1
  Er  Er3  1  0.062320  0.437680  0.062320  1
  Er  Er4  1  0.437680  0.437680  0.062320  1
  Er  Er5  1  0.062320  0.062320  0.437680  1
  Er  Er6  1  0.184271  0.815729  0.815729  1
  Er  Er7  1  0.815729  0.184271  0.184271  1
  Er  Er8  1  0.815729  0.184271  0.815729  1
  Er  Er9  1  0.184271  0.815729  0.184271  1
  Er  Er10  1  0.815729  0.815729  0.184271  1
  Er  Er11  1  0.184271  0.184271  0.815729  1
  Th  Th12  1  0.597403  0.597403  0.597403  1
  Th  Th13  1  0.597403  0.597403  0.207792  1
  Th  Th14  1  0.597403  0.207792  0.597403  1
  Th  Th15  1  0.207792  0.597403  0.597403  1
  Co  Co16  1  0.394024  0.394024  0.394024  1
  Co  Co17  1  0.394024  0.394024  0.817927  1
  Co  Co18  1  0.394024  0.817927  0.394024  1
  Co  Co19  1  0.817927  0.394024  0.394024  1
  Ag  Ag20  1  0.832771  0.832771  0.832771  1
  Ag  Ag21  1  0.832771  0.832771  0.501689  1
  Ag  Ag22  1  0.832771  0.501689  0.832771  1
  Ag  Ag23  1  0.501689  0.832771  0.832771  1
