# generated using pymatgen
data_TbLu2Ga5Rh
_symmetry_space_group_name_H-M   'P 1'
_cell_length_a   6.85395100
_cell_length_b   6.89200189
_cell_length_c   4.27245700
_cell_angle_alpha   90.00000000
_cell_angle_beta   90.00000000
_cell_angle_gamma   119.81752871
_symmetry_Int_Tables_number   1
_chemical_formula_structural   TbLu2Ga5Rh
_chemical_formula_sum   'Tb1 Lu2 Ga5 Rh1'
_cell_volume   175.10168308
_cell_formula_units_Z   1
loop_
 _symmetry_equiv_pos_site_id
 _symmetry_equiv_pos_as_xyz
  1  'x, y, z'
loop_
 _atom_site_type_symbol
 _atom_site_label
 _atom_site_symmetry_multiplicity
 _atom_site_fract_x
 _atom_site_fract_y
 _atom_site_fract_z
 _atom_site_occupancy
  Tb  Tb0  1  0.587328  0.000000  0.500000  1
  Lu  Lu1  1  0.406966  0.408415  0.500000  1
  Lu  Lu2  1  0.998550  0.591585  0.500000  1
  Ga  Ga3  1  0.239579  0.000000  0.000000  1
  Ga  Ga4  1  0.999792  0.237945  0.000000  1
  Ga  Ga5  1  0.668467  0.337447  0.000000  1
  Ga  Ga6  1  0.331018  0.662553  0.000000  1
  Ga  Ga7  1  0.761847  0.762055  0.000000  1
  Rh  Rh8  1  0.006452  0.000000  0.500000  1
