# generated using pymatgen
data_Sr10TcPN10
_symmetry_space_group_name_H-M   'P 1'
_cell_length_a   7.61804146
_cell_length_b   7.61804157
_cell_length_c   8.93434423
_cell_angle_alpha   76.31291348
_cell_angle_beta   76.31291332
_cell_angle_gamma   96.22988622
_symmetry_Int_Tables_number   1
_chemical_formula_structural   Sr10TcPN10
_chemical_formula_sum   'Sr10 Tc1 P1 N10'
_cell_volume   481.98121662
_cell_formula_units_Z   1
loop_
 _symmetry_equiv_pos_site_id
 _symmetry_equiv_pos_as_xyz
  1  'x, y, z'
loop_
 _atom_site_type_symbol
 _atom_site_label
 _atom_site_symmetry_multiplicity
 _atom_site_fract_x
 _atom_site_fract_y
 _atom_site_fract_z
 _atom_site_occupancy
  Sr  Sr0  1  0.385310  0.401179  0.382866  1
  Sr  Sr1  1  0.598821  0.614690  0.617134  1
  Sr  Sr2  1  0.670151  0.668234  0.009488  1
  Sr  Sr3  1  0.331766  0.329849  0.990512  1
  Sr  Sr4  1  0.933617  0.914530  0.202749  1
  Sr  Sr5  1  0.085470  0.066383  0.797251  1
  Sr  Sr6  1  0.547669  0.084290  0.755372  1
  Sr  Sr7  1  0.915710  0.452331  0.244628  1
  Sr  Sr8  1  0.430612  0.894133  0.242792  1
  Sr  Sr9  1  0.105867  0.569388  0.757208  1
  Tc  Tc10  1  0.756790  0.243210  0.000000  1
  P  P11  1  0.242420  0.757580  0.000000  1
  N  N12  1  0.657766  0.658600  0.315023  1
  N  N13  1  0.341400  0.342234  0.684977  1
  N  N14  1  0.717344  0.010288  0.980320  1
  N  N15  1  0.989712  0.282656  0.019680  1
  N  N16  1  0.279307  0.976600  0.010732  1
  N  N17  1  0.023400  0.720693  0.989268  1
  N  N18  1  0.390456  0.729951  0.837158  1
  N  N19  1  0.270049  0.609544  0.162841  1
  N  N20  1  0.591452  0.265089  0.177309  1
  N  N21  1  0.734911  0.408548  0.822690  1
