# generated using pymatgen
data_Rb3TmAs2
_symmetry_space_group_name_H-M   'P 1'
_cell_length_a   9.61314890
_cell_length_b   9.61315042
_cell_length_c   9.61315043
_cell_angle_alpha   128.23360663
_cell_angle_beta   70.91368425
_cell_angle_gamma   135.08239961
_symmetry_Int_Tables_number   1
_chemical_formula_structural   Rb3TmAs2
_chemical_formula_sum   'Rb6 Tm2 As4'
_cell_volume   482.70666205
_cell_formula_units_Z   2
loop_
 _symmetry_equiv_pos_site_id
 _symmetry_equiv_pos_as_xyz
  1  'x, y, z'
loop_
 _atom_site_type_symbol
 _atom_site_label
 _atom_site_symmetry_multiplicity
 _atom_site_fract_x
 _atom_site_fract_y
 _atom_site_fract_z
 _atom_site_occupancy
  Rb  Rb0  1  0.810883  0.202079  0.012963  1
  Rb  Rb1  1  0.689117  0.702079  0.391196  1
  Rb  Rb2  1  0.750000  0.250001  0.500000  1
  Rb  Rb3  1  0.250001  0.750001  0.500000  1
  Rb  Rb4  1  0.310883  0.297921  0.608803  1
  Rb  Rb5  1  0.189117  0.797921  0.987037  1
  Tm  Tm6  1  0.250001  0.250001  0.000000  1
  Tm  Tm7  1  0.750001  0.750001  0.000000  1
  As  As8  1  0.405912  0.686081  0.091994  1
  As  As9  1  0.094088  0.186081  0.280167  1
  As  As10  1  0.905912  0.813919  0.719833  1
  As  As11  1  0.594087  0.313919  0.908006  1
