# generated using pymatgen
data_Ba2PBrO4
_symmetry_space_group_name_H-M   'P 1'
_cell_length_a   9.30389300
_cell_length_b   9.05591015
_cell_length_c   9.44604380
_cell_angle_alpha   65.32361814
_cell_angle_beta   90.00000000
_cell_angle_gamma   90.00000000
_symmetry_Int_Tables_number   1
_chemical_formula_structural   Ba2PBrO4
_chemical_formula_sum   'Ba8 P4 Br4 O16'
_cell_volume   723.19914550
_cell_formula_units_Z   4
loop_
 _symmetry_equiv_pos_site_id
 _symmetry_equiv_pos_as_xyz
  1  'x, y, z'
loop_
 _atom_site_type_symbol
 _atom_site_label
 _atom_site_symmetry_multiplicity
 _atom_site_fract_x
 _atom_site_fract_y
 _atom_site_fract_z
 _atom_site_occupancy
  Ba  Ba0  1  0.305641  0.451161  0.160640  1
  Ba  Ba1  1  0.805641  0.048839  0.839360  1
  Ba  Ba2  1  0.694359  0.548839  0.839360  1
  Ba  Ba3  1  0.194359  0.951161  0.160640  1
  Ba  Ba4  1  0.328991  0.969284  0.737935  1
  Ba  Ba5  1  0.828991  0.530716  0.262065  1
  Ba  Ba6  1  0.671009  0.030716  0.262065  1
  Ba  Ba7  1  0.171009  0.469284  0.737935  1
  P  P8  1  0.055088  0.740643  0.958779  1
  P  P9  1  0.555088  0.759357  0.041221  1
  P  P10  1  0.944912  0.259357  0.041221  1
  P  P11  1  0.444912  0.240643  0.958779  1
  Br  Br12  1  0.900770  0.725202  0.496436  1
  Br  Br13  1  0.400770  0.774798  0.503564  1
  Br  Br14  1  0.099230  0.274798  0.503564  1
  Br  Br15  1  0.599230  0.225202  0.496436  1
  O  O16  1  0.083852  0.659596  0.139079  1
  O  O17  1  0.583852  0.840404  0.860921  1
  O  O18  1  0.916148  0.340404  0.860921  1
  O  O19  1  0.416148  0.159596  0.139079  1
  O  O20  1  0.104212  0.288068  0.070037  1
  O  O21  1  0.604212  0.211932  0.929963  1
  O  O22  1  0.895788  0.711932  0.929963  1
  O  O23  1  0.395788  0.788068  0.070037  1
  O  O24  1  0.664633  0.826666  0.124186  1
  O  O25  1  0.164633  0.673334  0.875814  1
  O  O26  1  0.335367  0.173334  0.875814  1
  O  O27  1  0.835367  0.326666  0.124186  1
  O  O28  1  0.417902  0.427651  0.898517  1
  O  O29  1  0.917902  0.072349  0.101483  1
  O  O30  1  0.582098  0.572349  0.101483  1
  O  O31  1  0.082098  0.927651  0.898517  1
