# generated using pymatgen
data_Er4TcMoOs6
_symmetry_space_group_name_H-M   'P 1'
_cell_length_a   5.23166604
_cell_length_b   5.23166547
_cell_length_c   8.92056000
_cell_angle_alpha   90.00000000
_cell_angle_beta   90.00000000
_cell_angle_gamma   116.87682228
_symmetry_Int_Tables_number   1
_chemical_formula_structural   Er4TcMoOs6
_chemical_formula_sum   'Er4 Tc1 Mo1 Os6'
_cell_volume   217.78474107
_cell_formula_units_Z   1
loop_
 _symmetry_equiv_pos_site_id
 _symmetry_equiv_pos_as_xyz
  1  'x, y, z'
loop_
 _atom_site_type_symbol
 _atom_site_label
 _atom_site_symmetry_multiplicity
 _atom_site_fract_x
 _atom_site_fract_y
 _atom_site_fract_z
 _atom_site_occupancy
  Er  Er0  1  0.329197  0.670803  0.437137  1
  Er  Er1  1  0.667465  0.332535  0.564428  1
  Er  Er2  1  0.667465  0.332535  0.935572  1
  Er  Er3  1  0.329197  0.670803  0.062863  1
  Tc  Tc4  1  0.176529  0.823471  0.750000  1
  Mo  Mo5  1  0.831992  0.168008  0.250000  1
  Os  Os6  1  0.996789  0.003211  0.501882  1
  Os  Os7  1  0.996789  0.003211  0.998118  1
  Os  Os8  1  0.825949  0.654366  0.250000  1
  Os  Os9  1  0.345634  0.174051  0.250000  1
  Os  Os10  1  0.172830  0.339833  0.750000  1
  Os  Os11  1  0.660167  0.827170  0.750000  1
