# generated using pymatgen
data_Sr2MnFeF10
_symmetry_space_group_name_H-M   'P 1'
_cell_length_a   5.78321116
_cell_length_b   5.82035524
_cell_length_c   8.13422109
_cell_angle_alpha   69.27959557
_cell_angle_beta   70.27065056
_cell_angle_gamma   70.87654998
_symmetry_Int_Tables_number   1
_chemical_formula_structural   Sr2MnFeF10
_chemical_formula_sum   'Sr2 Mn1 Fe1 F10'
_cell_volume   234.22254803
_cell_formula_units_Z   1
loop_
 _symmetry_equiv_pos_site_id
 _symmetry_equiv_pos_as_xyz
  1  'x, y, z'
loop_
 _atom_site_type_symbol
 _atom_site_label
 _atom_site_symmetry_multiplicity
 _atom_site_fract_x
 _atom_site_fract_y
 _atom_site_fract_z
 _atom_site_occupancy
  Sr  Sr0  1  0.545728  0.453234  0.253439  1
  Sr  Sr1  1  0.454272  0.546766  0.746561  1
  Mn  Mn2  1  0.000000  0.000000  0.000000  1
  Fe  Fe3  1  0.000000  0.000000  0.500000  1
  F  F4  1  0.075113  0.924272  0.739854  1
  F  F5  1  0.924887  0.075728  0.260146  1
  F  F6  1  0.203464  0.230244  0.892760  1
  F  F7  1  0.762660  0.790722  0.611827  1
  F  F8  1  0.718713  0.297493  0.531507  1
  F  F9  1  0.707608  0.275600  0.972844  1
  F  F10  1  0.281287  0.702507  0.468493  1
  F  F11  1  0.292392  0.724400  0.027156  1
  F  F12  1  0.237340  0.209278  0.388173  1
  F  F13  1  0.796536  0.769756  0.107240  1
