# generated using pymatgen
data_SiTc9(MoP)3
_symmetry_space_group_name_H-M   'P 1'
_cell_length_a   7.25110964
_cell_length_b   7.20908996
_cell_length_c   7.25072192
_cell_angle_alpha   97.25932814
_cell_angle_beta   96.14816815
_cell_angle_gamma   140.51199390
_symmetry_Int_Tables_number   1
_chemical_formula_structural   SiTc9(MoP)3
_chemical_formula_sum   'Si1 Tc9 Mo3 P3'
_cell_volume   226.16748344
_cell_formula_units_Z   1
loop_
 _symmetry_equiv_pos_site_id
 _symmetry_equiv_pos_as_xyz
  1  'x, y, z'
loop_
 _atom_site_type_symbol
 _atom_site_label
 _atom_site_symmetry_multiplicity
 _atom_site_fract_x
 _atom_site_fract_y
 _atom_site_fract_z
 _atom_site_occupancy
  Si  Si0  1  0.213992  0.501307  0.714291  1
  Tc  Tc1  1  0.647850  0.000619  0.647716  1
  Tc  Tc2  1  0.490497  0.079300  0.995202  1
  Tc  Tc3  1  0.915850  0.919437  0.410892  1
  Tc  Tc4  1  0.517465  0.511839  0.597642  1
  Tc  Tc5  1  0.085823  0.487957  0.006848  1
  Tc  Tc6  1  0.704787  0.899122  0.998790  1
  Tc  Tc7  1  0.098928  0.101002  0.805454  1
  Tc  Tc8  1  0.298188  0.299373  0.200762  1
  Tc  Tc9  1  0.901174  0.700219  0.998003  1
  Mo  Mo10  1  0.352074  0.000024  0.351755  1
  Mo  Mo11  1  0.997107  0.354269  0.347322  1
  Mo  Mo12  1  0.992262  0.645899  0.642018  1
  P  P13  1  0.498086  0.209101  0.713841  1
  P  P14  1  0.505516  0.790942  0.289910  1
  P  P15  1  0.780400  0.499594  0.279550  1
