# generated using pymatgen
data_SmYFe3Tc14C3
_symmetry_space_group_name_H-M   'P 1'
_cell_length_a   6.90498642
_cell_length_b   6.90498601
_cell_length_c   6.90498587
_cell_angle_alpha   82.52827504
_cell_angle_beta   82.52827605
_cell_angle_gamma   82.52827025
_symmetry_Int_Tables_number   1
_chemical_formula_structural   SmYFe3Tc14C3
_chemical_formula_sum   'Sm1 Y1 Fe3 Tc14 C3'
_cell_volume   321.50463930
_cell_formula_units_Z   1
loop_
 _symmetry_equiv_pos_site_id
 _symmetry_equiv_pos_as_xyz
  1  'x, y, z'
loop_
 _atom_site_type_symbol
 _atom_site_label
 _atom_site_symmetry_multiplicity
 _atom_site_fract_x
 _atom_site_fract_y
 _atom_site_fract_z
 _atom_site_occupancy
  Sm  Sm0  1  0.651199  0.651199  0.651199  1
  Y  Y1  1  0.348055  0.348055  0.348055  1
  Fe  Fe2  1  0.999658  0.999658  0.500275  1
  Fe  Fe3  1  0.500275  0.999658  0.999658  1
  Fe  Fe4  1  0.999658  0.500275  0.999658  1
  Tc  Tc5  1  0.724153  0.275656  0.000281  1
  Tc  Tc6  1  0.000281  0.724153  0.275656  1
  Tc  Tc7  1  0.275656  0.000281  0.724153  1
  Tc  Tc8  1  0.000281  0.275656  0.724153  1
  Tc  Tc9  1  0.724153  0.000281  0.275656  1
  Tc  Tc10  1  0.275656  0.724153  0.000281  1
  Tc  Tc11  1  0.347543  0.347543  0.862192  1
  Tc  Tc12  1  0.862192  0.347543  0.347543  1
  Tc  Tc13  1  0.347543  0.862192  0.347543  1
  Tc  Tc14  1  0.651710  0.651710  0.139406  1
  Tc  Tc15  1  0.139406  0.651710  0.651710  1
  Tc  Tc16  1  0.651710  0.139406  0.651710  1
  Tc  Tc17  1  0.899516  0.899516  0.899516  1
  Tc  Tc18  1  0.100760  0.100760  0.100760  1
  C  C19  1  0.498623  0.498623  0.003350  1
  C  C20  1  0.003350  0.498623  0.498623  1
  C  C21  1  0.498623  0.003350  0.498623  1
