# generated using pymatgen
data_Pr3Ho(InRh)4
_symmetry_space_group_name_H-M   'P 1'
_cell_length_a   4.40508500
_cell_length_b   7.24583602
_cell_length_c   8.55236673
_cell_angle_alpha   89.40458667
_cell_angle_beta   90.00000000
_cell_angle_gamma   90.00000000
_symmetry_Int_Tables_number   1
_chemical_formula_structural   Pr3Ho(InRh)4
_chemical_formula_sum   'Pr3 Ho1 In4 Rh4'
_cell_volume   272.96417947
_cell_formula_units_Z   1
loop_
 _symmetry_equiv_pos_site_id
 _symmetry_equiv_pos_as_xyz
  1  'x, y, z'
loop_
 _atom_site_type_symbol
 _atom_site_label
 _atom_site_symmetry_multiplicity
 _atom_site_fract_x
 _atom_site_fract_y
 _atom_site_fract_z
 _atom_site_occupancy
  Pr  Pr0  1  0.250000  0.036599  0.179086  1
  Pr  Pr1  1  0.750000  0.963077  0.819951  1
  Pr  Pr2  1  0.250000  0.535570  0.322515  1
  Ho  Ho3  1  0.750000  0.461628  0.679172  1
  In  In4  1  0.750000  0.359147  0.059697  1
  In  In5  1  0.250000  0.639137  0.935742  1
  In  In6  1  0.750000  0.856892  0.439816  1
  In  In7  1  0.250000  0.146278  0.564210  1
  Rh  Rh8  1  0.250000  0.745094  0.623342  1
  Rh  Rh9  1  0.750000  0.249309  0.381082  1
  Rh  Rh10  1  0.250000  0.260103  0.871152  1
  Rh  Rh11  1  0.750000  0.747166  0.124233  1
