# generated using pymatgen
data_Lu2Th(Co3P2)3
_symmetry_space_group_name_H-M   'P 1'
_cell_length_a   3.72294500
_cell_length_b   10.53633200
_cell_length_c   12.19761100
_cell_angle_alpha   90.00000000
_cell_angle_beta   90.00000000
_cell_angle_gamma   90.00000000
_symmetry_Int_Tables_number   1
_chemical_formula_structural   Lu2Th(Co3P2)3
_chemical_formula_sum   'Lu4 Th2 Co18 P12'
_cell_volume   478.46574001
_cell_formula_units_Z   2
loop_
 _symmetry_equiv_pos_site_id
 _symmetry_equiv_pos_as_xyz
  1  'x, y, z'
loop_
 _atom_site_type_symbol
 _atom_site_label
 _atom_site_symmetry_multiplicity
 _atom_site_fract_x
 _atom_site_fract_y
 _atom_site_fract_z
 _atom_site_occupancy
  Lu  Lu0  1  0.500000  0.816584  0.203643  1
  Lu  Lu1  1  0.500000  0.183416  0.203643  1
  Lu  Lu2  1  0.000000  0.683416  0.796357  1
  Lu  Lu3  1  0.000000  0.316584  0.796357  1
  Th  Th4  1  0.000000  0.500000  0.525205  1
  Th  Th5  1  0.500000  0.000000  0.474795  1
  Co  Co6  1  0.500000  0.500000  0.155835  1
  Co  Co7  1  0.000000  0.000000  0.844165  1
  Co  Co8  1  0.500000  0.500000  0.704769  1
  Co  Co9  1  0.000000  0.000000  0.295231  1
  Co  Co10  1  0.000000  0.500000  0.985879  1
  Co  Co11  1  0.500000  0.000000  0.014121  1
  Co  Co12  1  0.500000  0.333317  0.994416  1
  Co  Co13  1  0.500000  0.666683  0.994416  1
  Co  Co14  1  0.000000  0.166683  0.005584  1
  Co  Co15  1  0.000000  0.833317  0.005584  1
  Co  Co16  1  0.500000  0.298857  0.428821  1
  Co  Co17  1  0.500000  0.701143  0.428821  1
  Co  Co18  1  0.000000  0.201143  0.571179  1
  Co  Co19  1  0.000000  0.798857  0.571179  1
  Co  Co20  1  0.500000  0.879140  0.714141  1
  Co  Co21  1  0.500000  0.120860  0.714141  1
  Co  Co22  1  0.000000  0.620860  0.285859  1
  Co  Co23  1  0.000000  0.379140  0.285859  1
  P  P24  1  0.500000  0.500000  0.881931  1
  P  P25  1  0.000000  0.000000  0.118069  1
  P  P26  1  0.500000  0.500000  0.338377  1
  P  P27  1  0.000000  0.000000  0.661623  1
  P  P28  1  0.500000  0.306232  0.620337  1
  P  P29  1  0.500000  0.693768  0.620337  1
  P  P30  1  0.000000  0.193768  0.379663  1
  P  P31  1  0.000000  0.806232  0.379663  1
  P  P32  1  0.500000  0.845671  0.894355  1
  P  P33  1  0.500000  0.154329  0.894355  1
  P  P34  1  0.000000  0.654329  0.105645  1
  P  P35  1  0.000000  0.345671  0.105645  1
