# generated using pymatgen
data_Zr10BeSn7
_symmetry_space_group_name_H-M   'P 1'
_cell_length_a   8.73357500
_cell_length_b   8.73357404
_cell_length_c   5.94659300
_cell_angle_alpha   90.00000000
_cell_angle_beta   90.00000000
_cell_angle_gamma   119.99999984
_symmetry_Int_Tables_number   1
_chemical_formula_structural   Zr10BeSn7
_chemical_formula_sum   'Zr10 Be1 Sn7'
_cell_volume   392.81033741
_cell_formula_units_Z   1
loop_
 _symmetry_equiv_pos_site_id
 _symmetry_equiv_pos_as_xyz
  1  'x, y, z'
loop_
 _atom_site_type_symbol
 _atom_site_label
 _atom_site_symmetry_multiplicity
 _atom_site_fract_x
 _atom_site_fract_y
 _atom_site_fract_z
 _atom_site_occupancy
  Zr  Zr0  1  0.333333  0.666667  0.000000  1
  Zr  Zr1  1  0.666667  0.333333  0.500000  1
  Zr  Zr2  1  0.666667  0.333333  0.000000  1
  Zr  Zr3  1  0.333333  0.666667  0.500000  1
  Zr  Zr4  1  0.265778  0.000000  0.225720  1
  Zr  Zr5  1  0.265778  0.265778  0.774280  1
  Zr  Zr6  1  0.000000  0.734222  0.774280  1
  Zr  Zr7  1  0.000000  0.265778  0.225720  1
  Zr  Zr8  1  0.734222  0.734222  0.225720  1
  Zr  Zr9  1  0.734222  0.000000  0.774280  1
  Be  Be10  1  0.000000  0.000000  0.000000  1
  Sn  Sn11  1  0.000000  0.000000  0.500000  1
  Sn  Sn12  1  0.611414  0.000000  0.255986  1
  Sn  Sn13  1  0.611414  0.611414  0.744014  1
  Sn  Sn14  1  0.000000  0.388586  0.744014  1
  Sn  Sn15  1  0.000000  0.611414  0.255986  1
  Sn  Sn16  1  0.388586  0.388586  0.255986  1
  Sn  Sn17  1  0.388586  0.000000  0.744014  1
