# generated using pymatgen
data_Hf2ScGa3NiIr2
_symmetry_space_group_name_H-M   'P 1'
_cell_length_a   7.14501288
_cell_length_b   7.14501183
_cell_length_c   3.40369300
_cell_angle_alpha   90.00000000
_cell_angle_beta   90.00000000
_cell_angle_gamma   120.25636367
_symmetry_Int_Tables_number   1
_chemical_formula_structural   Hf2ScGa3NiIr2
_chemical_formula_sum   'Hf2 Sc1 Ga3 Ni1 Ir2'
_cell_volume   150.09259503
_cell_formula_units_Z   1
loop_
 _symmetry_equiv_pos_site_id
 _symmetry_equiv_pos_as_xyz
  1  'x, y, z'
loop_
 _atom_site_type_symbol
 _atom_site_label
 _atom_site_symmetry_multiplicity
 _atom_site_fract_x
 _atom_site_fract_y
 _atom_site_fract_z
 _atom_site_occupancy
  Hf  Hf0  1  0.602510  0.000871  0.500000  1
  Hf  Hf1  1  0.000871  0.602510  0.500000  1
  Sc  Sc2  1  0.400094  0.400094  0.500000  1
  Ga  Ga3  1  0.738082  0.738082  0.000000  1
  Ga  Ga4  1  0.256048  0.005306  0.000000  1
  Ga  Ga5  1  0.005306  0.256048  0.000000  1
  Ni  Ni6  1  0.991985  0.991985  0.500000  1
  Ir  Ir7  1  0.672435  0.332669  0.000000  1
  Ir  Ir8  1  0.332669  0.672435  0.000000  1
