# generated using pymatgen
data_Sr3Yb(WO4)4
_symmetry_space_group_name_H-M   'P 1'
_cell_length_a   5.11924613
_cell_length_b   5.52910538
_cell_length_c   13.91731289
_cell_angle_alpha   68.15616964
_cell_angle_beta   90.18432378
_cell_angle_gamma   90.38174060
_symmetry_Int_Tables_number   1
_chemical_formula_structural   Sr3Yb(WO4)4
_chemical_formula_sum   'Sr3 Yb1 W4 O16'
_cell_volume   365.63582540
_cell_formula_units_Z   1
loop_
 _symmetry_equiv_pos_site_id
 _symmetry_equiv_pos_as_xyz
  1  'x, y, z'
loop_
 _atom_site_type_symbol
 _atom_site_label
 _atom_site_symmetry_multiplicity
 _atom_site_fract_x
 _atom_site_fract_y
 _atom_site_fract_z
 _atom_site_occupancy
  Sr  Sr0  1  0.728419  0.155482  0.341742  1
  Sr  Sr1  1  0.232348  0.849651  0.155058  1
  Sr  Sr2  1  0.273769  0.842589  0.657477  1
  Yb  Yb3  1  0.761404  0.158969  0.840835  1
  W  W4  1  0.248768  0.581312  0.426718  1
  W  W5  1  0.749166  0.424737  0.070679  1
  W  W6  1  0.751330  0.408135  0.583234  1
  W  W7  1  0.250636  0.586384  0.918577  1
  O  O8  1  0.550572  0.734366  0.469500  1
  O  O9  1  0.057509  0.273058  0.034759  1
  O  O10  1  0.449346  0.260175  0.539680  1
  O  O11  1  0.943745  0.750503  0.953443  1
  O  O12  1  0.944280  0.352636  0.456137  1
  O  O13  1  0.439862  0.641419  0.044064  1
  O  O14  1  0.053686  0.635908  0.552378  1
  O  O15  1  0.559473  0.359079  0.945157  1
  O  O16  1  0.123359  0.891894  0.334655  1
  O  O17  1  0.625261  0.113500  0.164232  1
  O  O18  1  0.880096  0.102444  0.677207  1
  O  O19  1  0.396514  0.890988  0.828833  1
  O  O20  1  0.380932  0.482396  0.324852  1
  O  O21  1  0.877227  0.529561  0.172220  1
  O  O22  1  0.617321  0.500869  0.686611  1
  O  O23  1  0.104980  0.473944  0.821949  1
