# generated using pymatgen
data_Sr3NdPb12
_symmetry_space_group_name_H-M   'P 1'
_cell_length_a   12.78027432
_cell_length_b   12.78027441
_cell_length_c   12.78027361
_cell_angle_alpha   31.63210227
_cell_angle_beta   31.63210242
_cell_angle_gamma   31.63210447
_symmetry_Int_Tables_number   1
_chemical_formula_structural   Sr3NdPb12
_chemical_formula_sum   'Sr3 Nd1 Pb12'
_cell_volume   509.86422437
_cell_formula_units_Z   1
loop_
 _symmetry_equiv_pos_site_id
 _symmetry_equiv_pos_as_xyz
  1  'x, y, z'
loop_
 _atom_site_type_symbol
 _atom_site_label
 _atom_site_symmetry_multiplicity
 _atom_site_fract_x
 _atom_site_fract_y
 _atom_site_fract_z
 _atom_site_occupancy
  Sr  Sr0  1  0.124595  0.124595  0.124595  1
  Sr  Sr1  1  0.705926  0.705926  0.705926  1
  Sr  Sr2  1  0.291909  0.291909  0.291909  1
  Nd  Nd3  1  0.876793  0.876793  0.876793  1
  Pb  Pb4  1  0.286603  0.792270  0.792270  1
  Pb  Pb5  1  0.792270  0.792270  0.286603  1
  Pb  Pb6  1  0.867409  0.379152  0.379152  1
  Pb  Pb7  1  0.379152  0.379152  0.867409  1
  Pb  Pb8  1  0.379152  0.867409  0.379152  1
  Pb  Pb9  1  0.623964  0.132546  0.623964  1
  Pb  Pb10  1  0.132546  0.623964  0.623964  1
  Pb  Pb11  1  0.623964  0.623964  0.132546  1
  Pb  Pb12  1  0.792270  0.286603  0.792270  1
  Pb  Pb13  1  0.206037  0.711374  0.206037  1
  Pb  Pb14  1  0.206037  0.206037  0.711374  1
  Pb  Pb15  1  0.711374  0.206037  0.206037  1
