# generated using pymatgen
data_Sc22TcHg2Os5
_symmetry_space_group_name_H-M   'P 1'
_cell_length_a   9.69469372
_cell_length_b   9.50689866
_cell_length_c   9.69464653
_cell_angle_alpha   60.26246308
_cell_angle_beta   58.80162013
_cell_angle_gamma   60.26266560
_symmetry_Int_Tables_number   1
_chemical_formula_structural   Sc22TcHg2Os5
_chemical_formula_sum   'Sc22 Tc1 Hg2 Os5'
_cell_volume   628.32411288
_cell_formula_units_Z   1
loop_
 _symmetry_equiv_pos_site_id
 _symmetry_equiv_pos_as_xyz
  1  'x, y, z'
loop_
 _atom_site_type_symbol
 _atom_site_label
 _atom_site_symmetry_multiplicity
 _atom_site_fract_x
 _atom_site_fract_y
 _atom_site_fract_z
 _atom_site_occupancy
  Sc  Sc0  1  0.835149  0.858995  0.835145  1
  Sc  Sc1  1  0.529248  0.166818  0.140562  1
  Sc  Sc2  1  0.140555  0.166825  0.529242  1
  Sc  Sc3  1  0.165476  0.528044  0.165474  1
  Sc  Sc4  1  0.859445  0.833175  0.470758  1
  Sc  Sc5  1  0.834524  0.471956  0.834526  1
  Sc  Sc6  1  0.470752  0.833182  0.859438  1
  Sc  Sc7  1  0.164851  0.141005  0.164855  1
  Sc  Sc8  1  0.197053  0.802610  0.197063  1
  Sc  Sc9  1  0.194680  0.804932  0.805362  1
  Sc  Sc10  1  0.805320  0.195068  0.194638  1
  Sc  Sc11  1  0.805362  0.804920  0.194696  1
  Sc  Sc12  1  0.194638  0.195080  0.805304  1
  Sc  Sc13  1  0.802947  0.197390  0.802937  1
  Sc  Sc14  1  0.380472  0.393413  0.380470  1
  Sc  Sc15  1  0.152520  0.621491  0.607275  1
  Sc  Sc16  1  0.620451  0.151811  0.620452  1
  Sc  Sc17  1  0.607272  0.621492  0.152525  1
  Sc  Sc18  1  0.379549  0.848189  0.379548  1
  Sc  Sc19  1  0.392728  0.378508  0.847475  1
  Sc  Sc20  1  0.847480  0.378509  0.392725  1
  Sc  Sc21  1  0.619528  0.606587  0.619530  1
  Tc  Tc22  1  0.000000  0.000000  0.000000  1
  Hg  Hg23  1  0.500000  0.000000  0.500000  1
  Hg  Hg24  1  0.000000  0.500000  0.000000  1
  Os  Os25  1  0.500000  0.500000  0.000000  1
  Os  Os26  1  0.000000  0.000000  0.500000  1
  Os  Os27  1  0.000000  0.500000  0.500000  1
  Os  Os28  1  0.500000  0.000000  0.000000  1
  Os  Os29  1  0.500000  0.500000  0.500000  1
