# generated using pymatgen
data_TbSmMo3P7Ir9
_symmetry_space_group_name_H-M   'P 1'
_cell_length_a   4.01018086
_cell_length_b   9.54564432
_cell_length_c   9.54554914
_cell_angle_alpha   120.00009197
_cell_angle_beta   89.99808344
_cell_angle_gamma   90.00253508
_symmetry_Int_Tables_number   1
_chemical_formula_structural   TbSmMo3P7Ir9
_chemical_formula_sum   'Tb1 Sm1 Mo3 P7 Ir9'
_cell_volume   316.44654236
_cell_formula_units_Z   1
loop_
 _symmetry_equiv_pos_site_id
 _symmetry_equiv_pos_as_xyz
  1  'x, y, z'
loop_
 _atom_site_type_symbol
 _atom_site_label
 _atom_site_symmetry_multiplicity
 _atom_site_fract_x
 _atom_site_fract_y
 _atom_site_fract_z
 _atom_site_occupancy
  Tb  Tb0  1  0.761891  0.333330  0.666671  1
  Sm  Sm1  1  0.261906  0.666666  0.333325  1
  Mo  Mo2  1  0.761924  0.088744  0.867723  1
  Mo  Mo3  1  0.761945  0.132289  0.221043  1
  Mo  Mo4  1  0.761919  0.778967  0.911244  1
  P  P5  1  0.262176  0.000002  0.999992  1
  P  P6  1  0.761848  0.880685  0.594043  1
  P  P7  1  0.761876  0.405956  0.286641  1
  P  P8  1  0.761857  0.713356  0.119305  1
  P  P9  1  0.261867  0.118645  0.416530  1
  P  P10  1  0.261861  0.583476  0.702124  1
  P  P11  1  0.261885  0.297882  0.881360  1
  Ir  Ir12  1  0.261901  0.889925  0.161490  1
  Ir  Ir13  1  0.261884  0.838503  0.728418  1
  Ir  Ir14  1  0.261903  0.271581  0.110093  1
  Ir  Ir15  1  0.761894  0.611549  0.557379  1
  Ir  Ir16  1  0.761889  0.442608  0.054154  1
  Ir  Ir17  1  0.761905  0.945831  0.388447  1
  Ir  Ir18  1  0.261906  0.367161  0.438926  1
  Ir  Ir19  1  0.261870  0.561089  0.928250  1
  Ir  Ir20  1  0.261891  0.071756  0.632844  1
