# generated using pymatgen
data_Dy2ErPa(ReB6)2
_symmetry_space_group_name_H-M   'P 1'
_cell_length_a   3.69825400
_cell_length_b   9.16807797
_cell_length_c   11.53246096
_cell_angle_alpha   90.37427158
_cell_angle_beta   90.00000000
_cell_angle_gamma   90.00000000
_symmetry_Int_Tables_number   1
_chemical_formula_structural   Dy2ErPa(ReB6)2
_chemical_formula_sum   'Dy4 Er2 Pa2 Re4 B24'
_cell_volume   391.00990674
_cell_formula_units_Z   2
loop_
 _symmetry_equiv_pos_site_id
 _symmetry_equiv_pos_as_xyz
  1  'x, y, z'
loop_
 _atom_site_type_symbol
 _atom_site_label
 _atom_site_symmetry_multiplicity
 _atom_site_fract_x
 _atom_site_fract_y
 _atom_site_fract_z
 _atom_site_occupancy
  Dy  Dy0  1  0.000000  0.823683  0.085780  1
  Dy  Dy1  1  0.000000  0.176317  0.914220  1
  Dy  Dy2  1  0.000000  0.944921  0.372619  1
  Dy  Dy3  1  0.000000  0.055079  0.627381  1
  Er  Er4  1  0.000000  0.443898  0.126399  1
  Er  Er5  1  0.000000  0.556102  0.873601  1
  Pa  Pa6  1  0.000000  0.322174  0.412910  1
  Pa  Pa7  1  0.000000  0.677826  0.587090  1
  Re  Re8  1  0.000000  0.634773  0.324621  1
  Re  Re9  1  0.000000  0.365227  0.675379  1
  Re  Re10  1  0.000000  0.141438  0.181569  1
  Re  Re11  1  0.000000  0.858562  0.818431  1
  B  B12  1  0.500000  0.553125  0.432786  1
  B  B13  1  0.500000  0.446875  0.567214  1
  B  B14  1  0.500000  0.053798  0.067304  1
  B  B15  1  0.500000  0.946202  0.932696  1
  B  B16  1  0.500000  0.747389  0.419573  1
  B  B17  1  0.500000  0.252611  0.580427  1
  B  B18  1  0.500000  0.248694  0.080193  1
  B  B19  1  0.500000  0.751306  0.919807  1
  B  B20  1  0.500000  0.791017  0.265577  1
  B  B21  1  0.500000  0.208983  0.734423  1
  B  B22  1  0.500000  0.292909  0.233401  1
  B  B23  1  0.500000  0.707091  0.766599  1
  B  B24  1  0.500000  0.630898  0.185267  1
  B  B25  1  0.500000  0.369102  0.814733  1
  B  B26  1  0.500000  0.133132  0.313680  1
  B  B27  1  0.500000  0.866868  0.686320  1
  B  B28  1  0.500000  0.982864  0.212121  1
  B  B29  1  0.500000  0.017136  0.787879  1
  B  B30  1  0.500000  0.482811  0.286268  1
  B  B31  1  0.500000  0.517189  0.713732  1
  B  B32  1  0.500000  0.603517  0.029080  1
  B  B33  1  0.500000  0.396483  0.970920  1
  B  B34  1  0.500000  0.113242  0.468774  1
  B  B35  1  0.500000  0.886758  0.531226  1
