# generated using pymatgen
data_Ho5Er7ZnNi4Bi
_symmetry_space_group_name_H-M   'P 1'
_cell_length_a   8.27336245
_cell_length_b   8.27300398
_cell_length_c   8.27300500
_cell_angle_alpha   110.01629608
_cell_angle_beta   111.21653470
_cell_angle_gamma   107.20493982
_symmetry_Int_Tables_number   1
_chemical_formula_structural   Ho5Er7ZnNi4Bi
_chemical_formula_sum   'Ho5 Er7 Zn1 Ni4 Bi1'
_cell_volume   435.35061769
_cell_formula_units_Z   1
loop_
 _symmetry_equiv_pos_site_id
 _symmetry_equiv_pos_as_xyz
  1  'x, y, z'
loop_
 _atom_site_type_symbol
 _atom_site_label
 _atom_site_symmetry_multiplicity
 _atom_site_fract_x
 _atom_site_fract_y
 _atom_site_fract_z
 _atom_site_occupancy
  Ho  Ho0  1  0.286266  0.179312  0.466257  1
  Ho  Ho1  1  0.713451  0.820930  0.533896  1
  Ho  Ho2  1  0.286266  0.820009  0.106953  1
  Ho  Ho3  1  0.713451  0.179555  0.892522  1
  Ho  Ho4  1  0.627513  0.320255  0.307257  1
  Er  Er5  1  0.371756  0.679536  0.692220  1
  Er  Er6  1  0.012992  0.320803  0.692187  1
  Er  Er7  1  0.987000  0.679175  0.307829  1
  Er  Er8  1  0.223960  0.426081  0.202007  1
  Er  Er9  1  0.776133  0.574170  0.798204  1
  Er  Er10  1  0.223960  0.021954  0.797879  1
  Er  Er11  1  0.776133  0.977929  0.201963  1
  Zn  Zn12  1  0.000034  0.000096  0.999938  1
  Ni  Ni13  1  0.000771  0.357904  0.358318  1
  Ni  Ni14  1  0.000771  0.642454  0.642867  1
  Ni  Ni15  1  0.375141  0.875270  0.499872  1
  Ni  Ni16  1  0.624607  0.124380  0.500226  1
  Bi  Bi17  1  0.499792  0.500187  0.999607  1
