# generated using pymatgen
data_SrTb5NdCoI12
_symmetry_space_group_name_H-M   'P 1'
_cell_length_a   9.86613870
_cell_length_b   9.87634474
_cell_length_c   9.77188602
_cell_angle_alpha   106.49579574
_cell_angle_beta   106.00217539
_cell_angle_gamma   106.17208206
_symmetry_Int_Tables_number   1
_chemical_formula_structural   SrTb5NdCoI12
_chemical_formula_sum   'Sr1 Tb5 Nd1 Co1 I12'
_cell_volume   809.19046533
_cell_formula_units_Z   1
loop_
 _symmetry_equiv_pos_site_id
 _symmetry_equiv_pos_as_xyz
  1  'x, y, z'
loop_
 _atom_site_type_symbol
 _atom_site_label
 _atom_site_symmetry_multiplicity
 _atom_site_fract_x
 _atom_site_fract_y
 _atom_site_fract_z
 _atom_site_occupancy
  Sr  Sr0  1  0.500044  0.499935  0.499783  1
  Tb  Tb1  1  0.093248  0.292531  0.019610  1
  Tb  Tb2  1  0.292712  0.020037  0.091866  1
  Tb  Tb3  1  0.980541  0.910676  0.720920  1
  Tb  Tb4  1  0.906794  0.707008  0.979428  1
  Tb  Tb5  1  0.707013  0.979234  0.905576  1
  Nd  Nd6  1  0.019335  0.090930  0.285658  1
  Co  Co7  1  0.999607  0.999927  0.000066  1
  I  I8  1  0.139410  0.454355  0.368348  1
  I  I9  1  0.447004  0.366842  0.134505  1
  I  I10  1  0.373334  0.137410  0.449385  1
  I  I11  1  0.864131  0.553543  0.631853  1
  I  I12  1  0.552818  0.633261  0.865130  1
  I  I13  1  0.633857  0.863304  0.551614  1
  I  I14  1  0.671900  0.072246  0.220059  1
  I  I15  1  0.072783  0.221201  0.680479  1
  I  I16  1  0.222089  0.678472  0.072731  1
  I  I17  1  0.320191  0.926157  0.775229  1
  I  I18  1  0.925327  0.771396  0.320781  1
  I  I19  1  0.777862  0.321534  0.926979  1
