# generated using pymatgen
data_DyCo4P3Rh
_symmetry_space_group_name_H-M   'P 1'
_cell_length_a   3.69743300
_cell_length_b   10.41702200
_cell_length_c   11.83112000
_cell_angle_alpha   90.00000000
_cell_angle_beta   90.00000000
_cell_angle_gamma   90.00000000
_symmetry_Int_Tables_number   1
_chemical_formula_structural   DyCo4P3Rh
_chemical_formula_sum   'Dy4 Co16 P12 Rh4'
_cell_volume   455.69026809
_cell_formula_units_Z   4
loop_
 _symmetry_equiv_pos_site_id
 _symmetry_equiv_pos_as_xyz
  1  'x, y, z'
loop_
 _atom_site_type_symbol
 _atom_site_label
 _atom_site_symmetry_multiplicity
 _atom_site_fract_x
 _atom_site_fract_y
 _atom_site_fract_z
 _atom_site_occupancy
  Dy  Dy0  1  0.250000  0.584344  0.703631  1
  Dy  Dy1  1  0.250000  0.915656  0.203631  1
  Dy  Dy2  1  0.750000  0.415656  0.296369  1
  Dy  Dy3  1  0.750000  0.084344  0.796369  1
  Co  Co4  1  0.250000  0.409102  0.487657  1
  Co  Co5  1  0.250000  0.090898  0.987657  1
  Co  Co6  1  0.750000  0.590898  0.512343  1
  Co  Co7  1  0.750000  0.909102  0.012343  1
  Co  Co8  1  0.250000  0.221262  0.176515  1
  Co  Co9  1  0.250000  0.278738  0.676515  1
  Co  Co10  1  0.750000  0.778738  0.823485  1
  Co  Co11  1  0.750000  0.721262  0.323485  1
  Co  Co12  1  0.250000  0.884641  0.701071  1
  Co  Co13  1  0.250000  0.615359  0.201071  1
  Co  Co14  1  0.750000  0.115359  0.298929  1
  Co  Co15  1  0.750000  0.384641  0.798929  1
  Co  Co16  1  0.250000  0.464906  0.930589  1
  Co  Co17  1  0.250000  0.035094  0.430589  1
  Co  Co18  1  0.750000  0.535094  0.069411  1
  Co  Co19  1  0.750000  0.964906  0.569411  1
  P  P20  1  0.250000  0.421469  0.112826  1
  P  P21  1  0.250000  0.078531  0.612826  1
  P  P22  1  0.750000  0.578531  0.887174  1
  P  P23  1  0.750000  0.921469  0.387174  1
  P  P24  1  0.250000  0.271196  0.865737  1
  P  P25  1  0.250000  0.228804  0.365737  1
  P  P26  1  0.750000  0.728804  0.134263  1
  P  P27  1  0.750000  0.771196  0.634263  1
  P  P28  1  0.250000  0.595640  0.388883  1
  P  P29  1  0.250000  0.904360  0.888883  1
  P  P30  1  0.750000  0.404360  0.611117  1
  P  P31  1  0.750000  0.095640  0.111117  1
  Rh  Rh32  1  0.250000  0.716578  0.990551  1
  Rh  Rh33  1  0.250000  0.783422  0.490551  1
  Rh  Rh34  1  0.750000  0.283422  0.009449  1
  Rh  Rh35  1  0.750000  0.216578  0.509449  1
