# generated using pymatgen
data_LuZn3CdIr
_symmetry_space_group_name_H-M   'P 1'
_cell_length_a   5.23044320
_cell_length_b   5.33189777
_cell_length_c   5.33189700
_cell_angle_alpha   59.99999857
_cell_angle_beta   59.35625161
_cell_angle_gamma   59.35625695
_symmetry_Int_Tables_number   1
_chemical_formula_structural   LuZn3CdIr
_chemical_formula_sum   'Lu1 Zn3 Cd1 Ir1'
_cell_volume   104.10989832
_cell_formula_units_Z   1
loop_
 _symmetry_equiv_pos_site_id
 _symmetry_equiv_pos_as_xyz
  1  'x, y, z'
loop_
 _atom_site_type_symbol
 _atom_site_label
 _atom_site_symmetry_multiplicity
 _atom_site_fract_x
 _atom_site_fract_y
 _atom_site_fract_z
 _atom_site_occupancy
  Lu  Lu0  1  0.736742  0.754419  0.754419  1
  Zn  Zn1  1  0.124496  0.126772  0.126772  1
  Zn  Zn2  1  0.124496  0.126772  0.621961  1
  Zn  Zn3  1  0.124496  0.621961  0.126772  1
  Cd  Cd4  1  0.511045  0.496319  0.496319  1
  Ir  Ir5  1  0.628727  0.123758  0.123758  1
