# generated using pymatgen
data_Sb7Te5Ru4
_symmetry_space_group_name_H-M   'P 1'
_cell_length_a   8.16555137
_cell_length_b   8.15716388
_cell_length_c   8.15716299
_cell_angle_alpha   109.05198965
_cell_angle_beta   109.49912357
_cell_angle_gamma   109.82141070
_symmetry_Int_Tables_number   1
_chemical_formula_structural   Sb7Te5Ru4
_chemical_formula_sum   'Sb7 Te5 Ru4'
_cell_volume   418.45372449
_cell_formula_units_Z   1
loop_
 _symmetry_equiv_pos_site_id
 _symmetry_equiv_pos_as_xyz
  1  'x, y, z'
loop_
 _atom_site_type_symbol
 _atom_site_label
 _atom_site_symmetry_multiplicity
 _atom_site_fract_x
 _atom_site_fract_y
 _atom_site_fract_z
 _atom_site_occupancy
  Sb  Sb0  1  0.160640  0.824543  0.664598  1
  Sb  Sb1  1  0.178566  0.327858  0.850709  1
  Sb  Sb2  1  0.160640  0.496042  0.336099  1
  Sb  Sb3  1  0.325702  0.154009  0.480126  1
  Sb  Sb4  1  0.493585  0.335104  0.158482  1
  Sb  Sb5  1  0.325702  0.845575  0.171692  1
  Sb  Sb6  1  0.822277  0.657200  0.165077  1
  Te  Te7  1  0.657790  0.841759  0.499724  1
  Te  Te8  1  0.852978  0.527258  0.675412  1
  Te  Te9  1  0.505715  0.655297  0.850418  1
  Te  Te10  1  0.657790  0.158066  0.816032  1
  Te  Te11  1  0.852978  0.177565  0.325720  1
  Ru  Ru12  1  0.503402  0.504800  0.507220  1
  Ru  Ru13  1  0.503402  0.996182  0.998602  1
  Ru  Ru14  1  0.999417  0.000607  0.501280  1
  Ru  Ru15  1  0.999417  0.498136  0.998810  1
