# generated using pymatgen
data_Er4Ni13Ge
_symmetry_space_group_name_H-M   'P 1'
_cell_length_a   4.88600197
_cell_length_b   4.88600078
_cell_length_c   12.39093355
_cell_angle_alpha   78.62786469
_cell_angle_beta   78.62786666
_cell_angle_gamma   61.03779378
_symmetry_Int_Tables_number   1
_chemical_formula_structural   Er4Ni13Ge
_chemical_formula_sum   'Er4 Ni13 Ge1'
_cell_volume   251.94382994
_cell_formula_units_Z   1
loop_
 _symmetry_equiv_pos_site_id
 _symmetry_equiv_pos_as_xyz
  1  'x, y, z'
loop_
 _atom_site_type_symbol
 _atom_site_label
 _atom_site_symmetry_multiplicity
 _atom_site_fract_x
 _atom_site_fract_y
 _atom_site_fract_z
 _atom_site_occupancy
  Er  Er0  1  0.947705  0.947705  0.157190  1
  Er  Er1  1  0.052295  0.052295  0.842810  1
  Er  Er2  1  0.852222  0.852222  0.441837  1
  Er  Er3  1  0.147778  0.147778  0.558163  1
  Ni  Ni4  1  0.500000  0.500000  0.500000  1
  Ni  Ni5  1  0.721549  0.721549  0.832810  1
  Ni  Ni6  1  0.278451  0.278451  0.167190  1
  Ni  Ni7  1  0.610356  0.610356  0.167048  1
  Ni  Ni8  1  0.389644  0.389644  0.832952  1
  Ni  Ni9  1  0.000000  0.500000  0.000000  1
  Ni  Ni10  1  0.500000  0.000000  0.000000  1
  Ni  Ni11  1  0.388478  0.388478  0.331412  1
  Ni  Ni12  1  0.890884  0.389341  0.329807  1
  Ni  Ni13  1  0.389341  0.890884  0.329807  1
  Ni  Ni14  1  0.611522  0.611522  0.668588  1
  Ni  Ni15  1  0.109116  0.610659  0.670193  1
  Ni  Ni16  1  0.610659  0.109116  0.670193  1
  Ge  Ge17  1  0.500000  0.500000  0.000000  1
