# generated using pymatgen
data_Y3Pt2Rh7
_symmetry_space_group_name_H-M   'P 1'
_cell_length_a   5.31333500
_cell_length_b   5.31368335
_cell_length_c   17.57194900
_cell_angle_alpha   90.00000000
_cell_angle_beta   90.00000000
_cell_angle_gamma   119.99979010
_symmetry_Int_Tables_number   1
_chemical_formula_structural   Y3Pt2Rh7
_chemical_formula_sum   'Y6 Pt4 Rh14'
_cell_volume   429.64954208
_cell_formula_units_Z   2
loop_
 _symmetry_equiv_pos_site_id
 _symmetry_equiv_pos_as_xyz
  1  'x, y, z'
loop_
 _atom_site_type_symbol
 _atom_site_label
 _atom_site_symmetry_multiplicity
 _atom_site_fract_x
 _atom_site_fract_y
 _atom_site_fract_z
 _atom_site_occupancy
  Y  Y0  1  0.333333  0.666668  0.957356  1
  Y  Y1  1  0.666667  0.333332  0.042644  1
  Y  Y2  1  0.666667  0.333332  0.457356  1
  Y  Y3  1  0.333333  0.666668  0.542644  1
  Y  Y4  1  0.333333  0.666668  0.750000  1
  Y  Y5  1  0.666667  0.333332  0.250000  1
  Pt  Pt6  1  0.333309  0.666669  0.250000  1
  Pt  Pt7  1  0.666691  0.333331  0.750000  1
  Pt  Pt8  1  0.000000  0.000000  0.500000  1
  Pt  Pt9  1  0.000000  0.000000  0.000000  1
  Rh  Rh10  1  0.167417  0.832582  0.374333  1
  Rh  Rh11  1  0.167417  0.334833  0.374335  1
  Rh  Rh12  1  0.665164  0.832582  0.374335  1
  Rh  Rh13  1  0.832583  0.167418  0.625667  1
  Rh  Rh14  1  0.832583  0.665167  0.625665  1
  Rh  Rh15  1  0.334836  0.167418  0.625665  1
  Rh  Rh16  1  0.832583  0.167418  0.874333  1
  Rh  Rh17  1  0.832583  0.665167  0.874335  1
  Rh  Rh18  1  0.334836  0.167418  0.874335  1
  Rh  Rh19  1  0.167417  0.832582  0.125667  1
  Rh  Rh20  1  0.167417  0.334833  0.125665  1
  Rh  Rh21  1  0.665164  0.832582  0.125665  1
  Rh  Rh22  1  0.000029  0.000002  0.250000  1
  Rh  Rh23  1  0.999971  0.999998  0.750000  1
