# generated using pymatgen
data_Zr10GaAgPb6
_symmetry_space_group_name_H-M   'P 1'
_cell_length_a   8.86578200
_cell_length_b   8.86578162
_cell_length_c   5.99874200
_cell_angle_alpha   90.00000000
_cell_angle_beta   90.00000000
_cell_angle_gamma   120.00000141
_symmetry_Int_Tables_number   1
_chemical_formula_structural   Zr10GaAgPb6
_chemical_formula_sum   'Zr10 Ga1 Ag1 Pb6'
_cell_volume   408.34278579
_cell_formula_units_Z   1
loop_
 _symmetry_equiv_pos_site_id
 _symmetry_equiv_pos_as_xyz
  1  'x, y, z'
loop_
 _atom_site_type_symbol
 _atom_site_label
 _atom_site_symmetry_multiplicity
 _atom_site_fract_x
 _atom_site_fract_y
 _atom_site_fract_z
 _atom_site_occupancy
  Zr  Zr0  1  0.666667  0.333333  0.000000  1
  Zr  Zr1  1  0.333333  0.666667  0.000000  1
  Zr  Zr2  1  0.333333  0.666667  0.500000  1
  Zr  Zr3  1  0.666667  0.333333  0.500000  1
  Zr  Zr4  1  0.731981  0.731981  0.739386  1
  Zr  Zr5  1  0.268019  0.000000  0.739386  1
  Zr  Zr6  1  0.000000  0.268019  0.739386  1
  Zr  Zr7  1  0.268019  0.268019  0.260614  1
  Zr  Zr8  1  0.731981  0.000000  0.260614  1
  Zr  Zr9  1  0.000000  0.731981  0.260614  1
  Ga  Ga10  1  0.000000  0.000000  0.500000  1
  Ag  Ag11  1  0.000000  0.000000  0.000000  1
  Pb  Pb12  1  0.384526  0.384526  0.753466  1
  Pb  Pb13  1  0.615474  0.000000  0.753466  1
  Pb  Pb14  1  0.000000  0.615474  0.753466  1
  Pb  Pb15  1  0.615474  0.615474  0.246534  1
  Pb  Pb16  1  0.384526  0.000000  0.246534  1
  Pb  Pb17  1  0.000000  0.384526  0.246534  1
