# generated using pymatgen
data_La4Y8Tc3Ru
_symmetry_space_group_name_H-M   'P 1'
_cell_length_a   6.50772478
_cell_length_b   7.42742149
_cell_length_c   9.45415700
_cell_angle_alpha   90.00000000
_cell_angle_beta   90.00000000
_cell_angle_gamma   89.81407395
_symmetry_Int_Tables_number   1
_chemical_formula_structural   La4Y8Tc3Ru
_chemical_formula_sum   'La4 Y8 Tc3 Ru1'
_cell_volume   456.97008530
_cell_formula_units_Z   1
loop_
 _symmetry_equiv_pos_site_id
 _symmetry_equiv_pos_as_xyz
  1  'x, y, z'
loop_
 _atom_site_type_symbol
 _atom_site_label
 _atom_site_symmetry_multiplicity
 _atom_site_fract_x
 _atom_site_fract_y
 _atom_site_fract_z
 _atom_site_occupancy
  La  La0  1  0.868755  0.554883  0.250000  1
  La  La1  1  0.630245  0.055172  0.250000  1
  La  La2  1  0.132320  0.443959  0.750000  1
  La  La3  1  0.365270  0.943309  0.750000  1
  Y  Y4  1  0.331985  0.673737  0.068408  1
  Y  Y5  1  0.165014  0.173481  0.432278  1
  Y  Y6  1  0.665264  0.326785  0.567008  1
  Y  Y7  1  0.833335  0.827240  0.933508  1
  Y  Y8  1  0.665264  0.326785  0.932992  1
  Y  Y9  1  0.833335  0.827240  0.566492  1
  Y  Y10  1  0.331985  0.673737  0.431592  1
  Y  Y11  1  0.165014  0.173481  0.067722  1
  Tc  Tc12  1  0.018065  0.870971  0.250000  1
  Tc  Tc13  1  0.478377  0.373423  0.250000  1
  Tc  Tc14  1  0.983296  0.129676  0.750000  1
  Ru  Ru15  1  0.532476  0.626120  0.750000  1
