# generated using pymatgen
data_Tb4DyY(Al3Os)8
_symmetry_space_group_name_H-M   'P 1'
_cell_length_a   8.84156915
_cell_length_b   8.84586755
_cell_length_c   9.58614300
_cell_angle_alpha   90.00000000
_cell_angle_beta   90.00000000
_cell_angle_gamma   120.00483671
_symmetry_Int_Tables_number   1
_chemical_formula_structural   Tb4DyY(Al3Os)8
_chemical_formula_sum   'Tb4 Dy1 Y1 Al24 Os8'
_cell_volume   649.26672557
_cell_formula_units_Z   1
loop_
 _symmetry_equiv_pos_site_id
 _symmetry_equiv_pos_as_xyz
  1  'x, y, z'
loop_
 _atom_site_type_symbol
 _atom_site_label
 _atom_site_symmetry_multiplicity
 _atom_site_fract_x
 _atom_site_fract_y
 _atom_site_fract_z
 _atom_site_occupancy
  Tb  Tb0  1  0.806770  0.613500  0.750000  1
  Tb  Tb1  1  0.613622  0.806887  0.250000  1
  Tb  Tb2  1  0.386399  0.193179  0.750000  1
  Tb  Tb3  1  0.193284  0.806881  0.250000  1
  Dy  Dy4  1  0.806669  0.193304  0.750000  1
  Y  Y5  1  0.193230  0.386451  0.250000  1
  Al  Al6  1  0.333336  0.666648  0.015002  1
  Al  Al7  1  0.666691  0.333210  0.984970  1
  Al  Al8  1  0.666691  0.333210  0.515030  1
  Al  Al9  1  0.333336  0.666648  0.484998  1
  Al  Al10  1  0.162553  0.325296  0.575864  1
  Al  Al11  1  0.837367  0.674729  0.424106  1
  Al  Al12  1  0.674678  0.837408  0.575873  1
  Al  Al13  1  0.837367  0.674729  0.075894  1
  Al  Al14  1  0.325402  0.162728  0.424236  1
  Al  Al15  1  0.162553  0.325296  0.924136  1
  Al  Al16  1  0.162642  0.837310  0.575867  1
  Al  Al17  1  0.325402  0.162728  0.075764  1
  Al  Al18  1  0.837334  0.162728  0.424339  1
  Al  Al19  1  0.674678  0.837408  0.924127  1
  Al  Al20  1  0.837334  0.162728  0.075661  1
  Al  Al21  1  0.162642  0.837310  0.924133  1
  Al  Al22  1  0.560503  0.120985  0.250000  1
  Al  Al23  1  0.439756  0.879286  0.750000  1
  Al  Al24  1  0.879191  0.439583  0.250000  1
  Al  Al25  1  0.120825  0.560283  0.750000  1
  Al  Al26  1  0.560390  0.439606  0.250000  1
  Al  Al27  1  0.439472  0.560497  0.750000  1
  Al  Al28  1  0.999869  0.999733  0.250000  1
  Al  Al29  1  0.999882  0.000040  0.750000  1
  Os  Os30  1  0.500132  0.000053  0.999904  1
  Os  Os31  1  0.999885  0.499817  0.999847  1
  Os  Os32  1  0.500132  0.000053  0.500096  1
  Os  Os33  1  0.500036  0.499932  0.999915  1
  Os  Os34  1  0.999885  0.499817  0.500153  1
  Os  Os35  1  0.500036  0.499932  0.500085  1
  Os  Os36  1  0.000015  0.000033  0.999979  1
  Os  Os37  1  0.000015  0.000033  0.500021  1
