# generated using pymatgen
data_Nd4Dy5YSi8
_symmetry_space_group_name_H-M   'P 1'
_cell_length_a   7.75313700
_cell_length_b   7.75318000
_cell_length_c   14.52967700
_cell_angle_alpha   90.00000000
_cell_angle_beta   90.00238069
_cell_angle_gamma   90.00000000
_symmetry_Int_Tables_number   1
_chemical_formula_structural   Nd4Dy5YSi8
_chemical_formula_sum   'Nd8 Dy10 Y2 Si16'
_cell_volume   873.40019514
_cell_formula_units_Z   2
loop_
 _symmetry_equiv_pos_site_id
 _symmetry_equiv_pos_as_xyz
  1  'x, y, z'
loop_
 _atom_site_type_symbol
 _atom_site_label
 _atom_site_symmetry_multiplicity
 _atom_site_fract_x
 _atom_site_fract_y
 _atom_site_fract_z
 _atom_site_occupancy
  Nd  Nd0  1  0.634233  0.989960  0.454903  1
  Nd  Nd1  1  0.365080  0.010128  0.954859  1
  Nd  Nd2  1  0.990154  0.634492  0.545110  1
  Nd  Nd3  1  0.489700  0.865402  0.204860  1
  Nd  Nd4  1  0.509846  0.134492  0.704890  1
  Nd  Nd5  1  0.865767  0.489960  0.795097  1
  Nd  Nd6  1  0.134920  0.510128  0.295141  1
  Nd  Nd7  1  0.010300  0.365402  0.045140  1
  Dy  Dy8  1  0.487569  0.365022  0.124991  1
  Dy  Dy9  1  0.988374  0.134771  0.624973  1
  Dy  Dy10  1  0.865478  0.012155  0.874964  1
  Dy  Dy11  1  0.135241  0.988177  0.375015  1
  Dy  Dy12  1  0.511626  0.634771  0.625027  1
  Dy  Dy13  1  0.364759  0.488177  0.874985  1
  Dy  Dy14  1  0.634522  0.512155  0.375036  1
  Dy  Dy15  1  0.012431  0.865022  0.125009  1
  Dy  Dy16  1  0.314229  0.314070  0.499901  1
  Dy  Dy17  1  0.185771  0.814070  0.750099  1
  Y  Y18  1  0.813984  0.185903  0.249907  1
  Y  Y19  1  0.686016  0.685903  0.000093  1
  Si  Si20  1  0.287466  0.931100  0.561333  1
  Si  Si21  1  0.712564  0.068886  0.061363  1
  Si  Si22  1  0.931127  0.287421  0.438767  1
  Si  Si23  1  0.431094  0.212510  0.311449  1
  Si  Si24  1  0.568873  0.787421  0.811233  1
  Si  Si25  1  0.212534  0.431100  0.688667  1
  Si  Si26  1  0.787436  0.568886  0.188637  1
  Si  Si27  1  0.068906  0.712510  0.938551  1
  Si  Si28  1  0.801158  0.840352  0.693683  1
  Si  Si29  1  0.199063  0.159518  0.193730  1
  Si  Si30  1  0.840404  0.801123  0.306431  1
  Si  Si31  1  0.340429  0.699013  0.443842  1
  Si  Si32  1  0.659596  0.301123  0.943569  1
  Si  Si33  1  0.698842  0.340352  0.556317  1
  Si  Si34  1  0.300937  0.659518  0.056270  1
  Si  Si35  1  0.159571  0.199013  0.806158  1
