# generated using pymatgen
data_Ba7Ca4Tc4PbN16
_symmetry_space_group_name_H-M   'P 1'
_cell_length_a   10.82943882
_cell_length_b   10.53754743
_cell_length_c   8.06045024
_cell_angle_alpha   71.32030902
_cell_angle_beta   65.92832529
_cell_angle_gamma   44.29920217
_symmetry_Int_Tables_number   1
_chemical_formula_structural   Ba7Ca4Tc4PbN16
_chemical_formula_sum   'Ba7 Ca4 Tc4 Pb1 N16'
_cell_volume   585.96321431
_cell_formula_units_Z   1
loop_
 _symmetry_equiv_pos_site_id
 _symmetry_equiv_pos_as_xyz
  1  'x, y, z'
loop_
 _atom_site_type_symbol
 _atom_site_label
 _atom_site_symmetry_multiplicity
 _atom_site_fract_x
 _atom_site_fract_y
 _atom_site_fract_z
 _atom_site_occupancy
  Ba  Ba0  1  0.926047  0.573953  0.573953  1
  Ba  Ba1  1  0.319707  0.680293  0.680293  1
  Ba  Ba2  1  0.125934  0.108655  0.888239  1
  Ba  Ba3  1  0.142706  0.133064  0.360953  1
  Ba  Ba4  1  0.363277  0.360953  0.133064  1
  Ba  Ba5  1  0.680841  0.319159  0.319159  1
  Ba  Ba6  1  0.877172  0.888239  0.108655  1
  Ca  Ca7  1  0.349282  0.324849  0.660207  1
  Ca  Ca8  1  0.880285  0.925502  0.612992  1
  Ca  Ca9  1  0.665662  0.660207  0.324849  1
  Ca  Ca10  1  0.581221  0.612992  0.925502  1
  Tc  Tc11  1  0.492362  0.003838  0.486628  1
  Tc  Tc12  1  0.017172  0.486628  0.003838  1
  Tc  Tc13  1  0.758203  0.256217  0.751078  1
  Tc  Tc14  1  0.234502  0.751078  0.256217  1
  Pb  Pb15  1  0.541345  0.958655  0.958655  1
  N  N16  1  0.034888  0.634978  0.822124  1
  N  N17  1  0.694356  0.301918  0.988290  1
  N  N18  1  0.654192  0.016079  0.486237  1
  N  N19  1  0.508008  0.822124  0.634978  1
  N  N20  1  0.230121  0.585355  0.420053  1
  N  N21  1  0.764473  0.420053  0.585355  1
  N  N22  1  0.987536  0.023351  0.705759  1
  N  N23  1  0.546900  0.962497  0.245119  1
  N  N24  1  0.419324  0.719866  0.273171  1
  N  N25  1  0.979125  0.543074  0.227848  1
  N  N26  1  0.283355  0.705759  0.023351  1
  N  N27  1  0.843491  0.486237  0.016079  1
  N  N28  1  0.245483  0.245119  0.962497  1
  N  N29  1  0.587640  0.273171  0.719866  1
  N  N30  1  0.249953  0.227848  0.543074  1
  N  N31  1  0.015437  0.988290  0.301918  1
