# generated using pymatgen
data_Nb6VTc5Ge6
_symmetry_space_group_name_H-M   'P 1'
_cell_length_a   7.69969213
_cell_length_b   7.69615922
_cell_length_c   7.70467462
_cell_angle_alpha   126.78505514
_cell_angle_beta   126.33567068
_cell_angle_gamma   79.00448336
_symmetry_Int_Tables_number   1
_chemical_formula_structural   Nb6VTc5Ge6
_chemical_formula_sum   'Nb6 V1 Tc5 Ge6'
_cell_volume   284.87344123
_cell_formula_units_Z   1
loop_
 _symmetry_equiv_pos_site_id
 _symmetry_equiv_pos_as_xyz
  1  'x, y, z'
loop_
 _atom_site_type_symbol
 _atom_site_label
 _atom_site_symmetry_multiplicity
 _atom_site_fract_x
 _atom_site_fract_y
 _atom_site_fract_z
 _atom_site_occupancy
  Nb  Nb0  1  0.552339  0.110731  0.057415  1
  Nb  Nb1  1  0.449916  0.491710  0.538318  1
  Nb  Nb2  1  0.962268  0.501336  0.045544  1
  Nb  Nb3  1  0.042973  0.077716  0.541352  1
  Nb  Nb4  1  0.748286  0.899200  0.649534  1
  Nb  Nb5  1  0.249073  0.895958  0.149618  1
  V  V6  1  0.379037  0.498060  0.132492  1
  Tc  Tc7  1  0.520992  0.239580  0.759898  1
  Tc  Tc8  1  0.978210  0.241670  0.221526  1
  Tc  Tc9  1  0.157815  0.750958  0.655659  1
  Tc  Tc10  1  0.864579  0.498823  0.616150  1
  Tc  Tc11  1  0.592421  0.754335  0.091221  1
  Ge  Ge12  1  0.763349  0.532640  0.261893  1
  Ge  Ge13  1  0.238980  0.463496  0.727870  1
  Ge  Ge14  1  0.336927  0.830716  0.502582  1
  Ge  Ge15  1  0.667076  0.162336  0.497137  1
  Ge  Ge16  1  0.828810  0.831433  0.996679  1
  Ge  Ge17  1  0.166949  0.161505  0.997311  1
