# generated using pymatgen
data_La4Tb6IrRu3
_symmetry_space_group_name_H-M   'P 1'
_cell_length_a   6.54493566
_cell_length_b   7.27016322
_cell_length_c   8.87173441
_cell_angle_alpha   96.40380284
_cell_angle_beta   111.74804411
_cell_angle_gamma   89.96396580
_symmetry_Int_Tables_number   1
_chemical_formula_structural   La4Tb6IrRu3
_chemical_formula_sum   'La4 Tb6 Ir1 Ru3'
_cell_volume   389.26902115
_cell_formula_units_Z   1
loop_
 _symmetry_equiv_pos_site_id
 _symmetry_equiv_pos_as_xyz
  1  'x, y, z'
loop_
 _atom_site_type_symbol
 _atom_site_label
 _atom_site_symmetry_multiplicity
 _atom_site_fract_x
 _atom_site_fract_y
 _atom_site_fract_z
 _atom_site_occupancy
  La  La0  1  0.979842  0.910565  0.191123  1
  La  La1  1  0.787680  0.589477  0.804513  1
  La  La2  1  0.016160  0.090066  0.807456  1
  La  La3  1  0.207258  0.417391  0.193811  1
  Tb  Tb4  1  0.637666  0.815442  0.432081  1
  Tb  Tb5  1  0.207009  0.685046  0.570063  1
  Tb  Tb6  1  0.362295  0.184464  0.570368  1
  Tb  Tb7  1  0.792905  0.315163  0.430173  1
  Tb  Tb8  1  0.425598  0.749106  0.998269  1
  Tb  Tb9  1  0.571763  0.250760  0.000791  1
  Ir  Ir10  1  0.410746  0.076823  0.224771  1
  Ru  Ru11  1  0.827042  0.581798  0.227001  1
  Ru  Ru12  1  0.603753  0.918486  0.776572  1
  Ru  Ru13  1  0.170283  0.415414  0.773008  1
