# generated using pymatgen
data_NaZr3(Co5P3)4
_symmetry_space_group_name_H-M   'P 1'
_cell_length_a   3.59731900
_cell_length_b   10.16680470
_cell_length_c   11.63696412
_cell_angle_alpha   90.13200702
_cell_angle_beta   90.00000000
_cell_angle_gamma   90.00000000
_symmetry_Int_Tables_number   1
_chemical_formula_structural   NaZr3(Co5P3)4
_chemical_formula_sum   'Na1 Zr3 Co20 P12'
_cell_volume   425.60034870
_cell_formula_units_Z   1
loop_
 _symmetry_equiv_pos_site_id
 _symmetry_equiv_pos_as_xyz
  1  'x, y, z'
loop_
 _atom_site_type_symbol
 _atom_site_label
 _atom_site_symmetry_multiplicity
 _atom_site_fract_x
 _atom_site_fract_y
 _atom_site_fract_z
 _atom_site_occupancy
  Na  Na0  1  0.750000  0.081823  0.796112  1
  Zr  Zr1  1  0.250000  0.581742  0.701683  1
  Zr  Zr2  1  0.250000  0.918640  0.203298  1
  Zr  Zr3  1  0.750000  0.418495  0.297205  1
  Co  Co4  1  0.250000  0.718802  0.993496  1
  Co  Co5  1  0.250000  0.780118  0.491678  1
  Co  Co6  1  0.750000  0.282717  0.006646  1
  Co  Co7  1  0.750000  0.218879  0.506697  1
  Co  Co8  1  0.250000  0.409992  0.485344  1
  Co  Co9  1  0.250000  0.090237  0.990495  1
  Co  Co10  1  0.750000  0.591652  0.513880  1
  Co  Co11  1  0.750000  0.905895  0.015064  1
  Co  Co12  1  0.250000  0.224359  0.179374  1
  Co  Co13  1  0.250000  0.281951  0.675693  1
  Co  Co14  1  0.750000  0.776040  0.823641  1
  Co  Co15  1  0.750000  0.723258  0.321989  1
  Co  Co16  1  0.250000  0.878588  0.698883  1
  Co  Co17  1  0.250000  0.616375  0.200288  1
  Co  Co18  1  0.750000  0.116171  0.299318  1
  Co  Co19  1  0.750000  0.384919  0.800211  1
  Co  Co20  1  0.250000  0.466601  0.930352  1
  Co  Co21  1  0.250000  0.033100  0.430759  1
  Co  Co22  1  0.750000  0.532616  0.069779  1
  Co  Co23  1  0.750000  0.967529  0.568506  1
  P  P24  1  0.250000  0.418602  0.113453  1
  P  P25  1  0.250000  0.081379  0.615345  1
  P  P26  1  0.750000  0.580670  0.886128  1
  P  P27  1  0.750000  0.919133  0.386470  1
  P  P28  1  0.250000  0.264296  0.868955  1
  P  P29  1  0.250000  0.233004  0.370498  1
  P  P30  1  0.750000  0.732955  0.130114  1
  P  P31  1  0.750000  0.768464  0.630647  1
  P  P32  1  0.250000  0.600083  0.389252  1
  P  P33  1  0.250000  0.901266  0.889409  1
  P  P34  1  0.750000  0.399641  0.610493  1
  P  P35  1  0.750000  0.100009  0.108844  1
