# generated using pymatgen
data_TiIr2Rh4W
_symmetry_space_group_name_H-M   'P 1'
_cell_length_a   5.51141126
_cell_length_b   5.51141116
_cell_length_c   4.42167700
_cell_angle_alpha   90.00000000
_cell_angle_beta   90.00000000
_cell_angle_gamma   119.96510843
_symmetry_Int_Tables_number   1
_chemical_formula_structural   TiIr2Rh4W
_chemical_formula_sum   'Ti1 Ir2 Rh4 W1'
_cell_volume   116.35789676
_cell_formula_units_Z   1
loop_
 _symmetry_equiv_pos_site_id
 _symmetry_equiv_pos_as_xyz
  1  'x, y, z'
loop_
 _atom_site_type_symbol
 _atom_site_label
 _atom_site_symmetry_multiplicity
 _atom_site_fract_x
 _atom_site_fract_y
 _atom_site_fract_z
 _atom_site_occupancy
  Ti  Ti0  1  0.334228  0.665772  0.250000  1
  Ir  Ir1  1  0.834466  0.668247  0.250000  1
  Ir  Ir2  1  0.331753  0.165534  0.250000  1
  Rh  Rh3  1  0.165822  0.834178  0.750000  1
  Rh  Rh4  1  0.668078  0.835071  0.750000  1
  Rh  Rh5  1  0.834448  0.165552  0.250000  1
  Rh  Rh6  1  0.164929  0.331922  0.750000  1
  W  W7  1  0.666277  0.333723  0.750000  1
