# generated using pymatgen
data_NdY5Mn2(Co4P3)4
_symmetry_space_group_name_H-M   'P 1'
_cell_length_a   3.70584000
_cell_length_b   10.56030800
_cell_length_c   12.22802900
_cell_angle_alpha   90.00000000
_cell_angle_beta   90.00000000
_cell_angle_gamma   90.00000000
_symmetry_Int_Tables_number   1
_chemical_formula_structural   NdY5Mn2(Co4P3)4
_chemical_formula_sum   'Nd1 Y5 Mn2 Co16 P12'
_cell_volume   478.54161358
_cell_formula_units_Z   1
loop_
 _symmetry_equiv_pos_site_id
 _symmetry_equiv_pos_as_xyz
  1  'x, y, z'
loop_
 _atom_site_type_symbol
 _atom_site_label
 _atom_site_symmetry_multiplicity
 _atom_site_fract_x
 _atom_site_fract_y
 _atom_site_fract_z
 _atom_site_occupancy
  Nd  Nd0  1  0.000000  0.500000  0.522537  1
  Y  Y1  1  0.500000  0.000000  0.478143  1
  Y  Y2  1  0.500000  0.818261  0.205298  1
  Y  Y3  1  0.500000  0.181739  0.205298  1
  Y  Y4  1  0.000000  0.682658  0.795334  1
  Y  Y5  1  0.000000  0.317342  0.795334  1
  Mn  Mn6  1  0.500000  0.500000  0.156272  1
  Mn  Mn7  1  0.000000  0.000000  0.842032  1
  Co  Co8  1  0.500000  0.500000  0.705096  1
  Co  Co9  1  0.000000  0.000000  0.296676  1
  Co  Co10  1  0.000000  0.500000  0.986617  1
  Co  Co11  1  0.500000  0.000000  0.013988  1
  Co  Co12  1  0.500000  0.332704  0.994203  1
  Co  Co13  1  0.500000  0.667296  0.994203  1
  Co  Co14  1  0.000000  0.166423  0.005719  1
  Co  Co15  1  0.000000  0.833577  0.005719  1
  Co  Co16  1  0.500000  0.293951  0.429723  1
  Co  Co17  1  0.500000  0.706049  0.429723  1
  Co  Co18  1  0.000000  0.200990  0.570204  1
  Co  Co19  1  0.000000  0.799010  0.570204  1
  Co  Co20  1  0.500000  0.880487  0.710680  1
  Co  Co21  1  0.500000  0.119513  0.710680  1
  Co  Co22  1  0.000000  0.620794  0.288755  1
  Co  Co23  1  0.000000  0.379206  0.288755  1
  P  P24  1  0.500000  0.500000  0.883809  1
  P  P25  1  0.000000  0.000000  0.116951  1
  P  P26  1  0.500000  0.500000  0.340250  1
  P  P27  1  0.000000  0.000000  0.656231  1
  P  P28  1  0.500000  0.307371  0.617127  1
  P  P29  1  0.500000  0.692629  0.617127  1
  P  P30  1  0.000000  0.188728  0.383934  1
  P  P31  1  0.000000  0.811272  0.383934  1
  P  P32  1  0.500000  0.847795  0.893714  1
  P  P33  1  0.500000  0.152205  0.893714  1
  P  P34  1  0.000000  0.653279  0.106009  1
  P  P35  1  0.000000  0.346721  0.106009  1
