# generated using pymatgen
data_Th8Cd4Pd5Pt3
_symmetry_space_group_name_H-M   'P 1'
_cell_length_a   8.00144703
_cell_length_b   8.00349296
_cell_length_c   7.61623400
_cell_angle_alpha   90.03326716
_cell_angle_beta   89.99523099
_cell_angle_gamma   89.91597935
_symmetry_Int_Tables_number   1
_chemical_formula_structural   Th8Cd4Pd5Pt3
_chemical_formula_sum   'Th8 Cd4 Pd5 Pt3'
_cell_volume   487.73939865
_cell_formula_units_Z   1
loop_
 _symmetry_equiv_pos_site_id
 _symmetry_equiv_pos_as_xyz
  1  'x, y, z'
loop_
 _atom_site_type_symbol
 _atom_site_label
 _atom_site_symmetry_multiplicity
 _atom_site_fract_x
 _atom_site_fract_y
 _atom_site_fract_z
 _atom_site_occupancy
  Th  Th0  1  0.673861  0.673712  0.501568  1
  Th  Th1  1  0.823656  0.173507  0.498646  1
  Th  Th2  1  0.674929  0.675203  0.998481  1
  Th  Th3  1  0.824803  0.171855  0.001436  1
  Th  Th4  1  0.173298  0.823371  0.503414  1
  Th  Th5  1  0.327439  0.327306  0.000800  1
  Th  Th6  1  0.172081  0.824941  0.996577  1
  Th  Th7  1  0.328597  0.328895  0.499119  1
  Cd  Cd8  1  0.002227  0.500445  0.249273  1
  Cd  Cd9  1  0.497474  0.004223  0.749510  1
  Cd  Cd10  1  0.496640  0.996287  0.250253  1
  Cd  Cd11  1  0.998285  0.494360  0.750541  1
  Pd  Pd12  1  0.631430  0.369081  0.751561  1
  Pd  Pd13  1  0.369116  0.631799  0.248407  1
  Pd  Pd14  1  0.128277  0.127995  0.251535  1
  Pd  Pd15  1  0.872342  0.871585  0.251607  1
  Pd  Pd16  1  0.131175  0.131427  0.748431  1
  Pt  Pt17  1  0.626588  0.374012  0.248861  1
  Pt  Pt18  1  0.374324  0.625984  0.751142  1
  Pt  Pt19  1  0.873459  0.874012  0.748836  1
