# generated using pymatgen
data_Ho3MgIr8
_symmetry_space_group_name_H-M   'P 1'
_cell_length_a   5.32097900
_cell_length_b   5.32097826
_cell_length_c   8.64800100
_cell_angle_alpha   90.00000000
_cell_angle_beta   90.00000000
_cell_angle_gamma   119.99998594
_symmetry_Int_Tables_number   1
_chemical_formula_structural   Ho3MgIr8
_chemical_formula_sum   'Ho3 Mg1 Ir8'
_cell_volume   212.04569216
_cell_formula_units_Z   1
loop_
 _symmetry_equiv_pos_site_id
 _symmetry_equiv_pos_as_xyz
  1  'x, y, z'
loop_
 _atom_site_type_symbol
 _atom_site_label
 _atom_site_symmetry_multiplicity
 _atom_site_fract_x
 _atom_site_fract_y
 _atom_site_fract_z
 _atom_site_occupancy
  Ho  Ho0  1  0.333333  0.666667  0.078228  1
  Ho  Ho1  1  0.666667  0.333333  0.559248  1
  Ho  Ho2  1  0.666667  0.333333  0.930512  1
  Mg  Mg3  1  0.333333  0.666667  0.437367  1
  Ir  Ir4  1  0.000000  0.000000  0.997733  1
  Ir  Ir5  1  0.000000  0.000000  0.498115  1
  Ir  Ir6  1  0.830248  0.660496  0.251035  1
  Ir  Ir7  1  0.170755  0.829245  0.748564  1
  Ir  Ir8  1  0.658490  0.829245  0.748564  1
  Ir  Ir9  1  0.339504  0.169752  0.251035  1
  Ir  Ir10  1  0.830248  0.169752  0.251035  1
  Ir  Ir11  1  0.170755  0.341510  0.748564  1
