# generated using pymatgen
data_Hf5In2Sb
_symmetry_space_group_name_H-M   'P 1'
_cell_length_a   7.43359800
_cell_length_b   8.98825100
_cell_length_c   10.78511500
_cell_angle_alpha   90.00000000
_cell_angle_beta   90.00000000
_cell_angle_gamma   90.00000000
_symmetry_Int_Tables_number   1
_chemical_formula_structural   Hf5In2Sb
_chemical_formula_sum   'Hf20 In8 Sb4'
_cell_volume   720.60794036
_cell_formula_units_Z   4
loop_
 _symmetry_equiv_pos_site_id
 _symmetry_equiv_pos_as_xyz
  1  'x, y, z'
loop_
 _atom_site_type_symbol
 _atom_site_label
 _atom_site_symmetry_multiplicity
 _atom_site_fract_x
 _atom_site_fract_y
 _atom_site_fract_z
 _atom_site_occupancy
  Hf  Hf0  1  0.816854  0.433861  0.557299  1
  Hf  Hf1  1  0.316854  0.066139  0.942701  1
  Hf  Hf2  1  0.183146  0.933861  0.442701  1
  Hf  Hf3  1  0.683146  0.566139  0.057299  1
  Hf  Hf4  1  0.152261  0.250000  0.725732  1
  Hf  Hf5  1  0.652261  0.250000  0.774268  1
  Hf  Hf6  1  0.847739  0.750000  0.274268  1
  Hf  Hf7  1  0.347739  0.750000  0.225732  1
  Hf  Hf8  1  0.316854  0.433861  0.942701  1
  Hf  Hf9  1  0.816854  0.066139  0.557299  1
  Hf  Hf10  1  0.683146  0.933861  0.057299  1
  Hf  Hf11  1  0.183146  0.566139  0.442701  1
  Hf  Hf12  1  0.185896  0.750000  0.713089  1
  Hf  Hf13  1  0.685896  0.750000  0.786911  1
  Hf  Hf14  1  0.814104  0.250000  0.286911  1
  Hf  Hf15  1  0.314104  0.250000  0.213089  1
  Hf  Hf16  1  0.005056  0.750000  0.991544  1
  Hf  Hf17  1  0.505056  0.750000  0.508456  1
  Hf  Hf18  1  0.994944  0.250000  0.008456  1
  Hf  Hf19  1  0.494944  0.250000  0.491544  1
  In  In20  1  0.563877  0.997204  0.325257  1
  In  In21  1  0.063877  0.502796  0.174743  1
  In  In22  1  0.436123  0.497204  0.674743  1
  In  In23  1  0.936123  0.002796  0.825257  1
  In  In24  1  0.436123  0.002796  0.674743  1
  In  In25  1  0.936123  0.497204  0.825257  1
  In  In26  1  0.563877  0.502796  0.325257  1
  In  In27  1  0.063877  0.997204  0.174743  1
  Sb  Sb28  1  0.388785  0.750000  0.957186  1
  Sb  Sb29  1  0.888785  0.750000  0.542814  1
  Sb  Sb30  1  0.611215  0.250000  0.042814  1
  Sb  Sb31  1  0.111215  0.250000  0.457186  1
