# generated using pymatgen
data_SmY2(CdNi)2
_symmetry_space_group_name_H-M   'P 1'
_cell_length_a   10.97888830
_cell_length_b   10.97888751
_cell_length_c   3.70598100
_cell_angle_alpha   90.00000000
_cell_angle_beta   90.00000000
_cell_angle_gamma   159.04606815
_symmetry_Int_Tables_number   1
_chemical_formula_structural   SmY2(CdNi)2
_chemical_formula_sum   'Sm1 Y2 Cd2 Ni2'
_cell_volume   159.74905039
_cell_formula_units_Z   1
loop_
 _symmetry_equiv_pos_site_id
 _symmetry_equiv_pos_as_xyz
  1  'x, y, z'
loop_
 _atom_site_type_symbol
 _atom_site_label
 _atom_site_symmetry_multiplicity
 _atom_site_fract_x
 _atom_site_fract_y
 _atom_site_fract_z
 _atom_site_occupancy
  Sm  Sm0  1  0.000000  0.000000  0.000000  1
  Y  Y1  1  0.824086  0.175914  0.000000  1
  Y  Y2  1  0.175914  0.824086  0.000000  1
  Cd  Cd3  1  0.411723  0.588277  0.500000  1
  Cd  Cd4  1  0.588277  0.411723  0.500000  1
  Ni  Ni5  1  0.280710  0.719290  0.500000  1
  Ni  Ni6  1  0.719290  0.280710  0.500000  1
