# generated using pymatgen
data_Dy10Tl6S
_symmetry_space_group_name_H-M   'P 1'
_cell_length_a   9.08940600
_cell_length_b   9.08940780
_cell_length_c   6.62388200
_cell_angle_alpha   90.00000000
_cell_angle_beta   90.00000000
_cell_angle_gamma   120.00000074
_symmetry_Int_Tables_number   1
_chemical_formula_structural   Dy10Tl6S
_chemical_formula_sum   'Dy10 Tl6 S1'
_cell_volume   473.93011595
_cell_formula_units_Z   1
loop_
 _symmetry_equiv_pos_site_id
 _symmetry_equiv_pos_as_xyz
  1  'x, y, z'
loop_
 _atom_site_type_symbol
 _atom_site_label
 _atom_site_symmetry_multiplicity
 _atom_site_fract_x
 _atom_site_fract_y
 _atom_site_fract_z
 _atom_site_occupancy
  Dy  Dy0  1  0.666667  0.333333  0.500000  1
  Dy  Dy1  1  0.333333  0.666667  0.500000  1
  Dy  Dy2  1  0.333333  0.666667  0.000000  1
  Dy  Dy3  1  0.666667  0.333333  0.000000  1
  Dy  Dy4  1  0.756862  0.756862  0.250158  1
  Dy  Dy5  1  0.243138  0.000000  0.250158  1
  Dy  Dy6  1  0.000000  0.243138  0.250158  1
  Dy  Dy7  1  0.243138  0.243138  0.749842  1
  Dy  Dy8  1  0.756862  0.000000  0.749842  1
  Dy  Dy9  1  0.000000  0.756862  0.749842  1
  Tl  Tl10  1  0.398103  0.398103  0.247830  1
  Tl  Tl11  1  0.601897  0.000000  0.247830  1
  Tl  Tl12  1  0.000000  0.601897  0.247830  1
  Tl  Tl13  1  0.601897  0.601897  0.752170  1
  Tl  Tl14  1  0.398103  0.000000  0.752170  1
  Tl  Tl15  1  0.000000  0.398103  0.752170  1
  S  S16  1  0.000000  0.000000  0.500000  1
