# generated using pymatgen
data_MgHg4(PBr2)2
_symmetry_space_group_name_H-M   'P 1'
_cell_length_a   12.70780800
_cell_length_b   7.84606120
_cell_length_c   7.91183765
_cell_angle_alpha   62.31068846
_cell_angle_beta   90.00000000
_cell_angle_gamma   90.00000000
_symmetry_Int_Tables_number   1
_chemical_formula_structural   MgHg4(PBr2)2
_chemical_formula_sum   'Mg2 Hg8 P4 Br8'
_cell_volume   698.51963558
_cell_formula_units_Z   2
loop_
 _symmetry_equiv_pos_site_id
 _symmetry_equiv_pos_as_xyz
  1  'x, y, z'
loop_
 _atom_site_type_symbol
 _atom_site_label
 _atom_site_symmetry_multiplicity
 _atom_site_fract_x
 _atom_site_fract_y
 _atom_site_fract_z
 _atom_site_occupancy
  Mg  Mg0  1  0.834085  0.993742  0.006994  1
  Mg  Mg1  1  0.334085  0.006258  0.993006  1
  Hg  Hg2  1  0.794249  0.671327  0.669427  1
  Hg  Hg3  1  0.552287  0.026526  0.569720  1
  Hg  Hg4  1  0.052287  0.973474  0.430280  1
  Hg  Hg5  1  0.557667  0.522830  0.055096  1
  Hg  Hg6  1  0.294249  0.328673  0.330573  1
  Hg  Hg7  1  0.025900  0.477253  0.443867  1
  Hg  Hg8  1  0.525900  0.522747  0.556133  1
  Hg  Hg9  1  0.057667  0.477170  0.944904  1
  P  P10  1  0.482883  0.350999  0.375119  1
  P  P11  1  0.605564  0.689313  0.718025  1
  P  P12  1  0.982883  0.649001  0.624881  1
  P  P13  1  0.105564  0.310687  0.281975  1
  Br  Br14  1  0.238128  0.306447  0.760516  1
  Br  Br15  1  0.312495  0.728294  0.921052  1
  Br  Br16  1  0.027163  0.896064  0.066356  1
  Br  Br17  1  0.738128  0.693553  0.239484  1
  Br  Br18  1  0.527163  0.103936  0.933644  1
  Br  Br19  1  0.812495  0.271706  0.078948  1
  Br  Br20  1  0.808309  0.099175  0.655414  1
  Br  Br21  1  0.308309  0.900825  0.344586  1
