# generated using pymatgen
data_TlRhBr18
_symmetry_space_group_name_H-M   'P 1'
_cell_length_a   9.23206769
_cell_length_b   9.28313571
_cell_length_c   9.21212563
_cell_angle_alpha   92.56144126
_cell_angle_beta   92.62387219
_cell_angle_gamma   92.46329784
_symmetry_Int_Tables_number   1
_chemical_formula_structural   TlRhBr18
_chemical_formula_sum   'Tl1 Rh1 Br18'
_cell_volume   787.08450330
_cell_formula_units_Z   1
loop_
 _symmetry_equiv_pos_site_id
 _symmetry_equiv_pos_as_xyz
  1  'x, y, z'
loop_
 _atom_site_type_symbol
 _atom_site_label
 _atom_site_symmetry_multiplicity
 _atom_site_fract_x
 _atom_site_fract_y
 _atom_site_fract_z
 _atom_site_occupancy
  Tl  Tl0  1  0.500000  0.500000  0.500000  1
  Rh  Rh1  1  0.000000  0.000000  0.000000  1
  Br  Br2  1  0.804192  0.474501  0.533443  1
  Br  Br3  1  0.533334  0.802455  0.473992  1
  Br  Br4  1  0.474865  0.534450  0.804606  1
  Br  Br5  1  0.195808  0.525499  0.466557  1
  Br  Br6  1  0.466666  0.197545  0.526008  1
  Br  Br7  1  0.525135  0.465550  0.195394  1
  Br  Br8  1  0.901385  0.364265  0.766267  1
  Br  Br9  1  0.765913  0.900059  0.365208  1
  Br  Br10  1  0.365045  0.766246  0.901261  1
  Br  Br11  1  0.098615  0.635735  0.233733  1
  Br  Br12  1  0.234087  0.099941  0.634792  1
  Br  Br13  1  0.634955  0.233754  0.098739  1
  Br  Br14  1  0.007944  0.970105  0.728649  1
  Br  Br15  1  0.729318  0.008524  0.969094  1
  Br  Br16  1  0.969091  0.730957  0.007138  1
  Br  Br17  1  0.992056  0.029895  0.271351  1
  Br  Br18  1  0.270682  0.991476  0.030906  1
  Br  Br19  1  0.030909  0.269043  0.992862  1
