# generated using pymatgen
data_AcPt5
_symmetry_space_group_name_H-M   'P 1'
_cell_length_a   5.55761000
_cell_length_b   5.55761042
_cell_length_c   4.39939300
_cell_angle_alpha   90.00000000
_cell_angle_beta   90.00000000
_cell_angle_gamma   59.99984933
_symmetry_Int_Tables_number   1
_chemical_formula_structural   AcPt5
_chemical_formula_sum   'Ac1 Pt5'
_cell_volume   117.67898101
_cell_formula_units_Z   1
loop_
 _symmetry_equiv_pos_site_id
 _symmetry_equiv_pos_as_xyz
  1  'x, y, z'
loop_
 _atom_site_type_symbol
 _atom_site_label
 _atom_site_symmetry_multiplicity
 _atom_site_fract_x
 _atom_site_fract_y
 _atom_site_fract_z
 _atom_site_occupancy
  Ac  Ac0  1  0.000000  0.000000  0.000000  1
  Pt  Pt1  1  0.333335  0.333332  0.000000  1
  Pt  Pt2  1  0.666668  0.666665  0.000000  1
  Pt  Pt3  1  0.500743  0.000000  0.500000  1
  Pt  Pt4  1  0.000000  0.499258  0.500000  1
  Pt  Pt5  1  0.499258  0.500743  0.500000  1
