# generated using pymatgen
data_La8Tb12Si15Pb
_symmetry_space_group_name_H-M   'P 1'
_cell_length_a   7.91816842
_cell_length_b   7.84749778
_cell_length_c   14.59603100
_cell_angle_alpha   90.37245633
_cell_angle_beta   88.99733019
_cell_angle_gamma   90.10230868
_symmetry_Int_Tables_number   1
_chemical_formula_structural   La8Tb12Si15Pb
_chemical_formula_sum   'La8 Tb12 Si15 Pb1'
_cell_volume   906.80608645
_cell_formula_units_Z   1
loop_
 _symmetry_equiv_pos_site_id
 _symmetry_equiv_pos_as_xyz
  1  'x, y, z'
loop_
 _atom_site_type_symbol
 _atom_site_label
 _atom_site_symmetry_multiplicity
 _atom_site_fract_x
 _atom_site_fract_y
 _atom_site_fract_z
 _atom_site_occupancy
  La  La0  1  0.993692  0.637875  0.040943  1
  La  La1  1  0.011189  0.351274  0.545482  1
  La  La2  1  0.643354  0.992071  0.957388  1
  La  La3  1  0.145260  0.509286  0.791405  1
  La  La4  1  0.842204  0.482141  0.282970  1
  La  La5  1  0.503077  0.136988  0.204787  1
  La  La6  1  0.498877  0.860434  0.711402  1
  La  La7  1  0.363170  0.012062  0.458191  1
  Tb  Tb8  1  0.366700  0.489081  0.374819  1
  Tb  Tb9  1  0.846176  0.022519  0.367103  1
  Tb  Tb10  1  0.989738  0.138025  0.124630  1
  Tb  Tb11  1  0.011885  0.863127  0.630075  1
  Tb  Tb12  1  0.642449  0.507883  0.876320  1
  Tb  Tb13  1  0.497677  0.360269  0.629626  1
  Tb  Tb14  1  0.507294  0.638905  0.122657  1
  Tb  Tb15  1  0.139932  0.991850  0.874939  1
  Tb  Tb16  1  0.667637  0.686279  0.504725  1
  Tb  Tb17  1  0.822343  0.183247  0.750480  1
  Tb  Tb18  1  0.181268  0.817292  0.241341  1
  Tb  Tb19  1  0.316754  0.316156  0.000553  1
  Si  Si20  1  0.935264  0.287940  0.938674  1
  Si  Si21  1  0.712279  0.065812  0.562049  1
  Si  Si22  1  0.210050  0.434313  0.189768  1
  Si  Si23  1  0.795730  0.566446  0.689574  1
  Si  Si24  1  0.436805  0.212482  0.813755  1
  Si  Si25  1  0.561274  0.788840  0.310482  1
  Si  Si26  1  0.289891  0.934506  0.058450  1
  Si  Si27  1  0.850305  0.794423  0.809893  1
  Si  Si28  1  0.151892  0.205202  0.307827  1
  Si  Si29  1  0.792912  0.844732  0.189230  1
  Si  Si30  1  0.305336  0.650037  0.569821  1
  Si  Si31  1  0.705944  0.347282  0.058853  1
  Si  Si32  1  0.654652  0.302067  0.446041  1
  Si  Si33  1  0.349159  0.705120  0.940185  1
  Si  Si34  1  0.208638  0.152837  0.693265  1
  Pb  Pb35  1  0.049193  0.711195  0.432295  1
