# generated using pymatgen
data_Pr7Nd(LuSn3)2
_symmetry_space_group_name_H-M   'P 1'
_cell_length_a   9.24772828
_cell_length_b   9.25612991
_cell_length_c   6.79057302
_cell_angle_alpha   89.99031189
_cell_angle_beta   90.00485247
_cell_angle_gamma   120.03006283
_symmetry_Int_Tables_number   1
_chemical_formula_structural   Pr7Nd(LuSn3)2
_chemical_formula_sum   'Pr7 Nd1 Lu2 Sn6'
_cell_volume   503.23392331
_cell_formula_units_Z   1
loop_
 _symmetry_equiv_pos_site_id
 _symmetry_equiv_pos_as_xyz
  1  'x, y, z'
loop_
 _atom_site_type_symbol
 _atom_site_label
 _atom_site_symmetry_multiplicity
 _atom_site_fract_x
 _atom_site_fract_y
 _atom_site_fract_z
 _atom_site_occupancy
  Pr  Pr0  1  0.666800  0.333431  0.000054  1
  Pr  Pr1  1  0.333200  0.666632  0.000054  1
  Pr  Pr2  1  0.758043  0.757899  0.747240  1
  Pr  Pr3  1  0.241957  0.999856  0.747240  1
  Pr  Pr4  1  0.000000  0.242295  0.747269  1
  Pr  Pr5  1  0.242082  0.242113  0.252751  1
  Pr  Pr6  1  0.757918  0.000030  0.252751  1
  Nd  Nd7  1  0.000000  0.757329  0.252964  1
  Lu  Lu8  1  0.333300  0.666693  0.499904  1
  Lu  Lu9  1  0.666700  0.333392  0.499904  1
  Sn  Sn10  1  0.397891  0.397810  0.738308  1
  Sn  Sn11  1  0.602109  0.999919  0.738308  1
  Sn  Sn12  1  0.000000  0.602156  0.738216  1
  Sn  Sn13  1  0.603152  0.602578  0.261660  1
  Sn  Sn14  1  0.396848  0.999425  0.261660  1
  Sn  Sn15  1  0.000000  0.398442  0.261716  1
