# generated using pymatgen
data_Nd10In8Pt3Rh
_symmetry_space_group_name_H-M   'P 1'
_cell_length_a   3.79756000
_cell_length_b   8.28358600
_cell_length_c   18.74148101
_cell_angle_alpha   89.99705222
_cell_angle_beta   90.00000000
_cell_angle_gamma   90.00000000
_symmetry_Int_Tables_number   1
_chemical_formula_structural   Nd10In8Pt3Rh
_chemical_formula_sum   'Nd10 In8 Pt3 Rh1'
_cell_volume   589.55854233
_cell_formula_units_Z   1
loop_
 _symmetry_equiv_pos_site_id
 _symmetry_equiv_pos_as_xyz
  1  'x, y, z'
loop_
 _atom_site_type_symbol
 _atom_site_label
 _atom_site_symmetry_multiplicity
 _atom_site_fract_x
 _atom_site_fract_y
 _atom_site_fract_z
 _atom_site_occupancy
  Nd  Nd0  1  0.000000  0.115547  0.412317  1
  Nd  Nd1  1  0.000000  0.882125  0.584680  1
  Nd  Nd2  1  0.000000  0.382057  0.915397  1
  Nd  Nd3  1  0.000000  0.618045  0.085848  1
  Nd  Nd4  1  0.000000  0.240005  0.220211  1
  Nd  Nd5  1  0.000000  0.757672  0.780631  1
  Nd  Nd6  1  0.000000  0.257493  0.719909  1
  Nd  Nd7  1  0.000000  0.749575  0.280338  1
  Nd  Nd8  1  0.000000  0.999364  0.000125  1
  Nd  Nd9  1  0.000000  0.499864  0.499635  1
  In  In10  1  0.500000  0.426271  0.350010  1
  In  In11  1  0.500000  0.573702  0.649650  1
  In  In12  1  0.500000  0.073802  0.850181  1
  In  In13  1  0.500000  0.929337  0.151106  1
  In  In14  1  0.500000  0.291343  0.068234  1
  In  In15  1  0.500000  0.707969  0.931852  1
  In  In16  1  0.500000  0.208174  0.567941  1
  In  In17  1  0.500000  0.792759  0.430473  1
  Pt  Pt18  1  0.500000  0.977659  0.696793  1
  Pt  Pt19  1  0.500000  0.477782  0.803107  1
  Pt  Pt20  1  0.500000  0.520838  0.197376  1
  Rh  Rh21  1  0.500000  0.018617  0.304187  1
