# generated using pymatgen
data_Tb16Cd4IrPd3
_symmetry_space_group_name_H-M   'P 1'
_cell_length_a   9.73144735
_cell_length_b   9.73144673
_cell_length_c   9.73144658
_cell_angle_alpha   59.72684918
_cell_angle_beta   59.72685131
_cell_angle_gamma   59.72684710
_symmetry_Int_Tables_number   1
_chemical_formula_structural   Tb16Cd4IrPd3
_chemical_formula_sum   'Tb16 Cd4 Ir1 Pd3'
_cell_volume   647.61170069
_cell_formula_units_Z   1
loop_
 _symmetry_equiv_pos_site_id
 _symmetry_equiv_pos_as_xyz
  1  'x, y, z'
loop_
 _atom_site_type_symbol
 _atom_site_label
 _atom_site_symmetry_multiplicity
 _atom_site_fract_x
 _atom_site_fract_y
 _atom_site_fract_z
 _atom_site_occupancy
  Tb  Tb0  1  0.352140  0.352140  0.352140  1
  Tb  Tb1  1  0.351623  0.351623  0.943280  1
  Tb  Tb2  1  0.351623  0.943280  0.351623  1
  Tb  Tb3  1  0.943280  0.351623  0.351623  1
  Tb  Tb4  1  0.814710  0.189931  0.189931  1
  Tb  Tb5  1  0.187813  0.810144  0.810144  1
  Tb  Tb6  1  0.189931  0.814710  0.189931  1
  Tb  Tb7  1  0.810144  0.187813  0.810144  1
  Tb  Tb8  1  0.189931  0.189931  0.814710  1
  Tb  Tb9  1  0.810144  0.810144  0.187813  1
  Tb  Tb10  1  0.934671  0.566097  0.566097  1
  Tb  Tb11  1  0.561067  0.936092  0.936092  1
  Tb  Tb12  1  0.566097  0.934671  0.566097  1
  Tb  Tb13  1  0.936092  0.561067  0.936092  1
  Tb  Tb14  1  0.566097  0.566097  0.934671  1
  Tb  Tb15  1  0.936092  0.936092  0.561067  1
  Cd  Cd16  1  0.580604  0.580604  0.580604  1
  Cd  Cd17  1  0.581095  0.581095  0.254234  1
  Cd  Cd18  1  0.581095  0.254234  0.581095  1
  Cd  Cd19  1  0.254234  0.581095  0.581095  1
  Ir  Ir20  1  0.144306  0.144306  0.144306  1
  Pd  Pd21  1  0.143961  0.143961  0.569290  1
  Pd  Pd22  1  0.143961  0.569290  0.143961  1
  Pd  Pd23  1  0.569290  0.143961  0.143961  1
