# generated using pymatgen
data_Ac(Re2Si)2
_symmetry_space_group_name_H-M   'P 1'
_cell_length_a   7.47837927
_cell_length_b   7.47838035
_cell_length_c   4.19030200
_cell_angle_alpha   90.00000000
_cell_angle_beta   90.00000000
_cell_angle_gamma   147.09191709
_symmetry_Int_Tables_number   1
_chemical_formula_structural   Ac(Re2Si)2
_chemical_formula_sum   'Ac1 Re4 Si2'
_cell_volume   127.31934162
_cell_formula_units_Z   1
loop_
 _symmetry_equiv_pos_site_id
 _symmetry_equiv_pos_as_xyz
  1  'x, y, z'
loop_
 _atom_site_type_symbol
 _atom_site_label
 _atom_site_symmetry_multiplicity
 _atom_site_fract_x
 _atom_site_fract_y
 _atom_site_fract_z
 _atom_site_occupancy
  Ac  Ac0  1  0.000000  0.000000  0.000000  1
  Re  Re1  1  0.807997  0.192003  0.500000  1
  Re  Re2  1  0.192003  0.807997  0.500000  1
  Re  Re3  1  0.698210  0.301790  0.000000  1
  Re  Re4  1  0.301790  0.698210  0.000000  1
  Si  Si5  1  0.594312  0.405688  0.500000  1
  Si  Si6  1  0.405688  0.594312  0.500000  1
