# generated using pymatgen
data_La5TcPt
_symmetry_space_group_name_H-M   'P 1'
_cell_length_a   9.23985398
_cell_length_b   9.23985285
_cell_length_c   7.52110713
_cell_angle_alpha   85.04853605
_cell_angle_beta   85.04853741
_cell_angle_gamma   42.85231468
_symmetry_Int_Tables_number   1
_chemical_formula_structural   La5TcPt
_chemical_formula_sum   'La10 Tc2 Pt2'
_cell_volume   434.82733496
_cell_formula_units_Z   2
loop_
 _symmetry_equiv_pos_site_id
 _symmetry_equiv_pos_as_xyz
  1  'x, y, z'
loop_
 _atom_site_type_symbol
 _atom_site_label
 _atom_site_symmetry_multiplicity
 _atom_site_fract_x
 _atom_site_fract_y
 _atom_site_fract_z
 _atom_site_occupancy
  La  La0  1  0.996682  0.817219  0.920004  1
  La  La1  1  0.182781  0.003318  0.579996  1
  La  La2  1  0.975705  0.207700  0.094894  1
  La  La3  1  0.792300  0.024295  0.405106  1
  La  La4  1  0.364067  0.212218  0.825260  1
  La  La5  1  0.787782  0.635933  0.674740  1
  La  La6  1  0.654179  0.784227  0.185903  1
  La  La7  1  0.215773  0.345821  0.314097  1
  La  La8  1  0.571544  0.428456  0.750000  1
  La  La9  1  0.424692  0.575308  0.250000  1
  Tc  Tc10  1  0.832212  0.386503  0.429965  1
  Tc  Tc11  1  0.613497  0.167788  0.070035  1
  Pt  Pt12  1  0.182630  0.593845  0.576791  1
  Pt  Pt13  1  0.406155  0.817370  0.923209  1
