# generated using pymatgen
data_CeYSiPRh4
_symmetry_space_group_name_H-M   'P 1'
_cell_length_a   9.25436179
_cell_length_b   9.25436121
_cell_length_c   4.01832300
_cell_angle_alpha   90.00000000
_cell_angle_beta   90.00000000
_cell_angle_gamma   155.45539460
_symmetry_Int_Tables_number   1
_chemical_formula_structural   CeYSiPRh4
_chemical_formula_sum   'Ce1 Y1 Si1 P1 Rh4'
_cell_volume   142.95714220
_cell_formula_units_Z   1
loop_
 _symmetry_equiv_pos_site_id
 _symmetry_equiv_pos_as_xyz
  1  'x, y, z'
loop_
 _atom_site_type_symbol
 _atom_site_label
 _atom_site_symmetry_multiplicity
 _atom_site_fract_x
 _atom_site_fract_y
 _atom_site_fract_z
 _atom_site_occupancy
  Ce  Ce0  1  0.901798  0.098202  0.250000  1
  Y  Y1  1  0.102003  0.897997  0.750000  1
  Si  Si2  1  0.674933  0.325067  0.250000  1
  P  P3  1  0.322069  0.677931  0.750000  1
  Rh  Rh4  1  0.545481  0.454519  0.250000  1
  Rh  Rh5  1  0.450700  0.549300  0.750000  1
  Rh  Rh6  1  0.251859  0.748141  0.250000  1
  Rh  Rh7  1  0.751156  0.248844  0.750000  1
