# generated using pymatgen
data_La4Pr4GePd24
_symmetry_space_group_name_H-M   'P 1'
_cell_length_a   8.53849647
_cell_length_b   8.53848724
_cell_length_c   8.53848724
_cell_angle_alpha   89.99931237
_cell_angle_beta   89.97299770
_cell_angle_gamma   89.97299770
_symmetry_Int_Tables_number   1
_chemical_formula_structural   La4Pr4GePd24
_chemical_formula_sum   'La4 Pr4 Ge1 Pd24'
_cell_volume   622.50547311
_cell_formula_units_Z   1
loop_
 _symmetry_equiv_pos_site_id
 _symmetry_equiv_pos_as_xyz
  1  'x, y, z'
loop_
 _atom_site_type_symbol
 _atom_site_label
 _atom_site_symmetry_multiplicity
 _atom_site_fract_x
 _atom_site_fract_y
 _atom_site_fract_z
 _atom_site_occupancy
  La  La0  1  0.253167  0.253176  0.253176  1
  La  La1  1  0.746867  0.746965  0.746965  1
  La  La2  1  0.746810  0.746831  0.253094  1
  La  La3  1  0.746810  0.253094  0.746831  1
  Pr  Pr4  1  0.252736  0.252804  0.747327  1
  Pr  Pr5  1  0.252736  0.747327  0.252804  1
  Pr  Pr6  1  0.252795  0.747141  0.747141  1
  Pr  Pr7  1  0.747348  0.252686  0.252686  1
  Ge  Ge8  1  0.000104  0.000001  0.000001  1
  Pd  Pd9  1  0.260660  0.500012  0.000046  1
  Pd  Pd10  1  0.739352  0.500017  0.999942  1
  Pd  Pd11  1  0.000044  0.260651  0.500005  1
  Pd  Pd12  1  0.499999  0.260651  0.999998  1
  Pd  Pd13  1  0.999943  0.739344  0.500011  1
  Pd  Pd14  1  0.500002  0.739338  0.000002  1
  Pd  Pd15  1  0.499999  0.999998  0.260651  1
  Pd  Pd16  1  0.260660  0.000046  0.500012  1
  Pd  Pd17  1  0.500002  0.000002  0.739338  1
  Pd  Pd18  1  0.739352  0.999942  0.500017  1
  Pd  Pd19  1  0.000044  0.500005  0.260651  1
  Pd  Pd20  1  0.999943  0.500011  0.739344  1
  Pd  Pd21  1  0.253382  0.499953  0.499953  1
  Pd  Pd22  1  0.746643  0.500041  0.500041  1
  Pd  Pd23  1  0.499977  0.253372  0.499991  1
  Pd  Pd24  1  0.500062  0.746635  0.500000  1
  Pd  Pd25  1  0.499977  0.499991  0.253372  1
  Pd  Pd26  1  0.500062  0.500000  0.746635  1
  Pd  Pd27  1  0.291689  0.999879  0.999879  1
  Pd  Pd28  1  0.708244  0.000086  0.000086  1
  Pd  Pd29  1  0.000042  0.291730  0.000006  1
  Pd  Pd30  1  0.000255  0.708292  0.999972  1
  Pd  Pd31  1  0.000042  0.000006  0.291730  1
  Pd  Pd32  1  0.000255  0.999972  0.708292  1
