# generated using pymatgen
data_Na4Fe(AsO4)2
_symmetry_space_group_name_H-M   'P 1'
_cell_length_a   6.83952301
_cell_length_b   8.74163735
_cell_length_c   8.45441645
_cell_angle_alpha   59.66489873
_cell_angle_beta   108.43161869
_cell_angle_gamma   100.79609247
_symmetry_Int_Tables_number   1
_chemical_formula_structural   Na4Fe(AsO4)2
_chemical_formula_sum   'Na8 Fe2 As4 O16'
_cell_volume   413.65544191
_cell_formula_units_Z   2
loop_
 _symmetry_equiv_pos_site_id
 _symmetry_equiv_pos_as_xyz
  1  'x, y, z'
loop_
 _atom_site_type_symbol
 _atom_site_label
 _atom_site_symmetry_multiplicity
 _atom_site_fract_x
 _atom_site_fract_y
 _atom_site_fract_z
 _atom_site_occupancy
  Na  Na0  1  0.027791  0.217911  0.311624  1
  Na  Na1  1  0.527708  0.717896  0.811682  1
  Na  Na2  1  0.472331  0.282012  0.188462  1
  Na  Na3  1  0.972322  0.782062  0.688394  1
  Na  Na4  1  0.659409  0.933336  0.240616  1
  Na  Na5  1  0.159569  0.433405  0.740634  1
  Na  Na6  1  0.840648  0.566630  0.259444  1
  Na  Na7  1  0.340497  0.066529  0.759471  1
  Fe  Fe8  1  0.499874  0.499923  0.499693  1
  Fe  Fe9  1  0.999795  0.000407  0.999897  1
  As  As10  1  0.767014  0.131816  0.608268  1
  As  As11  1  0.266972  0.631837  0.108323  1
  As  As12  1  0.732952  0.368241  0.891680  1
  As  As13  1  0.233010  0.868108  0.391701  1
  O  O14  1  0.016652  0.186911  0.703861  1
  O  O15  1  0.516615  0.686926  0.203819  1
  O  O16  1  0.483388  0.313089  0.796133  1
  O  O17  1  0.983336  0.813089  0.296137  1
  O  O18  1  0.768141  0.042796  0.468300  1
  O  O19  1  0.267930  0.542987  0.968182  1
  O  O20  1  0.731885  0.457164  0.031711  1
  O  O21  1  0.232114  0.956965  0.531905  1
  O  O22  1  0.880520  0.181425  0.038346  1
  O  O23  1  0.380570  0.681350  0.538237  1
  O  O24  1  0.619497  0.318633  0.461631  1
  O  O25  1  0.119398  0.818560  0.961833  1
  O  O26  1  0.186553  0.478677  0.309474  1
  O  O27  1  0.686535  0.978749  0.809432  1
  O  O28  1  0.313497  0.021296  0.190538  1
  O  O29  1  0.813477  0.521269  0.690576  1
