# generated using pymatgen
data_Tb8Dy2Ga3CoBi2
_symmetry_space_group_name_H-M   'P 1'
_cell_length_a   8.61478287
_cell_length_b   8.61478254
_cell_length_c   8.78033200
_cell_angle_alpha   124.53911286
_cell_angle_beta   124.53911943
_cell_angle_gamma   81.04096635
_symmetry_Int_Tables_number   1
_chemical_formula_structural   Tb8Dy2Ga3CoBi2
_chemical_formula_sum   'Tb8 Dy2 Ga3 Co1 Bi2'
_cell_volume   428.76929809
_cell_formula_units_Z   1
loop_
 _symmetry_equiv_pos_site_id
 _symmetry_equiv_pos_as_xyz
  1  'x, y, z'
loop_
 _atom_site_type_symbol
 _atom_site_label
 _atom_site_symmetry_multiplicity
 _atom_site_fract_x
 _atom_site_fract_y
 _atom_site_fract_z
 _atom_site_occupancy
  Tb  Tb0  1  0.777816  0.297559  0.795674  1
  Tb  Tb1  1  0.202441  0.722184  0.204326  1
  Tb  Tb2  1  0.482140  0.001885  0.204326  1
  Tb  Tb3  1  0.306630  0.455351  0.500000  1
  Tb  Tb4  1  0.044649  0.193370  0.500000  1
  Tb  Tb5  1  0.498115  0.017860  0.795674  1
  Tb  Tb6  1  0.706382  0.515875  0.500000  1
  Tb  Tb7  1  0.984125  0.793618  0.500000  1
  Dy  Dy8  1  0.997186  0.997923  0.995110  1
  Dy  Dy9  1  0.502077  0.502814  0.004890  1
  Ga  Ga10  1  0.145749  0.645154  0.790900  1
  Ga  Ga11  1  0.854846  0.354251  0.209100  1
  Ga  Ga12  1  0.633216  0.866784  0.500000  1
  Co  Co13  1  0.377199  0.122801  0.500000  1
  Bi  Bi14  1  0.243712  0.256288  0.000000  1
  Bi  Bi15  1  0.743712  0.756288  0.000000  1
