# generated using pymatgen
data_AlSbSCl4
_symmetry_space_group_name_H-M   'P 1'
_cell_length_a   10.20852708
_cell_length_b   10.20851776
_cell_length_c   10.20852767
_cell_angle_alpha   107.49327511
_cell_angle_beta   107.49250498
_cell_angle_gamma   113.50502537
_symmetry_Int_Tables_number   1
_chemical_formula_structural   AlSbSCl4
_chemical_formula_sum   'Al4 Sb4 S4 Cl16'
_cell_volume   815.89849775
_cell_formula_units_Z   4
loop_
 _symmetry_equiv_pos_site_id
 _symmetry_equiv_pos_as_xyz
  1  'x, y, z'
loop_
 _atom_site_type_symbol
 _atom_site_label
 _atom_site_symmetry_multiplicity
 _atom_site_fract_x
 _atom_site_fract_y
 _atom_site_fract_z
 _atom_site_occupancy
  Al  Al0  1  0.592490  0.708957  0.728394  1
  Al  Al1  1  0.135897  0.407507  0.116464  1
  Al  Al2  1  0.980563  0.864099  0.271607  1
  Al  Al3  1  0.291045  0.019435  0.883535  1
  Sb  Sb4  1  0.810075  0.220938  0.295550  1
  Sb  Sb5  1  0.779066  0.074615  0.589134  1
  Sb  Sb6  1  0.925389  0.514526  0.704452  1
  Sb  Sb7  1  0.485483  0.189925  0.410865  1
  S  S8  1  0.006586  0.319257  0.582114  1
  S  S9  1  0.737143  0.424472  0.417889  1
  S  S10  1  0.575531  0.993414  0.312668  1
  S  S11  1  0.680747  0.262860  0.687331  1
  Cl  Cl12  1  0.833963  0.822836  0.387934  1
  Cl  Cl13  1  0.511282  0.814233  0.585054  1
  Cl  Cl14  1  0.825473  0.764516  0.740781  1
  Cl  Cl15  1  0.177169  0.565097  0.011127  1
  Cl  Cl16  1  0.553972  0.166038  0.988874  1
  Cl  Cl17  1  0.915299  0.174526  0.939039  1
  Cl  Cl18  1  0.023739  0.084699  0.259227  1
  Cl  Cl19  1  0.235488  0.976258  0.060957  1
  Cl  Cl20  1  0.229179  0.926230  0.414949  1
  Cl  Cl21  1  0.073767  0.488726  0.302949  1
  Cl  Cl22  1  0.194015  0.136676  0.784356  1
  Cl  Cl23  1  0.352316  0.409654  0.215647  1
  Cl  Cl24  1  0.185768  0.770818  0.697044  1
  Cl  Cl25  1  0.863318  0.647677  0.057333  1
  Cl  Cl26  1  0.434901  0.446029  0.612063  1
  Cl  Cl27  1  0.590334  0.805983  0.942662  1
