# generated using pymatgen
data_Tb2DyYInRh
_symmetry_space_group_name_H-M   'P 1'
_cell_length_a   9.69271402
_cell_length_b   9.69169369
_cell_length_c   9.69237023
_cell_angle_alpha   60.03977342
_cell_angle_beta   60.03681129
_cell_angle_gamma   60.03961155
_symmetry_Int_Tables_number   1
_chemical_formula_structural   Tb2DyYInRh
_chemical_formula_sum   'Tb8 Dy4 Y4 In4 Rh4'
_cell_volume   644.37872294
_cell_formula_units_Z   4
loop_
 _symmetry_equiv_pos_site_id
 _symmetry_equiv_pos_as_xyz
  1  'x, y, z'
loop_
 _atom_site_type_symbol
 _atom_site_label
 _atom_site_symmetry_multiplicity
 _atom_site_fract_x
 _atom_site_fract_y
 _atom_site_fract_z
 _atom_site_occupancy
  Tb  Tb0  1  0.690746  0.310390  0.310212  1
  Tb  Tb1  1  0.689619  0.689462  0.311157  1
  Tb  Tb2  1  0.310186  0.690809  0.310296  1
  Tb  Tb3  1  0.937411  0.937478  0.561812  1
  Tb  Tb4  1  0.147799  0.147848  0.551431  1
  Tb  Tb5  1  0.560306  0.937889  0.560688  1
  Tb  Tb6  1  0.152161  0.152350  0.152314  1
  Tb  Tb7  1  0.310676  0.310680  0.690440  1
  Dy  Dy8  1  0.148164  0.550655  0.148113  1
  Dy  Dy9  1  0.311116  0.689156  0.689759  1
  Dy  Dy10  1  0.689357  0.310966  0.689804  1
  Dy  Dy11  1  0.550856  0.148128  0.147975  1
  Y  Y12  1  0.937765  0.560306  0.560940  1
  Y  Y13  1  0.560247  0.560231  0.937839  1
  Y  Y14  1  0.561631  0.937829  0.937294  1
  Y  Y15  1  0.937969  0.561473  0.937244  1
  In  In16  1  0.918135  0.917899  0.247843  1
  In  In17  1  0.248295  0.917748  0.918057  1
  In  In18  1  0.917660  0.248750  0.917758  1
  In  In19  1  0.916894  0.917068  0.916951  1
  Rh  Rh20  1  0.357523  0.357451  0.356619  1
  Rh  Rh21  1  0.926873  0.359135  0.359190  1
  Rh  Rh22  1  0.359429  0.359499  0.927146  1
  Rh  Rh23  1  0.359183  0.926801  0.359120  1
