# generated using pymatgen
data_Ga3Pt4Rh
_symmetry_space_group_name_H-M   'P 1'
_cell_length_a   5.49783267
_cell_length_b   5.49783288
_cell_length_c   4.01369700
_cell_angle_alpha   90.00000000
_cell_angle_beta   90.00000000
_cell_angle_gamma   95.82881475
_symmetry_Int_Tables_number   1
_chemical_formula_structural   Ga3Pt4Rh
_chemical_formula_sum   'Ga3 Pt4 Rh1'
_cell_volume   120.69142198
_cell_formula_units_Z   1
loop_
 _symmetry_equiv_pos_site_id
 _symmetry_equiv_pos_as_xyz
  1  'x, y, z'
loop_
 _atom_site_type_symbol
 _atom_site_label
 _atom_site_symmetry_multiplicity
 _atom_site_fract_x
 _atom_site_fract_y
 _atom_site_fract_z
 _atom_site_occupancy
  Ga  Ga0  1  0.005420  0.005420  0.000000  1
  Ga  Ga1  1  0.714906  0.283321  0.500000  1
  Ga  Ga2  1  0.283321  0.714906  0.500000  1
  Pt  Pt3  1  0.498383  0.498383  0.000000  1
  Pt  Pt4  1  0.998603  0.498620  0.000000  1
  Pt  Pt5  1  0.498620  0.998603  0.000000  1
  Pt  Pt6  1  0.791692  0.791692  0.500000  1
  Rh  Rh7  1  0.209055  0.209055  0.500000  1
