# generated using pymatgen
data_SiAg2F6
_symmetry_space_group_name_H-M   'P 1'
_cell_length_a   5.59753900
_cell_length_b   5.59753965
_cell_length_c   5.59753900
_cell_angle_alpha   120.00000206
_cell_angle_beta   90.00000000
_cell_angle_gamma   120.00000206
_symmetry_Int_Tables_number   1
_chemical_formula_structural   SiAg2F6
_chemical_formula_sum   'Si1 Ag2 F6'
_cell_volume   124.01562611
_cell_formula_units_Z   1
loop_
 _symmetry_equiv_pos_site_id
 _symmetry_equiv_pos_as_xyz
  1  'x, y, z'
loop_
 _atom_site_type_symbol
 _atom_site_label
 _atom_site_symmetry_multiplicity
 _atom_site_fract_x
 _atom_site_fract_y
 _atom_site_fract_z
 _atom_site_occupancy
  Si  Si0  1  0.000000  0.000000  0.000000  1
  Ag  Ag1  1  0.749999  0.499999  0.250000  1
  Ag  Ag2  1  0.250000  0.499999  0.749999  1
  F  F3  1  0.217367  0.000000  0.217367  1
  F  F4  1  0.217367  0.434735  0.217367  1
  F  F5  1  0.782632  0.000000  0.217367  1
  F  F6  1  0.217367  0.000000  0.782632  1
  F  F7  1  0.782632  0.000000  0.782632  1
  F  F8  1  0.782632  0.565264  0.782632  1
