# generated using pymatgen
data_Pr4SmSi2Sn
_symmetry_space_group_name_H-M   'P 1'
_cell_length_a   7.93630300
_cell_length_b   9.23300426
_cell_length_c   7.93630300
_cell_angle_alpha   115.45354029
_cell_angle_beta   90.00000000
_cell_angle_gamma   115.45354029
_symmetry_Int_Tables_number   1
_chemical_formula_structural   Pr4SmSi2Sn
_chemical_formula_sum   'Pr8 Sm2 Si4 Sn2'
_cell_volume   461.79537410
_cell_formula_units_Z   2
loop_
 _symmetry_equiv_pos_site_id
 _symmetry_equiv_pos_as_xyz
  1  'x, y, z'
loop_
 _atom_site_type_symbol
 _atom_site_label
 _atom_site_symmetry_multiplicity
 _atom_site_fract_x
 _atom_site_fract_y
 _atom_site_fract_z
 _atom_site_occupancy
  Pr  Pr0  1  0.535613  0.720867  0.685255  1
  Pr  Pr1  1  0.185255  0.720867  0.035613  1
  Pr  Pr2  1  0.685255  0.720867  0.185255  1
  Pr  Pr3  1  0.035613  0.720867  0.535613  1
  Pr  Pr4  1  0.464387  0.279133  0.314745  1
  Pr  Pr5  1  0.814745  0.279133  0.964387  1
  Pr  Pr6  1  0.314745  0.279133  0.814745  1
  Pr  Pr7  1  0.964387  0.279133  0.464387  1
  Sm  Sm8  1  0.000000  0.000000  0.000000  1
  Sm  Sm9  1  0.500000  0.000000  0.500000  1
  Si  Si10  1  0.882824  0.000000  0.617176  1
  Si  Si11  1  0.117176  0.000000  0.382824  1
  Si  Si12  1  0.617176  0.000000  0.117176  1
  Si  Si13  1  0.382824  0.000000  0.882824  1
  Sn  Sn14  1  0.750000  0.500000  0.750000  1
  Sn  Sn15  1  0.250000  0.500000  0.250000  1
