# generated using pymatgen
data_Zr10In3Sn3S
_symmetry_space_group_name_H-M   'P 1'
_cell_length_a   5.90882600
_cell_length_b   8.69787329
_cell_length_c   8.69789700
_cell_angle_alpha   119.99966043
_cell_angle_beta   90.00014545
_cell_angle_gamma   89.99978235
_symmetry_Int_Tables_number   1
_chemical_formula_structural   Zr10In3Sn3S
_chemical_formula_sum   'Zr10 In3 Sn3 S1'
_cell_volume   387.13341265
_cell_formula_units_Z   1
loop_
 _symmetry_equiv_pos_site_id
 _symmetry_equiv_pos_as_xyz
  1  'x, y, z'
loop_
 _atom_site_type_symbol
 _atom_site_label
 _atom_site_symmetry_multiplicity
 _atom_site_fract_x
 _atom_site_fract_y
 _atom_site_fract_z
 _atom_site_occupancy
  Zr  Zr0  1  0.499350  0.333305  0.666629  1
  Zr  Zr1  1  0.499314  0.666685  0.333342  1
  Zr  Zr2  1  0.999897  0.666609  0.333294  1
  Zr  Zr3  1  0.999928  0.333363  0.666721  1
  Zr  Zr4  1  0.759010  0.245887  0.999953  1
  Zr  Zr5  1  0.758960  0.754055  0.754117  1
  Zr  Zr6  1  0.758895  0.000057  0.245951  1
  Zr  Zr7  1  0.240963  0.753548  0.999928  1
  Zr  Zr8  1  0.240994  0.246391  0.246423  1
  Zr  Zr9  1  0.241006  0.000079  0.753629  1
  In  In10  1  0.749414  0.605885  0.999941  1
  In  In11  1  0.749467  0.394038  0.394151  1
  In  In12  1  0.749468  0.000072  0.605964  1
  Sn  Sn13  1  0.250869  0.393783  0.999941  1
  Sn  Sn14  1  0.250845  0.606193  0.606212  1
  Sn  Sn15  1  0.250832  0.000052  0.393796  1
  S  S16  1  0.500785  0.000000  0.000005  1
