# generated using pymatgen
data_Ac2CoNi(AsH2)2
_symmetry_space_group_name_H-M   'P 1'
_cell_length_a   4.29517100
_cell_length_b   4.29517058
_cell_length_c   8.85451100
_cell_angle_alpha   90.00000000
_cell_angle_beta   90.00000000
_cell_angle_gamma   119.99999556
_symmetry_Int_Tables_number   1
_chemical_formula_structural   Ac2CoNi(AsH2)2
_chemical_formula_sum   'Ac2 Co1 Ni1 As2 H4'
_cell_volume   141.46731395
_cell_formula_units_Z   1
loop_
 _symmetry_equiv_pos_site_id
 _symmetry_equiv_pos_as_xyz
  1  'x, y, z'
loop_
 _atom_site_type_symbol
 _atom_site_label
 _atom_site_symmetry_multiplicity
 _atom_site_fract_x
 _atom_site_fract_y
 _atom_site_fract_z
 _atom_site_occupancy
  Ac  Ac0  1  0.000000  0.000000  0.000903  1
  Ac  Ac1  1  0.000000  0.000000  0.499097  1
  Co  Co2  1  0.666667  0.333333  0.250000  1
  Ni  Ni3  1  0.333333  0.666667  0.750000  1
  As  As4  1  0.333333  0.666667  0.250000  1
  As  As5  1  0.666667  0.333333  0.750000  1
  H  H6  1  0.333333  0.666667  0.928610  1
  H  H7  1  0.666667  0.333333  0.071061  1
  H  H8  1  0.333333  0.666667  0.571390  1
  H  H9  1  0.666667  0.333333  0.428939  1
