# generated using pymatgen
data_La2Be(Ni3P2)3
_symmetry_space_group_name_H-M   'P 1'
_cell_length_a   6.10867045
_cell_length_b   6.10867101
_cell_length_c   11.38148614
_cell_angle_alpha   91.00483835
_cell_angle_beta   88.99516047
_cell_angle_gamma   145.18631851
_symmetry_Int_Tables_number   1
_chemical_formula_structural   La2Be(Ni3P2)3
_chemical_formula_sum   'La2 Be1 Ni9 P6'
_cell_volume   242.43003148
_cell_formula_units_Z   1
loop_
 _symmetry_equiv_pos_site_id
 _symmetry_equiv_pos_as_xyz
  1  'x, y, z'
loop_
 _atom_site_type_symbol
 _atom_site_label
 _atom_site_symmetry_multiplicity
 _atom_site_fract_x
 _atom_site_fract_y
 _atom_site_fract_z
 _atom_site_occupancy
  La  La0  1  0.333373  0.666627  0.252697  1
  La  La1  1  0.666627  0.333373  0.747303  1
  Be  Be2  1  0.500000  0.500000  0.500000  1
  Ni  Ni3  1  0.048750  0.951250  0.146917  1
  Ni  Ni4  1  0.046388  0.953612  0.360503  1
  Ni  Ni5  1  0.685508  0.314492  0.437474  1
  Ni  Ni6  1  0.314492  0.685508  0.562526  1
  Ni  Ni7  1  0.302373  0.697627  0.932056  1
  Ni  Ni8  1  0.697627  0.302373  0.067944  1
  Ni  Ni9  1  0.500000  0.500000  0.000000  1
  Ni  Ni10  1  0.953612  0.046388  0.639497  1
  Ni  Ni11  1  0.951250  0.048750  0.853083  1
  P  P12  1  0.611289  0.388711  0.250720  1
  P  P13  1  0.388711  0.611289  0.749280  1
  P  P14  1  0.123718  0.876282  0.540932  1
  P  P15  1  0.876282  0.123718  0.459068  1
  P  P16  1  0.881525  0.118475  0.039498  1
  P  P17  1  0.118475  0.881525  0.960502  1
