# generated using pymatgen
data_Tb20Ir5Pd3Ru4
_symmetry_space_group_name_H-M   'P 1'
_cell_length_a   10.93735833
_cell_length_b   10.93735833
_cell_length_c   6.48034501
_cell_angle_alpha   89.99522926
_cell_angle_beta   89.99522926
_cell_angle_gamma   90.17197073
_symmetry_Int_Tables_number   1
_chemical_formula_structural   Tb20Ir5Pd3Ru4
_chemical_formula_sum   'Tb20 Ir5 Pd3 Ru4'
_cell_volume   775.21300534
_cell_formula_units_Z   1
loop_
 _symmetry_equiv_pos_site_id
 _symmetry_equiv_pos_as_xyz
  1  'x, y, z'
loop_
 _atom_site_type_symbol
 _atom_site_label
 _atom_site_symmetry_multiplicity
 _atom_site_fract_x
 _atom_site_fract_y
 _atom_site_fract_z
 _atom_site_occupancy
  Tb  Tb0  1  0.296422  0.084904  0.371243  1
  Tb  Tb1  1  0.295159  0.908701  0.879754  1
  Tb  Tb2  1  0.702319  0.089418  0.873800  1
  Tb  Tb3  1  0.700934  0.910077  0.372855  1
  Tb  Tb4  1  0.582672  0.792226  0.880039  1
  Tb  Tb5  1  0.582404  0.207745  0.380144  1
  Tb  Tb6  1  0.411869  0.792539  0.380211  1
  Tb  Tb7  1  0.416706  0.207459  0.880074  1
  Tb  Tb8  1  0.207774  0.417328  0.619961  1
  Tb  Tb9  1  0.207461  0.588131  0.119789  1
  Tb  Tb10  1  0.792255  0.417596  0.119856  1
  Tb  Tb11  1  0.792541  0.583294  0.619926  1
  Tb  Tb12  1  0.915096  0.703578  0.128757  1
  Tb  Tb13  1  0.910582  0.297681  0.626200  1
  Tb  Tb14  1  0.091299  0.704841  0.620246  1
  Tb  Tb15  1  0.089923  0.299066  0.127145  1
  Tb  Tb16  1  0.001837  0.997522  0.498809  1
  Tb  Tb17  1  0.002478  0.998163  0.001191  1
  Tb  Tb18  1  0.499703  0.499882  0.000467  1
  Tb  Tb19  1  0.500118  0.500297  0.499533  1
  Ir  Ir20  1  0.150425  0.849575  0.250000  1
  Ir  Ir21  1  0.653594  0.346406  0.750000  1
  Ir  Ir22  1  0.653926  0.653691  0.249750  1
  Ir  Ir23  1  0.346309  0.346074  0.250250  1
  Ir  Ir24  1  0.347381  0.652619  0.750000  1
  Pd  Pd25  1  0.847680  0.152320  0.250000  1
  Pd  Pd26  1  0.846249  0.846665  0.749877  1
  Pd  Pd27  1  0.153335  0.153751  0.750123  1
  Ru  Ru28  1  0.501191  0.000370  0.123221  1
  Ru  Ru29  1  0.501042  0.000314  0.624462  1
  Ru  Ru30  1  0.999686  0.498958  0.875538  1
  Ru  Ru31  1  0.999630  0.498809  0.376779  1
