# generated using pymatgen
data_BaReF7
_symmetry_space_group_name_H-M   'P 1'
_cell_length_a   7.57332300
_cell_length_b   5.14756076
_cell_length_c   7.07987773
_cell_angle_alpha   84.88218539
_cell_angle_beta   90.00000000
_cell_angle_gamma   90.00000000
_symmetry_Int_Tables_number   1
_chemical_formula_structural   BaReF7
_chemical_formula_sum   'Ba2 Re2 F14'
_cell_volume   274.90262750
_cell_formula_units_Z   2
loop_
 _symmetry_equiv_pos_site_id
 _symmetry_equiv_pos_as_xyz
  1  'x, y, z'
loop_
 _atom_site_type_symbol
 _atom_site_label
 _atom_site_symmetry_multiplicity
 _atom_site_fract_x
 _atom_site_fract_y
 _atom_site_fract_z
 _atom_site_occupancy
  Ba  Ba0  1  0.250000  0.036447  0.703404  1
  Ba  Ba1  1  0.750000  0.963553  0.296596  1
  Re  Re2  1  0.750000  0.542141  0.771422  1
  Re  Re3  1  0.250000  0.457859  0.228578  1
  F  F4  1  0.250000  0.627604  0.966654  1
  F  F5  1  0.461257  0.678897  0.211716  1
  F  F6  1  0.961257  0.321103  0.788284  1
  F  F7  1  0.577260  0.793831  0.644591  1
  F  F8  1  0.750000  0.421870  0.514865  1
  F  F9  1  0.250000  0.578130  0.485135  1
  F  F10  1  0.750000  0.372396  0.033346  1
  F  F11  1  0.922740  0.793831  0.644591  1
  F  F12  1  0.422740  0.206169  0.355409  1
  F  F13  1  0.250000  0.176307  0.059396  1
  F  F14  1  0.077260  0.206169  0.355409  1
  F  F15  1  0.538743  0.321103  0.788284  1
  F  F16  1  0.750000  0.823693  0.940604  1
  F  F17  1  0.038743  0.678897  0.211716  1
