# generated using pymatgen
data_ZrP2Cl8O3
_symmetry_space_group_name_H-M   'P 1'
_cell_length_a   9.13806496
_cell_length_b   9.39511056
_cell_length_c   11.24987537
_cell_angle_alpha   70.37111864
_cell_angle_beta   71.46031474
_cell_angle_gamma   65.65378928
_symmetry_Int_Tables_number   1
_chemical_formula_structural   ZrP2Cl8O3
_chemical_formula_sum   'Zr2 P4 Cl16 O6'
_cell_volume   810.48088372
_cell_formula_units_Z   2
loop_
 _symmetry_equiv_pos_site_id
 _symmetry_equiv_pos_as_xyz
  1  'x, y, z'
loop_
 _atom_site_type_symbol
 _atom_site_label
 _atom_site_symmetry_multiplicity
 _atom_site_fract_x
 _atom_site_fract_y
 _atom_site_fract_z
 _atom_site_occupancy
  Zr  Zr0  1  0.910981  0.796611  0.233583  1
  Zr  Zr1  1  0.089019  0.203389  0.766417  1
  P  P2  1  0.791600  0.206617  0.064274  1
  P  P3  1  0.224804  0.807144  0.363362  1
  P  P4  1  0.208400  0.793383  0.935726  1
  P  P5  1  0.775196  0.192856  0.636638  1
  Cl  Cl6  1  0.548113  0.266376  0.084977  1
  Cl  Cl7  1  0.788194  0.206376  0.454068  1
  Cl  Cl8  1  0.033420  0.509358  0.292185  1
  Cl  Cl9  1  0.451887  0.733624  0.915023  1
  Cl  Cl10  1  0.238334  0.192880  0.911947  1
  Cl  Cl11  1  0.287950  0.997377  0.259899  1
  Cl  Cl12  1  0.312569  0.174968  0.583364  1
  Cl  Cl13  1  0.810923  0.393333  0.099862  1
  Cl  Cl14  1  0.411040  0.615644  0.318604  1
  Cl  Cl15  1  0.189077  0.606667  0.900138  1
  Cl  Cl16  1  0.712050  0.002623  0.740101  1
  Cl  Cl17  1  0.588960  0.384356  0.681396  1
  Cl  Cl18  1  0.687431  0.825032  0.416636  1
  Cl  Cl19  1  0.761666  0.807120  0.088053  1
  Cl  Cl20  1  0.211806  0.793624  0.545932  1
  Cl  Cl21  1  0.966580  0.490642  0.707815  1
  O  O22  1  0.933223  0.182297  0.656976  1
  O  O23  1  0.850694  0.059171  0.168642  1
  O  O24  1  0.149306  0.940829  0.831358  1
  O  O25  1  0.066777  0.817703  0.343024  1
  O  O26  1  0.127733  0.801329  0.074105  1
  O  O27  1  0.872267  0.198671  0.925895  1
