# generated using pymatgen
data_Zr6Ta4Al12Fe2Co5
_symmetry_space_group_name_H-M   'P 1'
_cell_length_a   8.61678076
_cell_length_b   8.63573297
_cell_length_c   8.63024453
_cell_angle_alpha   59.91281886
_cell_angle_beta   60.08202395
_cell_angle_gamma   60.08979671
_symmetry_Int_Tables_number   1
_chemical_formula_structural   Zr6Ta4Al12Fe2Co5
_chemical_formula_sum   'Zr6 Ta4 Al12 Fe2 Co5'
_cell_volume   454.38854479
_cell_formula_units_Z   1
loop_
 _symmetry_equiv_pos_site_id
 _symmetry_equiv_pos_as_xyz
  1  'x, y, z'
loop_
 _atom_site_type_symbol
 _atom_site_label
 _atom_site_symmetry_multiplicity
 _atom_site_fract_x
 _atom_site_fract_y
 _atom_site_fract_z
 _atom_site_occupancy
  Zr  Zr0  1  0.696753  0.303278  0.303243  1
  Zr  Zr1  1  0.690311  0.307954  0.691602  1
  Zr  Zr2  1  0.690322  0.691574  0.307949  1
  Zr  Zr3  1  0.303222  0.696775  0.696792  1
  Zr  Zr4  1  0.310161  0.691586  0.307942  1
  Zr  Zr5  1  0.310148  0.307961  0.691598  1
  Ta  Ta6  1  0.643028  0.117422  0.117369  1
  Ta  Ta7  1  0.118317  0.643954  0.119477  1
  Ta  Ta8  1  0.118281  0.119443  0.643936  1
  Ta  Ta9  1  0.122169  0.117342  0.117427  1
  Al  Al10  1  0.361918  0.880097  0.880159  1
  Al  Al11  1  0.879491  0.361170  0.879891  1
  Al  Al12  1  0.879484  0.879841  0.361116  1
  Al  Al13  1  0.877821  0.880060  0.880212  1
  Al  Al14  1  0.990705  0.335878  0.335852  1
  Al  Al15  1  0.335210  0.991547  0.338042  1
  Al  Al16  1  0.335179  0.338108  0.991490  1
  Al  Al17  1  0.337557  0.335878  0.335898  1
  Al  Al18  1  0.004855  0.665191  0.665152  1
  Al  Al19  1  0.665893  0.003432  0.664840  1
  Al  Al20  1  0.665841  0.664885  0.003514  1
  Al  Al21  1  0.664838  0.665172  0.665106  1
  Fe  Fe22  1  0.000583  0.999507  0.999375  1
  Fe  Fe23  1  0.494567  0.005371  0.005402  1
  Co  Co24  1  0.495266  0.003888  0.496485  1
  Co  Co25  1  0.495254  0.496510  0.003947  1
  Co  Co26  1  0.004258  0.495732  0.495716  1
  Co  Co27  1  0.004251  0.496556  0.003939  1
  Co  Co28  1  0.004319  0.003888  0.496528  1
