# generated using pymatgen
data_Dy2Y10Ru7
_symmetry_space_group_name_H-M   'P 1'
_cell_length_a   11.38816100
_cell_length_b   8.42358203
_cell_length_c   11.30793000
_cell_angle_alpha   56.38335651
_cell_angle_beta   90.00000000
_cell_angle_gamma   90.00000000
_symmetry_Int_Tables_number   1
_chemical_formula_structural   Dy2Y10Ru7
_chemical_formula_sum   'Dy4 Y20 Ru14'
_cell_volume   903.34493271
_cell_formula_units_Z   2
loop_
 _symmetry_equiv_pos_site_id
 _symmetry_equiv_pos_as_xyz
  1  'x, y, z'
loop_
 _atom_site_type_symbol
 _atom_site_label
 _atom_site_symmetry_multiplicity
 _atom_site_fract_x
 _atom_site_fract_y
 _atom_site_fract_z
 _atom_site_occupancy
  Dy  Dy0  1  0.925805  0.281550  0.293155  1
  Dy  Dy1  1  0.425805  0.718450  0.206845  1
  Dy  Dy2  1  0.074195  0.718450  0.706845  1
  Dy  Dy3  1  0.574195  0.281550  0.793155  1
  Y  Y4  1  0.705585  0.244266  0.530829  1
  Y  Y5  1  0.205585  0.755734  0.969171  1
  Y  Y6  1  0.845098  0.508811  0.655072  1
  Y  Y7  1  0.345098  0.491189  0.844928  1
  Y  Y8  1  0.154902  0.491189  0.344928  1
  Y  Y9  1  0.654902  0.508811  0.155072  1
  Y  Y10  1  0.006732  0.853478  0.360146  1
  Y  Y11  1  0.506732  0.146522  0.139854  1
  Y  Y12  1  0.993268  0.146522  0.639854  1
  Y  Y13  1  0.493268  0.853478  0.860146  1
  Y  Y14  1  0.794415  0.244266  0.030829  1
  Y  Y15  1  0.294415  0.755734  0.469171  1
  Y  Y16  1  0.931564  0.777820  0.089292  1
  Y  Y17  1  0.431564  0.222180  0.410708  1
  Y  Y18  1  0.068436  0.222180  0.910708  1
  Y  Y19  1  0.568436  0.777820  0.589292  1
  Y  Y20  1  0.300597  0.240138  0.676330  1
  Y  Y21  1  0.800597  0.759862  0.823670  1
  Y  Y22  1  0.699403  0.759862  0.323670  1
  Y  Y23  1  0.199403  0.240138  0.176330  1
  Ru  Ru24  1  0.500000  0.500000  0.500000  1
  Ru  Ru25  1  0.000000  0.500000  0.000000  1
  Ru  Ru26  1  0.647391  0.926917  0.031485  1
  Ru  Ru27  1  0.147391  0.073083  0.468515  1
  Ru  Ru28  1  0.352609  0.073083  0.968515  1
  Ru  Ru29  1  0.852609  0.926917  0.531485  1
  Ru  Ru30  1  0.398864  0.484786  0.103147  1
  Ru  Ru31  1  0.898864  0.515214  0.396853  1
  Ru  Ru32  1  0.601136  0.515214  0.896853  1
  Ru  Ru33  1  0.101136  0.484786  0.603147  1
  Ru  Ru34  1  0.816833  0.096997  0.851453  1
  Ru  Ru35  1  0.316833  0.903003  0.648547  1
  Ru  Ru36  1  0.183167  0.903003  0.148547  1
  Ru  Ru37  1  0.683167  0.096997  0.351453  1
