# generated using pymatgen
data_Hf3Zr3Fe7Co16
_symmetry_space_group_name_H-M   'P 1'
_cell_length_a   8.17177674
_cell_length_b   8.18048040
_cell_length_c   8.17594109
_cell_angle_alpha   59.95256074
_cell_angle_beta   60.04984605
_cell_angle_gamma   60.00939871
_symmetry_Int_Tables_number   1
_chemical_formula_structural   Hf3Zr3Fe7Co16
_chemical_formula_sum   'Hf3 Zr3 Fe7 Co16'
_cell_volume   386.50593804
_cell_formula_units_Z   1
loop_
 _symmetry_equiv_pos_site_id
 _symmetry_equiv_pos_as_xyz
  1  'x, y, z'
loop_
 _atom_site_type_symbol
 _atom_site_label
 _atom_site_symmetry_multiplicity
 _atom_site_fract_x
 _atom_site_fract_y
 _atom_site_fract_z
 _atom_site_occupancy
  Hf  Hf0  1  0.712356  0.286905  0.287644  1
  Hf  Hf1  1  0.288148  0.287954  0.711942  1
  Hf  Hf2  1  0.286764  0.712187  0.713239  1
  Zr  Zr3  1  0.710512  0.710708  0.289404  1
  Zr  Zr4  1  0.289744  0.709252  0.290762  1
  Zr  Zr5  1  0.709367  0.289882  0.710125  1
  Fe  Fe6  1  0.000690  0.499333  0.999444  1
  Fe  Fe7  1  0.000245  0.000201  0.499795  1
  Fe  Fe8  1  0.000155  0.000080  0.999865  1
  Fe  Fe9  1  0.500072  0.500126  0.999884  1
  Fe  Fe10  1  0.499283  0.000637  0.500638  1
  Fe  Fe11  1  0.499235  0.000710  0.999446  1
  Fe  Fe12  1  0.000697  0.499304  0.500549  1
  Co  Co13  1  0.122327  0.121069  0.635651  1
  Co  Co14  1  0.673964  0.977783  0.673827  1
  Co  Co15  1  0.364433  0.878886  0.877808  1
  Co  Co16  1  0.023004  0.325544  0.325416  1
  Co  Co17  1  0.977610  0.674128  0.674425  1
  Co  Co18  1  0.325634  0.326198  0.022175  1
  Co  Co19  1  0.674622  0.674018  0.976943  1
  Co  Co20  1  0.635574  0.122167  0.121688  1
  Co  Co21  1  0.674016  0.674635  0.674411  1
  Co  Co22  1  0.878095  0.879425  0.364549  1
  Co  Co23  1  0.121287  0.122131  0.120924  1
  Co  Co24  1  0.879204  0.364421  0.878705  1
  Co  Co25  1  0.879187  0.878313  0.877965  1
  Co  Co26  1  0.326221  0.325607  0.325993  1
  Co  Co27  1  0.121840  0.635541  0.120770  1
  Co  Co28  1  0.325715  0.022857  0.326012  1
