# generated using pymatgen
data_Pa4Tc2Ge6Rh5
_symmetry_space_group_name_H-M   'P 1'
_cell_length_a   7.31482293
_cell_length_b   7.31482303
_cell_length_c   7.32081429
_cell_angle_alpha   109.06631041
_cell_angle_beta   109.06631096
_cell_angle_gamma   110.25142059
_symmetry_Int_Tables_number   1
_chemical_formula_structural   Pa4Tc2Ge6Rh5
_chemical_formula_sum   'Pa4 Tc2 Ge6 Rh5'
_cell_volume   301.61795074
_cell_formula_units_Z   1
loop_
 _symmetry_equiv_pos_site_id
 _symmetry_equiv_pos_as_xyz
  1  'x, y, z'
loop_
 _atom_site_type_symbol
 _atom_site_label
 _atom_site_symmetry_multiplicity
 _atom_site_fract_x
 _atom_site_fract_y
 _atom_site_fract_z
 _atom_site_occupancy
  Pa  Pa0  1  0.505233  0.494767  0.500000  1
  Pa  Pa1  1  0.985376  0.496856  0.000000  1
  Pa  Pa2  1  0.503144  0.014624  0.000000  1
  Pa  Pa3  1  0.005233  0.994767  0.500000  1
  Tc  Tc4  1  0.751185  0.501365  0.252550  1
  Tc  Tc5  1  0.498635  0.248815  0.747450  1
  Ge  Ge6  1  0.686293  0.997772  0.684065  1
  Ge  Ge7  1  0.683875  0.689369  0.000000  1
  Ge  Ge8  1  0.310631  0.316125  0.000000  1
  Ge  Ge9  1  0.003857  0.686250  0.690107  1
  Ge  Ge10  1  0.002228  0.313707  0.315935  1
  Ge  Ge11  1  0.313750  0.996143  0.309893  1
  Rh  Rh12  1  0.751384  0.248616  0.500000  1
  Rh  Rh13  1  0.251384  0.748616  0.500000  1
  Rh  Rh14  1  0.249258  0.499184  0.748442  1
  Rh  Rh15  1  0.500816  0.750742  0.251558  1
  Rh  Rh16  1  0.997716  0.002284  0.000000  1
