# generated using pymatgen
data_Y3Ho3Tm4Cd3Ru
_symmetry_space_group_name_H-M   'P 1'
_cell_length_a   9.54998000
_cell_length_b   9.54997925
_cell_length_c   9.77364600
_cell_angle_alpha   90.00000000
_cell_angle_beta   90.00000000
_cell_angle_gamma   119.99999566
_symmetry_Int_Tables_number   1
_chemical_formula_structural   Y3Ho3Tm4Cd3Ru
_chemical_formula_sum   'Y6 Ho6 Tm8 Cd6 Ru2'
_cell_volume   771.95528656
_cell_formula_units_Z   2
loop_
 _symmetry_equiv_pos_site_id
 _symmetry_equiv_pos_as_xyz
  1  'x, y, z'
loop_
 _atom_site_type_symbol
 _atom_site_label
 _atom_site_symmetry_multiplicity
 _atom_site_fract_x
 _atom_site_fract_y
 _atom_site_fract_z
 _atom_site_occupancy
  Y  Y0  1  0.540651  0.459349  0.249464  1
  Y  Y1  1  0.540651  0.081303  0.249464  1
  Y  Y2  1  0.918697  0.459349  0.249464  1
  Y  Y3  1  0.459349  0.540651  0.750536  1
  Y  Y4  1  0.459349  0.918697  0.750536  1
  Y  Y5  1  0.081303  0.540651  0.750536  1
  Ho  Ho6  1  0.209737  0.790263  0.440084  1
  Ho  Ho7  1  0.209737  0.419476  0.440084  1
  Ho  Ho8  1  0.580524  0.790263  0.440084  1
  Ho  Ho9  1  0.790263  0.209737  0.559916  1
  Ho  Ho10  1  0.790263  0.580524  0.559916  1
  Ho  Ho11  1  0.419476  0.209737  0.559916  1
  Tm  Tm12  1  0.000000  0.000000  0.500000  1
  Tm  Tm13  1  0.000000  0.000000  0.000000  1
  Tm  Tm14  1  0.789993  0.210007  0.940316  1
  Tm  Tm15  1  0.789993  0.579986  0.940316  1
  Tm  Tm16  1  0.420014  0.210007  0.940316  1
  Tm  Tm17  1  0.210007  0.789993  0.059684  1
  Tm  Tm18  1  0.210007  0.420014  0.059684  1
  Tm  Tm19  1  0.579986  0.789993  0.059684  1
  Cd  Cd20  1  0.885948  0.114052  0.249694  1
  Cd  Cd21  1  0.885948  0.771896  0.249694  1
  Cd  Cd22  1  0.228104  0.114052  0.249694  1
  Cd  Cd23  1  0.114052  0.885948  0.750306  1
  Cd  Cd24  1  0.114052  0.228104  0.750306  1
  Cd  Cd25  1  0.771896  0.885948  0.750306  1
  Ru  Ru26  1  0.333333  0.666667  0.249204  1
  Ru  Ru27  1  0.666667  0.333333  0.750796  1
