# generated using pymatgen
data_Tb3Dy3Ho4(In2Ni)4
_symmetry_space_group_name_H-M   'P 1'
_cell_length_a   3.59866100
_cell_length_b   8.00095925
_cell_length_c   17.95010017
_cell_angle_alpha   90.11495151
_cell_angle_beta   90.00000000
_cell_angle_gamma   90.00000000
_symmetry_Int_Tables_number   1
_chemical_formula_structural   Tb3Dy3Ho4(In2Ni)4
_chemical_formula_sum   'Tb3 Dy3 Ho4 In8 Ni4'
_cell_volume   516.83152717
_cell_formula_units_Z   1
loop_
 _symmetry_equiv_pos_site_id
 _symmetry_equiv_pos_as_xyz
  1  'x, y, z'
loop_
 _atom_site_type_symbol
 _atom_site_label
 _atom_site_symmetry_multiplicity
 _atom_site_fract_x
 _atom_site_fract_y
 _atom_site_fract_z
 _atom_site_occupancy
  Tb  Tb0  1  0.000000  0.499658  0.500097  1
  Tb  Tb1  1  0.000000  0.999887  0.999868  1
  Tb  Tb2  1  0.000000  0.118416  0.412073  1
  Dy  Dy3  1  0.000000  0.747138  0.277761  1
  Dy  Dy4  1  0.000000  0.253784  0.721914  1
  Dy  Dy5  1  0.000000  0.753586  0.778888  1
  Ho  Ho6  1  0.000000  0.246638  0.221101  1
  Ho  Ho7  1  0.000000  0.617848  0.088201  1
  Ho  Ho8  1  0.000000  0.381980  0.911838  1
  Ho  Ho9  1  0.000000  0.881996  0.588848  1
  In  In10  1  0.500000  0.703344  0.931385  1
  In  In11  1  0.500000  0.296244  0.068921  1
  In  In12  1  0.500000  0.794148  0.430687  1
  In  In13  1  0.500000  0.203970  0.569676  1
  In  In14  1  0.500000  0.572350  0.652417  1
  In  In15  1  0.500000  0.428760  0.346959  1
  In  In16  1  0.500000  0.927998  0.151591  1
  In  In17  1  0.500000  0.072470  0.848242  1
  Ni  Ni18  1  0.500000  0.522553  0.194604  1
  Ni  Ni19  1  0.500000  0.474410  0.805025  1
  Ni  Ni20  1  0.500000  0.976584  0.696206  1
  Ni  Ni21  1  0.500000  0.026240  0.303699  1
