# generated using pymatgen
data_Tm5Fe11Co4(P3Ru)4
_symmetry_space_group_name_H-M   'P 1'
_cell_length_a   12.02592091
_cell_length_b   11.99688505
_cell_length_c   3.70488800
_cell_angle_alpha   90.00000000
_cell_angle_beta   90.00000000
_cell_angle_gamma   120.01540029
_symmetry_Int_Tables_number   1
_chemical_formula_structural   Tm5Fe11Co4(P3Ru)4
_chemical_formula_sum   'Tm5 Fe11 Co4 P12 Ru4'
_cell_volume   462.83387722
_cell_formula_units_Z   1
loop_
 _symmetry_equiv_pos_site_id
 _symmetry_equiv_pos_as_xyz
  1  'x, y, z'
loop_
 _atom_site_type_symbol
 _atom_site_label
 _atom_site_symmetry_multiplicity
 _atom_site_fract_x
 _atom_site_fract_y
 _atom_site_fract_z
 _atom_site_occupancy
  Tm  Tm0  1  0.666522  0.333352  0.000000  1
  Tm  Tm1  1  0.332900  0.669967  0.000000  1
  Tm  Tm2  1  0.183019  0.182881  0.500000  1
  Tm  Tm3  1  0.814759  0.999752  0.500000  1
  Tm  Tm4  1  0.000514  0.815599  0.500000  1
  Fe  Fe5  1  0.818852  0.195647  0.000000  1
  Fe  Fe6  1  0.806245  0.625063  0.000000  1
  Fe  Fe7  1  0.376099  0.178001  0.000000  1
  Fe  Fe8  1  0.196368  0.820582  0.000000  1
  Fe  Fe9  1  0.625655  0.804172  0.000000  1
  Fe  Fe10  1  0.175443  0.373751  0.000000  1
  Fe  Fe11  1  0.640840  0.123463  0.500000  1
  Fe  Fe12  1  0.875745  0.517239  0.500000  1
  Fe  Fe13  1  0.485012  0.356623  0.500000  1
  Fe  Fe14  1  0.121670  0.642133  0.500000  1
  Fe  Fe15  1  0.518034  0.878341  0.500000  1
  Co  Co16  1  0.719887  0.719112  0.500000  1
  Co  Co17  1  0.281814  0.999797  0.500000  1
  Co  Co18  1  0.997035  0.280456  0.500000  1
  Co  Co19  1  0.000459  0.000392  0.000000  1
  P  P20  1  0.368002  0.361089  0.000000  1
  P  P21  1  0.635136  0.000211  0.000000  1
  P  P22  1  0.000313  0.635942  0.000000  1
  P  P23  1  0.830148  0.310365  0.500000  1
  P  P24  1  0.690055  0.521312  0.500000  1
  P  P25  1  0.479490  0.166750  0.500000  1
  P  P26  1  0.310571  0.832193  0.500000  1
  P  P27  1  0.525803  0.696177  0.500000  1
  P  P28  1  0.160706  0.478803  0.500000  1
  P  P29  1  0.819483  0.818395  0.000000  1
  P  P30  1  0.181898  0.999769  0.000000  1
  P  P31  1  0.998413  0.181161  0.000000  1
  Ru  Ru32  1  0.561948  0.554412  0.000000  1
  Ru  Ru33  1  0.444093  0.999647  0.000000  1
  Ru  Ru34  1  0.998442  0.443500  0.000000  1
  Ru  Ru35  1  0.358628  0.483951  0.500000  1
