# generated using pymatgen
data_Tm4BCl6
_symmetry_space_group_name_H-M   'P 1'
_cell_length_a   12.40869800
_cell_length_b   12.91765800
_cell_length_c   3.80372000
_cell_angle_alpha   90.00000000
_cell_angle_beta   90.00000000
_cell_angle_gamma   90.00000000
_symmetry_Int_Tables_number   1
_chemical_formula_structural   Tm4BCl6
_chemical_formula_sum   'Tm8 B2 Cl12'
_cell_volume   609.70328826
_cell_formula_units_Z   2
loop_
 _symmetry_equiv_pos_site_id
 _symmetry_equiv_pos_as_xyz
  1  'x, y, z'
loop_
 _atom_site_type_symbol
 _atom_site_label
 _atom_site_symmetry_multiplicity
 _atom_site_fract_x
 _atom_site_fract_y
 _atom_site_fract_z
 _atom_site_occupancy
  Tm  Tm0  1  0.105975  0.083306  0.000000  1
  Tm  Tm1  1  0.605975  0.416694  0.000000  1
  Tm  Tm2  1  0.394025  0.583306  0.000000  1
  Tm  Tm3  1  0.894025  0.916694  0.000000  1
  Tm  Tm4  1  0.873874  0.148476  0.499999  1
  Tm  Tm5  1  0.373874  0.351524  0.499999  1
  Tm  Tm6  1  0.626125  0.648476  0.499999  1
  Tm  Tm7  1  0.126125  0.851524  0.499999  1
  B  B8  1  0.000000  0.000000  0.499999  1
  B  B9  1  0.500000  0.500000  0.499999  1
  Cl  Cl10  1  0.741875  0.071151  0.000000  1
  Cl  Cl11  1  0.478992  0.242428  0.000000  1
  Cl  Cl12  1  0.978992  0.257572  0.000000  1
  Cl  Cl13  1  0.241875  0.428849  0.000000  1
  Cl  Cl14  1  0.758125  0.571151  0.000000  1
  Cl  Cl15  1  0.021008  0.742428  0.000000  1
  Cl  Cl16  1  0.521008  0.757572  0.000000  1
  Cl  Cl17  1  0.258125  0.928849  0.000000  1
  Cl  Cl18  1  0.233486  0.181826  0.499999  1
  Cl  Cl19  1  0.733486  0.318174  0.499999  1
  Cl  Cl20  1  0.266514  0.681825  0.499999  1
  Cl  Cl21  1  0.766514  0.818174  0.499999  1
