# generated using pymatgen
data_TbNd4Ho3(ReB6)4
_symmetry_space_group_name_H-M   'P 1'
_cell_length_a   3.73197500
_cell_length_b   9.25412900
_cell_length_c   11.70882800
_cell_angle_alpha   90.00316426
_cell_angle_beta   90.00000000
_cell_angle_gamma   90.00000000
_symmetry_Int_Tables_number   1
_chemical_formula_structural   TbNd4Ho3(ReB6)4
_chemical_formula_sum   'Tb1 Nd4 Ho3 Re4 B24'
_cell_volume   404.37816855
_cell_formula_units_Z   1
loop_
 _symmetry_equiv_pos_site_id
 _symmetry_equiv_pos_as_xyz
  1  'x, y, z'
loop_
 _atom_site_type_symbol
 _atom_site_label
 _atom_site_symmetry_multiplicity
 _atom_site_fract_x
 _atom_site_fract_y
 _atom_site_fract_z
 _atom_site_occupancy
  Tb  Tb0  1  0.000000  0.942967  0.369641  1
  Nd  Nd1  1  0.000000  0.322789  0.414208  1
  Nd  Nd2  1  0.000000  0.677122  0.585906  1
  Nd  Nd3  1  0.000000  0.822627  0.085643  1
  Nd  Nd4  1  0.000000  0.177368  0.914166  1
  Ho  Ho5  1  0.000000  0.057290  0.631082  1
  Ho  Ho6  1  0.000000  0.442863  0.130438  1
  Ho  Ho7  1  0.000000  0.557133  0.869403  1
  Re  Re8  1  0.000000  0.638848  0.319226  1
  Re  Re9  1  0.000000  0.360603  0.680812  1
  Re  Re10  1  0.000000  0.139875  0.180310  1
  Re  Re11  1  0.000000  0.860453  0.819370  1
  B  B12  1  0.500000  0.554754  0.430593  1
  B  B13  1  0.500000  0.444863  0.569528  1
  B  B14  1  0.500000  0.055117  0.069222  1
  B  B15  1  0.500000  0.944944  0.930488  1
  B  B16  1  0.500000  0.748806  0.415741  1
  B  B17  1  0.500000  0.250233  0.584207  1
  B  B18  1  0.500000  0.249930  0.084031  1
  B  B19  1  0.500000  0.750235  0.915811  1
  B  B20  1  0.500000  0.790691  0.265951  1
  B  B21  1  0.500000  0.208678  0.733913  1
  B  B22  1  0.500000  0.291783  0.233788  1
  B  B23  1  0.500000  0.708579  0.766125  1
  B  B24  1  0.500000  0.629416  0.186179  1
  B  B25  1  0.500000  0.370360  0.813618  1
  B  B26  1  0.500000  0.130282  0.313131  1
  B  B27  1  0.500000  0.870332  0.686449  1
  B  B28  1  0.500000  0.984399  0.212627  1
  B  B29  1  0.500000  0.016041  0.786938  1
  B  B30  1  0.500000  0.483692  0.286788  1
  B  B31  1  0.500000  0.516116  0.713119  1
  B  B32  1  0.500000  0.596093  0.026622  1
  B  B33  1  0.500000  0.403925  0.973318  1
  B  B34  1  0.500000  0.096970  0.474059  1
  B  B35  1  0.500000  0.903824  0.527551  1
