# generated using pymatgen
data_Li6Ta5TiIr12
_symmetry_space_group_name_H-M   'P 1'
_cell_length_a   4.35741900
_cell_length_b   6.13349600
_cell_length_c   13.03102300
_cell_angle_alpha   90.00000000
_cell_angle_beta   89.99939859
_cell_angle_gamma   90.00000000
_symmetry_Int_Tables_number   1
_chemical_formula_structural   Li6Ta5TiIr12
_chemical_formula_sum   'Li6 Ta5 Ti1 Ir12'
_cell_volume   348.26988335
_cell_formula_units_Z   1
loop_
 _symmetry_equiv_pos_site_id
 _symmetry_equiv_pos_as_xyz
  1  'x, y, z'
loop_
 _atom_site_type_symbol
 _atom_site_label
 _atom_site_symmetry_multiplicity
 _atom_site_fract_x
 _atom_site_fract_y
 _atom_site_fract_z
 _atom_site_occupancy
  Li  Li0  1  0.000000  0.500000  0.000000  1
  Li  Li1  1  0.499816  0.000000  0.165924  1
  Li  Li2  1  0.999817  0.500000  0.332237  1
  Li  Li3  1  0.499999  0.000000  0.500000  1
  Li  Li4  1  0.000184  0.500000  0.667763  1
  Li  Li5  1  0.500185  0.000000  0.834076  1
  Ta  Ta6  1  0.499867  0.500000  0.163706  1
  Ta  Ta7  1  0.999854  0.000000  0.331797  1
  Ta  Ta8  1  0.499999  0.500000  0.500000  1
  Ta  Ta9  1  0.000145  0.000000  0.668203  1
  Ta  Ta10  1  0.500135  0.500000  0.836294  1
  Ti  Ti11  1  0.000000  0.000000  0.000000  1
  Ir  Ir12  1  0.499999  0.244305  0.000000  1
  Ir  Ir13  1  0.499999  0.755694  0.000000  1
  Ir  Ir14  1  0.999865  0.248715  0.165134  1
  Ir  Ir15  1  0.999865  0.751284  0.165134  1
  Ir  Ir16  1  0.499858  0.249759  0.332848  1
  Ir  Ir17  1  0.499858  0.750242  0.332848  1
  Ir  Ir18  1  0.000000  0.250365  0.500000  1
  Ir  Ir19  1  0.000000  0.749635  0.500000  1
  Ir  Ir20  1  0.500143  0.249759  0.667152  1
  Ir  Ir21  1  0.500143  0.750242  0.667152  1
  Ir  Ir22  1  0.000134  0.248715  0.834866  1
  Ir  Ir23  1  0.000134  0.751284  0.834866  1
