# generated using pymatgen
data_LuTa2V(SeO3)8
_symmetry_space_group_name_H-M   'P 1'
_cell_length_a   8.53509467
_cell_length_b   8.43923832
_cell_length_c   8.55011566
_cell_angle_alpha   89.72792495
_cell_angle_beta   89.55546269
_cell_angle_gamma   90.28366708
_symmetry_Int_Tables_number   1
_chemical_formula_structural   LuTa2V(SeO3)8
_chemical_formula_sum   'Lu1 Ta2 V1 Se8 O24'
_cell_volume   615.82910754
_cell_formula_units_Z   1
loop_
 _symmetry_equiv_pos_site_id
 _symmetry_equiv_pos_as_xyz
  1  'x, y, z'
loop_
 _atom_site_type_symbol
 _atom_site_label
 _atom_site_symmetry_multiplicity
 _atom_site_fract_x
 _atom_site_fract_y
 _atom_site_fract_z
 _atom_site_occupancy
  Lu  Lu0  1  0.000000  0.500000  0.000000  1
  Ta  Ta1  1  0.000000  0.000000  0.500000  1
  Ta  Ta2  1  0.500000  0.000000  0.000000  1
  V  V3  1  0.500000  0.500000  0.500000  1
  Se  Se4  1  0.338019  0.669746  0.197144  1
  Se  Se5  1  0.806310  0.329147  0.337579  1
  Se  Se6  1  0.678503  0.799719  0.675462  1
  Se  Se7  1  0.187252  0.171985  0.819569  1
  Se  Se8  1  0.661981  0.330254  0.802856  1
  Se  Se9  1  0.193690  0.670853  0.662421  1
  Se  Se10  1  0.321497  0.200281  0.324538  1
  Se  Se11  1  0.812748  0.828015  0.180431  1
  O  O12  1  0.239910  0.556116  0.068669  1
  O  O13  1  0.732123  0.458235  0.473533  1
  O  O14  1  0.779943  0.944071  0.564850  1
  O  O15  1  0.277221  0.020222  0.927537  1
  O  O16  1  0.563253  0.930897  0.784592  1
  O  O17  1  0.475566  0.540191  0.266624  1
  O  O18  1  0.939343  0.444228  0.242864  1
  O  O19  1  0.052035  0.051356  0.721690  1
  O  O20  1  0.934202  0.221086  0.463270  1
  O  O21  1  0.546823  0.739003  0.541273  1
  O  O22  1  0.461016  0.778659  0.062877  1
  O  O23  1  0.071834  0.252288  0.957148  1
  O  O24  1  0.760090  0.443884  0.931331  1
  O  O25  1  0.267877  0.541765  0.526467  1
  O  O26  1  0.220057  0.055929  0.435150  1
  O  O27  1  0.722779  0.979778  0.072463  1
  O  O28  1  0.436747  0.069103  0.215408  1
  O  O29  1  0.524434  0.459809  0.733376  1
  O  O30  1  0.060657  0.555772  0.757136  1
  O  O31  1  0.947965  0.948644  0.278310  1
  O  O32  1  0.065798  0.778914  0.536730  1
  O  O33  1  0.453177  0.260997  0.458727  1
  O  O34  1  0.538984  0.221341  0.937123  1
  O  O35  1  0.928166  0.747712  0.042852  1
