# generated using pymatgen
data_La17Yb2PrIr12
_symmetry_space_group_name_H-M   'P 1'
_cell_length_a   11.44514100
_cell_length_b   11.44514100
_cell_length_c   6.57441800
_cell_angle_alpha   90.00000000
_cell_angle_beta   90.00000000
_cell_angle_gamma   90.00000000
_symmetry_Int_Tables_number   1
_chemical_formula_structural   La17Yb2PrIr12
_chemical_formula_sum   'La17 Yb2 Pr1 Ir12'
_cell_volume   861.19124834
_cell_formula_units_Z   1
loop_
 _symmetry_equiv_pos_site_id
 _symmetry_equiv_pos_as_xyz
  1  'x, y, z'
loop_
 _atom_site_type_symbol
 _atom_site_label
 _atom_site_symmetry_multiplicity
 _atom_site_fract_x
 _atom_site_fract_y
 _atom_site_fract_z
 _atom_site_occupancy
  La  La0  1  0.286439  0.090277  0.394084  1
  La  La1  1  0.288783  0.910542  0.892140  1
  La  La2  1  0.711217  0.089458  0.892140  1
  La  La3  1  0.713561  0.909723  0.394084  1
  La  La4  1  0.590093  0.787205  0.893134  1
  La  La5  1  0.589882  0.207521  0.391609  1
  La  La6  1  0.410118  0.792479  0.391609  1
  La  La7  1  0.409907  0.212795  0.893134  1
  La  La8  1  0.207521  0.410118  0.608391  1
  La  La9  1  0.212795  0.590093  0.106866  1
  La  La10  1  0.787205  0.409907  0.106866  1
  La  La11  1  0.792479  0.589882  0.608391  1
  La  La12  1  0.910542  0.711217  0.107860  1
  La  La13  1  0.909723  0.286439  0.605916  1
  La  La14  1  0.090277  0.713561  0.605916  1
  La  La15  1  0.089458  0.288783  0.107860  1
  La  La16  1  0.500000  0.500000  0.500000  1
  Yb  Yb17  1  0.000000  0.000000  0.500000  1
  Yb  Yb18  1  0.500000  0.500000  0.000000  1
  Pr  Pr19  1  0.000000  0.000000  0.000000  1
  Ir  Ir20  1  0.844776  0.155086  0.247445  1
  Ir  Ir21  1  0.844914  0.844776  0.752555  1
  Ir  Ir22  1  0.155086  0.155224  0.752555  1
  Ir  Ir23  1  0.155224  0.844914  0.247445  1
  Ir  Ir24  1  0.655983  0.346337  0.744651  1
  Ir  Ir25  1  0.653663  0.655983  0.255349  1
  Ir  Ir26  1  0.346337  0.344017  0.255349  1
  Ir  Ir27  1  0.344017  0.653663  0.744651  1
  Ir  Ir28  1  0.500000  0.000000  0.117906  1
  Ir  Ir29  1  0.500000  0.000000  0.621904  1
  Ir  Ir30  1  0.000000  0.500000  0.882094  1
  Ir  Ir31  1  0.000000  0.500000  0.378096  1
