# generated using pymatgen
data_Ta2Cr3Ge
_symmetry_space_group_name_H-M   'P 1'
_cell_length_a   4.89928800
_cell_length_b   4.89928811
_cell_length_c   8.18185300
_cell_angle_alpha   90.00000000
_cell_angle_beta   90.00000000
_cell_angle_gamma   119.99999923
_symmetry_Int_Tables_number   1
_chemical_formula_structural   Ta2Cr3Ge
_chemical_formula_sum   'Ta4 Cr6 Ge2'
_cell_volume   170.07804581
_cell_formula_units_Z   2
loop_
 _symmetry_equiv_pos_site_id
 _symmetry_equiv_pos_as_xyz
  1  'x, y, z'
loop_
 _atom_site_type_symbol
 _atom_site_label
 _atom_site_symmetry_multiplicity
 _atom_site_fract_x
 _atom_site_fract_y
 _atom_site_fract_z
 _atom_site_occupancy
  Ta  Ta0  1  0.333334  0.666667  0.066062  1
  Ta  Ta1  1  0.333334  0.666667  0.433937  1
  Ta  Ta2  1  0.666668  0.333334  0.566062  1
  Ta  Ta3  1  0.666668  0.333334  0.933938  1
  Cr  Cr4  1  0.349958  0.174980  0.250000  1
  Cr  Cr5  1  0.825021  0.174980  0.250000  1
  Cr  Cr6  1  0.825021  0.650041  0.250000  1
  Cr  Cr7  1  0.174979  0.349958  0.750000  1
  Cr  Cr8  1  0.174980  0.825021  0.750000  1
  Cr  Cr9  1  0.650041  0.825021  0.750000  1
  Ge  Ge10  1  0.000000  0.000000  0.000000  1
  Ge  Ge11  1  0.000000  0.000000  0.500000  1
