# generated using pymatgen
data_Ho10Co4PdPt
_symmetry_space_group_name_H-M   'P 1'
_cell_length_a   7.21603052
_cell_length_b   7.21602923
_cell_length_c   8.67808136
_cell_angle_alpha   114.56730881
_cell_angle_beta   114.56730457
_cell_angle_gamma   89.99999613
_symmetry_Int_Tables_number   1
_chemical_formula_structural   Ho10Co4PdPt
_chemical_formula_sum   'Ho10 Co4 Pd1 Pt1'
_cell_volume   365.51360227
_cell_formula_units_Z   1
loop_
 _symmetry_equiv_pos_site_id
 _symmetry_equiv_pos_as_xyz
  1  'x, y, z'
loop_
 _atom_site_type_symbol
 _atom_site_label
 _atom_site_symmetry_multiplicity
 _atom_site_fract_x
 _atom_site_fract_y
 _atom_site_fract_z
 _atom_site_occupancy
  Ho  Ho0  1  0.995304  0.995304  0.990607  1
  Ho  Ho1  1  0.504696  0.504696  0.009393  1
  Ho  Ho2  1  0.460663  0.308953  0.277471  1
  Ho  Ho3  1  0.968518  0.460663  0.277471  1
  Ho  Ho4  1  0.308953  0.816807  0.277471  1
  Ho  Ho5  1  0.816807  0.968518  0.277471  1
  Ho  Ho6  1  0.191047  0.039337  0.722528  1
  Ho  Ho7  1  0.683191  0.191047  0.722528  1
  Ho  Ho8  1  0.039337  0.531482  0.722528  1
  Ho  Ho9  1  0.531482  0.683191  0.722528  1
  Co  Co10  1  0.614804  0.114804  0.000000  1
  Co  Co11  1  0.114804  0.385197  0.000000  1
  Co  Co12  1  0.885196  0.614804  0.000000  1
  Co  Co13  1  0.385197  0.885196  0.000000  1
  Pd  Pd14  1  0.750000  0.750000  0.500000  1
  Pt  Pt15  1  0.250000  0.250000  0.500000  1
