# generated using pymatgen
data_Ti8Al15Co7
_symmetry_space_group_name_H-M   'P 1'
_cell_length_a   8.45797070
_cell_length_b   8.45797026
_cell_length_c   8.45796960
_cell_angle_alpha   120.25797900
_cell_angle_beta   119.82707964
_cell_angle_gamma   89.92675890
_symmetry_Int_Tables_number   1
_chemical_formula_structural   Ti8Al15Co7
_chemical_formula_sum   'Ti8 Al15 Co7'
_cell_volume   427.55905645
_cell_formula_units_Z   1
loop_
 _symmetry_equiv_pos_site_id
 _symmetry_equiv_pos_as_xyz
  1  'x, y, z'
loop_
 _atom_site_type_symbol
 _atom_site_label
 _atom_site_symmetry_multiplicity
 _atom_site_fract_x
 _atom_site_fract_y
 _atom_site_fract_z
 _atom_site_occupancy
  Ti  Ti0  1  0.790124  0.286559  0.070366  1
  Ti  Ti1  1  0.216193  0.286559  0.496435  1
  Ti  Ti2  1  0.210402  0.710402  0.500000  1
  Ti  Ti3  1  0.216193  0.719758  0.929634  1
  Ti  Ti4  1  0.790124  0.719758  0.503565  1
  Ti  Ti5  1  0.782138  0.282138  0.500000  1
  Ti  Ti6  1  0.379579  0.121003  0.741424  1
  Ti  Ti7  1  0.379579  0.638155  0.258576  1
  Al  Al8  1  0.996511  0.496511  0.500000  1
  Al  Al9  1  0.156692  0.342237  0.185543  1
  Al  Al10  1  0.156692  0.971149  0.814457  1
  Al  Al11  1  0.153555  0.344552  0.809003  1
  Al  Al12  1  0.535548  0.344552  0.190997  1
  Al  Al13  1  0.843330  0.655274  0.811945  1
  Al  Al14  1  0.843330  0.031385  0.188055  1
  Al  Al15  1  0.842339  0.656312  0.186026  1
  Al  Al16  1  0.470286  0.656312  0.813974  1
  Al  Al17  1  0.380117  0.121023  0.259094  1
  Al  Al18  1  0.861930  0.121023  0.740906  1
  Al  Al19  1  0.620642  0.878310  0.257668  1
  Al  Al20  1  0.620642  0.362975  0.742332  1
  Al  Al21  1  0.619906  0.878525  0.741380  1
  Al  Al22  1  0.137144  0.878525  0.258620  1
  Co  Co23  1  0.002896  0.000713  0.502660  1
  Co  Co24  1  0.498053  0.000713  0.997817  1
  Co  Co25  1  0.497045  0.497045  0.000000  1
  Co  Co26  1  0.498053  0.500236  0.497340  1
  Co  Co27  1  0.002896  0.500236  0.002183  1
  Co  Co28  1  0.999615  0.999615  0.000000  1
  Co  Co29  1  0.498440  0.998440  0.500000  1
