# generated using pymatgen
data_Nd2Nb6Fe9Co7P12
_symmetry_space_group_name_H-M   'P 1'
_cell_length_a   12.04791900
_cell_length_b   12.04791796
_cell_length_c   3.66610300
_cell_angle_alpha   90.00000000
_cell_angle_beta   90.00000000
_cell_angle_gamma   120.00000012
_symmetry_Int_Tables_number   1
_chemical_formula_structural   Nd2Nb6Fe9Co7P12
_chemical_formula_sum   'Nd2 Nb6 Fe9 Co7 P12'
_cell_volume   460.84972642
_cell_formula_units_Z   1
loop_
 _symmetry_equiv_pos_site_id
 _symmetry_equiv_pos_as_xyz
  1  'x, y, z'
loop_
 _atom_site_type_symbol
 _atom_site_label
 _atom_site_symmetry_multiplicity
 _atom_site_fract_x
 _atom_site_fract_y
 _atom_site_fract_z
 _atom_site_occupancy
  Nd  Nd0  1  0.333333  0.666667  0.000000  1
  Nd  Nd1  1  0.666667  0.333333  0.000000  1
  Nb  Nb2  1  0.813175  0.000000  0.500000  1
  Nb  Nb3  1  0.000000  0.813175  0.500000  1
  Nb  Nb4  1  0.186825  0.186825  0.500000  1
  Nb  Nb5  1  0.438799  0.000000  0.000000  1
  Nb  Nb6  1  0.000000  0.438799  0.000000  1
  Nb  Nb7  1  0.561201  0.561201  0.000000  1
  Fe  Fe8  1  0.269310  0.000000  0.500000  1
  Fe  Fe9  1  0.000000  0.269310  0.500000  1
  Fe  Fe10  1  0.730690  0.730690  0.500000  1
  Fe  Fe11  1  0.635421  0.811853  0.000000  1
  Fe  Fe12  1  0.188147  0.823568  0.000000  1
  Fe  Fe13  1  0.176432  0.364579  0.000000  1
  Fe  Fe14  1  0.364579  0.176432  0.000000  1
  Fe  Fe15  1  0.811853  0.635421  0.000000  1
  Fe  Fe16  1  0.823568  0.188147  0.000000  1
  Co  Co17  1  0.523152  0.878922  0.500000  1
  Co  Co18  1  0.121078  0.644230  0.500000  1
  Co  Co19  1  0.355770  0.476848  0.500000  1
  Co  Co20  1  0.476848  0.355770  0.500000  1
  Co  Co21  1  0.878922  0.523152  0.500000  1
  Co  Co22  1  0.644230  0.121078  0.500000  1
  Co  Co23  1  0.000000  0.000000  0.000000  1
  P  P24  1  0.172672  0.000000  0.000000  1
  P  P25  1  0.000000  0.172672  0.000000  1
  P  P26  1  0.827328  0.827328  0.000000  1
  P  P27  1  0.531335  0.697794  0.500000  1
  P  P28  1  0.302206  0.833541  0.500000  1
  P  P29  1  0.166459  0.468665  0.500000  1
  P  P30  1  0.468665  0.166459  0.500000  1
  P  P31  1  0.697794  0.531335  0.500000  1
  P  P32  1  0.833541  0.302206  0.500000  1
  P  P33  1  0.647697  0.000000  0.000000  1
  P  P34  1  0.000000  0.647697  0.000000  1
  P  P35  1  0.352303  0.352303  0.000000  1
