# generated using pymatgen
data_CeGdHf2O7
_symmetry_space_group_name_H-M   'P 1'
_cell_length_a   7.49617748
_cell_length_b   7.49493107
_cell_length_c   7.49617825
_cell_angle_alpha   60.00550736
_cell_angle_beta   59.97792647
_cell_angle_gamma   60.00550725
_symmetry_Int_Tables_number   1
_chemical_formula_structural   CeGdHf2O7
_chemical_formula_sum   'Ce2 Gd2 Hf4 O14'
_cell_volume   297.78035490
_cell_formula_units_Z   2
loop_
 _symmetry_equiv_pos_site_id
 _symmetry_equiv_pos_as_xyz
  1  'x, y, z'
loop_
 _atom_site_type_symbol
 _atom_site_label
 _atom_site_symmetry_multiplicity
 _atom_site_fract_x
 _atom_site_fract_y
 _atom_site_fract_z
 _atom_site_occupancy
  Ce  Ce0  1  0.125000  0.625000  0.125000  1
  Ce  Ce1  1  0.125000  0.125000  0.125000  1
  Gd  Gd2  1  0.625000  0.125000  0.125000  1
  Gd  Gd3  1  0.125000  0.125000  0.625000  1
  Hf  Hf4  1  0.125000  0.625000  0.625000  1
  Hf  Hf5  1  0.625000  0.125000  0.625000  1
  Hf  Hf6  1  0.625000  0.625000  0.125000  1
  Hf  Hf7  1  0.625000  0.625000  0.625000  1
  O  O8  1  0.708702  0.709182  0.290998  1
  O  O9  1  0.290998  0.291118  0.708702  1
  O  O10  1  0.710311  0.289689  0.710311  1
  O  O11  1  0.291257  0.708743  0.291257  1
  O  O12  1  0.290998  0.709182  0.708702  1
  O  O13  1  0.708702  0.291118  0.290998  1
  O  O14  1  0.541298  0.540818  0.959002  1
  O  O15  1  0.959002  0.958882  0.541298  1
  O  O16  1  0.539689  0.960311  0.539689  1
  O  O17  1  0.958743  0.541257  0.958743  1
  O  O18  1  0.959002  0.540818  0.541298  1
  O  O19  1  0.541298  0.958882  0.959002  1
  O  O20  1  0.253208  0.246792  0.253208  1
  O  O21  1  0.996792  0.003208  0.996792  1
