# generated using pymatgen
data_Hf2Zr3PaCoCl15
_symmetry_space_group_name_H-M   'P 1'
_cell_length_a   9.07113177
_cell_length_b   9.05860343
_cell_length_c   9.05860402
_cell_angle_alpha   110.26068834
_cell_angle_beta   110.38389541
_cell_angle_gamma   107.72788171
_symmetry_Int_Tables_number   1
_chemical_formula_structural   Hf2Zr3PaCoCl15
_chemical_formula_sum   'Hf2 Zr3 Pa1 Co1 Cl15'
_cell_volume   573.00867792
_cell_formula_units_Z   1
loop_
 _symmetry_equiv_pos_site_id
 _symmetry_equiv_pos_as_xyz
  1  'x, y, z'
loop_
 _atom_site_type_symbol
 _atom_site_label
 _atom_site_symmetry_multiplicity
 _atom_site_fract_x
 _atom_site_fract_y
 _atom_site_fract_z
 _atom_site_occupancy
  Hf  Hf0  1  0.774473  0.774459  0.000013  1
  Hf  Hf1  1  0.760619  0.998118  0.762500  1
  Zr  Zr2  1  0.998161  0.760692  0.762302  1
  Zr  Zr3  1  0.998161  0.235860  0.237469  1
  Zr  Zr4  1  0.236703  0.998014  0.238688  1
  Pa  Pa5  1  0.255426  0.255837  0.999589  1
  Co  Co6  1  0.005597  0.003795  0.001802  1
  Cl  Cl7  1  0.756930  0.516110  0.758208  1
  Cl  Cl8  1  0.516622  0.516832  0.999790  1
  Cl  Cl9  1  0.994485  0.495154  0.499332  1
  Cl  Cl10  1  0.502490  0.995128  0.507362  1
  Cl  Cl11  1  0.236818  0.977284  0.739573  1
  Cl  Cl12  1  0.971532  0.233156  0.738375  1
  Cl  Cl13  1  0.756930  0.998721  0.240820  1
  Cl  Cl14  1  0.518006  0.761231  0.756774  1
  Cl  Cl15  1  0.998680  0.757073  0.241608  1
  Cl  Cl16  1  0.244169  0.244245  0.494564  1
  Cl  Cl17  1  0.747996  0.240208  0.994028  1
  Cl  Cl18  1  0.497218  0.237263  0.259955  1
  Cl  Cl19  1  0.236818  0.497245  0.259535  1
  Cl  Cl20  1  0.747996  0.753968  0.507788  1
  Cl  Cl21  1  0.244169  0.749605  0.999924  1
