# generated using pymatgen
data_Y8As(PdPt)12
_symmetry_space_group_name_H-M   'P 1'
_cell_length_a   8.35588000
_cell_length_b   8.36212700
_cell_length_c   8.42479800
_cell_angle_alpha   90.00000000
_cell_angle_beta   90.00000000
_cell_angle_gamma   90.00000000
_symmetry_Int_Tables_number   1
_chemical_formula_structural   Y8As(PdPt)12
_chemical_formula_sum   'Y8 As1 Pd12 Pt12'
_cell_volume   588.66531887
_cell_formula_units_Z   1
loop_
 _symmetry_equiv_pos_site_id
 _symmetry_equiv_pos_as_xyz
  1  'x, y, z'
loop_
 _atom_site_type_symbol
 _atom_site_label
 _atom_site_symmetry_multiplicity
 _atom_site_fract_x
 _atom_site_fract_y
 _atom_site_fract_z
 _atom_site_occupancy
  Y  Y0  1  0.253830  0.254297  0.254034  1
  Y  Y1  1  0.746170  0.745703  0.745966  1
  Y  Y2  1  0.746170  0.745703  0.254034  1
  Y  Y3  1  0.746170  0.254297  0.745966  1
  Y  Y4  1  0.253830  0.254297  0.745966  1
  Y  Y5  1  0.253830  0.745703  0.254034  1
  Y  Y6  1  0.253830  0.745703  0.745966  1
  Y  Y7  1  0.746170  0.254297  0.254034  1
  As  As8  1  0.000000  0.000000  0.000000  1
  Pd  Pd9  1  0.500000  0.000000  0.261099  1
  Pd  Pd10  1  0.259700  0.000000  0.500000  1
  Pd  Pd11  1  0.500000  0.000000  0.738901  1
  Pd  Pd12  1  0.740300  0.000000  0.500000  1
  Pd  Pd13  1  0.000000  0.500000  0.259199  1
  Pd  Pd14  1  0.000000  0.500000  0.740801  1
  Pd  Pd15  1  0.500000  0.500000  0.253194  1
  Pd  Pd16  1  0.500000  0.500000  0.746806  1
  Pd  Pd17  1  0.000000  0.289365  0.000000  1
  Pd  Pd18  1  0.000000  0.710635  0.000000  1
  Pd  Pd19  1  0.000000  0.000000  0.288004  1
  Pd  Pd20  1  0.000000  0.000000  0.711996  1
  Pt  Pt21  1  0.259810  0.500000  0.000000  1
  Pt  Pt22  1  0.740190  0.500000  0.000000  1
  Pt  Pt23  1  0.000000  0.259599  0.500000  1
  Pt  Pt24  1  0.500000  0.259669  0.000000  1
  Pt  Pt25  1  0.000000  0.740401  0.500000  1
  Pt  Pt26  1  0.500000  0.740331  0.000000  1
  Pt  Pt27  1  0.252015  0.500000  0.500000  1
  Pt  Pt28  1  0.747985  0.500000  0.500000  1
  Pt  Pt29  1  0.500000  0.253204  0.500000  1
  Pt  Pt30  1  0.500000  0.746796  0.500000  1
  Pt  Pt31  1  0.289236  0.000000  0.000000  1
  Pt  Pt32  1  0.710764  0.000000  0.000000  1
