# generated using pymatgen
data_Zr6Nb4Al12Ir5Ru2
_symmetry_space_group_name_H-M   'P 1'
_cell_length_a   8.85500043
_cell_length_b   8.85500082
_cell_length_c   8.85284700
_cell_angle_alpha   60.00804946
_cell_angle_beta   60.00804801
_cell_angle_gamma   60.02409742
_symmetry_Int_Tables_number   1
_chemical_formula_structural   Zr6Nb4Al12Ir5Ru2
_chemical_formula_sum   'Zr6 Nb4 Al12 Ir5 Ru2'
_cell_volume   490.99495077
_cell_formula_units_Z   1
loop_
 _symmetry_equiv_pos_site_id
 _symmetry_equiv_pos_as_xyz
  1  'x, y, z'
loop_
 _atom_site_type_symbol
 _atom_site_label
 _atom_site_symmetry_multiplicity
 _atom_site_fract_x
 _atom_site_fract_y
 _atom_site_fract_z
 _atom_site_occupancy
  Zr  Zr0  1  0.691862  0.691862  0.308138  1
  Zr  Zr1  1  0.310288  0.690004  0.310447  1
  Zr  Zr2  1  0.690004  0.310288  0.310447  1
  Zr  Zr3  1  0.308462  0.308462  0.691538  1
  Zr  Zr4  1  0.690004  0.310288  0.689261  1
  Zr  Zr5  1  0.310288  0.690004  0.689261  1
  Nb  Nb6  1  0.880964  0.880964  0.360936  1
  Nb  Nb7  1  0.880239  0.360533  0.879614  1
  Nb  Nb8  1  0.360533  0.880239  0.879614  1
  Nb  Nb9  1  0.880964  0.880964  0.877136  1
  Al  Al10  1  0.120393  0.120393  0.635807  1
  Al  Al11  1  0.120026  0.636513  0.121730  1
  Al  Al12  1  0.636513  0.120026  0.121730  1
  Al  Al13  1  0.120393  0.120393  0.123408  1
  Al  Al14  1  0.660081  0.660081  0.020359  1
  Al  Al15  1  0.660945  0.019643  0.659706  1
  Al  Al16  1  0.019643  0.660945  0.659706  1
  Al  Al17  1  0.660081  0.660081  0.659479  1
  Al  Al18  1  0.337547  0.337547  0.987178  1
  Al  Al19  1  0.336063  0.987714  0.338113  1
  Al  Al20  1  0.987714  0.336063  0.338113  1
  Al  Al21  1  0.337547  0.337547  0.337730  1
  Ir  Ir22  1  0.502000  0.997953  0.502611  1
  Ir  Ir23  1  0.997953  0.502000  0.502611  1
  Ir  Ir24  1  0.502275  0.502275  0.997725  1
  Ir  Ir25  1  0.997953  0.502000  0.997436  1
  Ir  Ir26  1  0.502000  0.997953  0.997436  1
  Ru  Ru27  1  0.000756  0.000756  0.999244  1
  Ru  Ru28  1  0.996510  0.996510  0.503490  1
