# generated using pymatgen
data_Ho8Sc12Sn5Pb11
_symmetry_space_group_name_H-M   'P 1'
_cell_length_a   7.86154714
_cell_length_b   15.04848000
_cell_length_c   7.94371615
_cell_angle_alpha   90.00000000
_cell_angle_beta   90.06159085
_cell_angle_gamma   90.00000000
_symmetry_Int_Tables_number   1
_chemical_formula_structural   Ho8Sc12Sn5Pb11
_chemical_formula_sum   'Ho8 Sc12 Sn5 Pb11'
_cell_volume   939.77551199
_cell_formula_units_Z   1
loop_
 _symmetry_equiv_pos_site_id
 _symmetry_equiv_pos_as_xyz
  1  'x, y, z'
loop_
 _atom_site_type_symbol
 _atom_site_label
 _atom_site_symmetry_multiplicity
 _atom_site_fract_x
 _atom_site_fract_y
 _atom_site_fract_z
 _atom_site_occupancy
  Ho  Ho0  1  0.474419  0.597838  0.677259  1
  Ho  Ho1  1  0.970851  0.902933  0.824399  1
  Ho  Ho2  1  0.527096  0.096068  0.324325  1
  Ho  Ho3  1  0.027359  0.403801  0.175481  1
  Ho  Ho4  1  0.527096  0.403932  0.324325  1
  Ho  Ho5  1  0.027359  0.096199  0.175481  1
  Ho  Ho6  1  0.474419  0.902162  0.677259  1
  Ho  Ho7  1  0.970851  0.597067  0.824399  1
  Sc  Sc8  1  0.633088  0.626832  0.156692  1
  Sc  Sc9  1  0.133011  0.873492  0.341256  1
  Sc  Sc10  1  0.366628  0.126236  0.841555  1
  Sc  Sc11  1  0.866823  0.373727  0.658476  1
  Sc  Sc12  1  0.366628  0.373764  0.841555  1
  Sc  Sc13  1  0.866823  0.126273  0.658476  1
  Sc  Sc14  1  0.633088  0.873168  0.156692  1
  Sc  Sc15  1  0.133011  0.626508  0.341256  1
  Sc  Sc16  1  0.798713  0.750000  0.492328  1
  Sc  Sc17  1  0.302486  0.750000  0.009065  1
  Sc  Sc18  1  0.199789  0.250000  0.510522  1
  Sc  Sc19  1  0.699679  0.250000  0.989608  1
  Sn  Sn20  1  0.439560  0.750000  0.370362  1
  Sn  Sn21  1  0.938700  0.750000  0.127872  1
  Sn  Sn22  1  0.560301  0.250000  0.629445  1
  Sn  Sn23  1  0.060414  0.250000  0.870565  1
  Sn  Sn24  1  0.664165  0.750000  0.849864  1
  Pb  Pb25  1  0.703163  0.456706  0.956944  1
  Pb  Pb26  1  0.203257  0.043006  0.543169  1
  Pb  Pb27  1  0.296593  0.956728  0.042793  1
  Pb  Pb28  1  0.796780  0.543396  0.456544  1
  Pb  Pb29  1  0.296593  0.543272  0.042793  1
  Pb  Pb30  1  0.796780  0.956604  0.456544  1
  Pb  Pb31  1  0.703163  0.043294  0.956944  1
  Pb  Pb32  1  0.203257  0.456994  0.543169  1
  Pb  Pb33  1  0.161867  0.750000  0.652549  1
  Pb  Pb34  1  0.338107  0.250000  0.152855  1
  Pb  Pb35  1  0.838080  0.250000  0.347174  1
