# generated using pymatgen
data_La12InNi5Rh
_symmetry_space_group_name_H-M   'P 1'
_cell_length_a   8.93942708
_cell_length_b   8.93942646
_cell_length_c   8.93942700
_cell_angle_alpha   110.13566090
_cell_angle_beta   109.28218610
_cell_angle_gamma   108.99798755
_symmetry_Int_Tables_number   1
_chemical_formula_structural   La12InNi5Rh
_chemical_formula_sum   'La12 In1 Ni5 Rh1'
_cell_volume   549.87076403
_cell_formula_units_Z   1
loop_
 _symmetry_equiv_pos_site_id
 _symmetry_equiv_pos_as_xyz
  1  'x, y, z'
loop_
 _atom_site_type_symbol
 _atom_site_label
 _atom_site_symmetry_multiplicity
 _atom_site_fract_x
 _atom_site_fract_y
 _atom_site_fract_z
 _atom_site_occupancy
  La  La0  1  0.819177  0.689246  0.507151  1
  La  La1  1  0.182095  0.312026  0.492849  1
  La  La2  1  0.182095  0.689246  0.870069  1
  La  La3  1  0.819177  0.312026  0.129931  1
  La  La4  1  0.689935  0.508119  0.818184  1
  La  La5  1  0.313104  0.495526  0.182422  1
  La  La6  1  0.689935  0.871750  0.181816  1
  La  La7  1  0.313104  0.130681  0.817578  1
  La  La8  1  0.504769  0.818118  0.686651  1
  La  La9  1  0.488670  0.179241  0.309429  1
  La  La10  1  0.131467  0.818118  0.313349  1
  La  La11  1  0.869812  0.179241  0.690571  1
  In  In12  1  0.000033  0.000033  0.000000  1
  Ni  Ni13  1  0.128706  0.628706  0.500000  1
  Ni  Ni14  1  0.378700  0.501711  0.876990  1
  Ni  Ni15  1  0.624722  0.501711  0.123010  1
  Ni  Ni16  1  0.499769  0.874597  0.374828  1
  Ni  Ni17  1  0.499769  0.124941  0.625172  1
  Rh  Rh18  1  0.864962  0.364962  0.500000  1
