# generated using pymatgen
data_TaNb2Cl15
_symmetry_space_group_name_H-M   'P 1'
_cell_length_a   13.77630746
_cell_length_b   13.77630786
_cell_length_c   6.49566319
_cell_angle_alpha   88.66415899
_cell_angle_beta   88.66415277
_cell_angle_gamma   86.65755945
_symmetry_Int_Tables_number   1
_chemical_formula_structural   TaNb2Cl15
_chemical_formula_sum   'Ta2 Nb4 Cl30'
_cell_volume   1230.06090127
_cell_formula_units_Z   2
loop_
 _symmetry_equiv_pos_site_id
 _symmetry_equiv_pos_as_xyz
  1  'x, y, z'
loop_
 _atom_site_type_symbol
 _atom_site_label
 _atom_site_symmetry_multiplicity
 _atom_site_fract_x
 _atom_site_fract_y
 _atom_site_fract_z
 _atom_site_occupancy
  Ta  Ta0  1  0.227866  0.438484  0.475517  1
  Ta  Ta1  1  0.561516  0.772134  0.524483  1
  Nb  Nb2  1  0.774383  0.559790  0.525192  1
  Nb  Nb3  1  0.440210  0.225617  0.474808  1
  Nb  Nb4  1  0.107084  0.892916  0.000000  1
  Nb  Nb5  1  0.893086  0.106914  0.000000  1
  Cl  Cl6  1  0.667866  0.477363  0.741982  1
  Cl  Cl7  1  0.522637  0.332134  0.258018  1
  Cl  Cl8  1  0.331159  0.523159  0.257185  1
  Cl  Cl9  1  0.476841  0.668841  0.742815  1
  Cl  Cl10  1  0.796147  0.433184  0.304013  1
  Cl  Cl11  1  0.566816  0.203853  0.695987  1
  Cl  Cl12  1  0.952266  0.952294  0.204878  1
  Cl  Cl13  1  0.047706  0.047734  0.795122  1
  Cl  Cl14  1  0.765248  0.128725  0.228761  1
  Cl  Cl15  1  0.871275  0.234752  0.771239  1
  Cl  Cl16  1  0.234768  0.871346  0.771133  1
  Cl  Cl17  1  0.128654  0.765232  0.228867  1
  Cl  Cl18  1  0.810646  0.002112  0.796911  1
  Cl  Cl19  1  0.997888  0.189354  0.203089  1
  Cl  Cl20  1  0.189088  0.998184  0.202923  1
  Cl  Cl21  1  0.001816  0.810912  0.797077  1
  Cl  Cl22  1  0.713647  0.714104  0.722059  1
  Cl  Cl23  1  0.285896  0.286353  0.277941  1
  Cl  Cl24  1  0.537275  0.899552  0.741424  1
  Cl  Cl25  1  0.100448  0.462725  0.258576  1
  Cl  Cl26  1  0.462194  0.099047  0.254125  1
  Cl  Cl27  1  0.900953  0.537806  0.745875  1
  Cl  Cl28  1  0.665310  0.856954  0.307679  1
  Cl  Cl29  1  0.143046  0.334690  0.692321  1
  Cl  Cl30  1  0.333944  0.143914  0.692865  1
  Cl  Cl31  1  0.856086  0.666056  0.307135  1
  Cl  Cl32  1  0.619419  0.620290  0.327791  1
  Cl  Cl33  1  0.379710  0.380581  0.672209  1
  Cl  Cl34  1  0.434052  0.796946  0.308009  1
  Cl  Cl35  1  0.203054  0.565948  0.691991  1
