# generated using pymatgen
data_CaTbMnFeO6
_symmetry_space_group_name_H-M   'P 1'
_cell_length_a   5.34325550
_cell_length_b   5.52315200
_cell_length_c   7.62613422
_cell_angle_alpha   90.00061461
_cell_angle_beta   90.05682014
_cell_angle_gamma   89.99993682
_symmetry_Int_Tables_number   1
_chemical_formula_structural   CaTbMnFeO6
_chemical_formula_sum   'Ca2 Tb2 Mn2 Fe2 O12'
_cell_volume   225.05940602
_cell_formula_units_Z   2
loop_
 _symmetry_equiv_pos_site_id
 _symmetry_equiv_pos_as_xyz
  1  'x, y, z'
loop_
 _atom_site_type_symbol
 _atom_site_label
 _atom_site_symmetry_multiplicity
 _atom_site_fract_x
 _atom_site_fract_y
 _atom_site_fract_z
 _atom_site_occupancy
  Ca  Ca0  1  0.510528  0.550437  0.249561  1
  Ca  Ca1  1  0.010523  0.949559  0.749565  1
  Tb  Tb2  1  0.984042  0.061978  0.249184  1
  Tb  Tb3  1  0.484042  0.438016  0.749186  1
  Mn  Mn4  1  0.999607  0.502695  0.499930  1
  Mn  Mn5  1  0.499625  0.997315  0.999922  1
  Fe  Fe6  1  0.999402  0.506458  0.999888  1
  Fe  Fe7  1  0.499399  0.993537  0.499893  1
  O  O8  1  0.797304  0.805405  0.049032  1
  O  O9  1  0.712319  0.295272  0.454764  1
  O  O10  1  0.202982  0.215084  0.547094  1
  O  O11  1  0.308908  0.703151  0.950370  1
  O  O12  1  0.212322  0.204736  0.954762  1
  O  O13  1  0.297289  0.694595  0.549032  1
  O  O14  1  0.808911  0.796841  0.450370  1
  O  O15  1  0.702992  0.284918  0.047095  1
  O  O16  1  0.401402  0.974548  0.245457  1
  O  O17  1  0.083500  0.471187  0.254725  1
  O  O18  1  0.583498  0.028813  0.754722  1
  O  O19  1  0.901405  0.525452  0.745450  1
