# generated using pymatgen
data_NaLu3As6Ir7
_symmetry_space_group_name_H-M   'P 1'
_cell_length_a   7.21573877
_cell_length_b   7.21204256
_cell_length_c   7.21204322
_cell_angle_alpha   109.46084321
_cell_angle_beta   109.48160325
_cell_angle_gamma   109.48159234
_symmetry_Int_Tables_number   1
_chemical_formula_structural   NaLu3As6Ir7
_chemical_formula_sum   'Na1 Lu3 As6 Ir7'
_cell_volume   288.88159198
_cell_formula_units_Z   1
loop_
 _symmetry_equiv_pos_site_id
 _symmetry_equiv_pos_as_xyz
  1  'x, y, z'
loop_
 _atom_site_type_symbol
 _atom_site_label
 _atom_site_symmetry_multiplicity
 _atom_site_fract_x
 _atom_site_fract_y
 _atom_site_fract_z
 _atom_site_occupancy
  Na  Na0  1  0.500000  0.000000  0.000000  1
  Lu  Lu1  1  0.000000  0.000000  0.500000  1
  Lu  Lu2  1  0.000000  0.500000  0.000000  1
  Lu  Lu3  1  0.500000  0.500000  0.500000  1
  As  As4  1  0.320853  0.000000  0.312674  1
  As  As5  1  0.991820  0.312674  0.312674  1
  As  As6  1  0.008180  0.687326  0.687326  1
  As  As7  1  0.320853  0.312674  0.000000  1
  As  As8  1  0.679147  0.687326  0.000000  1
  As  As9  1  0.679147  0.000000  0.687326  1
  Ir  Ir10  1  0.753248  0.506494  0.253248  1
  Ir  Ir11  1  0.500000  0.746752  0.253248  1
  Ir  Ir12  1  0.500000  0.253248  0.746752  1
  Ir  Ir13  1  0.753248  0.253248  0.506494  1
  Ir  Ir14  1  0.246752  0.746752  0.493506  1
  Ir  Ir15  1  0.246752  0.493506  0.746752  1
  Ir  Ir16  1  0.000000  0.000000  0.000000  1
