# generated using pymatgen
data_Er4TmIn4IrPt
_symmetry_space_group_name_H-M   'P 1'
_cell_length_a   3.59570300
_cell_length_b   8.09000474
_cell_length_c   18.14030585
_cell_angle_alpha   89.95635248
_cell_angle_beta   90.00000000
_cell_angle_gamma   90.00000000
_symmetry_Int_Tables_number   1
_chemical_formula_structural   Er4TmIn4IrPt
_chemical_formula_sum   'Er8 Tm2 In8 Ir2 Pt2'
_cell_volume   527.68781722
_cell_formula_units_Z   2
loop_
 _symmetry_equiv_pos_site_id
 _symmetry_equiv_pos_as_xyz
  1  'x, y, z'
loop_
 _atom_site_type_symbol
 _atom_site_label
 _atom_site_symmetry_multiplicity
 _atom_site_fract_x
 _atom_site_fract_y
 _atom_site_fract_z
 _atom_site_occupancy
  Er  Er0  1  0.000000  0.383089  0.913740  1
  Er  Er1  1  0.000000  0.616911  0.086260  1
  Er  Er2  1  0.000000  0.236687  0.222202  1
  Er  Er3  1  0.000000  0.763313  0.777798  1
  Er  Er4  1  0.000000  0.250038  0.720507  1
  Er  Er5  1  0.000000  0.749962  0.279493  1
  Er  Er6  1  0.000000  0.000000  0.000000  1
  Er  Er7  1  0.000000  0.500000  0.500000  1
  Tm  Tm8  1  0.000000  0.114831  0.412213  1
  Tm  Tm9  1  0.000000  0.885169  0.587787  1
  In  In10  1  0.500000  0.422477  0.351955  1
  In  In11  1  0.500000  0.577523  0.648045  1
  In  In12  1  0.500000  0.072444  0.851194  1
  In  In13  1  0.500000  0.927556  0.148806  1
  In  In14  1  0.500000  0.291856  0.066104  1
  In  In15  1  0.500000  0.708144  0.933896  1
  In  In16  1  0.500000  0.206698  0.567592  1
  In  In17  1  0.500000  0.793302  0.432408  1
  Ir  Ir18  1  0.500000  0.021415  0.304355  1
  Ir  Ir19  1  0.500000  0.978585  0.695645  1
  Pt  Pt20  1  0.500000  0.478282  0.803452  1
  Pt  Pt21  1  0.500000  0.521718  0.196548  1
