# generated using pymatgen
data_SmDy2Ho(Mo2O7)2
_symmetry_space_group_name_H-M   'P 1'
_cell_length_a   7.35942357
_cell_length_b   7.35942338
_cell_length_c   7.44223870
_cell_angle_alpha   60.28310213
_cell_angle_beta   60.28310410
_cell_angle_gamma   59.66133299
_symmetry_Int_Tables_number   1
_chemical_formula_structural   SmDy2Ho(Mo2O7)2
_chemical_formula_sum   'Sm1 Dy2 Ho1 Mo4 O14'
_cell_volume   285.48818049
_cell_formula_units_Z   1
loop_
 _symmetry_equiv_pos_site_id
 _symmetry_equiv_pos_as_xyz
  1  'x, y, z'
loop_
 _atom_site_type_symbol
 _atom_site_label
 _atom_site_symmetry_multiplicity
 _atom_site_fract_x
 _atom_site_fract_y
 _atom_site_fract_z
 _atom_site_occupancy
  Sm  Sm0  1  0.125000  0.125000  0.625000  1
  Dy  Dy1  1  0.625000  0.125000  0.125000  1
  Dy  Dy2  1  0.125000  0.625000  0.125000  1
  Ho  Ho3  1  0.125000  0.125000  0.125000  1
  Mo  Mo4  1  0.125000  0.625000  0.625000  1
  Mo  Mo5  1  0.625000  0.125000  0.625000  1
  Mo  Mo6  1  0.625000  0.625000  0.125000  1
  Mo  Mo7  1  0.625000  0.625000  0.625000  1
  O  O8  1  0.718250  0.718250  0.285116  1
  O  O9  1  0.285933  0.285933  0.725355  1
  O  O10  1  0.709216  0.286542  0.715179  1
  O  O11  1  0.287264  0.710396  0.285340  1
  O  O12  1  0.286542  0.709216  0.715179  1
  O  O13  1  0.710396  0.287264  0.285340  1
  O  O14  1  0.531750  0.531750  0.964884  1
  O  O15  1  0.964067  0.964067  0.524645  1
  O  O16  1  0.540784  0.963458  0.534821  1
  O  O17  1  0.962736  0.539604  0.964660  1
  O  O18  1  0.963458  0.540784  0.534821  1
  O  O19  1  0.539604  0.962736  0.964660  1
  O  O20  1  0.249299  0.249299  0.247556  1
  O  O21  1  0.000701  0.000701  0.002444  1
