# generated using pymatgen
data_Dy20IrRu4Pt7
_symmetry_space_group_name_H-M   'P 1'
_cell_length_a   10.96746437
_cell_length_b   10.96746437
_cell_length_c   6.43286704
_cell_angle_alpha   89.99137054
_cell_angle_beta   89.99137054
_cell_angle_gamma   90.31080619
_symmetry_Int_Tables_number   1
_chemical_formula_structural   Dy20IrRu4Pt7
_chemical_formula_sum   'Dy20 Ir1 Ru4 Pt7'
_cell_volume   773.76777671
_cell_formula_units_Z   1
loop_
 _symmetry_equiv_pos_site_id
 _symmetry_equiv_pos_as_xyz
  1  'x, y, z'
loop_
 _atom_site_type_symbol
 _atom_site_label
 _atom_site_symmetry_multiplicity
 _atom_site_fract_x
 _atom_site_fract_y
 _atom_site_fract_z
 _atom_site_occupancy
  Dy  Dy0  1  0.297152  0.085791  0.375061  1
  Dy  Dy1  1  0.296808  0.910184  0.874719  1
  Dy  Dy2  1  0.703016  0.086282  0.874927  1
  Dy  Dy3  1  0.702993  0.913605  0.374478  1
  Dy  Dy4  1  0.583635  0.795432  0.873951  1
  Dy  Dy5  1  0.586508  0.203608  0.375694  1
  Dy  Dy6  1  0.411964  0.794526  0.379067  1
  Dy  Dy7  1  0.413478  0.202563  0.875286  1
  Dy  Dy8  1  0.204568  0.416365  0.626049  1
  Dy  Dy9  1  0.205474  0.588036  0.120933  1
  Dy  Dy10  1  0.796392  0.413492  0.124306  1
  Dy  Dy11  1  0.797437  0.586522  0.624714  1
  Dy  Dy12  1  0.914209  0.702848  0.124939  1
  Dy  Dy13  1  0.913718  0.296984  0.625073  1
  Dy  Dy14  1  0.089816  0.703192  0.625281  1
  Dy  Dy15  1  0.086395  0.297007  0.125522  1
  Dy  Dy16  1  0.999923  0.999862  0.500264  1
  Dy  Dy17  1  0.000138  0.000077  0.999736  1
  Dy  Dy18  1  0.498160  0.501394  0.999105  1
  Dy  Dy19  1  0.498606  0.501840  0.500895  1
  Ir  Ir20  1  0.347420  0.652580  0.750000  1
  Ru  Ru21  1  0.500474  0.000445  0.126562  1
  Ru  Ru22  1  0.500171  0.000484  0.625829  1
  Ru  Ru23  1  0.999516  0.499829  0.874171  1
  Ru  Ru24  1  0.999555  0.499526  0.373438  1
  Pt  Pt25  1  0.846779  0.153221  0.250000  1
  Pt  Pt26  1  0.846141  0.846685  0.750416  1
  Pt  Pt27  1  0.153315  0.153859  0.749584  1
  Pt  Pt28  1  0.152814  0.847186  0.250000  1
  Pt  Pt29  1  0.653096  0.346904  0.750000  1
  Pt  Pt30  1  0.654173  0.653842  0.250079  1
  Pt  Pt31  1  0.346158  0.345827  0.249921  1
