# generated using pymatgen
data_Li4HoPu3Si8
_symmetry_space_group_name_H-M   'P 1'
_cell_length_a   3.79062200
_cell_length_b   7.66369746
_cell_length_c   10.19344529
_cell_angle_alpha   89.82962452
_cell_angle_beta   90.00000000
_cell_angle_gamma   90.00000000
_symmetry_Int_Tables_number   1
_chemical_formula_structural   Li4HoPu3Si8
_chemical_formula_sum   'Li4 Ho1 Pu3 Si8'
_cell_volume   296.12011335
_cell_formula_units_Z   1
loop_
 _symmetry_equiv_pos_site_id
 _symmetry_equiv_pos_as_xyz
  1  'x, y, z'
loop_
 _atom_site_type_symbol
 _atom_site_label
 _atom_site_symmetry_multiplicity
 _atom_site_fract_x
 _atom_site_fract_y
 _atom_site_fract_z
 _atom_site_occupancy
  Li  Li0  1  0.250000  0.488028  0.393773  1
  Li  Li1  1  0.250000  0.990223  0.105025  1
  Li  Li2  1  0.750000  0.511060  0.604896  1
  Li  Li3  1  0.750000  0.010739  0.895165  1
  Ho  Ho4  1  0.750000  0.366062  0.135703  1
  Pu  Pu5  1  0.250000  0.135884  0.636502  1
  Pu  Pu6  1  0.250000  0.636978  0.863637  1
  Pu  Pu7  1  0.750000  0.861748  0.363915  1
  Si  Si8  1  0.250000  0.238357  0.933310  1
  Si  Si9  1  0.250000  0.738494  0.567334  1
  Si  Si10  1  0.750000  0.758463  0.065984  1
  Si  Si11  1  0.750000  0.261657  0.432891  1
  Si  Si12  1  0.250000  0.156742  0.317954  1
  Si  Si13  1  0.250000  0.659167  0.183025  1
  Si  Si14  1  0.750000  0.842644  0.682035  1
  Si  Si15  1  0.750000  0.343755  0.818851  1
