# generated using pymatgen
data_Ho7Lu3(Sn3Se)2
_symmetry_space_group_name_H-M   'P 1'
_cell_length_a   9.03840800
_cell_length_b   9.03840892
_cell_length_c   6.63391000
_cell_angle_alpha   90.00000000
_cell_angle_beta   90.00000000
_cell_angle_gamma   119.99999663
_symmetry_Int_Tables_number   1
_chemical_formula_structural   Ho7Lu3(Sn3Se)2
_chemical_formula_sum   'Ho7 Lu3 Sn6 Se2'
_cell_volume   469.33630459
_cell_formula_units_Z   1
loop_
 _symmetry_equiv_pos_site_id
 _symmetry_equiv_pos_as_xyz
  1  'x, y, z'
loop_
 _atom_site_type_symbol
 _atom_site_label
 _atom_site_symmetry_multiplicity
 _atom_site_fract_x
 _atom_site_fract_y
 _atom_site_fract_z
 _atom_site_occupancy
  Ho  Ho0  1  0.666667  0.333333  0.000000  1
  Ho  Ho1  1  0.746191  0.746344  0.749828  1
  Ho  Ho2  1  0.253656  0.999847  0.749828  1
  Ho  Ho3  1  0.000153  0.253809  0.749828  1
  Ho  Ho4  1  0.253656  0.253809  0.250172  1
  Ho  Ho5  1  0.746191  0.999847  0.250172  1
  Ho  Ho6  1  0.000153  0.746344  0.250172  1
  Lu  Lu7  1  0.333333  0.666667  0.000000  1
  Lu  Lu8  1  0.333333  0.666667  0.500000  1
  Lu  Lu9  1  0.666667  0.333333  0.500000  1
  Sn  Sn10  1  0.396946  0.397430  0.749593  1
  Sn  Sn11  1  0.602570  0.999515  0.749593  1
  Sn  Sn12  1  0.000485  0.603054  0.749593  1
  Sn  Sn13  1  0.602570  0.603054  0.250407  1
  Sn  Sn14  1  0.396946  0.999515  0.250407  1
  Sn  Sn15  1  0.000485  0.397430  0.250407  1
  Se  Se16  1  0.000000  0.000000  0.000000  1
  Se  Se17  1  0.000000  0.000000  0.500000  1
