# generated using pymatgen
data_Y17Ho3Co3Bi8Os
_symmetry_space_group_name_H-M   'P 1'
_cell_length_a   8.04133533
_cell_length_b   8.96518930
_cell_length_c   12.49306303
_cell_angle_alpha   90.00359463
_cell_angle_beta   89.75794820
_cell_angle_gamma   89.97068938
_symmetry_Int_Tables_number   1
_chemical_formula_structural   Y17Ho3Co3Bi8Os
_chemical_formula_sum   'Y17 Ho3 Co3 Bi8 Os1'
_cell_volume   900.64291105
_cell_formula_units_Z   1
loop_
 _symmetry_equiv_pos_site_id
 _symmetry_equiv_pos_as_xyz
  1  'x, y, z'
loop_
 _atom_site_type_symbol
 _atom_site_label
 _atom_site_symmetry_multiplicity
 _atom_site_fract_x
 _atom_site_fract_y
 _atom_site_fract_z
 _atom_site_occupancy
  Y  Y0  1  0.346065  0.750516  0.701101  1
  Y  Y1  1  0.653312  0.249778  0.300184  1
  Y  Y2  1  0.847357  0.249332  0.799203  1
  Y  Y3  1  0.154867  0.750601  0.206220  1
  Y  Y4  1  0.880033  0.750782  0.805156  1
  Y  Y5  1  0.116265  0.249256  0.190127  1
  Y  Y6  1  0.383754  0.249588  0.689201  1
  Y  Y7  1  0.616269  0.750310  0.312298  1
  Y  Y8  1  0.675347  0.536556  0.563615  1
  Y  Y9  1  0.323848  0.462408  0.436537  1
  Y  Y10  1  0.176803  0.458411  0.934952  1
  Y  Y11  1  0.323695  0.037519  0.436417  1
  Y  Y12  1  0.824596  0.537352  0.063924  1
  Y  Y13  1  0.049740  0.750567  0.498206  1
  Y  Y14  1  0.948222  0.249240  0.502609  1
  Y  Y15  1  0.553680  0.248642  0.003061  1
  Y  Y16  1  0.445126  0.751337  0.996728  1
  Ho  Ho17  1  0.673359  0.963626  0.562933  1
  Ho  Ho18  1  0.826291  0.962690  0.063265  1
  Ho  Ho19  1  0.175133  0.041876  0.935540  1
  Co  Co20  1  0.931600  0.248159  0.008946  1
  Co  Co21  1  0.564734  0.248846  0.508183  1
  Co  Co22  1  0.435531  0.750761  0.492765  1
  Bi  Bi23  1  0.571677  0.508202  0.826836  1
  Bi  Bi24  1  0.429765  0.491289  0.173083  1
  Bi  Bi25  1  0.071869  0.490652  0.672007  1
  Bi  Bi26  1  0.430355  0.008830  0.173699  1
  Bi  Bi27  1  0.928115  0.508441  0.327676  1
  Bi  Bi28  1  0.571350  0.991754  0.826074  1
  Bi  Bi29  1  0.927690  0.991401  0.327426  1
  Bi  Bi30  1  0.072173  0.009431  0.672058  1
  Os  Os31  1  0.071380  0.751846  0.989969  1
