# generated using pymatgen
data_Ta3Ga2FeN
_symmetry_space_group_name_H-M   'P 1'
_cell_length_a   8.18958641
_cell_length_b   8.18958607
_cell_length_c   8.18958700
_cell_angle_alpha   60.00000029
_cell_angle_beta   60.00000167
_cell_angle_gamma   59.99999973
_symmetry_Int_Tables_number   1
_chemical_formula_structural   Ta3Ga2FeN
_chemical_formula_sum   'Ta12 Ga8 Fe4 N4'
_cell_volume   388.39258509
_cell_formula_units_Z   4
loop_
 _symmetry_equiv_pos_site_id
 _symmetry_equiv_pos_as_xyz
  1  'x, y, z'
loop_
 _atom_site_type_symbol
 _atom_site_label
 _atom_site_symmetry_multiplicity
 _atom_site_fract_x
 _atom_site_fract_y
 _atom_site_fract_z
 _atom_site_occupancy
  Ta  Ta0  1  0.806107  0.806257  0.193813  1
  Ta  Ta1  1  0.193771  0.193821  0.806202  1
  Ta  Ta2  1  0.806221  0.193826  0.806185  1
  Ta  Ta3  1  0.193815  0.806265  0.193815  1
  Ta  Ta4  1  0.193811  0.806278  0.806105  1
  Ta  Ta5  1  0.806205  0.193833  0.193768  1
  Ta  Ta6  1  0.443893  0.443743  0.056187  1
  Ta  Ta7  1  0.056229  0.056179  0.443798  1
  Ta  Ta8  1  0.443779  0.056174  0.443815  1
  Ta  Ta9  1  0.056185  0.443735  0.056185  1
  Ta  Ta10  1  0.056189  0.443722  0.443895  1
  Ta  Ta11  1  0.443795  0.056167  0.056232  1
  Ga  Ga12  1  0.752286  0.415930  0.415901  1
  Ga  Ga13  1  0.415893  0.752292  0.415926  1
  Ga  Ga14  1  0.415907  0.415938  0.752276  1
  Ga  Ga15  1  0.415882  0.415930  0.415902  1
  Ga  Ga16  1  0.497714  0.834070  0.834099  1
  Ga  Ga17  1  0.834107  0.497708  0.834074  1
  Ga  Ga18  1  0.834093  0.834062  0.497724  1
  Ga  Ga19  1  0.834118  0.834070  0.834098  1
  Fe  Fe20  1  0.125000  0.625000  0.625000  1
  Fe  Fe21  1  0.625000  0.125000  0.625000  1
  Fe  Fe22  1  0.625000  0.625000  0.125000  1
  Fe  Fe23  1  0.625000  0.625000  0.625000  1
  N  N24  1  0.625000  0.125000  0.125000  1
  N  N25  1  0.125000  0.625000  0.125000  1
  N  N26  1  0.125000  0.125000  0.625000  1
  N  N27  1  0.125000  0.125000  0.125000  1
