# generated using pymatgen
data_ErTm(VC2)2
_symmetry_space_group_name_H-M   'P 1'
_cell_length_a   3.38068400
_cell_length_b   3.38068604
_cell_length_c   9.58203300
_cell_angle_alpha   90.00000000
_cell_angle_beta   90.00000000
_cell_angle_gamma   119.99999965
_symmetry_Int_Tables_number   1
_chemical_formula_structural   ErTm(VC2)2
_chemical_formula_sum   'Er1 Tm1 V2 C4'
_cell_volume   94.84134699
_cell_formula_units_Z   1
loop_
 _symmetry_equiv_pos_site_id
 _symmetry_equiv_pos_as_xyz
  1  'x, y, z'
loop_
 _atom_site_type_symbol
 _atom_site_label
 _atom_site_symmetry_multiplicity
 _atom_site_fract_x
 _atom_site_fract_y
 _atom_site_fract_z
 _atom_site_occupancy
  Er  Er0  1  0.000000  0.000000  0.500000  1
  Tm  Tm1  1  0.000000  0.000000  0.000000  1
  V  V2  1  0.666668  0.333333  0.249373  1
  V  V3  1  0.333333  0.666667  0.750627  1
  C  C4  1  0.333333  0.666667  0.167868  1
  C  C5  1  0.333333  0.666667  0.330436  1
  C  C6  1  0.666668  0.333333  0.669564  1
  C  C7  1  0.666668  0.333333  0.832132  1
