# generated using pymatgen
data_CsRb3Na4Ti8(PO5)8
_symmetry_space_group_name_H-M   'P 1'
_cell_length_a   6.39985800
_cell_length_b   10.70330500
_cell_length_c   12.98808000
_cell_angle_alpha   90.00000000
_cell_angle_beta   90.00000000
_cell_angle_gamma   90.00000000
_symmetry_Int_Tables_number   1
_chemical_formula_structural   CsRb3Na4Ti8(PO5)8
_chemical_formula_sum   'Cs1 Rb3 Na4 Ti8 P8 O40'
_cell_volume   889.67870208
_cell_formula_units_Z   1
loop_
 _symmetry_equiv_pos_site_id
 _symmetry_equiv_pos_as_xyz
  1  'x, y, z'
loop_
 _atom_site_type_symbol
 _atom_site_label
 _atom_site_symmetry_multiplicity
 _atom_site_fract_x
 _atom_site_fract_y
 _atom_site_fract_z
 _atom_site_occupancy
  Cs  Cs0  1  0.148086  0.585006  0.094739  1
  Rb  Rb1  1  0.843013  0.082042  0.903475  1
  Rb  Rb2  1  0.343253  0.581896  0.596340  1
  Rb  Rb3  1  0.657612  0.082201  0.403835  1
  Na  Na4  1  0.743682  0.298034  0.154634  1
  Na  Na5  1  0.256446  0.799129  0.845262  1
  Na  Na6  1  0.755929  0.298294  0.653901  1
  Na  Na7  1  0.243087  0.798938  0.346506  1
  Ti  Ti8  1  0.476624  0.011863  0.127707  1
  Ti  Ti9  1  0.525137  0.511264  0.871215  1
  Ti  Ti10  1  0.023217  0.011902  0.627609  1
  Ti  Ti11  1  0.976245  0.511767  0.373599  1
  Ti  Ti12  1  0.246754  0.270533  0.248956  1
  Ti  Ti13  1  0.754058  0.771278  0.751139  1
  Ti  Ti14  1  0.253908  0.270490  0.748431  1
  Ti  Ti15  1  0.744055  0.771999  0.252671  1
  P  P16  1  0.339919  0.274195  0.999167  1
  P  P17  1  0.660922  0.776139  0.000165  1
  P  P18  1  0.161139  0.274609  0.499758  1
  P  P19  1  0.838758  0.775311  0.501016  1
  P  P20  1  0.984205  0.025777  0.185197  1
  P  P21  1  0.016543  0.525555  0.812492  1
  P  P22  1  0.515706  0.025730  0.685026  1
  P  P23  1  0.484618  0.525257  0.316019  1
  O  O24  1  0.015388  0.391534  0.490645  1
  O  O25  1  0.985579  0.891768  0.510291  1
  O  O26  1  0.485531  0.391194  0.988976  1
  O  O27  1  0.512021  0.891663  0.009264  1
  O  O28  1  0.287841  0.551514  0.381076  1
  O  O29  1  0.711665  0.051538  0.619294  1
  O  O30  1  0.215187  0.551582  0.876058  1
  O  O31  1  0.788136  0.051292  0.119368  1
  O  O32  1  0.444352  0.156898  0.218867  1
  O  O33  1  0.558070  0.657037  0.780766  1
  O  O34  1  0.056403  0.156932  0.718774  1
  O  O35  1  0.940170  0.658169  0.284353  1
  O  O36  1  0.015145  0.400386  0.273167  1
  O  O37  1  0.985386  0.900864  0.728218  1
  O  O38  1  0.486951  0.399925  0.770905  1
  O  O39  1  0.512976  0.901364  0.228956  1
  O  O40  1  0.454545  0.413379  0.241417  1
  O  O41  1  0.546623  0.914129  0.759730  1
  O  O42  1  0.046283  0.413408  0.738367  1
  O  O43  1  0.953391  0.914354  0.260066  1
  O  O44  1  0.170465  0.999958  0.112877  1
  O  O45  1  0.832131  0.499668  0.885924  1
  O  O46  1  0.329450  0.999850  0.612771  1
  O  O47  1  0.669973  0.499031  0.388773  1
  O  O48  1  0.476731  0.158002  0.014175  1
  O  O49  1  0.529539  0.658061  0.983782  1
  O  O50  1  0.024168  0.158429  0.514785  1
  O  O51  1  0.974633  0.658665  0.486502  1
  O  O52  1  0.018646  0.145757  0.251151  1
  O  O53  1  0.980619  0.645676  0.747098  1
  O  O54  1  0.481293  0.145490  0.751187  1
  O  O55  1  0.520242  0.645240  0.250284  1
  O  O56  1  0.293840  0.260109  0.399644  1
  O  O57  1  0.705301  0.761461  0.600959  1
  O  O58  1  0.206192  0.260360  0.899185  1
  O  O59  1  0.788979  0.763792  0.101913  1
  O  O60  1  0.189235  0.295399  0.092311  1
  O  O61  1  0.814383  0.798934  0.908261  1
  O  O62  1  0.313019  0.296650  0.592298  1
  O  O63  1  0.686602  0.798522  0.408701  1
