# generated using pymatgen
data_CaTb(SnRh2)4
_symmetry_space_group_name_H-M   'P 1'
_cell_length_a   4.40480000
_cell_length_b   9.72619700
_cell_length_c   11.87763700
_cell_angle_alpha   90.00000000
_cell_angle_beta   90.00000000
_cell_angle_gamma   90.00000000
_symmetry_Int_Tables_number   1
_chemical_formula_structural   CaTb(SnRh2)4
_chemical_formula_sum   'Ca2 Tb2 Sn8 Rh16'
_cell_volume   508.86116071
_cell_formula_units_Z   2
loop_
 _symmetry_equiv_pos_site_id
 _symmetry_equiv_pos_as_xyz
  1  'x, y, z'
loop_
 _atom_site_type_symbol
 _atom_site_label
 _atom_site_symmetry_multiplicity
 _atom_site_fract_x
 _atom_site_fract_y
 _atom_site_fract_z
 _atom_site_occupancy
  Ca  Ca0  1  0.250000  0.149930  0.827304  1
  Ca  Ca1  1  0.250000  0.350070  0.327304  1
  Tb  Tb2  1  0.750000  0.849144  0.173238  1
  Tb  Tb3  1  0.750000  0.650856  0.673238  1
  Sn  Sn4  1  0.250000  0.412851  0.637672  1
  Sn  Sn5  1  0.250000  0.087149  0.137672  1
  Sn  Sn6  1  0.750000  0.583309  0.362381  1
  Sn  Sn7  1  0.750000  0.916691  0.862381  1
  Sn  Sn8  1  0.250000  0.616568  0.064311  1
  Sn  Sn9  1  0.250000  0.883432  0.564311  1
  Sn  Sn10  1  0.750000  0.382441  0.935595  1
  Sn  Sn11  1  0.750000  0.117559  0.435595  1
  Rh  Rh12  1  0.250000  0.620300  0.497320  1
  Rh  Rh13  1  0.250000  0.879700  0.997320  1
  Rh  Rh14  1  0.750000  0.381267  0.505386  1
  Rh  Rh15  1  0.750000  0.118733  0.005386  1
  Rh  Rh16  1  0.250000  0.712298  0.276157  1
  Rh  Rh17  1  0.250000  0.787702  0.776157  1
  Rh  Rh18  1  0.750000  0.292465  0.724311  1
  Rh  Rh19  1  0.750000  0.207535  0.224311  1
  Rh  Rh20  1  0.250000  0.165147  0.563308  1
  Rh  Rh21  1  0.250000  0.334853  0.063308  1
  Rh  Rh22  1  0.750000  0.832304  0.435150  1
  Rh  Rh23  1  0.750000  0.667696  0.935150  1
  Rh  Rh24  1  0.250000  0.992397  0.343776  1
  Rh  Rh25  1  0.250000  0.507603  0.843776  1
  Rh  Rh26  1  0.750000  0.002318  0.654090  1
  Rh  Rh27  1  0.750000  0.497682  0.154090  1
