# generated using pymatgen
data_Ho6Al12Ga7Si5Os8
_symmetry_space_group_name_H-M   'P 1'
_cell_length_a   8.65982500
_cell_length_b   8.64765177
_cell_length_c   9.66856200
_cell_angle_alpha   90.00033492
_cell_angle_beta   90.00000000
_cell_angle_gamma   120.04657317
_symmetry_Int_Tables_number   1
_chemical_formula_structural   Ho6Al12Ga7Si5Os8
_chemical_formula_sum   'Ho6 Al12 Ga7 Si5 Os8'
_cell_volume   626.75213234
_cell_formula_units_Z   1
loop_
 _symmetry_equiv_pos_site_id
 _symmetry_equiv_pos_as_xyz
  1  'x, y, z'
loop_
 _atom_site_type_symbol
 _atom_site_label
 _atom_site_symmetry_multiplicity
 _atom_site_fract_x
 _atom_site_fract_y
 _atom_site_fract_z
 _atom_site_occupancy
  Ho  Ho0  1  0.193285  0.386569  0.250000  1
  Ho  Ho1  1  0.806542  0.613085  0.750000  1
  Ho  Ho2  1  0.611986  0.806404  0.249999  1
  Ho  Ho3  1  0.387109  0.194448  0.750000  1
  Ho  Ho4  1  0.194418  0.806404  0.249999  1
  Ho  Ho5  1  0.807338  0.194448  0.750000  1
  Al  Al6  1  0.166284  0.332568  0.576088  1
  Al  Al7  1  0.833438  0.666877  0.424309  1
  Al  Al8  1  0.666733  0.834117  0.574522  1
  Al  Al9  1  0.833437  0.666875  0.075691  1
  Al  Al10  1  0.331814  0.166769  0.423310  1
  Al  Al11  1  0.166283  0.332566  0.923911  1
  Al  Al12  1  0.167385  0.834117  0.574522  1
  Al  Al13  1  0.331812  0.166768  0.076691  1
  Al  Al14  1  0.834955  0.166769  0.423310  1
  Al  Al15  1  0.666733  0.834118  0.925476  1
  Al  Al16  1  0.834956  0.166768  0.076691  1
  Al  Al17  1  0.167385  0.834118  0.925476  1
  Ga  Ga18  1  0.437707  0.875413  0.750000  1
  Ga  Ga19  1  0.874009  0.434662  0.249999  1
  Ga  Ga20  1  0.127192  0.564273  0.750001  1
  Ga  Ga21  1  0.560652  0.434662  0.249999  1
  Ga  Ga22  1  0.437082  0.564273  0.750001  1
  Ga  Ga23  1  0.999752  0.999504  0.250000  1
  Ga  Ga24  1  0.000440  0.000880  0.749998  1
  Si  Si25  1  0.332522  0.665044  0.045703  1
  Si  Si26  1  0.666906  0.333812  0.955900  1
  Si  Si27  1  0.666905  0.333809  0.544102  1
  Si  Si28  1  0.332521  0.665043  0.454296  1
  Si  Si29  1  0.562910  0.125821  0.250002  1
  Os  Os30  1  0.500729  0.001458  0.008859  1
  Os  Os31  1  0.999443  0.499331  0.000263  1
  Os  Os32  1  0.500729  0.001457  0.491143  1
  Os  Os33  1  0.499888  0.499331  0.000263  1
  Os  Os34  1  0.999443  0.499332  0.499738  1
  Os  Os35  1  0.499889  0.499332  0.499738  1
  Os  Os36  1  0.999693  0.999386  0.000065  1
  Os  Os37  1  0.999694  0.999389  0.499935  1
