# generated using pymatgen
data_ErSc3Zn2(B2Ir5)2
_symmetry_space_group_name_H-M   'P 1'
_cell_length_a   9.49119521
_cell_length_b   9.49119521
_cell_length_c   3.06182300
_cell_angle_alpha   90.00000000
_cell_angle_beta   90.00000000
_cell_angle_gamma   89.31776101
_symmetry_Int_Tables_number   1
_chemical_formula_structural   ErSc3Zn2(B2Ir5)2
_chemical_formula_sum   'Er1 Sc3 Zn2 B4 Ir10'
_cell_volume   275.79799473
_cell_formula_units_Z   1
loop_
 _symmetry_equiv_pos_site_id
 _symmetry_equiv_pos_as_xyz
  1  'x, y, z'
loop_
 _atom_site_type_symbol
 _atom_site_label
 _atom_site_symmetry_multiplicity
 _atom_site_fract_x
 _atom_site_fract_y
 _atom_site_fract_z
 _atom_site_occupancy
  Er  Er0  1  0.677640  0.177640  0.000000  1
  Sc  Sc1  1  0.177581  0.324526  0.000000  1
  Sc  Sc2  1  0.824526  0.677581  0.000000  1
  Sc  Sc3  1  0.321423  0.821423  0.000000  1
  Zn  Zn4  1  0.997280  0.000589  0.000000  1
  Zn  Zn5  1  0.500589  0.497280  0.000000  1
  B  B6  1  0.370319  0.124344  0.000000  1
  B  B7  1  0.877682  0.377682  0.000000  1
  B  B8  1  0.127963  0.627962  0.000000  1
  B  B9  1  0.624343  0.870319  0.000000  1
  Ir  Ir10  1  0.495395  0.995395  0.500001  1
  Ir  Ir11  1  0.215027  0.068380  0.500001  1
  Ir  Ir12  1  0.938877  0.221919  0.500001  1
  Ir  Ir13  1  0.424521  0.281961  0.500001  1
  Ir  Ir14  1  0.721918  0.438876  0.500001  1
  Ir  Ir15  1  0.002447  0.502447  0.500001  1
  Ir  Ir16  1  0.283260  0.568866  0.500001  1
  Ir  Ir17  1  0.568380  0.715026  0.500001  1
  Ir  Ir18  1  0.068866  0.783260  0.500001  1
  Ir  Ir19  1  0.781961  0.924522  0.500001  1
