# generated using pymatgen
data_NpAlSi2Rh
_symmetry_space_group_name_H-M   'P 1'
_cell_length_a   6.03988080
_cell_length_b   6.03988083
_cell_length_c   6.03988056
_cell_angle_alpha   141.87203190
_cell_angle_beta   141.87202797
_cell_angle_gamma   55.02160890
_symmetry_Int_Tables_number   1
_chemical_formula_structural   NpAlSi2Rh
_chemical_formula_sum   'Np1 Al1 Si2 Rh1'
_cell_volume   83.39253420
_cell_formula_units_Z   1
loop_
 _symmetry_equiv_pos_site_id
 _symmetry_equiv_pos_as_xyz
  1  'x, y, z'
loop_
 _atom_site_type_symbol
 _atom_site_label
 _atom_site_symmetry_multiplicity
 _atom_site_fract_x
 _atom_site_fract_y
 _atom_site_fract_z
 _atom_site_occupancy
  Np  Np0  1  0.000000  0.000000  0.000000  1
  Al  Al1  1  0.750000  0.250000  0.500000  1
  Si  Si2  1  0.609112  0.609112  0.000000  1
  Si  Si3  1  0.390888  0.390888  0.000000  1
  Rh  Rh4  1  0.250000  0.750000  0.500000  1
