# generated using pymatgen
data_Sm7Tm13Pt16
_symmetry_space_group_name_H-M   'P 1'
_cell_length_a   7.50248229
_cell_length_b   7.55987675
_cell_length_c   14.66385899
_cell_angle_alpha   89.99031681
_cell_angle_beta   89.93036792
_cell_angle_gamma   89.96337784
_symmetry_Int_Tables_number   1
_chemical_formula_structural   Sm7Tm13Pt16
_chemical_formula_sum   'Sm7 Tm13 Pt16'
_cell_volume   831.70163302
_cell_formula_units_Z   1
loop_
 _symmetry_equiv_pos_site_id
 _symmetry_equiv_pos_as_xyz
  1  'x, y, z'
loop_
 _atom_site_type_symbol
 _atom_site_label
 _atom_site_symmetry_multiplicity
 _atom_site_fract_x
 _atom_site_fract_y
 _atom_site_fract_z
 _atom_site_occupancy
  Sm  Sm0  1  0.499378  0.677585  0.094269  1
  Sm  Sm1  1  0.501068  0.322481  0.593724  1
  Sm  Sm2  1  0.000471  0.177797  0.906348  1
  Sm  Sm3  1  0.000372  0.175303  0.592553  1
  Sm  Sm4  1  0.500882  0.322520  0.906157  1
  Sm  Sm5  1  0.499158  0.678811  0.406564  1
  Sm  Sm6  1  0.999825  0.822356  0.093742  1
  Tm  Tm7  1  0.680921  0.991119  0.251147  1
  Tm  Tm8  1  0.180433  0.509389  0.250968  1
  Tm  Tm9  1  0.819778  0.490916  0.749483  1
  Tm  Tm10  1  0.319545  0.008838  0.749725  1
  Tm  Tm11  1  0.656466  0.833097  0.622557  1
  Tm  Tm12  1  0.156196  0.667124  0.876761  1
  Tm  Tm13  1  0.843882  0.332697  0.377227  1
  Tm  Tm14  1  0.343618  0.167220  0.123484  1
  Tm  Tm15  1  0.341771  0.166262  0.377820  1
  Tm  Tm16  1  0.844244  0.332266  0.123587  1
  Tm  Tm17  1  0.154523  0.668534  0.621905  1
  Tm  Tm18  1  0.656074  0.832475  0.877138  1
  Tm  Tm19  1  0.997511  0.819850  0.405374  1
  Pt  Pt20  1  0.818647  0.641686  0.252528  1
  Pt  Pt21  1  0.314261  0.860552  0.251230  1
  Pt  Pt22  1  0.684090  0.139386  0.749699  1
  Pt  Pt23  1  0.184050  0.360787  0.749579  1
  Pt  Pt24  1  0.547263  0.380540  0.250349  1
  Pt  Pt25  1  0.045752  0.117941  0.251265  1
  Pt  Pt26  1  0.953356  0.879942  0.749812  1
  Pt  Pt27  1  0.453271  0.620036  0.749717  1
  Pt  Pt28  1  0.820231  0.538409  0.541472  1
  Pt  Pt29  1  0.319547  0.964128  0.957427  1
  Pt  Pt30  1  0.686133  0.032107  0.456391  1
  Pt  Pt31  1  0.179910  0.464315  0.042777  1
  Pt  Pt32  1  0.178450  0.468859  0.455840  1
  Pt  Pt33  1  0.680297  0.036297  0.042681  1
  Pt  Pt34  1  0.319110  0.962471  0.541215  1
  Pt  Pt35  1  0.819518  0.535906  0.957485  1
