# generated using pymatgen
data_PrNb8VS16
_symmetry_space_group_name_H-M   'P 1'
_cell_length_a   6.70643800
_cell_length_b   6.70643791
_cell_length_c   13.42150900
_cell_angle_alpha   90.00000000
_cell_angle_beta   90.00000000
_cell_angle_gamma   120.00001029
_symmetry_Int_Tables_number   1
_chemical_formula_structural   PrNb8VS16
_chemical_formula_sum   'Pr1 Nb8 V1 S16'
_cell_volume   522.77613782
_cell_formula_units_Z   1
loop_
 _symmetry_equiv_pos_site_id
 _symmetry_equiv_pos_as_xyz
  1  'x, y, z'
loop_
 _atom_site_type_symbol
 _atom_site_label
 _atom_site_symmetry_multiplicity
 _atom_site_fract_x
 _atom_site_fract_y
 _atom_site_fract_z
 _atom_site_occupancy
  Pr  Pr0  1  0.000000  0.000000  0.000000  1
  Nb  Nb1  1  0.000000  0.000000  0.269029  1
  Nb  Nb2  1  0.000000  0.000000  0.730971  1
  Nb  Nb3  1  0.504470  0.008940  0.272470  1
  Nb  Nb4  1  0.495530  0.991060  0.727530  1
  Nb  Nb5  1  0.991060  0.495530  0.272470  1
  Nb  Nb6  1  0.008940  0.504470  0.727530  1
  Nb  Nb7  1  0.504470  0.495530  0.272470  1
  Nb  Nb8  1  0.495530  0.504470  0.727530  1
  V  V9  1  0.000000  0.000000  0.500000  1
  S  S10  1  0.333333  0.666667  0.609069  1
  S  S11  1  0.666667  0.333333  0.390931  1
  S  S12  1  0.666667  0.333333  0.152585  1
  S  S13  1  0.333333  0.666667  0.847415  1
  S  S14  1  0.169765  0.339529  0.153340  1
  S  S15  1  0.830235  0.660471  0.846660  1
  S  S16  1  0.660471  0.830235  0.153340  1
  S  S17  1  0.835335  0.670671  0.611859  1
  S  S18  1  0.339529  0.169765  0.846660  1
  S  S19  1  0.164665  0.329329  0.388141  1
  S  S20  1  0.169765  0.830235  0.153340  1
  S  S21  1  0.329329  0.164665  0.611859  1
  S  S22  1  0.830235  0.169765  0.846660  1
  S  S23  1  0.670671  0.835335  0.388141  1
  S  S24  1  0.835335  0.164665  0.611859  1
  S  S25  1  0.164665  0.835335  0.388141  1
