# generated using pymatgen
data_DyHo11TcOs3
_symmetry_space_group_name_H-M   'P 1'
_cell_length_a   6.29007814
_cell_length_b   7.40694956
_cell_length_c   9.03946400
_cell_angle_alpha   90.00000000
_cell_angle_beta   90.00000000
_cell_angle_gamma   90.04394901
_symmetry_Int_Tables_number   1
_chemical_formula_structural   DyHo11TcOs3
_chemical_formula_sum   'Dy1 Ho11 Tc1 Os3'
_cell_volume   421.15113925
_cell_formula_units_Z   1
loop_
 _symmetry_equiv_pos_site_id
 _symmetry_equiv_pos_as_xyz
  1  'x, y, z'
loop_
 _atom_site_type_symbol
 _atom_site_label
 _atom_site_symmetry_multiplicity
 _atom_site_fract_x
 _atom_site_fract_y
 _atom_site_fract_z
 _atom_site_occupancy
  Dy  Dy0  1  0.871563  0.540219  0.250000  1
  Ho  Ho1  1  0.335230  0.674983  0.062615  1
  Ho  Ho2  1  0.166141  0.175446  0.436990  1
  Ho  Ho3  1  0.667172  0.324315  0.562644  1
  Ho  Ho4  1  0.834056  0.824995  0.936889  1
  Ho  Ho5  1  0.667172  0.324315  0.937356  1
  Ho  Ho6  1  0.834056  0.824995  0.563111  1
  Ho  Ho7  1  0.335230  0.674983  0.437385  1
  Ho  Ho8  1  0.166141  0.175446  0.063010  1
  Ho  Ho9  1  0.626618  0.040129  0.250000  1
  Ho  Ho10  1  0.130783  0.459228  0.750000  1
  Ho  Ho11  1  0.369012  0.959906  0.750000  1
  Tc  Tc12  1  0.037372  0.883771  0.250000  1
  Os  Os13  1  0.460400  0.382786  0.250000  1
  Os  Os14  1  0.960183  0.117744  0.750000  1
  Os  Os15  1  0.538871  0.616734  0.750000  1
