# generated using pymatgen
data_Tb11Pr(NdSn2)8
_symmetry_space_group_name_H-M   'P 1'
_cell_length_a   8.08393254
_cell_length_b   8.26847376
_cell_length_c   15.56628700
_cell_angle_alpha   90.20307419
_cell_angle_beta   90.06069832
_cell_angle_gamma   90.18633218
_symmetry_Int_Tables_number   1
_chemical_formula_structural   Tb11Pr(NdSn2)8
_chemical_formula_sum   'Tb11 Pr1 Nd8 Sn16'
_cell_volume   1040.46576019
_cell_formula_units_Z   1
loop_
 _symmetry_equiv_pos_site_id
 _symmetry_equiv_pos_as_xyz
  1  'x, y, z'
loop_
 _atom_site_type_symbol
 _atom_site_label
 _atom_site_symmetry_multiplicity
 _atom_site_fract_x
 _atom_site_fract_y
 _atom_site_fract_z
 _atom_site_occupancy
  Tb  Tb0  1  0.350747  0.834115  0.874553  1
  Tb  Tb1  1  0.851328  0.666171  0.622931  1
  Tb  Tb2  1  0.648711  0.164784  0.376266  1
  Tb  Tb3  1  0.148299  0.335047  0.123952  1
  Tb  Tb4  1  0.647643  0.164991  0.126678  1
  Tb  Tb5  1  0.148817  0.334087  0.376101  1
  Tb  Tb6  1  0.351742  0.835498  0.622159  1
  Tb  Tb7  1  0.183804  0.500669  0.749918  1
  Tb  Tb8  1  0.683421  0.999781  0.748697  1
  Tb  Tb9  1  0.816298  0.499204  0.250928  1
  Tb  Tb10  1  0.316112  0.000243  0.250135  1
  Pr  Pr11  1  0.006360  0.179458  0.904258  1
  Nd  Nd12  1  0.852897  0.666728  0.878383  1
  Nd  Nd13  1  0.507878  0.322210  0.903353  1
  Nd  Nd14  1  0.007514  0.178213  0.594879  1
  Nd  Nd15  1  0.492991  0.678392  0.404366  1
  Nd  Nd16  1  0.992873  0.820674  0.097593  1
  Nd  Nd17  1  0.492361  0.676670  0.097376  1
  Nd  Nd18  1  0.992552  0.822193  0.403670  1
  Nd  Nd19  1  0.506200  0.321139  0.594816  1
  Sn  Sn20  1  0.313009  0.039557  0.041234  1
  Sn  Sn21  1  0.812610  0.459318  0.458661  1
  Sn  Sn22  1  0.690184  0.959282  0.540436  1
  Sn  Sn23  1  0.197821  0.540179  0.959956  1
  Sn  Sn24  1  0.681386  0.963746  0.960196  1
  Sn  Sn25  1  0.187374  0.540424  0.540834  1
  Sn  Sn26  1  0.310572  0.040527  0.457793  1
  Sn  Sn27  1  0.808793  0.456216  0.044565  1
  Sn  Sn28  1  0.549084  0.619871  0.746779  1
  Sn  Sn29  1  0.051139  0.882118  0.748288  1
  Sn  Sn30  1  0.449824  0.380181  0.251768  1
  Sn  Sn31  1  0.951077  0.119939  0.250178  1
  Sn  Sn32  1  0.315164  0.144355  0.748640  1
  Sn  Sn33  1  0.813892  0.355347  0.747724  1
  Sn  Sn34  1  0.684644  0.855109  0.251199  1
  Sn  Sn35  1  0.184882  0.643566  0.250739  1
