# generated using pymatgen
data_Ho10CoPd3
_symmetry_space_group_name_H-M   'P 1'
_cell_length_a   9.34837600
_cell_length_b   9.34837628
_cell_length_c   9.10060000
_cell_angle_alpha   90.00000000
_cell_angle_beta   90.00000000
_cell_angle_gamma   119.99999193
_symmetry_Int_Tables_number   1
_chemical_formula_structural   Ho10CoPd3
_chemical_formula_sum   'Ho20 Co2 Pd6'
_cell_volume   688.76813959
_cell_formula_units_Z   2
loop_
 _symmetry_equiv_pos_site_id
 _symmetry_equiv_pos_as_xyz
  1  'x, y, z'
loop_
 _atom_site_type_symbol
 _atom_site_label
 _atom_site_symmetry_multiplicity
 _atom_site_fract_x
 _atom_site_fract_y
 _atom_site_fract_z
 _atom_site_occupancy
  Ho  Ho0  1  0.000000  0.000000  0.500000  1
  Ho  Ho1  1  0.000000  0.000000  0.000000  1
  Ho  Ho2  1  0.542249  0.457751  0.250000  1
  Ho  Ho3  1  0.542249  0.084499  0.250000  1
  Ho  Ho4  1  0.915501  0.457751  0.250000  1
  Ho  Ho5  1  0.457751  0.542249  0.750000  1
  Ho  Ho6  1  0.457751  0.915501  0.750000  1
  Ho  Ho7  1  0.084499  0.542249  0.750000  1
  Ho  Ho8  1  0.208109  0.791891  0.439167  1
  Ho  Ho9  1  0.208109  0.416219  0.439167  1
  Ho  Ho10  1  0.583781  0.791891  0.439167  1
  Ho  Ho11  1  0.791891  0.208109  0.560833  1
  Ho  Ho12  1  0.791891  0.583781  0.560833  1
  Ho  Ho13  1  0.416219  0.208109  0.560833  1
  Ho  Ho14  1  0.791891  0.208109  0.939167  1
  Ho  Ho15  1  0.791891  0.583781  0.939167  1
  Ho  Ho16  1  0.416219  0.208109  0.939167  1
  Ho  Ho17  1  0.208109  0.791891  0.060833  1
  Ho  Ho18  1  0.208109  0.416219  0.060833  1
  Ho  Ho19  1  0.583781  0.791891  0.060833  1
  Co  Co20  1  0.333333  0.666667  0.250000  1
  Co  Co21  1  0.666667  0.333333  0.750000  1
  Pd  Pd22  1  0.880316  0.119684  0.250000  1
  Pd  Pd23  1  0.880316  0.760631  0.250000  1
  Pd  Pd24  1  0.239369  0.119684  0.250000  1
  Pd  Pd25  1  0.119684  0.880316  0.750000  1
  Pd  Pd26  1  0.119684  0.239369  0.750000  1
  Pd  Pd27  1  0.760631  0.880316  0.750000  1
