# generated using pymatgen
data_Er4Al22Si2Pt9
_symmetry_space_group_name_H-M   'P 1'
_cell_length_a   7.52401698
_cell_length_b   7.52277202
_cell_length_c   13.02765844
_cell_angle_alpha   84.42732459
_cell_angle_beta   101.06253382
_cell_angle_gamma   119.96407938
_symmetry_Int_Tables_number   1
_chemical_formula_structural   Er4Al22Si2Pt9
_chemical_formula_sum   'Er4 Al22 Si2 Pt9'
_cell_volume   626.95364565
_cell_formula_units_Z   1
loop_
 _symmetry_equiv_pos_site_id
 _symmetry_equiv_pos_as_xyz
  1  'x, y, z'
loop_
 _atom_site_type_symbol
 _atom_site_label
 _atom_site_symmetry_multiplicity
 _atom_site_fract_x
 _atom_site_fract_y
 _atom_site_fract_z
 _atom_site_occupancy
  Er  Er0  1  0.736829  0.998785  0.191891  1
  Er  Er1  1  0.263171  0.001215  0.808109  1
  Er  Er2  1  0.062152  0.672725  0.191965  1
  Er  Er3  1  0.937848  0.327275  0.808035  1
  Al  Al4  1  0.981567  0.665278  0.942940  1
  Al  Al5  1  0.018433  0.334722  0.057060  1
  Al  Al6  1  0.399682  0.669247  0.816012  1
  Al  Al7  1  0.600318  0.330753  0.183988  1
  Al  Al8  1  0.883457  0.662979  0.670952  1
  Al  Al9  1  0.116543  0.337021  0.329048  1
  Al  Al10  1  0.607925  0.459889  0.815680  1
  Al  Al11  1  0.392075  0.540111  0.184320  1
  Al  Al12  1  0.230378  0.340573  0.669812  1
  Al  Al13  1  0.769622  0.659427  0.330188  1
  Al  Al14  1  0.853117  0.333105  0.560009  1
  Al  Al15  1  0.186042  0.999930  0.558375  1
  Al  Al16  1  0.813958  0.000070  0.441625  1
  Al  Al17  1  0.353453  0.999143  0.057233  1
  Al  Al18  1  0.646547  0.000857  0.942767  1
  Al  Al19  1  0.554174  0.994256  0.671101  1
  Al  Al20  1  0.445826  0.005744  0.328899  1
  Al  Al21  1  0.520636  0.666890  0.562451  1
  Al  Al22  1  0.479364  0.333110  0.437549  1
  Al  Al23  1  0.682287  0.665755  0.049853  1
  Al  Al24  1  0.317713  0.334245  0.950147  1
  Al  Al25  1  0.146883  0.666895  0.439991  1
  Si  Si26  1  0.805888  0.866753  0.816615  1
  Si  Si27  1  0.194112  0.133247  0.183385  1
  Pt  Pt28  1  0.328735  0.671473  0.000052  1
  Pt  Pt29  1  0.545638  0.324938  0.637808  1
  Pt  Pt30  1  0.454362  0.675062  0.362192  1
  Pt  Pt31  1  0.887403  0.005836  0.642510  1
  Pt  Pt32  1  0.112597  0.994164  0.357490  1
  Pt  Pt33  1  0.671265  0.328527  0.999948  1
  Pt  Pt34  1  0.204705  0.667787  0.638983  1
  Pt  Pt35  1  0.795295  0.332213  0.361017  1
  Pt  Pt36  1  0.000000  0.000000  0.000000  1
