# generated using pymatgen
data_Er16Cd4OsPd2Pt
_symmetry_space_group_name_H-M   'P 1'
_cell_length_a   9.64267253
_cell_length_b   9.64267115
_cell_length_c   9.65473892
_cell_angle_alpha   59.38352874
_cell_angle_beta   59.38352690
_cell_angle_gamma   59.35988074
_symmetry_Int_Tables_number   1
_chemical_formula_structural   Er16Cd4OsPd2Pt
_chemical_formula_sum   'Er16 Cd4 Os1 Pd2 Pt1'
_cell_volume   625.75538679
_cell_formula_units_Z   1
loop_
 _symmetry_equiv_pos_site_id
 _symmetry_equiv_pos_as_xyz
  1  'x, y, z'
loop_
 _atom_site_type_symbol
 _atom_site_label
 _atom_site_symmetry_multiplicity
 _atom_site_fract_x
 _atom_site_fract_y
 _atom_site_fract_z
 _atom_site_occupancy
  Er  Er0  1  0.352466  0.352466  0.354402  1
  Er  Er1  1  0.351141  0.351141  0.943277  1
  Er  Er2  1  0.350158  0.944775  0.352025  1
  Er  Er3  1  0.944775  0.350158  0.352025  1
  Er  Er4  1  0.816151  0.187808  0.188107  1
  Er  Er5  1  0.187891  0.811786  0.809666  1
  Er  Er6  1  0.187808  0.816151  0.188107  1
  Er  Er7  1  0.811786  0.187891  0.809666  1
  Er  Er8  1  0.188234  0.188234  0.814641  1
  Er  Er9  1  0.810829  0.810829  0.187841  1
  Er  Er10  1  0.934584  0.565563  0.566574  1
  Er  Er11  1  0.558071  0.937311  0.937364  1
  Er  Er12  1  0.565563  0.934584  0.566574  1
  Er  Er13  1  0.937311  0.558071  0.937364  1
  Er  Er14  1  0.566534  0.566534  0.934510  1
  Er  Er15  1  0.937759  0.937759  0.557867  1
  Cd  Cd16  1  0.580709  0.580709  0.580800  1
  Cd  Cd17  1  0.581281  0.581281  0.253874  1
  Cd  Cd18  1  0.581288  0.253797  0.581295  1
  Cd  Cd19  1  0.253797  0.581288  0.581295  1
  Os  Os20  1  0.144041  0.144041  0.144034  1
  Pd  Pd21  1  0.144637  0.568816  0.144255  1
  Pd  Pd22  1  0.568816  0.144637  0.144255  1
  Pt  Pt23  1  0.144369  0.144369  0.570180  1
