# generated using pymatgen
data_Y8Lu4AlCo4Sn
_symmetry_space_group_name_H-M   'P 1'
_cell_length_a   8.29914871
_cell_length_b   8.29914890
_cell_length_c   8.29914879
_cell_angle_alpha   111.76381812
_cell_angle_beta   109.36429143
_cell_angle_gamma   107.31622973
_symmetry_Int_Tables_number   1
_chemical_formula_structural   Y8Lu4AlCo4Sn
_chemical_formula_sum   'Y8 Lu4 Al1 Co4 Sn1'
_cell_volume   439.36107837
_cell_formula_units_Z   1
loop_
 _symmetry_equiv_pos_site_id
 _symmetry_equiv_pos_as_xyz
  1  'x, y, z'
loop_
 _atom_site_type_symbol
 _atom_site_label
 _atom_site_symmetry_multiplicity
 _atom_site_fract_x
 _atom_site_fract_y
 _atom_site_fract_z
 _atom_site_occupancy
  Y  Y0  1  0.437217  0.234407  0.202810  1
  Y  Y1  1  0.562783  0.765593  0.797190  1
  Y  Y2  1  0.031596  0.234407  0.797190  1
  Y  Y3  1  0.968404  0.765593  0.202810  1
  Y  Y4  1  0.182288  0.280640  0.462929  1
  Y  Y5  1  0.817712  0.719360  0.537071  1
  Y  Y6  1  0.182288  0.719360  0.901648  1
  Y  Y7  1  0.817712  0.280640  0.098352  1
  Lu  Lu8  1  0.325680  0.641425  0.315746  1
  Lu  Lu9  1  0.674320  0.358575  0.684254  1
  Lu  Lu10  1  0.325680  0.009934  0.684254  1
  Lu  Lu11  1  0.674320  0.990066  0.315746  1
  Al  Al12  1  0.000000  0.000000  0.000000  1
  Co  Co13  1  0.346058  0.000000  0.346058  1
  Co  Co14  1  0.653942  0.000000  0.653942  1
  Co  Co15  1  0.114726  0.614726  0.500000  1
  Co  Co16  1  0.885274  0.385274  0.500000  1
  Sn  Sn17  1  0.500000  0.500000  0.000000  1
