# generated using pymatgen
data_CeDy11(TcRh)2
_symmetry_space_group_name_H-M   'P 1'
_cell_length_a   6.34214407
_cell_length_b   7.27690273
_cell_length_c   9.37880000
_cell_angle_alpha   90.00000000
_cell_angle_beta   90.00000000
_cell_angle_gamma   91.40220537
_symmetry_Int_Tables_number   1
_chemical_formula_structural   CeDy11(TcRh)2
_chemical_formula_sum   'Ce1 Dy11 Tc2 Rh2'
_cell_volume   432.71293529
_cell_formula_units_Z   1
loop_
 _symmetry_equiv_pos_site_id
 _symmetry_equiv_pos_as_xyz
  1  'x, y, z'
loop_
 _atom_site_type_symbol
 _atom_site_label
 _atom_site_symmetry_multiplicity
 _atom_site_fract_x
 _atom_site_fract_y
 _atom_site_fract_z
 _atom_site_occupancy
  Ce  Ce0  1  0.853221  0.556877  0.250000  1
  Dy  Dy1  1  0.326719  0.675041  0.066606  1
  Dy  Dy2  1  0.171155  0.178140  0.431624  1
  Dy  Dy3  1  0.668720  0.323195  0.563015  1
  Dy  Dy4  1  0.831008  0.825708  0.936127  1
  Dy  Dy5  1  0.668720  0.323195  0.936985  1
  Dy  Dy6  1  0.831008  0.825708  0.563873  1
  Dy  Dy7  1  0.326719  0.675041  0.433394  1
  Dy  Dy8  1  0.171155  0.178140  0.068376  1
  Dy  Dy9  1  0.625806  0.036119  0.250000  1
  Dy  Dy10  1  0.141410  0.458344  0.750000  1
  Dy  Dy11  1  0.361659  0.960175  0.750000  1
  Tc  Tc12  1  0.019639  0.863473  0.250000  1
  Tc  Tc13  1  0.502233  0.391130  0.250000  1
  Rh  Rh14  1  0.952043  0.114445  0.750000  1
  Rh  Rh15  1  0.548784  0.615268  0.750000  1
