# generated using pymatgen
data_Er2CuSiPd13
_symmetry_space_group_name_H-M   'P 1'
_cell_length_a   8.87866398
_cell_length_b   8.86325400
_cell_length_c   7.01208014
_cell_angle_alpha   90.00000000
_cell_angle_beta   90.36834183
_cell_angle_gamma   90.00000000
_symmetry_Int_Tables_number   1
_chemical_formula_structural   Er2CuSiPd13
_chemical_formula_sum   'Er4 Cu2 Si2 Pd26'
_cell_volume   551.79620798
_cell_formula_units_Z   2
loop_
 _symmetry_equiv_pos_site_id
 _symmetry_equiv_pos_as_xyz
  1  'x, y, z'
loop_
 _atom_site_type_symbol
 _atom_site_label
 _atom_site_symmetry_multiplicity
 _atom_site_fract_x
 _atom_site_fract_y
 _atom_site_fract_z
 _atom_site_occupancy
  Er  Er0  1  0.507849  0.000000  0.931821  1
  Er  Er1  1  0.992151  0.500000  0.068179  1
  Er  Er2  1  0.004010  0.000000  0.499160  1
  Er  Er3  1  0.495990  0.500000  0.500840  1
  Cu  Cu4  1  0.250000  0.750000  0.000000  1
  Cu  Cu5  1  0.250000  0.250000  0.000000  1
  Si  Si6  1  0.501386  0.000000  0.443744  1
  Si  Si7  1  0.998614  0.500000  0.556256  1
  Pd  Pd8  1  0.333479  0.835285  0.616342  1
  Pd  Pd9  1  0.333479  0.164715  0.616342  1
  Pd  Pd10  1  0.664765  0.833047  0.617330  1
  Pd  Pd11  1  0.664765  0.166953  0.617330  1
  Pd  Pd12  1  0.166521  0.664715  0.383658  1
  Pd  Pd13  1  0.166521  0.335285  0.383658  1
  Pd  Pd14  1  0.835235  0.666953  0.382670  1
  Pd  Pd15  1  0.835235  0.333047  0.382670  1
  Pd  Pd16  1  0.495177  0.768372  0.252912  1
  Pd  Pd17  1  0.495177  0.231628  0.252912  1
  Pd  Pd18  1  0.270617  0.000000  0.251359  1
  Pd  Pd19  1  0.733329  0.000000  0.255810  1
  Pd  Pd20  1  0.004823  0.731628  0.747088  1
  Pd  Pd21  1  0.004823  0.268372  0.747088  1
  Pd  Pd22  1  0.229383  0.500000  0.748641  1
  Pd  Pd23  1  0.766671  0.500000  0.744190  1
  Pd  Pd24  1  0.492463  0.345593  0.857808  1
  Pd  Pd25  1  0.492463  0.654407  0.857808  1
  Pd  Pd26  1  0.855613  0.000000  0.849652  1
  Pd  Pd27  1  0.164127  0.000000  0.863884  1
  Pd  Pd28  1  0.007537  0.154407  0.142192  1
  Pd  Pd29  1  0.007537  0.845593  0.142192  1
  Pd  Pd30  1  0.644387  0.500000  0.150348  1
  Pd  Pd31  1  0.335873  0.500000  0.136116  1
  Pd  Pd32  1  0.750000  0.750000  0.000000  1
  Pd  Pd33  1  0.750000  0.250000  0.000000  1
