# generated using pymatgen
data_ThTi2(GaPt)2
_symmetry_space_group_name_H-M   'P 1'
_cell_length_a   5.59152761
_cell_length_b   5.59152816
_cell_length_c   5.59152921
_cell_angle_alpha   100.39398170
_cell_angle_beta   103.12269838
_cell_angle_gamma   126.33796585
_symmetry_Int_Tables_number   1
_chemical_formula_structural   ThTi2(GaPt)2
_chemical_formula_sum   'Th1 Ti2 Ga2 Pt2'
_cell_volume   125.60918464
_cell_formula_units_Z   1
loop_
 _symmetry_equiv_pos_site_id
 _symmetry_equiv_pos_as_xyz
  1  'x, y, z'
loop_
 _atom_site_type_symbol
 _atom_site_label
 _atom_site_symmetry_multiplicity
 _atom_site_fract_x
 _atom_site_fract_y
 _atom_site_fract_z
 _atom_site_occupancy
  Th  Th0  1  0.000226  0.000000  0.000226  1
  Ti  Ti1  1  0.248881  0.750770  0.498111  1
  Ti  Ti2  1  0.747341  0.249230  0.498111  1
  Ga  Ga3  1  0.307433  0.299535  0.606966  1
  Ga  Ga4  1  0.307433  0.700465  0.007898  1
  Pt  Pt5  1  0.694344  0.297980  0.992324  1
  Pt  Pt6  1  0.694344  0.702020  0.396365  1
