# generated using pymatgen
data_Ac2LaRuBr3
_symmetry_space_group_name_H-M   'P 1'
_cell_length_a   10.93096118
_cell_length_b   10.93090976
_cell_length_c   10.93090937
_cell_angle_alpha   107.14594730
_cell_angle_beta   110.64708546
_cell_angle_gamma   110.64708508
_symmetry_Int_Tables_number   1
_chemical_formula_structural   Ac2LaRuBr3
_chemical_formula_sum   'Ac8 La4 Ru4 Br12'
_cell_volume   1004.16597724
_cell_formula_units_Z   4
loop_
 _symmetry_equiv_pos_site_id
 _symmetry_equiv_pos_as_xyz
  1  'x, y, z'
loop_
 _atom_site_type_symbol
 _atom_site_label
 _atom_site_symmetry_multiplicity
 _atom_site_fract_x
 _atom_site_fract_y
 _atom_site_fract_z
 _atom_site_occupancy
  Ac  Ac0  1  0.269401  0.755348  0.239274  1
  Ac  Ac1  1  0.483939  0.744646  0.014054  1
  Ac  Ac2  1  0.230592  0.469890  0.485947  1
  Ac  Ac3  1  0.016053  0.030104  0.260705  1
  Ac  Ac4  1  0.230599  0.260726  0.744652  1
  Ac  Ac5  1  0.016061  0.485946  0.755354  1
  Ac  Ac6  1  0.483947  0.239295  0.469896  1
  Ac  Ac7  1  0.269408  0.014053  0.030110  1
  La  La8  1  0.750000  0.227902  0.272098  1
  La  La9  1  0.750000  0.022104  0.477896  1
  La  La10  1  0.455785  0.477894  0.227927  1
  La  La11  1  0.044215  0.272073  0.022106  1
  Ru  Ru12  1  0.506067  0.003024  0.253015  1
  Ru  Ru13  1  0.250000  0.496958  0.003042  1
  Ru  Ru14  1  0.993933  0.246985  0.496976  1
  Ru  Ru15  1  0.250000  0.253014  0.246986  1
  Br  Br16  1  0.250000  0.992102  0.507898  1
  Br  Br17  1  0.515812  0.507904  0.757899  1
  Br  Br18  1  0.250000  0.757909  0.742091  1
  Br  Br19  1  0.984188  0.742101  0.992096  1
  Br  Br20  1  0.987893  0.490919  0.239324  1
  Br  Br21  1  0.748431  0.009071  0.996954  1
  Br  Br22  1  0.751567  0.748529  0.260647  1
  Br  Br23  1  0.512104  0.751451  0.503022  1
  Br  Br24  1  0.512107  0.260676  0.009081  1
  Br  Br25  1  0.751569  0.503046  0.490929  1
  Br  Br26  1  0.748433  0.239353  0.751471  1
  Br  Br27  1  0.987896  0.996978  0.748549  1
