# generated using pymatgen
data_CaMg(MoN2)2
_symmetry_space_group_name_H-M   'P 1'
_cell_length_a   2.99105900
_cell_length_b   2.99105868
_cell_length_c   11.02773900
_cell_angle_alpha   90.00000000
_cell_angle_beta   90.00000000
_cell_angle_gamma   119.99999245
_symmetry_Int_Tables_number   1
_chemical_formula_structural   CaMg(MoN2)2
_chemical_formula_sum   'Ca1 Mg1 Mo2 N4'
_cell_volume   85.44114446
_cell_formula_units_Z   1
loop_
 _symmetry_equiv_pos_site_id
 _symmetry_equiv_pos_as_xyz
  1  'x, y, z'
loop_
 _atom_site_type_symbol
 _atom_site_label
 _atom_site_symmetry_multiplicity
 _atom_site_fract_x
 _atom_site_fract_y
 _atom_site_fract_z
 _atom_site_occupancy
  Ca  Ca0  1  0.000000  0.000000  0.500000  1
  Mg  Mg1  1  0.000000  0.000000  0.000000  1
  Mo  Mo2  1  0.333333  0.666667  0.760400  1
  Mo  Mo3  1  0.666667  0.333333  0.239600  1
  N  N4  1  0.666667  0.333333  0.646306  1
  N  N5  1  0.666667  0.333333  0.877823  1
  N  N6  1  0.333333  0.666667  0.122177  1
  N  N7  1  0.333333  0.666667  0.353694  1
