# generated using pymatgen
data_Tb5Y3Tc(B8Ru)3
_symmetry_space_group_name_H-M   'P 1'
_cell_length_a   3.68320200
_cell_length_b   9.17235053
_cell_length_c   11.55910803
_cell_angle_alpha   89.90491411
_cell_angle_beta   90.00000000
_cell_angle_gamma   90.00000000
_symmetry_Int_Tables_number   1
_chemical_formula_structural   Tb5Y3Tc(B8Ru)3
_chemical_formula_sum   'Tb5 Y3 Tc1 B24 Ru3'
_cell_volume   390.50797356
_cell_formula_units_Z   1
loop_
 _symmetry_equiv_pos_site_id
 _symmetry_equiv_pos_as_xyz
  1  'x, y, z'
loop_
 _atom_site_type_symbol
 _atom_site_label
 _atom_site_symmetry_multiplicity
 _atom_site_fract_x
 _atom_site_fract_y
 _atom_site_fract_z
 _atom_site_occupancy
  Tb  Tb0  1  0.000000  0.324664  0.413188  1
  Tb  Tb1  1  0.000000  0.676273  0.583851  1
  Tb  Tb2  1  0.000000  0.821277  0.088007  1
  Tb  Tb3  1  0.000000  0.176393  0.914726  1
  Tb  Tb4  1  0.000000  0.943265  0.372400  1
  Y  Y5  1  0.000000  0.057191  0.628143  1
  Y  Y6  1  0.000000  0.444108  0.127921  1
  Y  Y7  1  0.000000  0.556829  0.871570  1
  Tc  Tc8  1  0.000000  0.637536  0.321171  1
  B  B9  1  0.500000  0.552918  0.432798  1
  B  B10  1  0.500000  0.446302  0.567783  1
  B  B11  1  0.500000  0.053798  0.067521  1
  B  B12  1  0.500000  0.946044  0.932726  1
  B  B13  1  0.500000  0.747401  0.419335  1
  B  B14  1  0.500000  0.252688  0.580612  1
  B  B15  1  0.500000  0.247425  0.080432  1
  B  B16  1  0.500000  0.752440  0.919464  1
  B  B17  1  0.500000  0.790754  0.266489  1
  B  B18  1  0.500000  0.209623  0.733537  1
  B  B19  1  0.500000  0.290548  0.232798  1
  B  B20  1  0.500000  0.710009  0.766436  1
  B  B21  1  0.500000  0.631793  0.185915  1
  B  B22  1  0.500000  0.367889  0.814378  1
  B  B23  1  0.500000  0.132072  0.313728  1
  B  B24  1  0.500000  0.868485  0.685736  1
  B  B25  1  0.500000  0.983940  0.212554  1
  B  B26  1  0.500000  0.016233  0.787807  1
  B  B27  1  0.500000  0.482856  0.287301  1
  B  B28  1  0.500000  0.516016  0.712611  1
  B  B29  1  0.500000  0.608649  0.029493  1
  B  B30  1  0.500000  0.390872  0.969449  1
  B  B31  1  0.500000  0.109781  0.470259  1
  B  B32  1  0.500000  0.891927  0.530886  1
  Ru  Ru33  1  0.000000  0.361876  0.679407  1
  Ru  Ru34  1  0.000000  0.137823  0.178262  1
  Ru  Ru35  1  0.000000  0.862303  0.821302  1
