# generated using pymatgen
data_Ba6Cd(SbO6)2
_symmetry_space_group_name_H-M   'P 1'
_cell_length_a   9.53126106
_cell_length_b   9.53125929
_cell_length_c   7.35433600
_cell_angle_alpha   67.28333905
_cell_angle_beta   67.28333933
_cell_angle_gamma   36.85310621
_symmetry_Int_Tables_number   1
_chemical_formula_structural   Ba6Cd(SbO6)2
_chemical_formula_sum   'Ba6 Cd1 Sb2 O12'
_cell_volume   366.00816912
_cell_formula_units_Z   1
loop_
 _symmetry_equiv_pos_site_id
 _symmetry_equiv_pos_as_xyz
  1  'x, y, z'
loop_
 _atom_site_type_symbol
 _atom_site_label
 _atom_site_symmetry_multiplicity
 _atom_site_fract_x
 _atom_site_fract_y
 _atom_site_fract_z
 _atom_site_occupancy
  Ba  Ba0  1  0.207364  0.207364  0.707228  1
  Ba  Ba1  1  0.887018  0.887018  0.711964  1
  Ba  Ba2  1  0.548282  0.548282  0.714989  1
  Ba  Ba3  1  0.792636  0.792636  0.292772  1
  Ba  Ba4  1  0.451718  0.451718  0.285011  1
  Ba  Ba5  1  0.112982  0.112982  0.288036  1
  Cd  Cd6  1  0.000000  0.000000  0.000000  1
  Sb  Sb7  1  0.669458  0.669458  0.000810  1
  Sb  Sb8  1  0.330542  0.330542  0.999190  1
  O  O9  1  0.276835  0.276835  0.301331  1
  O  O10  1  0.943039  0.943039  0.334890  1
  O  O11  1  0.623102  0.623102  0.302245  1
  O  O12  1  0.723165  0.723165  0.698669  1
  O  O13  1  0.376898  0.376898  0.697755  1
  O  O14  1  0.056961  0.056961  0.665110  1
  O  O15  1  0.000000  0.500000  0.000000  1
  O  O16  1  0.638534  0.177202  0.002619  1
  O  O17  1  0.361466  0.822798  0.997381  1
  O  O18  1  0.500000  0.000000  0.000000  1
  O  O19  1  0.177202  0.638534  0.002619  1
  O  O20  1  0.822798  0.361466  0.997381  1
