# generated using pymatgen
data_Tb8Co(Si4Ir)3
_symmetry_space_group_name_H-M   'P 1'
_cell_length_a   8.14815500
_cell_length_b   8.14815419
_cell_length_c   8.00282200
_cell_angle_alpha   90.00000000
_cell_angle_beta   90.00000000
_cell_angle_gamma   120.00000735
_symmetry_Int_Tables_number   1
_chemical_formula_structural   Tb8Co(Si4Ir)3
_chemical_formula_sum   'Tb8 Co1 Si12 Ir3'
_cell_volume   460.14242555
_cell_formula_units_Z   1
loop_
 _symmetry_equiv_pos_site_id
 _symmetry_equiv_pos_as_xyz
  1  'x, y, z'
loop_
 _atom_site_type_symbol
 _atom_site_label
 _atom_site_symmetry_multiplicity
 _atom_site_fract_x
 _atom_site_fract_y
 _atom_site_fract_z
 _atom_site_occupancy
  Tb  Tb0  1  0.506865  0.013728  0.248763  1
  Tb  Tb1  1  0.491638  0.983275  0.750072  1
  Tb  Tb2  1  0.986272  0.493135  0.248763  1
  Tb  Tb3  1  0.016725  0.508362  0.750072  1
  Tb  Tb4  1  0.506865  0.493135  0.248763  1
  Tb  Tb5  1  0.491638  0.508362  0.750072  1
  Tb  Tb6  1  0.000000  0.000000  0.247557  1
  Tb  Tb7  1  0.000000  0.000000  0.751634  1
  Co  Co8  1  0.333333  0.666667  0.034019  1
  Si  Si9  1  0.172203  0.344406  0.000794  1
  Si  Si10  1  0.833844  0.667689  0.000245  1
  Si  Si11  1  0.655594  0.827797  0.000794  1
  Si  Si12  1  0.833190  0.666381  0.499622  1
  Si  Si13  1  0.332311  0.166156  0.000245  1
  Si  Si14  1  0.166356  0.332711  0.499371  1
  Si  Si15  1  0.172203  0.827797  0.000794  1
  Si  Si16  1  0.333619  0.166810  0.499622  1
  Si  Si17  1  0.833844  0.166156  0.000245  1
  Si  Si18  1  0.667289  0.833644  0.499371  1
  Si  Si19  1  0.833190  0.166810  0.499622  1
  Si  Si20  1  0.166356  0.833644  0.499371  1
  Ir  Ir21  1  0.666667  0.333333  0.968358  1
  Ir  Ir22  1  0.666667  0.333333  0.528481  1
  Ir  Ir23  1  0.333333  0.666667  0.473351  1
