# generated using pymatgen
data_Ac2Zn21Pd
_symmetry_space_group_name_H-M   'P 1'
_cell_length_a   8.40243743
_cell_length_b   8.40814301
_cell_length_c   8.40814231
_cell_angle_alpha   99.70980482
_cell_angle_beta   100.17960643
_cell_angle_gamma   130.93268171
_symmetry_Int_Tables_number   1
_chemical_formula_structural   Ac2Zn21Pd
_chemical_formula_sum   'Ac2 Zn21 Pd1'
_cell_volume   408.11397303
_cell_formula_units_Z   1
loop_
 _symmetry_equiv_pos_site_id
 _symmetry_equiv_pos_as_xyz
  1  'x, y, z'
loop_
 _atom_site_type_symbol
 _atom_site_label
 _atom_site_symmetry_multiplicity
 _atom_site_fract_x
 _atom_site_fract_y
 _atom_site_fract_z
 _atom_site_occupancy
  Ac  Ac0  1  0.255302  0.751319  0.503984  1
  Ac  Ac1  1  0.994698  0.998681  0.996016  1
  Zn  Zn2  1  0.903308  0.572673  0.086701  1
  Zn  Zn3  1  0.625000  0.875000  0.250000  1
  Zn  Zn4  1  0.429651  0.511422  0.327369  1
  Zn  Zn5  1  0.486026  0.569182  0.670080  1
  Zn  Zn6  1  0.429651  0.102281  0.918229  1
  Zn  Zn7  1  0.763974  0.180818  0.829920  1
  Zn  Zn8  1  0.486026  0.815945  0.916843  1
  Zn  Zn9  1  0.501895  0.494397  0.007497  1
  Zn  Zn10  1  0.763974  0.934055  0.583157  1
  Zn  Zn11  1  0.748105  0.255603  0.492503  1
  Zn  Zn12  1  0.067005  0.653283  0.831472  1
  Zn  Zn13  1  0.125000  0.375000  0.750000  1
  Zn  Zn14  1  0.346692  0.177327  0.413299  1
  Zn  Zn15  1  0.820349  0.647719  0.581771  1
  Zn  Zn16  1  0.903308  0.816607  0.330636  1
  Zn  Zn17  1  0.182995  0.096717  0.668528  1
  Zn  Zn18  1  0.067005  0.235533  0.413722  1
  Zn  Zn19  1  0.346692  0.933393  0.169364  1
  Zn  Zn20  1  0.820349  0.238578  0.172631  1
  Zn  Zn21  1  0.182995  0.514467  0.086278  1
  Zn  Zn22  1  0.625000  0.375000  0.750000  1
  Pd  Pd23  1  0.625000  0.375000  0.250000  1
