# generated using pymatgen
data_SrNd6OsI12
_symmetry_space_group_name_H-M   'P 1'
_cell_length_a   10.09307806
_cell_length_b   10.09307811
_cell_length_c   10.09307747
_cell_angle_alpha   106.62983253
_cell_angle_beta   106.62983640
_cell_angle_gamma   106.62982140
_symmetry_Int_Tables_number   1
_chemical_formula_structural   SrNd6OsI12
_chemical_formula_sum   'Sr1 Nd6 Os1 I12'
_cell_volume   864.78243891
_cell_formula_units_Z   1
loop_
 _symmetry_equiv_pos_site_id
 _symmetry_equiv_pos_as_xyz
  1  'x, y, z'
loop_
 _atom_site_type_symbol
 _atom_site_label
 _atom_site_symmetry_multiplicity
 _atom_site_fract_x
 _atom_site_fract_y
 _atom_site_fract_z
 _atom_site_occupancy
  Sr  Sr0  1  0.500000  0.500000  0.500000  1
  Nd  Nd1  1  0.096502  0.300065  0.021654  1
  Nd  Nd2  1  0.300064  0.021653  0.096502  1
  Nd  Nd3  1  0.021653  0.096502  0.300065  1
  Nd  Nd4  1  0.978346  0.903498  0.699935  1
  Nd  Nd5  1  0.699936  0.978346  0.903497  1
  Nd  Nd6  1  0.903498  0.699935  0.978346  1
  Os  Os7  1  0.000000  0.000000  0.000000  1
  I  I8  1  0.225311  0.680716  0.073647  1
  I  I9  1  0.453916  0.372303  0.143803  1
  I  I10  1  0.680716  0.073648  0.225311  1
  I  I11  1  0.926353  0.774690  0.319285  1
  I  I12  1  0.143803  0.453916  0.372303  1
  I  I13  1  0.372303  0.143803  0.453917  1
  I  I14  1  0.627697  0.856197  0.546083  1
  I  I15  1  0.856196  0.546084  0.627697  1
  I  I16  1  0.073648  0.225311  0.680716  1
  I  I17  1  0.319285  0.926353  0.774689  1
  I  I18  1  0.546083  0.627696  0.856197  1
  I  I19  1  0.774689  0.319285  0.926353  1
