# generated using pymatgen
data_Mg2Ni2SnPdO8
_symmetry_space_group_name_H-M   'P 1'
_cell_length_a   6.11261041
_cell_length_b   6.03841615
_cell_length_c   6.13529627
_cell_angle_alpha   60.51516764
_cell_angle_beta   60.64830750
_cell_angle_gamma   60.39637766
_symmetry_Int_Tables_number   1
_chemical_formula_structural   Mg2Ni2SnPdO8
_chemical_formula_sum   'Mg2 Ni2 Sn1 Pd1 O8'
_cell_volume   162.00897476
_cell_formula_units_Z   1
loop_
 _symmetry_equiv_pos_site_id
 _symmetry_equiv_pos_as_xyz
  1  'x, y, z'
loop_
 _atom_site_type_symbol
 _atom_site_label
 _atom_site_symmetry_multiplicity
 _atom_site_fract_x
 _atom_site_fract_y
 _atom_site_fract_z
 _atom_site_occupancy
  Mg  Mg0  1  0.119620  0.138433  0.103583  1
  Mg  Mg1  1  0.880523  0.861549  0.896287  1
  Ni  Ni2  1  0.499927  0.499763  0.500325  1
  Ni  Ni3  1  0.499671  0.000263  0.500338  1
  Sn  Sn4  1  0.999983  0.500020  0.499910  1
  Pd  Pd5  1  0.500013  0.499980  0.999987  1
  O  O6  1  0.738865  0.735831  0.753404  1
  O  O7  1  0.255293  0.265183  0.714326  1
  O  O8  1  0.261280  0.728101  0.246428  1
  O  O9  1  0.719874  0.263430  0.253305  1
  O  O10  1  0.738766  0.271879  0.753498  1
  O  O11  1  0.280232  0.736554  0.746579  1
  O  O12  1  0.261202  0.264173  0.246516  1
  O  O13  1  0.744754  0.734841  0.285515  1
