# generated using pymatgen
data_Ba5Sr2NdFe4O15
_symmetry_space_group_name_H-M   'P 1'
_cell_length_a   11.92206129
_cell_length_b   11.92206069
_cell_length_c   7.10217774
_cell_angle_alpha   90.45143354
_cell_angle_beta   90.45143683
_cell_angle_gamma   119.93098879
_symmetry_Int_Tables_number   1
_chemical_formula_structural   Ba5Sr2NdFe4O15
_chemical_formula_sum   'Ba10 Sr4 Nd2 Fe8 O30'
_cell_volume   874.72718128
_cell_formula_units_Z   2
loop_
 _symmetry_equiv_pos_site_id
 _symmetry_equiv_pos_as_xyz
  1  'x, y, z'
loop_
 _atom_site_type_symbol
 _atom_site_label
 _atom_site_symmetry_multiplicity
 _atom_site_fract_x
 _atom_site_fract_y
 _atom_site_fract_z
 _atom_site_occupancy
  Ba  Ba0  1  0.997630  0.997617  0.493808  1
  Ba  Ba1  1  0.997617  0.997630  0.993808  1
  Ba  Ba2  1  0.823744  0.648931  0.834542  1
  Ba  Ba3  1  0.347574  0.177579  0.832750  1
  Ba  Ba4  1  0.828868  0.175521  0.831834  1
  Ba  Ba5  1  0.177579  0.347574  0.332750  1
  Ba  Ba6  1  0.648931  0.823744  0.334542  1
  Ba  Ba7  1  0.175521  0.828868  0.331834  1
  Ba  Ba8  1  0.334122  0.665404  0.015514  1
  Ba  Ba9  1  0.665404  0.334122  0.515514  1
  Sr  Sr10  1  0.960290  0.479857  0.165551  1
  Sr  Sr11  1  0.521163  0.476525  0.170238  1
  Sr  Sr12  1  0.479857  0.960290  0.665551  1
  Sr  Sr13  1  0.476525  0.521163  0.670238  1
  Nd  Nd14  1  0.520101  0.043377  0.170694  1
  Nd  Nd15  1  0.043377  0.520101  0.670694  1
  Fe  Fe16  1  0.671971  0.335407  0.979767  1
  Fe  Fe17  1  0.335407  0.671971  0.479767  1
  Fe  Fe18  1  0.183205  0.823368  0.831997  1
  Fe  Fe19  1  0.177654  0.355738  0.832282  1
  Fe  Fe20  1  0.637746  0.822356  0.835962  1
  Fe  Fe21  1  0.823368  0.183205  0.331997  1
  Fe  Fe22  1  0.822356  0.637746  0.335962  1
  Fe  Fe23  1  0.355738  0.177654  0.332282  1
  O  O24  1  0.937056  0.330968  0.477464  1
  O  O25  1  0.678122  0.604926  0.478125  1
  O  O26  1  0.394345  0.062067  0.458272  1
  O  O27  1  0.938099  0.605826  0.479956  1
  O  O28  1  0.669977  0.070674  0.455732  1
  O  O29  1  0.390938  0.324083  0.478069  1
  O  O30  1  0.070674  0.669977  0.955732  1
  O  O31  1  0.324083  0.390938  0.978069  1
  O  O32  1  0.605826  0.938099  0.979956  1
  O  O33  1  0.062067  0.394345  0.958272  1
  O  O34  1  0.330968  0.937056  0.977464  1
  O  O35  1  0.604926  0.678122  0.978125  1
  O  O36  1  0.093037  0.187679  0.731091  1
  O  O37  1  0.798616  0.904614  0.721347  1
  O  O38  1  0.101501  0.906551  0.727180  1
  O  O39  1  0.904614  0.798616  0.221347  1
  O  O40  1  0.187679  0.093037  0.231091  1
  O  O41  1  0.906551  0.101501  0.227180  1
  O  O42  1  0.746233  0.248966  0.154224  1
  O  O43  1  0.749094  0.492895  0.157867  1
  O  O44  1  0.497285  0.241398  0.157906  1
  O  O45  1  0.248966  0.746233  0.654224  1
  O  O46  1  0.241398  0.497285  0.657906  1
  O  O47  1  0.492895  0.749094  0.657867  1
  O  O48  1  0.410145  0.591288  0.339249  1
  O  O49  1  0.415902  0.833052  0.324612  1
  O  O50  1  0.177875  0.591036  0.340070  1
  O  O51  1  0.591288  0.410145  0.839249  1
  O  O52  1  0.591036  0.177875  0.840070  1
  O  O53  1  0.833052  0.415902  0.824612  1
