# generated using pymatgen
data_Er16CdIn3Rh4
_symmetry_space_group_name_H-M   'P 1'
_cell_length_a   9.56430243
_cell_length_b   9.54918570
_cell_length_c   9.56430300
_cell_angle_alpha   59.94762117
_cell_angle_beta   60.00000149
_cell_angle_gamma   59.94762267
_symmetry_Int_Tables_number   1
_chemical_formula_structural   Er16CdIn3Rh4
_chemical_formula_sum   'Er16 Cd1 In3 Rh4'
_cell_volume   617.18262359
_cell_formula_units_Z   1
loop_
 _symmetry_equiv_pos_site_id
 _symmetry_equiv_pos_as_xyz
  1  'x, y, z'
loop_
 _atom_site_type_symbol
 _atom_site_label
 _atom_site_symmetry_multiplicity
 _atom_site_fract_x
 _atom_site_fract_y
 _atom_site_fract_z
 _atom_site_occupancy
  Er  Er0  1  0.188195  0.188528  0.811639  1
  Er  Er1  1  0.436834  0.061653  0.064680  1
  Er  Er2  1  0.436834  0.061653  0.436834  1
  Er  Er3  1  0.063033  0.436208  0.063033  1
  Er  Er4  1  0.649715  0.050855  0.649715  1
  Er  Er5  1  0.187426  0.812441  0.812707  1
  Er  Er6  1  0.064680  0.061653  0.436834  1
  Er  Er7  1  0.811639  0.188528  0.188195  1
  Er  Er8  1  0.812707  0.812441  0.187426  1
  Er  Er9  1  0.649500  0.649170  0.051830  1
  Er  Er10  1  0.649500  0.649170  0.649500  1
  Er  Er11  1  0.063033  0.436208  0.437726  1
  Er  Er12  1  0.051830  0.649170  0.649500  1
  Er  Er13  1  0.811639  0.188528  0.811639  1
  Er  Er14  1  0.437726  0.436208  0.063033  1
  Er  Er15  1  0.187426  0.812441  0.187426  1
  Cd  Cd16  1  0.417092  0.748723  0.417092  1
  In  In17  1  0.416459  0.418085  0.748997  1
  In  In18  1  0.748997  0.418085  0.416459  1
  In  In19  1  0.416459  0.418085  0.416459  1
  Rh  Rh20  1  0.856326  0.431021  0.856326  1
  Rh  Rh21  1  0.857383  0.857049  0.428186  1
  Rh  Rh22  1  0.428186  0.857049  0.857383  1
  Rh  Rh23  1  0.857383  0.857049  0.857383  1
