# generated using pymatgen
data_RbTcF5
_symmetry_space_group_name_H-M   'P 1'
_cell_length_a   5.69429400
_cell_length_b   8.11573100
_cell_length_c   11.18143300
_cell_angle_alpha   90.00000000
_cell_angle_beta   90.00000000
_cell_angle_gamma   90.00000000
_symmetry_Int_Tables_number   1
_chemical_formula_structural   RbTcF5
_chemical_formula_sum   'Rb4 Tc4 F20'
_cell_volume   516.73156997
_cell_formula_units_Z   4
loop_
 _symmetry_equiv_pos_site_id
 _symmetry_equiv_pos_as_xyz
  1  'x, y, z'
loop_
 _atom_site_type_symbol
 _atom_site_label
 _atom_site_symmetry_multiplicity
 _atom_site_fract_x
 _atom_site_fract_y
 _atom_site_fract_z
 _atom_site_occupancy
  Rb  Rb0  1  0.500000  0.889287  0.962987  1
  Rb  Rb1  1  0.500000  0.110713  0.462987  1
  Rb  Rb2  1  0.000000  0.343606  0.117205  1
  Rb  Rb3  1  0.000000  0.656394  0.617205  1
  Tc  Tc4  1  0.000000  0.869685  0.240082  1
  Tc  Tc5  1  0.500000  0.570304  0.340010  1
  Tc  Tc6  1  0.500000  0.429696  0.840010  1
  Tc  Tc7  1  0.000000  0.130315  0.740082  1
  F  F8  1  0.260214  0.541789  0.928087  1
  F  F9  1  0.750566  0.684601  0.233755  1
  F  F10  1  0.238207  0.037334  0.238165  1
  F  F11  1  0.750566  0.315399  0.733755  1
  F  F12  1  0.500000  0.244936  0.950498  1
  F  F13  1  0.761793  0.962666  0.738165  1
  F  F14  1  0.500000  0.605125  0.721087  1
  F  F15  1  0.238207  0.962666  0.738165  1
  F  F16  1  0.000000  0.860398  0.066494  1
  F  F17  1  0.761793  0.037334  0.238165  1
  F  F18  1  0.500000  0.394875  0.221087  1
  F  F19  1  0.739786  0.458211  0.428087  1
  F  F20  1  0.249434  0.684601  0.233755  1
  F  F21  1  0.000000  0.858062  0.413135  1
  F  F22  1  0.000000  0.139602  0.566494  1
  F  F23  1  0.249434  0.315399  0.733755  1
  F  F24  1  0.000000  0.141938  0.913135  1
  F  F25  1  0.260214  0.458211  0.428087  1
  F  F26  1  0.500000  0.755064  0.450498  1
  F  F27  1  0.739786  0.541789  0.928087  1
