# generated using pymatgen
data_Ni2Pt6W
_symmetry_space_group_name_H-M   'P 1'
_cell_length_a   6.17395581
_cell_length_b   6.17395510
_cell_length_c   6.13926249
_cell_angle_alpha   95.68653640
_cell_angle_beta   95.68652647
_cell_angle_gamma   143.41194524
_symmetry_Int_Tables_number   1
_chemical_formula_structural   Ni2Pt6W
_chemical_formula_sum   'Ni2 Pt6 W1'
_cell_volume   132.35429969
_cell_formula_units_Z   1
loop_
 _symmetry_equiv_pos_site_id
 _symmetry_equiv_pos_as_xyz
  1  'x, y, z'
loop_
 _atom_site_type_symbol
 _atom_site_label
 _atom_site_symmetry_multiplicity
 _atom_site_fract_x
 _atom_site_fract_y
 _atom_site_fract_z
 _atom_site_occupancy
  Ni  Ni0  1  0.338624  0.338624  0.677248  1
  Ni  Ni1  1  0.661376  0.661376  0.322752  1
  Pt  Pt2  1  0.657628  0.342372  0.000000  1
  Pt  Pt3  1  0.342372  0.657628  0.000000  1
  Pt  Pt4  1  0.010569  0.324473  0.335042  1
  Pt  Pt5  1  0.989431  0.675527  0.664958  1
  Pt  Pt6  1  0.675527  0.989431  0.664958  1
  Pt  Pt7  1  0.324473  0.010569  0.335042  1
  W  W8  1  0.000000  0.000000  0.000000  1
