# generated using pymatgen
data_Rb(NO3)2
_symmetry_space_group_name_H-M   'P 1'
_cell_length_a   8.80944098
_cell_length_b   8.80944165
_cell_length_c   8.80944128
_cell_angle_alpha   89.95709046
_cell_angle_beta   89.95709177
_cell_angle_gamma   89.95708951
_symmetry_Int_Tables_number   1
_chemical_formula_structural   Rb(NO3)2
_chemical_formula_sum   'Rb4 N8 O24'
_cell_volume   683.66718268
_cell_formula_units_Z   4
loop_
 _symmetry_equiv_pos_site_id
 _symmetry_equiv_pos_as_xyz
  1  'x, y, z'
loop_
 _atom_site_type_symbol
 _atom_site_label
 _atom_site_symmetry_multiplicity
 _atom_site_fract_x
 _atom_site_fract_y
 _atom_site_fract_z
 _atom_site_occupancy
  Rb  Rb0  1  0.500000  0.500000  0.500000  1
  Rb  Rb1  1  0.500000  0.000000  0.000000  1
  Rb  Rb2  1  0.000000  0.000000  0.500000  1
  Rb  Rb3  1  0.000000  0.500000  0.000000  1
  N  N4  1  0.651289  0.852062  0.349001  1
  N  N5  1  0.348711  0.147938  0.650999  1
  N  N6  1  0.150100  0.150100  0.150100  1
  N  N7  1  0.852062  0.349001  0.651289  1
  N  N8  1  0.349001  0.651289  0.852062  1
  N  N9  1  0.849900  0.849900  0.849900  1
  N  N10  1  0.147938  0.650999  0.348711  1
  N  N11  1  0.650999  0.348711  0.147938  1
  O  O12  1  0.033340  0.205999  0.210977  1
  O  O13  1  0.792015  0.466264  0.707113  1
  O  O14  1  0.292442  0.711857  0.968693  1
  O  O15  1  0.966660  0.794001  0.789023  1
  O  O16  1  0.207985  0.533736  0.292887  1
  O  O17  1  0.707558  0.288143  0.031307  1
  O  O18  1  0.210977  0.033340  0.205999  1
  O  O19  1  0.795693  0.288489  0.534620  1
  O  O20  1  0.466264  0.707113  0.792015  1
  O  O21  1  0.789023  0.966660  0.794001  1
  O  O22  1  0.204307  0.711511  0.465380  1
  O  O23  1  0.533736  0.292887  0.207985  1
  O  O24  1  0.205999  0.210977  0.033340  1
  O  O25  1  0.968693  0.292442  0.711857  1
  O  O26  1  0.288489  0.534620  0.795693  1
  O  O27  1  0.794001  0.789023  0.966660  1
  O  O28  1  0.031307  0.707558  0.288143  1
  O  O29  1  0.711511  0.465380  0.204307  1
  O  O30  1  0.711857  0.968693  0.292442  1
  O  O31  1  0.707113  0.792015  0.466264  1
  O  O32  1  0.534620  0.795693  0.288489  1
  O  O33  1  0.288143  0.031307  0.707558  1
  O  O34  1  0.292887  0.207985  0.533736  1
  O  O35  1  0.465380  0.204307  0.711511  1
