# generated using pymatgen
data_SrPrBi2O7
_symmetry_space_group_name_H-M   'P 1'
_cell_length_a   7.92135494
_cell_length_b   7.92135607
_cell_length_c   7.89049600
_cell_angle_alpha   60.12878044
_cell_angle_beta   60.12877574
_cell_angle_gamma   60.01310062
_symmetry_Int_Tables_number   1
_chemical_formula_structural   SrPrBi2O7
_chemical_formula_sum   'Sr2 Pr2 Bi4 O14'
_cell_volume   350.81170126
_cell_formula_units_Z   2
loop_
 _symmetry_equiv_pos_site_id
 _symmetry_equiv_pos_as_xyz
  1  'x, y, z'
loop_
 _atom_site_type_symbol
 _atom_site_label
 _atom_site_symmetry_multiplicity
 _atom_site_fract_x
 _atom_site_fract_y
 _atom_site_fract_z
 _atom_site_occupancy
  Sr  Sr0  1  0.125000  0.125000  0.125000  1
  Sr  Sr1  1  0.125000  0.125000  0.625000  1
  Pr  Pr2  1  0.625000  0.125000  0.125000  1
  Pr  Pr3  1  0.125000  0.625000  0.125000  1
  Bi  Bi4  1  0.625000  0.625000  0.125000  1
  Bi  Bi5  1  0.625000  0.625000  0.625000  1
  Bi  Bi6  1  0.625000  0.125000  0.625000  1
  Bi  Bi7  1  0.125000  0.625000  0.625000  1
  O  O8  1  0.701506  0.293539  0.290831  1
  O  O9  1  0.709827  0.709827  0.290173  1
  O  O10  1  0.293539  0.701506  0.290831  1
  O  O11  1  0.987566  0.987566  0.012434  1
  O  O12  1  0.701506  0.293539  0.714124  1
  O  O13  1  0.956461  0.548494  0.535876  1
  O  O14  1  0.293539  0.701506  0.714124  1
  O  O15  1  0.548494  0.956461  0.535876  1
  O  O16  1  0.262434  0.262434  0.237566  1
  O  O17  1  0.956461  0.548494  0.959169  1
  O  O18  1  0.540173  0.540173  0.959827  1
  O  O19  1  0.954307  0.954307  0.545693  1
  O  O20  1  0.548494  0.956461  0.959169  1
  O  O21  1  0.295693  0.295693  0.704307  1
