# generated using pymatgen
data_Er2Rh2O7
_symmetry_space_group_name_H-M   'P 1'
_cell_length_a   7.19676579
_cell_length_b   7.19664837
_cell_length_c   7.19717800
_cell_angle_alpha   59.99756549
_cell_angle_beta   59.99810528
_cell_angle_gamma   59.99516505
_symmetry_Int_Tables_number   1
_chemical_formula_structural   Er2Rh2O7
_chemical_formula_sum   'Er4 Rh4 O14'
_cell_volume   263.56322803
_cell_formula_units_Z   2
loop_
 _symmetry_equiv_pos_site_id
 _symmetry_equiv_pos_as_xyz
  1  'x, y, z'
loop_
 _atom_site_type_symbol
 _atom_site_label
 _atom_site_symmetry_multiplicity
 _atom_site_fract_x
 _atom_site_fract_y
 _atom_site_fract_z
 _atom_site_occupancy
  Er  Er0  1  0.625000  0.125000  0.125000  1
  Er  Er1  1  0.125000  0.625000  0.125000  1
  Er  Er2  1  0.125000  0.125000  0.125000  1
  Er  Er3  1  0.125000  0.125000  0.625000  1
  Rh  Rh4  1  0.625000  0.625000  0.125000  1
  Rh  Rh5  1  0.625000  0.625000  0.625000  1
  Rh  Rh6  1  0.625000  0.125000  0.625000  1
  Rh  Rh7  1  0.125000  0.625000  0.625000  1
  O  O8  1  0.286471  0.713427  0.286670  1
  O  O9  1  0.249995  0.250003  0.250001  1
  O  O10  1  0.536527  0.963447  0.536528  1
  O  O11  1  0.286427  0.286685  0.713444  1
  O  O12  1  0.286471  0.713427  0.713433  1
  O  O13  1  0.536526  0.536546  0.963464  1
  O  O14  1  0.536527  0.963447  0.963498  1
  O  O15  1  0.713474  0.713454  0.286536  1
  O  O16  1  0.713473  0.286553  0.286502  1
  O  O17  1  0.963529  0.536573  0.536567  1
  O  O18  1  0.963573  0.963315  0.536556  1
  O  O19  1  0.713473  0.286553  0.713472  1
  O  O20  1  0.963529  0.536573  0.963330  1
  O  O21  1  0.000005  0.999997  0.999999  1
