# generated using pymatgen
data_Nb12Co8Mo3WC4
_symmetry_space_group_name_H-M   'P 1'
_cell_length_a   8.19639780
_cell_length_b   8.19676448
_cell_length_c   8.19676400
_cell_angle_alpha   60.00000194
_cell_angle_beta   59.99852206
_cell_angle_gamma   59.99851338
_symmetry_Int_Tables_number   1
_chemical_formula_structural   Nb12Co8Mo3WC4
_chemical_formula_sum   'Nb12 Co8 Mo3 W1 C4'
_cell_volume   389.38856531
_cell_formula_units_Z   1
loop_
 _symmetry_equiv_pos_site_id
 _symmetry_equiv_pos_as_xyz
  1  'x, y, z'
loop_
 _atom_site_type_symbol
 _atom_site_label
 _atom_site_symmetry_multiplicity
 _atom_site_fract_x
 _atom_site_fract_y
 _atom_site_fract_z
 _atom_site_occupancy
  Nb  Nb0  1  0.690880  0.309138  0.690844  1
  Nb  Nb1  1  0.940878  0.559127  0.559127  1
  Nb  Nb2  1  0.559120  0.940862  0.940862  1
  Nb  Nb3  1  0.940878  0.559127  0.940869  1
  Nb  Nb4  1  0.559120  0.559156  0.940862  1
  Nb  Nb5  1  0.940878  0.940869  0.559127  1
  Nb  Nb6  1  0.690880  0.690844  0.309138  1
  Nb  Nb7  1  0.309122  0.690873  0.690873  1
  Nb  Nb8  1  0.690880  0.309138  0.309138  1
  Nb  Nb9  1  0.309122  0.309131  0.690873  1
  Nb  Nb10  1  0.559120  0.940862  0.559156  1
  Nb  Nb11  1  0.309122  0.690873  0.309131  1
  Co  Co12  1  0.326953  0.326958  0.326958  1
  Co  Co13  1  0.230826  0.923057  0.923057  1
  Co  Co14  1  0.923047  0.230866  0.923042  1
  Co  Co15  1  0.923047  0.923042  0.230866  1
  Co  Co16  1  0.326953  0.019134  0.326958  1
  Co  Co17  1  0.326953  0.326958  0.019134  1
  Co  Co18  1  0.019174  0.326943  0.326943  1
  Co  Co19  1  0.923047  0.923042  0.923042  1
  Mo  Mo20  1  0.125000  0.125000  0.125000  1
  Mo  Mo21  1  0.125000  0.625000  0.125000  1
  Mo  Mo22  1  0.125000  0.125000  0.625000  1
  W  W23  1  0.625000  0.125000  0.125000  1
  C  C24  1  0.625000  0.625000  0.625000  1
  C  C25  1  0.125000  0.625000  0.625000  1
  C  C26  1  0.625000  0.125000  0.625000  1
  C  C27  1  0.625000  0.625000  0.125000  1
