# generated using pymatgen
data_SrEuH9W
_symmetry_space_group_name_H-M   'P 1'
_cell_length_a   8.95341900
_cell_length_b   8.95341762
_cell_length_c   5.09889900
_cell_angle_alpha   90.00000000
_cell_angle_beta   90.00000000
_cell_angle_gamma   120.00000140
_symmetry_Int_Tables_number   1
_chemical_formula_structural   SrEuH9W
_chemical_formula_sum   'Sr3 Eu3 H27 W3'
_cell_volume   353.98494026
_cell_formula_units_Z   3
loop_
 _symmetry_equiv_pos_site_id
 _symmetry_equiv_pos_as_xyz
  1  'x, y, z'
loop_
 _atom_site_type_symbol
 _atom_site_label
 _atom_site_symmetry_multiplicity
 _atom_site_fract_x
 _atom_site_fract_y
 _atom_site_fract_z
 _atom_site_occupancy
  Sr  Sr0  1  0.000000  0.607706  0.000000  1
  Sr  Sr1  1  0.392294  0.392294  0.000000  1
  Sr  Sr2  1  0.607706  0.000000  0.000000  1
  Eu  Eu3  1  0.000000  0.263111  0.500000  1
  Eu  Eu4  1  0.736889  0.736889  0.500000  1
  Eu  Eu5  1  0.263111  0.000000  0.500000  1
  H  H6  1  0.807004  0.331243  0.752177  1
  H  H7  1  0.668757  0.475760  0.752177  1
  H  H8  1  0.524240  0.192996  0.752177  1
  H  H9  1  0.192996  0.524240  0.247823  1
  H  H10  1  0.524240  0.192996  0.247823  1
  H  H11  1  0.807004  0.331243  0.247823  1
  H  H12  1  0.668757  0.475760  0.247823  1
  H  H13  1  0.331243  0.807004  0.752177  1
  H  H14  1  0.475760  0.668757  0.752177  1
  H  H15  1  0.202831  0.000000  0.000000  1
  H  H16  1  0.797169  0.797169  0.000000  1
  H  H17  1  0.000000  0.202831  0.000000  1
  H  H18  1  0.855249  0.000000  0.253421  1
  H  H19  1  0.144751  0.144751  0.746579  1
  H  H20  1  0.000000  0.855249  0.746579  1
  H  H21  1  0.000000  0.855249  0.253421  1
  H  H22  1  0.144751  0.144751  0.253421  1
  H  H23  1  0.855249  0.000000  0.746579  1
  H  H24  1  0.136814  0.673779  0.500000  1
  H  H25  1  0.536965  0.863186  0.500000  1
  H  H26  1  0.326221  0.463035  0.500000  1
  H  H27  1  0.463035  0.326221  0.500000  1
  H  H28  1  0.863186  0.536965  0.500000  1
  H  H29  1  0.673779  0.136814  0.500000  1
  H  H30  1  0.192996  0.524240  0.752177  1
  H  H31  1  0.331243  0.807004  0.247823  1
  H  H32  1  0.475760  0.668757  0.247823  1
  W  W33  1  0.666667  0.333333  0.500000  1
  W  W34  1  0.333333  0.666667  0.500000  1
  W  W35  1  0.000000  0.000000  0.000000  1
