# generated using pymatgen
data_ThCo(PRu)2
_symmetry_space_group_name_H-M   'P 1'
_cell_length_a   3.92948000
_cell_length_b   10.95375600
_cell_length_c   12.78160800
_cell_angle_alpha   90.00000000
_cell_angle_beta   90.00000000
_cell_angle_gamma   90.00000000
_symmetry_Int_Tables_number   1
_chemical_formula_structural   ThCo(PRu)2
_chemical_formula_sum   'Th6 Co6 P12 Ru12'
_cell_volume   550.15319477
_cell_formula_units_Z   6
loop_
 _symmetry_equiv_pos_site_id
 _symmetry_equiv_pos_as_xyz
  1  'x, y, z'
loop_
 _atom_site_type_symbol
 _atom_site_label
 _atom_site_symmetry_multiplicity
 _atom_site_fract_x
 _atom_site_fract_y
 _atom_site_fract_z
 _atom_site_occupancy
  Th  Th0  1  0.000000  0.500000  0.521477  1
  Th  Th1  1  0.500000  0.000000  0.476375  1
  Th  Th2  1  0.500000  0.819755  0.205031  1
  Th  Th3  1  0.500000  0.180245  0.205031  1
  Th  Th4  1  0.000000  0.683803  0.796454  1
  Th  Th5  1  0.000000  0.316197  0.796454  1
  Co  Co6  1  0.000000  0.500000  0.986220  1
  Co  Co7  1  0.500000  0.000000  0.015485  1
  Co  Co8  1  0.000000  0.161295  0.011071  1
  Co  Co9  1  0.000000  0.838705  0.011071  1
  Co  Co10  1  0.500000  0.500000  0.704728  1
  Co  Co11  1  0.000000  0.000000  0.295411  1
  P  P12  1  0.500000  0.311471  0.616347  1
  P  P13  1  0.500000  0.688529  0.616347  1
  P  P14  1  0.000000  0.189645  0.383770  1
  P  P15  1  0.000000  0.810355  0.383770  1
  P  P16  1  0.500000  0.500000  0.882279  1
  P  P17  1  0.000000  0.000000  0.115365  1
  P  P18  1  0.500000  0.853869  0.899414  1
  P  P19  1  0.500000  0.146131  0.899414  1
  P  P20  1  0.000000  0.653681  0.098753  1
  P  P21  1  0.000000  0.346319  0.098753  1
  P  P22  1  0.500000  0.500000  0.338071  1
  P  P23  1  0.000000  0.000000  0.661978  1
  Ru  Ru24  1  0.500000  0.299594  0.428529  1
  Ru  Ru25  1  0.500000  0.700406  0.428529  1
  Ru  Ru26  1  0.000000  0.200578  0.571299  1
  Ru  Ru27  1  0.000000  0.799422  0.571299  1
  Ru  Ru28  1  0.500000  0.877524  0.717436  1
  Ru  Ru29  1  0.500000  0.122476  0.717436  1
  Ru  Ru30  1  0.000000  0.623789  0.280827  1
  Ru  Ru31  1  0.000000  0.376211  0.280827  1
  Ru  Ru32  1  0.500000  0.329534  0.990873  1
  Ru  Ru33  1  0.500000  0.670466  0.990873  1
  Ru  Ru34  1  0.500000  0.500000  0.153182  1
  Ru  Ru35  1  0.000000  0.000000  0.849822  1
