# generated using pymatgen
data_La8TbYIr6
_symmetry_space_group_name_H-M   'P 1'
_cell_length_a   11.39104100
_cell_length_b   11.39104100
_cell_length_c   6.55335700
_cell_angle_alpha   90.00000000
_cell_angle_beta   90.00000000
_cell_angle_gamma   90.00000000
_symmetry_Int_Tables_number   1
_chemical_formula_structural   La8TbYIr6
_chemical_formula_sum   'La16 Tb2 Y2 Ir12'
_cell_volume   850.33617894
_cell_formula_units_Z   2
loop_
 _symmetry_equiv_pos_site_id
 _symmetry_equiv_pos_as_xyz
  1  'x, y, z'
loop_
 _atom_site_type_symbol
 _atom_site_label
 _atom_site_symmetry_multiplicity
 _atom_site_fract_x
 _atom_site_fract_y
 _atom_site_fract_z
 _atom_site_occupancy
  La  La0  1  0.288197  0.088662  0.386724  1
  La  La1  1  0.288197  0.911338  0.886724  1
  La  La2  1  0.711803  0.088662  0.886724  1
  La  La3  1  0.711803  0.911338  0.386724  1
  La  La4  1  0.588588  0.788339  0.886682  1
  La  La5  1  0.588588  0.211661  0.386682  1
  La  La6  1  0.411412  0.788339  0.386682  1
  La  La7  1  0.411412  0.211661  0.886682  1
  La  La8  1  0.211661  0.411412  0.613318  1
  La  La9  1  0.211661  0.588588  0.113318  1
  La  La10  1  0.788339  0.411412  0.113318  1
  La  La11  1  0.788339  0.588588  0.613318  1
  La  La12  1  0.911338  0.711803  0.113276  1
  La  La13  1  0.911338  0.288197  0.613276  1
  La  La14  1  0.088662  0.711803  0.613276  1
  La  La15  1  0.088662  0.288197  0.113276  1
  Tb  Tb16  1  0.500000  0.500000  0.000000  1
  Tb  Tb17  1  0.500000  0.500000  0.500000  1
  Y  Y18  1  0.000000  0.000000  0.500000  1
  Y  Y19  1  0.000000  0.000000  0.000000  1
  Ir  Ir20  1  0.850461  0.149539  0.250000  1
  Ir  Ir21  1  0.850461  0.850461  0.750000  1
  Ir  Ir22  1  0.149539  0.149539  0.750000  1
  Ir  Ir23  1  0.149539  0.850461  0.250000  1
  Ir  Ir24  1  0.649357  0.350643  0.750000  1
  Ir  Ir25  1  0.649357  0.649357  0.250000  1
  Ir  Ir26  1  0.350643  0.350643  0.250000  1
  Ir  Ir27  1  0.350643  0.649357  0.750000  1
  Ir  Ir28  1  0.500000  0.000000  0.117991  1
  Ir  Ir29  1  0.500000  0.000000  0.617991  1
  Ir  Ir30  1  0.000000  0.500000  0.882009  1
  Ir  Ir31  1  0.000000  0.500000  0.382009  1
