# generated using pymatgen
data_LiBr23
_symmetry_space_group_name_H-M   'P 1'
_cell_length_a   8.49123664
_cell_length_b   10.37584298
_cell_length_c   13.52260998
_cell_angle_alpha   103.38745175
_cell_angle_beta   90.36951343
_cell_angle_gamma   85.79620424
_symmetry_Int_Tables_number   1
_chemical_formula_structural   LiBr23
_chemical_formula_sum   'Li1 Br23'
_cell_volume   1155.83212374
_cell_formula_units_Z   1
loop_
 _symmetry_equiv_pos_site_id
 _symmetry_equiv_pos_as_xyz
  1  'x, y, z'
loop_
 _atom_site_type_symbol
 _atom_site_label
 _atom_site_symmetry_multiplicity
 _atom_site_fract_x
 _atom_site_fract_y
 _atom_site_fract_z
 _atom_site_occupancy
  Li  Li0  1  0.036260  0.836351  0.484231  1
  Br  Br1  1  0.395614  0.693198  0.936675  1
  Br  Br2  1  0.651121  0.262555  0.050935  1
  Br  Br3  1  0.939475  0.308814  0.574671  1
  Br  Br4  1  0.260575  0.545918  0.593763  1
  Br  Br5  1  0.781074  0.514713  0.400540  1
  Br  Br6  1  0.766977  0.460669  0.867565  1
  Br  Br7  1  0.276482  0.487633  0.117488  1
  Br  Br8  1  0.201139  0.350103  0.669714  1
  Br  Br9  1  0.889638  0.689209  0.334590  1
  Br  Br10  1  0.643509  0.662865  0.822047  1
  Br  Br11  1  0.413251  0.300373  0.175048  1
  Br  Br12  1  0.302758  0.951630  0.695249  1
  Br  Br13  1  0.653880  0.082130  0.296379  1
  Br  Br14  1  0.830198  0.034862  0.754047  1
  Br  Br15  1  0.138765  0.890665  0.245259  1
  Br  Br16  1  0.154953  0.699879  0.050058  1
  Br  Br17  1  0.880774  0.244007  0.926456  1
  Br  Br18  1  0.679829  0.304882  0.475861  1
  Br  Br19  1  0.317519  0.742865  0.516783  1
  Br  Br20  1  0.794329  0.860090  0.606522  1
  Br  Br21  1  0.088383  0.042579  0.407152  1
  Br  Br22  1  0.286791  0.129890  0.844558  1
  Br  Br23  1  0.616708  0.904118  0.154410  1
