# generated using pymatgen
data_YTh5(SnIr)6
_symmetry_space_group_name_H-M   'P 1'
_cell_length_a   7.55251777
_cell_length_b   7.56732696
_cell_length_c   8.24598900
_cell_angle_alpha   90.00000000
_cell_angle_beta   90.00000000
_cell_angle_gamma   119.97765037
_symmetry_Int_Tables_number   1
_chemical_formula_structural   YTh5(SnIr)6
_chemical_formula_sum   'Y1 Th5 Sn6 Ir6'
_cell_volume   408.23045486
_cell_formula_units_Z   1
loop_
 _symmetry_equiv_pos_site_id
 _symmetry_equiv_pos_as_xyz
  1  'x, y, z'
loop_
 _atom_site_type_symbol
 _atom_site_label
 _atom_site_symmetry_multiplicity
 _atom_site_fract_x
 _atom_site_fract_y
 _atom_site_fract_z
 _atom_site_occupancy
  Y  Y0  1  0.403422  0.000421  0.750000  1
  Th  Th1  1  0.415664  0.001643  0.250000  1
  Th  Th2  1  0.585189  0.586699  0.750000  1
  Th  Th3  1  0.590342  0.589574  0.250000  1
  Th  Th4  1  0.998701  0.409609  0.250000  1
  Th  Th5  1  0.001853  0.415031  0.750000  1
  Sn  Sn6  1  0.251975  0.247785  0.500397  1
  Sn  Sn7  1  0.251975  0.247785  0.999603  1
  Sn  Sn8  1  0.743975  0.999953  0.993856  1
  Sn  Sn9  1  0.004236  0.751990  0.500921  1
  Sn  Sn10  1  0.743975  0.999953  0.506144  1
  Sn  Sn11  1  0.004236  0.751990  0.999079  1
  Ir  Ir12  1  0.671813  0.338398  0.501388  1
  Ir  Ir13  1  0.671813  0.338398  0.998612  1
  Ir  Ir14  1  0.332961  0.660293  0.002293  1
  Ir  Ir15  1  0.332961  0.660293  0.497707  1
  Ir  Ir16  1  0.997223  0.000551  0.750000  1
  Ir  Ir17  1  0.997688  0.999632  0.250000  1
