# generated using pymatgen
data_Tb10Dy2InFe4Cu
_symmetry_space_group_name_H-M   'P 1'
_cell_length_a   8.39447866
_cell_length_b   8.39480649
_cell_length_c   8.39447976
_cell_angle_alpha   110.91605073
_cell_angle_beta   110.80968476
_cell_angle_gamma   106.72091211
_symmetry_Int_Tables_number   1
_chemical_formula_structural   Tb10Dy2InFe4Cu
_chemical_formula_sum   'Tb10 Dy2 In1 Fe4 Cu1'
_cell_volume   454.60878320
_cell_formula_units_Z   1
loop_
 _symmetry_equiv_pos_site_id
 _symmetry_equiv_pos_as_xyz
  1  'x, y, z'
loop_
 _atom_site_type_symbol
 _atom_site_label
 _atom_site_symmetry_multiplicity
 _atom_site_fract_x
 _atom_site_fract_y
 _atom_site_fract_z
 _atom_site_occupancy
  Tb  Tb0  1  0.417120  0.216521  0.199848  1
  Tb  Tb1  1  0.582880  0.783479  0.800152  1
  Tb  Tb2  1  0.016674  0.216521  0.799400  1
  Tb  Tb3  1  0.983326  0.783479  0.200600  1
  Tb  Tb4  1  0.186118  0.289236  0.476133  1
  Tb  Tb5  1  0.813882  0.710764  0.523867  1
  Tb  Tb6  1  0.186896  0.710764  0.896883  1
  Tb  Tb7  1  0.813104  0.289236  0.103117  1
  Tb  Tb8  1  0.313207  0.614004  0.300796  1
  Tb  Tb9  1  0.686793  0.385996  0.699204  1
  Dy  Dy10  1  0.313661  0.012517  0.698857  1
  Dy  Dy11  1  0.686339  0.987483  0.301143  1
  In  In12  1  0.500000  0.500000  0.000000  1
  Fe  Fe13  1  0.384875  0.000000  0.384875  1
  Fe  Fe14  1  0.615125  0.000000  0.615125  1
  Fe  Fe15  1  0.107691  0.607845  0.500153  1
  Fe  Fe16  1  0.892309  0.392155  0.499847  1
  Cu  Cu17  1  0.000000  0.000000  0.000000  1
