# generated using pymatgen
data_NaTb11(NdSn2)8
_symmetry_space_group_name_H-M   'P 1'
_cell_length_a   8.11531900
_cell_length_b   8.34362012
_cell_length_c   15.71822100
_cell_angle_alpha   90.00000000
_cell_angle_beta   90.00000000
_cell_angle_gamma   89.99033811
_symmetry_Int_Tables_number   1
_chemical_formula_structural   NaTb11(NdSn2)8
_chemical_formula_sum   'Na1 Tb11 Nd8 Sn16'
_cell_volume   1064.29862991
_cell_formula_units_Z   1
loop_
 _symmetry_equiv_pos_site_id
 _symmetry_equiv_pos_as_xyz
  1  'x, y, z'
loop_
 _atom_site_type_symbol
 _atom_site_label
 _atom_site_symmetry_multiplicity
 _atom_site_fract_x
 _atom_site_fract_y
 _atom_site_fract_z
 _atom_site_occupancy
  Na  Na0  1  0.319951  0.997935  0.250000  1
  Tb  Tb1  1  0.347433  0.831395  0.874207  1
  Tb  Tb2  1  0.846044  0.664831  0.623092  1
  Tb  Tb3  1  0.647137  0.165824  0.375141  1
  Tb  Tb4  1  0.152944  0.329252  0.123632  1
  Tb  Tb5  1  0.647137  0.165824  0.124859  1
  Tb  Tb6  1  0.152944  0.329252  0.376368  1
  Tb  Tb7  1  0.347433  0.831395  0.625793  1
  Tb  Tb8  1  0.846044  0.664831  0.876908  1
  Tb  Tb9  1  0.181550  0.499601  0.750000  1
  Tb  Tb10  1  0.681286  0.999889  0.750000  1
  Tb  Tb11  1  0.820207  0.500059  0.250000  1
  Nd  Nd12  1  0.505327  0.323464  0.903168  1
  Nd  Nd13  1  0.005514  0.178138  0.597294  1
  Nd  Nd14  1  0.493747  0.684172  0.402884  1
  Nd  Nd15  1  0.999350  0.822217  0.095781  1
  Nd  Nd16  1  0.493747  0.684172  0.097116  1
  Nd  Nd17  1  0.999350  0.822217  0.404219  1
  Nd  Nd18  1  0.505327  0.323464  0.596832  1
  Nd  Nd19  1  0.005514  0.178138  0.902706  1
  Sn  Sn20  1  0.315223  0.041785  0.036635  1
  Sn  Sn21  1  0.813055  0.461140  0.457114  1
  Sn  Sn22  1  0.683116  0.960482  0.540439  1
  Sn  Sn23  1  0.186519  0.539313  0.959183  1
  Sn  Sn24  1  0.683116  0.960482  0.959561  1
  Sn  Sn25  1  0.186519  0.539313  0.540817  1
  Sn  Sn26  1  0.315223  0.041785  0.463365  1
  Sn  Sn27  1  0.813055  0.461140  0.042886  1
  Sn  Sn28  1  0.546809  0.619614  0.750000  1
  Sn  Sn29  1  0.044254  0.878833  0.750000  1
  Sn  Sn30  1  0.451497  0.388406  0.250000  1
  Sn  Sn31  1  0.952283  0.117017  0.250000  1
  Sn  Sn32  1  0.313078  0.144184  0.750000  1
  Sn  Sn33  1  0.813394  0.356118  0.750000  1
  Sn  Sn34  1  0.697663  0.858311  0.250000  1
  Sn  Sn35  1  0.187208  0.636009  0.250000  1
