# generated using pymatgen
data_Ba4Nd2Sc5VO16
_symmetry_space_group_name_H-M   'P 1'
_cell_length_a   4.08858800
_cell_length_b   24.82861000
_cell_length_c   4.08861300
_cell_angle_alpha   89.99979412
_cell_angle_beta   89.99997197
_cell_angle_gamma   90.00002127
_symmetry_Int_Tables_number   1
_chemical_formula_structural   Ba4Nd2Sc5VO16
_chemical_formula_sum   'Ba4 Nd2 Sc5 V1 O16'
_cell_volume   415.05128387
_cell_formula_units_Z   1
loop_
 _symmetry_equiv_pos_site_id
 _symmetry_equiv_pos_as_xyz
  1  'x, y, z'
loop_
 _atom_site_type_symbol
 _atom_site_label
 _atom_site_symmetry_multiplicity
 _atom_site_fract_x
 _atom_site_fract_y
 _atom_site_fract_z
 _atom_site_occupancy
  Ba  Ba0  1  0.500003  0.077580  0.500000  1
  Ba  Ba1  1  0.500008  0.577169  0.500008  1
  Ba  Ba2  1  0.499993  0.422840  0.499989  1
  Ba  Ba3  1  0.500001  0.922415  0.500004  1
  Nd  Nd4  1  0.500004  0.250149  0.499994  1
  Nd  Nd5  1  0.499993  0.749851  0.500004  1
  Sc  Sc6  1  0.000002  0.667396  0.000002  1
  Sc  Sc7  1  0.000001  0.332606  0.999999  1
  Sc  Sc8  1  0.000001  0.999996  0.000002  1
  Sc  Sc9  1  0.000001  0.168483  0.999997  1
  Sc  Sc10  1  0.999996  0.831515  0.000003  1
  V  V11  1  0.999999  0.500003  0.999998  1
  O  O12  1  0.000002  0.999997  0.500001  1
  O  O13  1  0.000001  0.500004  0.499998  1
  O  O14  1  0.500000  0.999998  0.000003  1
  O  O15  1  0.500000  0.500004  0.000000  1
  O  O16  1  0.000002  0.090353  0.999998  1
  O  O17  1  0.000000  0.588912  0.999998  1
  O  O18  1  0.000002  0.411091  0.999999  1
  O  O19  1  0.999998  0.909644  0.000004  1
  O  O20  1  0.500000  0.191311  0.999996  1
  O  O21  1  0.499999  0.690849  0.000003  1
  O  O22  1  0.000000  0.191311  0.499997  1
  O  O23  1  0.999996  0.690848  0.500002  1
  O  O24  1  0.500003  0.309148  0.999997  1
  O  O25  1  0.499994  0.808689  0.000002  1
  O  O26  1  0.000004  0.309149  0.499998  1
  O  O27  1  0.999994  0.808688  0.500003  1
