# generated using pymatgen
data_Dy9Y(GaSb)3
_symmetry_space_group_name_H-M   'P 1'
_cell_length_a   8.77339603
_cell_length_b   8.78491710
_cell_length_c   6.49302400
_cell_angle_alpha   90.00000000
_cell_angle_beta   90.00000000
_cell_angle_gamma   119.94699788
_symmetry_Int_Tables_number   1
_chemical_formula_structural   Dy9Y(GaSb)3
_chemical_formula_sum   'Dy9 Y1 Ga3 Sb3'
_cell_volume   433.62543015
_cell_formula_units_Z   1
loop_
 _symmetry_equiv_pos_site_id
 _symmetry_equiv_pos_as_xyz
  1  'x, y, z'
loop_
 _atom_site_type_symbol
 _atom_site_label
 _atom_site_symmetry_multiplicity
 _atom_site_fract_x
 _atom_site_fract_y
 _atom_site_fract_z
 _atom_site_occupancy
  Dy  Dy0  1  0.326979  0.666647  0.003097  1
  Dy  Dy1  1  0.660318  0.333247  0.496923  1
  Dy  Dy2  1  0.660318  0.333247  0.003077  1
  Dy  Dy3  1  0.326979  0.666647  0.496903  1
  Dy  Dy4  1  0.235168  0.000067  0.250000  1
  Dy  Dy5  1  0.242852  0.231307  0.750000  1
  Dy  Dy6  1  0.011638  0.768653  0.750000  1
  Dy  Dy7  1  0.012415  0.248788  0.250000  1
  Dy  Dy8  1  0.754237  0.000074  0.750000  1
  Y  Y9  1  0.763515  0.751548  0.250000  1
  Ga  Ga10  1  0.998762  0.602547  0.250000  1
  Ga  Ga11  1  0.395994  0.397266  0.250000  1
  Ga  Ga12  1  0.398201  0.999965  0.750000  1
  Sb  Sb13  1  0.609632  0.000057  0.250000  1
  Sb  Sb14  1  0.605289  0.607521  0.750000  1
  Sb  Sb15  1  0.997704  0.392419  0.750000  1
