# generated using pymatgen
data_Ta4NiGe
_symmetry_space_group_name_H-M   'P 1'
_cell_length_a   5.08649086
_cell_length_b   5.08649024
_cell_length_c   5.08649010
_cell_angle_alpha   104.19033222
_cell_angle_beta   104.19033168
_cell_angle_gamma   120.64466279
_symmetry_Int_Tables_number   1
_chemical_formula_structural   Ta4NiGe
_chemical_formula_sum   'Ta4 Ni1 Ge1'
_cell_volume   98.36926969
_cell_formula_units_Z   1
loop_
 _symmetry_equiv_pos_site_id
 _symmetry_equiv_pos_as_xyz
  1  'x, y, z'
loop_
 _atom_site_type_symbol
 _atom_site_label
 _atom_site_symmetry_multiplicity
 _atom_site_fract_x
 _atom_site_fract_y
 _atom_site_fract_z
 _atom_site_occupancy
  Ta  Ta0  1  0.407364  0.907364  0.814729  1
  Ta  Ta1  1  0.092636  0.592636  0.185271  1
  Ta  Ta2  1  0.592636  0.407364  0.500000  1
  Ta  Ta3  1  0.907364  0.092636  0.500000  1
  Ni  Ni4  1  0.000000  0.000000  0.000000  1
  Ge  Ge5  1  0.500000  0.500000  0.000000  1
