# generated using pymatgen
data_YbEr3Al14(Si2Ir3)2
_symmetry_space_group_name_H-M   'P 1'
_cell_length_a   7.49944065
_cell_length_b   7.46963015
_cell_length_c   9.37296756
_cell_angle_alpha   89.96375884
_cell_angle_beta   89.96380154
_cell_angle_gamma   119.88242981
_symmetry_Int_Tables_number   1
_chemical_formula_structural   YbEr3Al14(Si2Ir3)2
_chemical_formula_sum   'Yb1 Er3 Al14 Si4 Ir6'
_cell_volume   455.24865157
_cell_formula_units_Z   1
loop_
 _symmetry_equiv_pos_site_id
 _symmetry_equiv_pos_as_xyz
  1  'x, y, z'
loop_
 _atom_site_type_symbol
 _atom_site_label
 _atom_site_symmetry_multiplicity
 _atom_site_fract_x
 _atom_site_fract_y
 _atom_site_fract_z
 _atom_site_occupancy
  Yb  Yb0  1  0.319399  0.991090  0.745448  1
  Er  Er1  1  0.000727  0.669216  0.249943  1
  Er  Er2  1  0.006202  0.341404  0.754530  1
  Er  Er3  1  0.669561  0.000823  0.249860  1
  Al  Al4  1  0.130340  0.127287  0.250190  1
  Al  Al5  1  0.872324  0.872185  0.750067  1
  Al  Al6  1  0.001136  0.328988  0.428024  1
  Al  Al7  1  0.669531  0.001193  0.578461  1
  Al  Al8  1  0.661974  0.997908  0.921264  1
  Al  Al9  1  0.339433  0.004606  0.070555  1
  Al  Al10  1  0.332751  0.333543  0.559082  1
  Al  Al11  1  0.663501  0.668007  0.441246  1
  Al  Al12  1  0.663002  0.667877  0.058775  1
  Al  Al13  1  0.336098  0.331745  0.941038  1
  Al  Al14  1  0.337679  0.547299  0.250293  1
  Al  Al15  1  0.660394  0.449917  0.751140  1
  Al  Al16  1  0.548254  0.343362  0.249550  1
  Al  Al17  1  0.453922  0.658560  0.749233  1
  Si  Si18  1  0.001367  0.327393  0.076534  1
  Si  Si19  1  0.997800  0.671755  0.931054  1
  Si  Si20  1  0.992761  0.659742  0.568856  1
  Si  Si21  1  0.340308  0.006989  0.424691  1
  Ir  Ir22  1  0.690243  0.337858  0.003474  1
  Ir  Ir23  1  0.311168  0.662899  0.998981  1
  Ir  Ir24  1  0.319911  0.679336  0.498957  1
  Ir  Ir25  1  0.673829  0.329589  0.498708  1
  Ir  Ir26  1  0.999698  0.999058  0.001303  1
  Ir  Ir27  1  0.006689  0.990369  0.498741  1
