# generated using pymatgen
data_TmLu9(Zn2Bi)2
_symmetry_space_group_name_H-M   'P 1'
_cell_length_a   8.49481506
_cell_length_b   8.49598267
_cell_length_c   8.49292547
_cell_angle_alpha   124.02147028
_cell_angle_beta   124.01728493
_cell_angle_gamma   83.18749370
_symmetry_Int_Tables_number   1
_chemical_formula_structural   TmLu9(Zn2Bi)2
_chemical_formula_sum   'Tm1 Lu9 Zn4 Bi2'
_cell_volume   403.88108223
_cell_formula_units_Z   1
loop_
 _symmetry_equiv_pos_site_id
 _symmetry_equiv_pos_as_xyz
  1  'x, y, z'
loop_
 _atom_site_type_symbol
 _atom_site_label
 _atom_site_symmetry_multiplicity
 _atom_site_fract_x
 _atom_site_fract_y
 _atom_site_fract_z
 _atom_site_occupancy
  Tm  Tm0  1  0.989831  0.795212  0.500000  1
  Lu  Lu1  1  0.999993  0.000120  0.000303  1
  Lu  Lu2  1  0.499690  0.499817  0.999697  1
  Lu  Lu3  1  0.794804  0.294767  0.805063  1
  Lu  Lu4  1  0.205371  0.705235  0.194852  1
  Lu  Lu5  1  0.489741  0.989704  0.194937  1
  Lu  Lu6  1  0.294902  0.489503  0.500000  1
  Lu  Lu7  1  0.010252  0.205643  0.500000  1
  Lu  Lu8  1  0.510518  0.010382  0.805148  1
  Lu  Lu9  1  0.705216  0.510270  0.500000  1
  Zn  Zn10  1  0.138487  0.638192  0.777026  1
  Zn  Zn11  1  0.861461  0.361167  0.222974  1
  Zn  Zn12  1  0.638049  0.861771  0.500000  1
  Zn  Zn13  1  0.361651  0.138255  0.500000  1
  Bi  Bi14  1  0.250134  0.250098  0.000234  1
  Bi  Bi15  1  0.749901  0.749864  0.999766  1
