# generated using pymatgen
data_HoTm3Cd2CoCu3
_symmetry_space_group_name_H-M   'P 1'
_cell_length_a   7.43205602
_cell_length_b   7.43205557
_cell_length_c   3.67231200
_cell_angle_alpha   90.00000000
_cell_angle_beta   90.00000000
_cell_angle_gamma   90.15196538
_symmetry_Int_Tables_number   1
_chemical_formula_structural   HoTm3Cd2CoCu3
_chemical_formula_sum   'Ho1 Tm3 Cd2 Co1 Cu3'
_cell_volume   202.84110442
_cell_formula_units_Z   1
loop_
 _symmetry_equiv_pos_site_id
 _symmetry_equiv_pos_as_xyz
  1  'x, y, z'
loop_
 _atom_site_type_symbol
 _atom_site_label
 _atom_site_symmetry_multiplicity
 _atom_site_fract_x
 _atom_site_fract_y
 _atom_site_fract_z
 _atom_site_occupancy
  Ho  Ho0  1  0.312072  0.812072  0.500000  1
  Tm  Tm1  1  0.670865  0.170865  0.500000  1
  Tm  Tm2  1  0.179059  0.344568  0.500000  1
  Tm  Tm3  1  0.844568  0.679059  0.500000  1
  Cd  Cd4  1  0.000110  0.004917  0.000000  1
  Cd  Cd5  1  0.504917  0.500110  0.000000  1
  Co  Co6  1  0.116138  0.616138  0.000000  1
  Cu  Cu7  1  0.878173  0.378173  0.000000  1
  Cu  Cu8  1  0.618460  0.875637  0.000000  1
  Cu  Cu9  1  0.375637  0.118460  0.000000  1
