# generated using pymatgen
data_Y2Al9Co2Pt
_symmetry_space_group_name_H-M   'P 1'
_cell_length_a   7.47371914
_cell_length_b   7.47371875
_cell_length_c   9.35589500
_cell_angle_alpha   90.00000000
_cell_angle_beta   90.00000000
_cell_angle_gamma   119.51570763
_symmetry_Int_Tables_number   1
_chemical_formula_structural   Y2Al9Co2Pt
_chemical_formula_sum   'Y4 Al18 Co4 Pt2'
_cell_volume   454.76628019
_cell_formula_units_Z   2
loop_
 _symmetry_equiv_pos_site_id
 _symmetry_equiv_pos_as_xyz
  1  'x, y, z'
loop_
 _atom_site_type_symbol
 _atom_site_label
 _atom_site_symmetry_multiplicity
 _atom_site_fract_x
 _atom_site_fract_y
 _atom_site_fract_z
 _atom_site_occupancy
  Y  Y0  1  0.993324  0.669921  0.250457  1
  Y  Y1  1  0.006676  0.330079  0.750457  1
  Y  Y2  1  0.669921  0.993324  0.249543  1
  Y  Y3  1  0.330079  0.006676  0.749543  1
  Al  Al4  1  0.121962  0.121962  0.250000  1
  Al  Al5  1  0.878038  0.878038  0.750000  1
  Al  Al6  1  0.331080  0.324886  0.545788  1
  Al  Al7  1  0.668920  0.675114  0.045788  1
  Al  Al8  1  0.324886  0.331080  0.954212  1
  Al  Al9  1  0.675114  0.668920  0.454212  1
  Al  Al10  1  0.341168  0.549776  0.241690  1
  Al  Al11  1  0.658832  0.450224  0.741690  1
  Al  Al12  1  0.549776  0.341168  0.258310  1
  Al  Al13  1  0.450224  0.658832  0.758310  1
  Al  Al14  1  0.006324  0.334381  0.073210  1
  Al  Al15  1  0.993676  0.665619  0.573210  1
  Al  Al16  1  0.334381  0.006324  0.426790  1
  Al  Al17  1  0.665619  0.993676  0.926790  1
  Al  Al18  1  0.009883  0.673707  0.926885  1
  Al  Al19  1  0.990117  0.326293  0.426885  1
  Al  Al20  1  0.673707  0.009883  0.573115  1
  Al  Al21  1  0.326293  0.990117  0.073115  1
  Co  Co22  1  0.000108  0.999892  0.000000  1
  Co  Co23  1  0.999892  0.000108  0.500000  1
  Co  Co24  1  0.329202  0.670798  0.000000  1
  Co  Co25  1  0.670798  0.329202  0.500000  1
  Pt  Pt26  1  0.671945  0.328055  0.000000  1
  Pt  Pt27  1  0.328055  0.671945  0.500000  1
