# generated using pymatgen
data_Sc4P3Se
_symmetry_space_group_name_H-M   'P 1'
_cell_length_a   3.78698600
_cell_length_b   8.47009760
_cell_length_c   10.02223210
_cell_angle_alpha   40.45423651
_cell_angle_beta   124.43350456
_cell_angle_gamma   131.86263897
_symmetry_Int_Tables_number   1
_chemical_formula_structural   Sc4P3Se
_chemical_formula_sum   'Sc4 P3 Se1'
_cell_volume   154.23410200
_cell_formula_units_Z   1
loop_
 _symmetry_equiv_pos_site_id
 _symmetry_equiv_pos_as_xyz
  1  'x, y, z'
loop_
 _atom_site_type_symbol
 _atom_site_label
 _atom_site_symmetry_multiplicity
 _atom_site_fract_x
 _atom_site_fract_y
 _atom_site_fract_z
 _atom_site_occupancy
  Sc  Sc0  1  0.502090  0.393956  0.287940  1
  Sc  Sc1  1  0.740098  0.662141  0.512882  1
  Sc  Sc2  1  0.224133  0.126648  0.035016  1
  Sc  Sc3  1  0.023126  0.930921  0.765916  1
  P  P4  1  0.882907  0.283868  0.652142  1
  P  P5  1  0.363459  0.773545  0.148411  1
  P  P6  1  0.621418  0.027956  0.400829  1
  Se  Se7  1  0.123837  0.527856  0.900824  1
