# generated using pymatgen
data_TbEr3(NiP)4
_symmetry_space_group_name_H-M   'P 1'
_cell_length_a   3.88798000
_cell_length_b   3.88797961
_cell_length_c   15.34800300
_cell_angle_alpha   90.00000000
_cell_angle_beta   90.00000000
_cell_angle_gamma   120.00000331
_symmetry_Int_Tables_number   1
_chemical_formula_structural   TbEr3(NiP)4
_chemical_formula_sum   'Tb1 Er3 Ni4 P4'
_cell_volume   200.92338842
_cell_formula_units_Z   1
loop_
 _symmetry_equiv_pos_site_id
 _symmetry_equiv_pos_as_xyz
  1  'x, y, z'
loop_
 _atom_site_type_symbol
 _atom_site_label
 _atom_site_symmetry_multiplicity
 _atom_site_fract_x
 _atom_site_fract_y
 _atom_site_fract_z
 _atom_site_occupancy
  Tb  Tb0  1  0.000000  0.000000  0.500000  1
  Er  Er1  1  0.000000  0.000000  0.248575  1
  Er  Er2  1  0.000000  0.000000  0.751425  1
  Er  Er3  1  0.000000  0.000000  0.000000  1
  Ni  Ni4  1  0.333333  0.666667  0.128473  1
  Ni  Ni5  1  0.666667  0.333333  0.871527  1
  Ni  Ni6  1  0.666667  0.333333  0.631675  1
  Ni  Ni7  1  0.333333  0.666667  0.368325  1
  P  P8  1  0.333333  0.666667  0.624816  1
  P  P9  1  0.666667  0.333333  0.375184  1
  P  P10  1  0.666667  0.333333  0.121414  1
  P  P11  1  0.333333  0.666667  0.878586  1
