# generated using pymatgen
data_Zr3USe6
_symmetry_space_group_name_H-M   'P 1'
_cell_length_a   6.57976358
_cell_length_b   6.57976398
_cell_length_c   6.83989117
_cell_angle_alpha   99.28772781
_cell_angle_beta   99.28772449
_cell_angle_gamma   119.96181734
_symmetry_Int_Tables_number   1
_chemical_formula_structural   Zr3USe6
_chemical_formula_sum   'Zr3 U1 Se6'
_cell_volume   242.83118561
_cell_formula_units_Z   1
loop_
 _symmetry_equiv_pos_site_id
 _symmetry_equiv_pos_as_xyz
  1  'x, y, z'
loop_
 _atom_site_type_symbol
 _atom_site_label
 _atom_site_symmetry_multiplicity
 _atom_site_fract_x
 _atom_site_fract_y
 _atom_site_fract_z
 _atom_site_occupancy
  Zr  Zr0  1  0.828433  0.171568  0.000000  1
  Zr  Zr1  1  0.500000  0.500000  0.000000  1
  Zr  Zr2  1  0.171568  0.828433  0.000000  1
  U  U3  1  0.000000  0.000000  0.500000  1
  Se  Se4  1  0.258900  0.258900  0.250708  1
  Se  Se5  1  0.918521  0.575499  0.257484  1
  Se  Se6  1  0.575499  0.918521  0.257484  1
  Se  Se7  1  0.424501  0.081479  0.742515  1
  Se  Se8  1  0.081479  0.424501  0.742515  1
  Se  Se9  1  0.741099  0.741099  0.749293  1
