# generated using pymatgen
data_Pr3Fe2P6Ir7
_symmetry_space_group_name_H-M   'P 1'
_cell_length_a   3.94141100
_cell_length_b   11.30655400
_cell_length_c   12.86308300
_cell_angle_alpha   90.00000000
_cell_angle_beta   90.00000000
_cell_angle_gamma   90.00000000
_symmetry_Int_Tables_number   1
_chemical_formula_structural   Pr3Fe2P6Ir7
_chemical_formula_sum   'Pr6 Fe4 P12 Ir14'
_cell_volume   573.22755344
_cell_formula_units_Z   2
loop_
 _symmetry_equiv_pos_site_id
 _symmetry_equiv_pos_as_xyz
  1  'x, y, z'
loop_
 _atom_site_type_symbol
 _atom_site_label
 _atom_site_symmetry_multiplicity
 _atom_site_fract_x
 _atom_site_fract_y
 _atom_site_fract_z
 _atom_site_occupancy
  Pr  Pr0  1  0.000000  0.500000  0.515686  1
  Pr  Pr1  1  0.500000  0.000000  0.484314  1
  Pr  Pr2  1  0.500000  0.819981  0.199686  1
  Pr  Pr3  1  0.500000  0.180019  0.199686  1
  Pr  Pr4  1  0.000000  0.680019  0.800314  1
  Pr  Pr5  1  0.000000  0.319981  0.800314  1
  Fe  Fe6  1  0.500000  0.500000  0.160071  1
  Fe  Fe7  1  0.000000  0.000000  0.839929  1
  Fe  Fe8  1  0.000000  0.500000  0.989725  1
  Fe  Fe9  1  0.500000  0.000000  0.010275  1
  P  P10  1  0.500000  0.500000  0.888226  1
  P  P11  1  0.000000  0.000000  0.111774  1
  P  P12  1  0.500000  0.500000  0.335204  1
  P  P13  1  0.000000  0.000000  0.664796  1
  P  P14  1  0.500000  0.311891  0.619227  1
  P  P15  1  0.500000  0.688109  0.619227  1
  P  P16  1  0.000000  0.188109  0.380773  1
  P  P17  1  0.000000  0.811891  0.380773  1
  P  P18  1  0.500000  0.852447  0.897706  1
  P  P19  1  0.500000  0.147553  0.897706  1
  P  P20  1  0.000000  0.647553  0.102294  1
  P  P21  1  0.000000  0.352447  0.102294  1
  Ir  Ir22  1  0.500000  0.500000  0.701592  1
  Ir  Ir23  1  0.000000  0.000000  0.298408  1
  Ir  Ir24  1  0.500000  0.336732  0.998088  1
  Ir  Ir25  1  0.500000  0.663268  0.998088  1
  Ir  Ir26  1  0.000000  0.163268  0.001912  1
  Ir  Ir27  1  0.000000  0.836732  0.001912  1
  Ir  Ir28  1  0.500000  0.289631  0.428367  1
  Ir  Ir29  1  0.500000  0.710369  0.428367  1
  Ir  Ir30  1  0.000000  0.210369  0.571633  1
  Ir  Ir31  1  0.000000  0.789631  0.571633  1
  Ir  Ir32  1  0.500000  0.876125  0.715694  1
  Ir  Ir33  1  0.500000  0.123875  0.715694  1
  Ir  Ir34  1  0.000000  0.623875  0.284306  1
  Ir  Ir35  1  0.000000  0.376125  0.284306  1
