# generated using pymatgen
data_Li4Nd3(SiSn)2
_symmetry_space_group_name_H-M   'P 1'
_cell_length_a   8.64976197
_cell_length_b   8.64976248
_cell_length_c   8.64976187
_cell_angle_alpha   149.47562966
_cell_angle_beta   133.33812455
_cell_angle_gamma   56.78956338
_symmetry_Int_Tables_number   1
_chemical_formula_structural   Li4Nd3(SiSn)2
_chemical_formula_sum   'Li4 Nd3 Si2 Sn2'
_cell_volume   237.40483221
_cell_formula_units_Z   1
loop_
 _symmetry_equiv_pos_site_id
 _symmetry_equiv_pos_as_xyz
  1  'x, y, z'
loop_
 _atom_site_type_symbol
 _atom_site_label
 _atom_site_symmetry_multiplicity
 _atom_site_fract_x
 _atom_site_fract_y
 _atom_site_fract_z
 _atom_site_occupancy
  Li  Li0  1  0.854204  0.662103  0.192101  1
  Li  Li1  1  0.470002  0.662103  0.807899  1
  Li  Li2  1  0.529998  0.337897  0.192101  1
  Li  Li3  1  0.145796  0.337897  0.807899  1
  Nd  Nd4  1  0.500000  0.000000  0.500000  1
  Nd  Nd5  1  0.123872  0.123872  0.000000  1
  Nd  Nd6  1  0.876128  0.876128  0.000000  1
  Si  Si7  1  0.823489  0.500000  0.323489  1
  Si  Si8  1  0.176511  0.500000  0.676511  1
  Sn  Sn9  1  0.715063  0.215063  0.500000  1
  Sn  Sn10  1  0.284937  0.784937  0.500000  1
