# generated using pymatgen
data_Sc5Ti(SnRh)6
_symmetry_space_group_name_H-M   'P 1'
_cell_length_a   7.60309733
_cell_length_b   7.51221430
_cell_length_c   6.88157900
_cell_angle_alpha   90.00000000
_cell_angle_beta   90.00000000
_cell_angle_gamma   120.14278185
_symmetry_Int_Tables_number   1
_chemical_formula_structural   Sc5Ti(SnRh)6
_chemical_formula_sum   'Sc5 Ti1 Sn6 Rh6'
_cell_volume   339.89956000
_cell_formula_units_Z   1
loop_
 _symmetry_equiv_pos_site_id
 _symmetry_equiv_pos_as_xyz
  1  'x, y, z'
loop_
 _atom_site_type_symbol
 _atom_site_label
 _atom_site_symmetry_multiplicity
 _atom_site_fract_x
 _atom_site_fract_y
 _atom_site_fract_z
 _atom_site_occupancy
  Sc  Sc0  1  0.998026  0.394655  0.750000  1
  Sc  Sc1  1  0.601879  0.606713  0.750000  1
  Sc  Sc2  1  0.397858  0.996841  0.750000  1
  Sc  Sc3  1  0.002001  0.393661  0.250000  1
  Sc  Sc4  1  0.611847  0.602784  0.250000  1
  Ti  Ti5  1  0.389552  0.998401  0.250000  1
  Sn  Sn6  1  0.277445  0.277778  0.501274  1
  Sn  Sn7  1  0.000442  0.723118  0.501686  1
  Sn  Sn8  1  0.000442  0.723118  0.998314  1
  Sn  Sn9  1  0.724263  0.999435  0.490538  1
  Sn  Sn10  1  0.724263  0.999435  0.009462  1
  Sn  Sn11  1  0.277445  0.277778  0.998726  1
  Rh  Rh12  1  0.334641  0.676449  0.480198  1
  Rh  Rh13  1  0.660168  0.326215  0.487577  1
  Rh  Rh14  1  0.334641  0.676449  0.019802  1
  Rh  Rh15  1  0.995315  0.000626  0.750000  1
  Rh  Rh16  1  0.009601  0.000329  0.250000  1
  Rh  Rh17  1  0.660168  0.326215  0.012423  1
