# generated using pymatgen
data_AlCl30
_symmetry_space_group_name_H-M   'P 1'
_cell_length_a   13.08708993
_cell_length_b   13.08709072
_cell_length_c   15.32179042
_cell_angle_alpha   83.36166906
_cell_angle_beta   83.36166642
_cell_angle_gamma   123.24498177
_symmetry_Int_Tables_number   1
_chemical_formula_structural   AlCl30
_chemical_formula_sum   'Al1 Cl30'
_cell_volume   2128.79254758
_cell_formula_units_Z   1
loop_
 _symmetry_equiv_pos_site_id
 _symmetry_equiv_pos_as_xyz
  1  'x, y, z'
loop_
 _atom_site_type_symbol
 _atom_site_label
 _atom_site_symmetry_multiplicity
 _atom_site_fract_x
 _atom_site_fract_y
 _atom_site_fract_z
 _atom_site_occupancy
  Al  Al0  1  0.000000  0.000000  0.000000  1
  Cl  Cl1  1  0.942901  0.942901  0.159491  1
  Cl  Cl2  1  0.057099  0.057099  0.840509  1
  Cl  Cl3  1  0.087902  0.204924  0.006438  1
  Cl  Cl4  1  0.912098  0.795076  0.993562  1
  Cl  Cl5  1  0.204924  0.087902  0.006438  1
  Cl  Cl6  1  0.795076  0.912098  0.993562  1
  Cl  Cl7  1  0.202673  0.739042  0.067171  1
  Cl  Cl8  1  0.797327  0.260958  0.932829  1
  Cl  Cl9  1  0.693351  0.078241  0.266831  1
  Cl  Cl10  1  0.260958  0.797327  0.932829  1
  Cl  Cl11  1  0.306649  0.921759  0.733169  1
  Cl  Cl12  1  0.739042  0.202673  0.067171  1
  Cl  Cl13  1  0.982088  0.199144  0.776218  1
  Cl  Cl14  1  0.921759  0.306649  0.733169  1
  Cl  Cl15  1  0.017912  0.800856  0.223782  1
  Cl  Cl16  1  0.078241  0.693351  0.266831  1
  Cl  Cl17  1  0.800856  0.017912  0.223782  1
  Cl  Cl18  1  0.199144  0.982088  0.776218  1
  Cl  Cl19  1  0.466054  0.552648  0.262054  1
  Cl  Cl20  1  0.533946  0.447352  0.737946  1
  Cl  Cl21  1  0.506105  0.199727  0.450405  1
  Cl  Cl22  1  0.447352  0.533946  0.737946  1
  Cl  Cl23  1  0.493895  0.800273  0.549595  1
  Cl  Cl24  1  0.552648  0.466054  0.262054  1
  Cl  Cl25  1  0.238000  0.425448  0.547572  1
  Cl  Cl26  1  0.800273  0.493895  0.549595  1
  Cl  Cl27  1  0.762000  0.574552  0.452428  1
  Cl  Cl28  1  0.199727  0.506105  0.450405  1
  Cl  Cl29  1  0.574552  0.762000  0.452428  1
  Cl  Cl30  1  0.425448  0.238000  0.547572  1
