# generated using pymatgen
data_Ca(TbCu6)2
_symmetry_space_group_name_H-M   'P 1'
_cell_length_a   5.05543597
_cell_length_b   5.05543585
_cell_length_c   10.63535289
_cell_angle_alpha   94.84454106
_cell_angle_beta   94.84455048
_cell_angle_gamma   119.61788344
_symmetry_Int_Tables_number   1
_chemical_formula_structural   Ca(TbCu6)2
_chemical_formula_sum   'Ca1 Tb2 Cu12'
_cell_volume   232.94158355
_cell_formula_units_Z   1
loop_
 _symmetry_equiv_pos_site_id
 _symmetry_equiv_pos_as_xyz
  1  'x, y, z'
loop_
 _atom_site_type_symbol
 _atom_site_label
 _atom_site_symmetry_multiplicity
 _atom_site_fract_x
 _atom_site_fract_y
 _atom_site_fract_z
 _atom_site_occupancy
  Ca  Ca0  1  0.000000  0.000000  0.000000  1
  Tb  Tb1  1  0.133019  0.133019  0.357757  1
  Tb  Tb2  1  0.866981  0.866981  0.642243  1
  Cu  Cu3  1  0.663328  0.336673  0.000000  1
  Cu  Cu4  1  0.336673  0.663328  0.000000  1
  Cu  Cu5  1  0.568448  0.067058  0.196220  1
  Cu  Cu6  1  0.067058  0.568448  0.196220  1
  Cu  Cu7  1  0.570291  0.570291  0.201808  1
  Cu  Cu8  1  0.807681  0.471171  0.405519  1
  Cu  Cu9  1  0.471171  0.807681  0.405519  1
  Cu  Cu10  1  0.528831  0.192320  0.594481  1
  Cu  Cu11  1  0.192320  0.528831  0.594481  1
  Cu  Cu12  1  0.429708  0.429708  0.798192  1
  Cu  Cu13  1  0.932941  0.431551  0.803781  1
  Cu  Cu14  1  0.431551  0.932941  0.803781  1
