# generated using pymatgen
data_Dy9Lu(GaTe)4
_symmetry_space_group_name_H-M   'P 1'
_cell_length_a   8.63314585
_cell_length_b   8.63314708
_cell_length_c   7.89352713
_cell_angle_alpha   90.00956839
_cell_angle_beta   90.00956408
_cell_angle_gamma   125.78329812
_symmetry_Int_Tables_number   1
_chemical_formula_structural   Dy9Lu(GaTe)4
_chemical_formula_sum   'Dy9 Lu1 Ga4 Te4'
_cell_volume   477.26061926
_cell_formula_units_Z   1
loop_
 _symmetry_equiv_pos_site_id
 _symmetry_equiv_pos_as_xyz
  1  'x, y, z'
loop_
 _atom_site_type_symbol
 _atom_site_label
 _atom_site_symmetry_multiplicity
 _atom_site_fract_x
 _atom_site_fract_y
 _atom_site_fract_z
 _atom_site_occupancy
  Dy  Dy0  1  0.000000  0.000000  0.000000  1
  Dy  Dy1  1  0.791404  0.538874  0.165664  1
  Dy  Dy2  1  0.461126  0.208596  0.834336  1
  Dy  Dy3  1  0.960941  0.708118  0.665178  1
  Dy  Dy4  1  0.291882  0.039059  0.334822  1
  Dy  Dy5  1  0.208596  0.461126  0.834336  1
  Dy  Dy6  1  0.538874  0.791404  0.165664  1
  Dy  Dy7  1  0.039059  0.291882  0.334822  1
  Dy  Dy8  1  0.708118  0.960941  0.665178  1
  Lu  Lu9  1  0.500000  0.500000  0.500000  1
  Ga  Ga10  1  0.865782  0.865782  0.368437  1
  Ga  Ga11  1  0.134218  0.134218  0.631563  1
  Ga  Ga12  1  0.633429  0.633429  0.866219  1
  Ga  Ga13  1  0.366571  0.366571  0.133781  1
  Te  Te14  1  0.204756  0.795244  0.000000  1
  Te  Te15  1  0.703637  0.296363  0.500000  1
  Te  Te16  1  0.795244  0.204756  0.000000  1
  Te  Te17  1  0.296363  0.703637  0.500000  1
