# generated using pymatgen
data_Pr16Ho4Si15P
_symmetry_space_group_name_H-M   'P 1'
_cell_length_a   7.81628740
_cell_length_b   7.81553954
_cell_length_c   15.28101302
_cell_angle_alpha   89.86652212
_cell_angle_beta   89.80439802
_cell_angle_gamma   90.12517705
_symmetry_Int_Tables_number   1
_chemical_formula_structural   Pr16Ho4Si15P
_chemical_formula_sum   'Pr16 Ho4 Si15 P1'
_cell_volume   933.48399655
_cell_formula_units_Z   1
loop_
 _symmetry_equiv_pos_site_id
 _symmetry_equiv_pos_as_xyz
  1  'x, y, z'
loop_
 _atom_site_type_symbol
 _atom_site_label
 _atom_site_symmetry_multiplicity
 _atom_site_fract_x
 _atom_site_fract_y
 _atom_site_fract_z
 _atom_site_occupancy
  Pr  Pr0  1  0.379741  0.009783  0.444181  1
  Pr  Pr1  1  0.485749  0.878179  0.696902  1
  Pr  Pr2  1  0.512584  0.122216  0.195790  1
  Pr  Pr3  1  0.877043  0.486750  0.303562  1
  Pr  Pr4  1  0.124928  0.510324  0.803154  1
  Pr  Pr5  1  0.624013  0.987387  0.945827  1
  Pr  Pr6  1  0.010996  0.375764  0.554646  1
  Pr  Pr7  1  0.987951  0.621953  0.053540  1
  Pr  Pr8  1  0.129090  0.981219  0.875974  1
  Pr  Pr9  1  0.522645  0.627280  0.127190  1
  Pr  Pr10  1  0.472370  0.368749  0.629494  1
  Pr  Pr11  1  0.627147  0.522690  0.871693  1
  Pr  Pr12  1  0.371790  0.475645  0.373218  1
  Pr  Pr13  1  0.874693  0.022567  0.378440  1
  Pr  Pr14  1  0.977867  0.126250  0.121711  1
  Pr  Pr15  1  0.026230  0.879305  0.622767  1
  Ho  Ho16  1  0.311733  0.310808  0.999790  1
  Ho  Ho17  1  0.188921  0.809232  0.249806  1
  Ho  Ho18  1  0.809055  0.190088  0.749852  1
  Ho  Ho19  1  0.688870  0.688779  0.500194  1
  Si  Si20  1  0.327779  0.689767  0.956009  1
  Si  Si21  1  0.671522  0.311519  0.458186  1
  Si  Si22  1  0.690426  0.329454  0.043057  1
  Si  Si23  1  0.310733  0.671012  0.544272  1
  Si  Si24  1  0.811707  0.828255  0.207326  1
  Si  Si25  1  0.172117  0.187972  0.292154  1
  Si  Si26  1  0.830401  0.811176  0.792206  1
  Si  Si27  1  0.286595  0.922127  0.062458  1
  Si  Si28  1  0.578154  0.785254  0.312944  1
  Si  Si29  1  0.428918  0.212641  0.816389  1
  Si  Si30  1  0.787358  0.578722  0.685756  1
  Si  Si31  1  0.213075  0.422854  0.186732  1
  Si  Si32  1  0.709978  0.076063  0.563564  1
  Si  Si33  1  0.923764  0.287853  0.936552  1
  Si  Si34  1  0.077225  0.712351  0.437632  1
  P  P35  1  0.176833  0.178013  0.707034  1
