# generated using pymatgen
data_TbNd2Dy(NiP)4
_symmetry_space_group_name_H-M   'P 1'
_cell_length_a   3.93721500
_cell_length_b   3.93721593
_cell_length_c   15.86780100
_cell_angle_alpha   90.00000000
_cell_angle_beta   90.00000000
_cell_angle_gamma   120.00000055
_symmetry_Int_Tables_number   1
_chemical_formula_structural   TbNd2Dy(NiP)4
_chemical_formula_sum   'Tb1 Nd2 Dy1 Ni4 P4'
_cell_volume   213.02262872
_cell_formula_units_Z   1
loop_
 _symmetry_equiv_pos_site_id
 _symmetry_equiv_pos_as_xyz
  1  'x, y, z'
loop_
 _atom_site_type_symbol
 _atom_site_label
 _atom_site_symmetry_multiplicity
 _atom_site_fract_x
 _atom_site_fract_y
 _atom_site_fract_z
 _atom_site_occupancy
  Tb  Tb0  1  0.000000  0.000000  0.250000  1
  Nd  Nd1  1  0.000000  0.000000  0.500214  1
  Nd  Nd2  1  0.000000  0.000000  0.999786  1
  Dy  Dy3  1  0.000000  0.000000  0.750000  1
  Ni  Ni4  1  0.333333  0.666667  0.368673  1
  Ni  Ni5  1  0.666667  0.333333  0.632219  1
  Ni  Ni6  1  0.666667  0.333333  0.867781  1
  Ni  Ni7  1  0.333333  0.666667  0.131327  1
  P  P8  1  0.333333  0.666667  0.872332  1
  P  P9  1  0.666667  0.333333  0.127299  1
  P  P10  1  0.666667  0.333333  0.372701  1
  P  P11  1  0.333333  0.666667  0.627668  1
