# generated using pymatgen
data_La2Sn2IrRh
_symmetry_space_group_name_H-M   'P 1'
_cell_length_a   7.57319000
_cell_length_b   7.57318920
_cell_length_c   8.47905500
_cell_angle_alpha   90.00000000
_cell_angle_beta   90.00000000
_cell_angle_gamma   120.00000351
_symmetry_Int_Tables_number   1
_chemical_formula_structural   La2Sn2IrRh
_chemical_formula_sum   'La6 Sn6 Ir3 Rh3'
_cell_volume   421.14895571
_cell_formula_units_Z   3
loop_
 _symmetry_equiv_pos_site_id
 _symmetry_equiv_pos_as_xyz
  1  'x, y, z'
loop_
 _atom_site_type_symbol
 _atom_site_label
 _atom_site_symmetry_multiplicity
 _atom_site_fract_x
 _atom_site_fract_y
 _atom_site_fract_z
 _atom_site_occupancy
  La  La0  1  0.585636  0.000453  0.751050  1
  La  La1  1  0.414818  0.414364  0.751050  1
  La  La2  1  0.999547  0.585182  0.751050  1
  La  La3  1  0.585896  0.001132  0.249361  1
  La  La4  1  0.415236  0.414104  0.249361  1
  La  La5  1  0.998868  0.584764  0.249361  1
  Sn  Sn6  1  0.247621  0.999906  0.000424  1
  Sn  Sn7  1  0.752045  0.752887  0.500155  1
  Sn  Sn8  1  0.000841  0.247955  0.500155  1
  Sn  Sn9  1  0.000094  0.247716  0.000424  1
  Sn  Sn10  1  0.752284  0.752379  0.000424  1
  Sn  Sn11  1  0.247113  0.999159  0.500155  1
  Ir  Ir12  1  0.666667  0.333333  0.999005  1
  Ir  Ir13  1  0.666667  0.333333  0.502011  1
  Ir  Ir14  1  0.333333  0.666667  0.000803  1
  Rh  Rh15  1  0.333333  0.666667  0.494517  1
  Rh  Rh16  1  0.000000  0.000000  0.750648  1
  Rh  Rh17  1  0.000000  0.000000  0.250048  1
