# generated using pymatgen
data_SrNd6ReBr12
_symmetry_space_group_name_H-M   'P 1'
_cell_length_a   9.61162298
_cell_length_b   9.61981705
_cell_length_c   9.61573606
_cell_angle_alpha   106.33781961
_cell_angle_beta   106.34203335
_cell_angle_gamma   106.23160933
_symmetry_Int_Tables_number   1
_chemical_formula_structural   SrNd6ReBr12
_chemical_formula_sum   'Sr1 Nd6 Re1 Br12'
_cell_volume   754.06258825
_cell_formula_units_Z   1
loop_
 _symmetry_equiv_pos_site_id
 _symmetry_equiv_pos_as_xyz
  1  'x, y, z'
loop_
 _atom_site_type_symbol
 _atom_site_label
 _atom_site_symmetry_multiplicity
 _atom_site_fract_x
 _atom_site_fract_y
 _atom_site_fract_z
 _atom_site_occupancy
  Sr  Sr0  1  0.500000  0.500000  0.500000  1
  Nd  Nd1  1  0.101693  0.310545  0.020331  1
  Nd  Nd2  1  0.311418  0.020500  0.102439  1
  Nd  Nd3  1  0.020147  0.102460  0.311133  1
  Nd  Nd4  1  0.979852  0.897540  0.688867  1
  Nd  Nd5  1  0.688582  0.979499  0.897560  1
  Nd  Nd6  1  0.898307  0.689455  0.979669  1
  Re  Re7  1  0.000000  0.000000  0.000000  1
  Br  Br8  1  0.219020  0.680985  0.071342  1
  Br  Br9  1  0.447960  0.366906  0.150301  1
  Br  Br10  1  0.680435  0.071223  0.218439  1
  Br  Br11  1  0.928662  0.781626  0.319110  1
  Br  Br12  1  0.150149  0.448218  0.366671  1
  Br  Br13  1  0.366572  0.150007  0.447997  1
  Br  Br14  1  0.633428  0.849993  0.552003  1
  Br  Br15  1  0.849850  0.551782  0.633329  1
  Br  Br16  1  0.071339  0.218375  0.680891  1
  Br  Br17  1  0.319566  0.928778  0.781561  1
  Br  Br18  1  0.552039  0.633093  0.849699  1
  Br  Br19  1  0.780980  0.319016  0.928658  1
