# generated using pymatgen
data_Ta6Al4ReRhC2
_symmetry_space_group_name_H-M   'P 1'
_cell_length_a   8.32176444
_cell_length_b   8.32176518
_cell_length_c   8.27839200
_cell_angle_alpha   60.17226288
_cell_angle_beta   60.17225997
_cell_angle_gamma   60.37813536
_symmetry_Int_Tables_number   1
_chemical_formula_structural   Ta6Al4ReRhC2
_chemical_formula_sum   'Ta12 Al8 Re2 Rh2 C4'
_cell_volume   407.58667838
_cell_formula_units_Z   2
loop_
 _symmetry_equiv_pos_site_id
 _symmetry_equiv_pos_as_xyz
  1  'x, y, z'
loop_
 _atom_site_type_symbol
 _atom_site_label
 _atom_site_symmetry_multiplicity
 _atom_site_fract_x
 _atom_site_fract_y
 _atom_site_fract_z
 _atom_site_occupancy
  Ta  Ta0  1  0.565674  0.940185  0.553591  1
  Ta  Ta1  1  0.309815  0.684326  0.696409  1
  Ta  Ta2  1  0.684326  0.309815  0.309450  1
  Ta  Ta3  1  0.309815  0.684326  0.309450  1
  Ta  Ta4  1  0.694063  0.694063  0.305937  1
  Ta  Ta5  1  0.313115  0.313115  0.686885  1
  Ta  Ta6  1  0.555937  0.555937  0.944063  1
  Ta  Ta7  1  0.940185  0.565674  0.553591  1
  Ta  Ta8  1  0.565674  0.940185  0.940550  1
  Ta  Ta9  1  0.936885  0.936885  0.563115  1
  Ta  Ta10  1  0.684326  0.309815  0.696409  1
  Ta  Ta11  1  0.940185  0.565674  0.940550  1
  Al  Al12  1  0.919731  0.919731  0.911888  1
  Al  Al13  1  0.995482  0.330322  0.337098  1
  Al  Al14  1  0.330322  0.995482  0.337098  1
  Al  Al15  1  0.330269  0.330269  0.001350  1
  Al  Al16  1  0.919678  0.254518  0.912902  1
  Al  Al17  1  0.919731  0.919731  0.248650  1
  Al  Al18  1  0.254518  0.919678  0.912902  1
  Al  Al19  1  0.330269  0.330269  0.338112  1
  Re  Re20  1  0.625000  0.125000  0.125000  1
  Re  Re21  1  0.125000  0.625000  0.125000  1
  Rh  Rh22  1  0.125000  0.125000  0.125000  1
  Rh  Rh23  1  0.125000  0.125000  0.625000  1
  C  C24  1  0.625000  0.625000  0.625000  1
  C  C25  1  0.125000  0.625000  0.625000  1
  C  C26  1  0.625000  0.125000  0.625000  1
  C  C27  1  0.625000  0.625000  0.125000  1
