# generated using pymatgen
data_LiCa2PrCd2Pb3
_symmetry_space_group_name_H-M   'P 1'
_cell_length_a   7.70737006
_cell_length_b   7.69342477
_cell_length_c   4.82900400
_cell_angle_alpha   90.00000000
_cell_angle_beta   90.00000000
_cell_angle_gamma   119.37078686
_symmetry_Int_Tables_number   1
_chemical_formula_structural   LiCa2PrCd2Pb3
_chemical_formula_sum   'Li1 Ca2 Pr1 Cd2 Pb3'
_cell_volume   249.53584293
_cell_formula_units_Z   1
loop_
 _symmetry_equiv_pos_site_id
 _symmetry_equiv_pos_as_xyz
  1  'x, y, z'
loop_
 _atom_site_type_symbol
 _atom_site_label
 _atom_site_symmetry_multiplicity
 _atom_site_fract_x
 _atom_site_fract_y
 _atom_site_fract_z
 _atom_site_occupancy
  Li  Li0  1  0.232941  0.999174  0.000000  1
  Ca  Ca1  1  0.573618  0.999283  0.500000  1
  Ca  Ca2  1  0.434985  0.440616  0.500000  1
  Pr  Pr3  1  0.994788  0.561284  0.500000  1
  Cd  Cd4  1  0.758155  0.756387  0.000000  1
  Cd  Cd5  1  0.000548  0.241716  0.000000  1
  Pb  Pb6  1  0.024666  0.001503  0.500000  1
  Pb  Pb7  1  0.649380  0.319750  0.000000  1
  Pb  Pb8  1  0.330921  0.680289  0.000000  1
