# generated using pymatgen
data_Dy10Tm2Co6Sn
_symmetry_space_group_name_H-M   'P 1'
_cell_length_a   8.35106639
_cell_length_b   8.35106747
_cell_length_c   8.35690426
_cell_angle_alpha   109.47319375
_cell_angle_beta   109.54504871
_cell_angle_gamma   109.36709268
_symmetry_Int_Tables_number   1
_chemical_formula_structural   Dy10Tm2Co6Sn
_chemical_formula_sum   'Dy10 Tm2 Co6 Sn1'
_cell_volume   448.80573884
_cell_formula_units_Z   1
loop_
 _symmetry_equiv_pos_site_id
 _symmetry_equiv_pos_as_xyz
  1  'x, y, z'
loop_
 _atom_site_type_symbol
 _atom_site_label
 _atom_site_symmetry_multiplicity
 _atom_site_fract_x
 _atom_site_fract_y
 _atom_site_fract_z
 _atom_site_occupancy
  Dy  Dy0  1  0.193666  0.696485  0.890151  1
  Dy  Dy1  1  0.806334  0.303515  0.109849  1
  Dy  Dy2  1  0.696269  0.502779  0.805619  1
  Dy  Dy3  1  0.303731  0.497221  0.194381  1
  Dy  Dy4  1  0.697159  0.890650  0.194381  1
  Dy  Dy5  1  0.302841  0.109350  0.805619  1
  Dy  Dy6  1  0.502735  0.805542  0.696467  1
  Dy  Dy7  1  0.497265  0.194458  0.303533  1
  Dy  Dy8  1  0.109075  0.806266  0.303533  1
  Dy  Dy9  1  0.890925  0.193734  0.696467  1
  Tm  Tm10  1  0.806224  0.696089  0.502315  1
  Tm  Tm11  1  0.193776  0.303911  0.497685  1
  Co  Co12  1  0.886793  0.386793  0.500000  1
  Co  Co13  1  0.113207  0.613207  0.500000  1
  Co  Co14  1  0.386340  0.499788  0.886128  1
  Co  Co15  1  0.613660  0.500212  0.113872  1
  Co  Co16  1  0.500166  0.886555  0.386721  1
  Co  Co17  1  0.499834  0.113445  0.613279  1
  Sn  Sn18  1  0.000000  0.000000  0.000000  1
