# generated using pymatgen
data_Zr8Cd3InPd8
_symmetry_space_group_name_H-M   'P 1'
_cell_length_a   7.60831200
_cell_length_b   7.60831200
_cell_length_c   6.77943800
_cell_angle_alpha   90.00000000
_cell_angle_beta   90.00000000
_cell_angle_gamma   90.00000000
_symmetry_Int_Tables_number   1
_chemical_formula_structural   Zr8Cd3InPd8
_chemical_formula_sum   'Zr8 Cd3 In1 Pd8'
_cell_volume   392.43733773
_cell_formula_units_Z   1
loop_
 _symmetry_equiv_pos_site_id
 _symmetry_equiv_pos_as_xyz
  1  'x, y, z'
loop_
 _atom_site_type_symbol
 _atom_site_label
 _atom_site_symmetry_multiplicity
 _atom_site_fract_x
 _atom_site_fract_y
 _atom_site_fract_z
 _atom_site_occupancy
  Zr  Zr0  1  0.183679  0.185068  0.000449  1
  Zr  Zr1  1  0.657755  0.344870  0.000409  1
  Zr  Zr2  1  0.342246  0.655131  0.000409  1
  Zr  Zr3  1  0.816322  0.814933  0.000449  1
  Zr  Zr4  1  0.155131  0.157755  0.499591  1
  Zr  Zr5  1  0.685069  0.316321  0.499551  1
  Zr  Zr6  1  0.314932  0.683680  0.499551  1
  Zr  Zr7  1  0.844870  0.842246  0.499591  1
  Cd  Cd8  1  0.499999  0.000000  0.249999  1
  Cd  Cd9  1  0.000000  0.499999  0.249999  1
  Cd  Cd10  1  0.499999  0.000000  0.749999  1
  In  In11  1  0.000000  0.499999  0.749999  1
  Pd  Pd12  1  0.870647  0.127707  0.221497  1
  Pd  Pd13  1  0.129353  0.872293  0.221497  1
  Pd  Pd14  1  0.372292  0.370646  0.278503  1
  Pd  Pd15  1  0.627708  0.629354  0.278503  1
  Pd  Pd16  1  0.371897  0.371296  0.720832  1
  Pd  Pd17  1  0.628103  0.628704  0.720832  1
  Pd  Pd18  1  0.871297  0.128102  0.779167  1
  Pd  Pd19  1  0.128703  0.871898  0.779167  1
