# generated using pymatgen
data_Cs8Ce3OsBr24
_symmetry_space_group_name_H-M   'P 1'
_cell_length_a   13.96158801
_cell_length_b   13.96158828
_cell_length_c   13.96158900
_cell_angle_alpha   132.11320135
_cell_angle_beta   132.11320789
_cell_angle_gamma   70.05028893
_symmetry_Int_Tables_number   1
_chemical_formula_structural   Cs8Ce3OsBr24
_chemical_formula_sum   'Cs8 Ce3 Os1 Br24'
_cell_volume   1468.22377486
_cell_formula_units_Z   1
loop_
 _symmetry_equiv_pos_site_id
 _symmetry_equiv_pos_as_xyz
  1  'x, y, z'
loop_
 _atom_site_type_symbol
 _atom_site_label
 _atom_site_symmetry_multiplicity
 _atom_site_fract_x
 _atom_site_fract_y
 _atom_site_fract_z
 _atom_site_occupancy
  Cs  Cs0  1  0.369169  0.370616  0.492426  1
  Cs  Cs1  1  0.123266  0.630846  0.001449  1
  Cs  Cs2  1  0.878191  0.876694  0.507535  1
  Cs  Cs3  1  0.124010  0.125308  0.494257  1
  Cs  Cs4  1  0.370232  0.876017  0.001312  1
  Cs  Cs5  1  0.631034  0.629788  0.505768  1
  Cs  Cs6  1  0.629358  0.121765  0.998486  1
  Cs  Cs7  1  0.874722  0.368948  0.998746  1
  Ce  Ce8  1  0.250055  0.750055  0.500009  1
  Ce  Ce9  1  0.499999  0.499997  0.999996  1
  Ce  Ce10  1  0.749950  0.249953  0.499991  1
  Os  Os11  1  0.999996  0.999997  0.999997  1
  Br  Br12  1  0.005466  0.779905  0.283246  1
  Br  Br13  1  0.015658  0.220952  0.236523  1
  Br  Br14  1  0.277794  0.994557  0.774476  1
  Br  Br15  1  0.995008  0.224188  0.720561  1
  Br  Br16  1  0.126868  0.626868  0.500052  1
  Br  Br17  1  0.252304  0.523101  0.776313  1
  Br  Br18  1  0.496658  0.722225  0.716754  1
  Br  Br19  1  0.503653  0.274478  0.279420  1
  Br  Br20  1  0.476909  0.253263  0.729260  1
  Br  Br21  1  0.622323  0.622329  0.999996  1
  Br  Br22  1  0.523997  0.747646  0.270732  1
  Br  Br23  1  0.109951  0.109999  0.999962  1
  Br  Br24  1  0.890047  0.889996  0.000033  1
  Br  Br25  1  0.984364  0.779070  0.763477  1
  Br  Br26  1  0.779104  0.015632  0.794692  1
  Br  Br27  1  0.220870  0.984331  0.205305  1
  Br  Br28  1  0.746771  0.475969  0.223671  1
  Br  Br29  1  0.220107  0.503325  0.225555  1
  Br  Br30  1  0.373141  0.873156  0.500048  1
  Br  Br31  1  0.872993  0.373005  0.499904  1
  Br  Br32  1  0.377672  0.377669  0.999997  1
  Br  Br33  1  0.627042  0.127025  0.500054  1
  Br  Br34  1  0.775709  0.496369  0.770786  1
  Br  Br35  1  0.725610  0.004958  0.229210  1
