# generated using pymatgen
data_Ce4Co8As11PRu12
_symmetry_space_group_name_H-M   'P 1'
_cell_length_a   3.90435200
_cell_length_b   11.07670230
_cell_length_c   12.53259844
_cell_angle_alpha   90.14049275
_cell_angle_beta   90.00000000
_cell_angle_gamma   90.00000000
_symmetry_Int_Tables_number   1
_chemical_formula_structural   Ce4Co8As11PRu12
_chemical_formula_sum   'Ce4 Co8 As11 P1 Ru12'
_cell_volume   541.99997661
_cell_formula_units_Z   1
loop_
 _symmetry_equiv_pos_site_id
 _symmetry_equiv_pos_as_xyz
  1  'x, y, z'
loop_
 _atom_site_type_symbol
 _atom_site_label
 _atom_site_symmetry_multiplicity
 _atom_site_fract_x
 _atom_site_fract_y
 _atom_site_fract_z
 _atom_site_occupancy
  Ce  Ce0  1  0.250000  0.585319  0.704241  1
  Ce  Ce1  1  0.250000  0.919535  0.201848  1
  Ce  Ce2  1  0.750000  0.414214  0.295909  1
  Ce  Ce3  1  0.750000  0.085445  0.796095  1
  Co  Co4  1  0.250000  0.887354  0.696146  1
  Co  Co5  1  0.250000  0.612407  0.195609  1
  Co  Co6  1  0.750000  0.110976  0.297304  1
  Co  Co7  1  0.750000  0.386094  0.804942  1
  Co  Co8  1  0.250000  0.465842  0.933423  1
  Co  Co9  1  0.250000  0.033672  0.431395  1
  Co  Co10  1  0.750000  0.533096  0.067723  1
  Co  Co11  1  0.750000  0.966512  0.566963  1
  As  As12  1  0.250000  0.422088  0.111892  1
  As  As13  1  0.250000  0.076072  0.610796  1
  As  As14  1  0.750000  0.576263  0.889034  1
  As  As15  1  0.750000  0.924110  0.387562  1
  As  As16  1  0.250000  0.274075  0.872196  1
  As  As17  1  0.250000  0.224317  0.369720  1
  As  As18  1  0.750000  0.725891  0.128689  1
  As  As19  1  0.750000  0.775476  0.629428  1
  As  As20  1  0.250000  0.601603  0.386089  1
  As  As21  1  0.250000  0.899563  0.887316  1
  As  As22  1  0.750000  0.398202  0.613786  1
  P  P23  1  0.750000  0.104773  0.111640  1
  Ru  Ru24  1  0.250000  0.708606  0.989908  1
  Ru  Ru25  1  0.250000  0.793334  0.488840  1
  Ru  Ru26  1  0.750000  0.287277  0.014709  1
  Ru  Ru27  1  0.750000  0.206726  0.510146  1
  Ru  Ru28  1  0.250000  0.404957  0.483717  1
  Ru  Ru29  1  0.250000  0.094600  0.988330  1
  Ru  Ru30  1  0.750000  0.594644  0.516182  1
  Ru  Ru31  1  0.750000  0.911301  0.019474  1
  Ru  Ru32  1  0.250000  0.216237  0.175731  1
  Ru  Ru33  1  0.250000  0.278181  0.678534  1
  Ru  Ru34  1  0.750000  0.779918  0.823080  1
  Ru  Ru35  1  0.750000  0.721320  0.321600  1
