# generated using pymatgen
data_Ba3Ho(BO3)3
_symmetry_space_group_name_H-M   'P 1'
_cell_length_a   8.22847144
_cell_length_b   8.22847160
_cell_length_c   8.22847188
_cell_angle_alpha   105.64245301
_cell_angle_beta   105.64245349
_cell_angle_gamma   105.64244802
_symmetry_Int_Tables_number   1
_chemical_formula_structural   Ba3Ho(BO3)3
_chemical_formula_sum   'Ba6 Ho2 B6 O18'
_cell_volume   480.13198621
_cell_formula_units_Z   2
loop_
 _symmetry_equiv_pos_site_id
 _symmetry_equiv_pos_as_xyz
  1  'x, y, z'
loop_
 _atom_site_type_symbol
 _atom_site_label
 _atom_site_symmetry_multiplicity
 _atom_site_fract_x
 _atom_site_fract_y
 _atom_site_fract_z
 _atom_site_occupancy
  Ba  Ba0  1  0.348634  0.734308  0.841061  1
  Ba  Ba1  1  0.841061  0.348634  0.734308  1
  Ba  Ba2  1  0.734308  0.841061  0.348634  1
  Ba  Ba3  1  0.651366  0.265692  0.158939  1
  Ba  Ba4  1  0.158939  0.651366  0.265692  1
  Ba  Ba5  1  0.265692  0.158939  0.651366  1
  Ho  Ho6  1  0.500000  0.500000  0.500000  1
  Ho  Ho7  1  0.000000  0.000000  0.000000  1
  B  B8  1  0.712580  0.624065  0.955828  1
  B  B9  1  0.955828  0.712580  0.624065  1
  B  B10  1  0.624065  0.955828  0.712580  1
  B  B11  1  0.044172  0.287420  0.375935  1
  B  B12  1  0.375935  0.044172  0.287420  1
  B  B13  1  0.287420  0.375935  0.044172  1
  O  O14  1  0.061504  0.806167  0.549425  1
  O  O15  1  0.549425  0.061504  0.806167  1
  O  O16  1  0.425271  0.489438  0.213085  1
  O  O17  1  0.489438  0.213085  0.425271  1
  O  O18  1  0.213085  0.425271  0.489438  1
  O  O19  1  0.786915  0.574729  0.510562  1
  O  O20  1  0.574729  0.510562  0.786915  1
  O  O21  1  0.510562  0.786915  0.574729  1
  O  O22  1  0.252833  0.189639  0.983686  1
  O  O23  1  0.189639  0.983686  0.252833  1
  O  O24  1  0.983686  0.252833  0.189639  1
  O  O25  1  0.747167  0.810361  0.016314  1
  O  O26  1  0.810361  0.016314  0.747167  1
  O  O27  1  0.016314  0.747167  0.810361  1
  O  O28  1  0.193833  0.450575  0.938496  1
  O  O29  1  0.450575  0.938496  0.193833  1
  O  O30  1  0.938496  0.193833  0.450575  1
  O  O31  1  0.806167  0.549425  0.061504  1
