# generated using pymatgen
data_LiLa6PtBr12
_symmetry_space_group_name_H-M   'P 1'
_cell_length_a   9.86267800
_cell_length_b   9.68041687
_cell_length_c   9.83427522
_cell_angle_alpha   107.97261919
_cell_angle_beta   108.19480510
_cell_angle_gamma   108.29828357
_symmetry_Int_Tables_number   1
_chemical_formula_structural   LiLa6PtBr12
_chemical_formula_sum   'Li1 La6 Pt1 Br12'
_cell_volume   755.94707440
_cell_formula_units_Z   1
loop_
 _symmetry_equiv_pos_site_id
 _symmetry_equiv_pos_as_xyz
  1  'x, y, z'
loop_
 _atom_site_type_symbol
 _atom_site_label
 _atom_site_symmetry_multiplicity
 _atom_site_fract_x
 _atom_site_fract_y
 _atom_site_fract_z
 _atom_site_occupancy
  Li  Li0  1  0.500000  0.500000  0.500000  1
  La  La1  1  0.333273  0.130294  0.035658  1
  La  La2  1  0.033858  0.319611  0.120349  1
  La  La3  1  0.127938  0.035382  0.331643  1
  La  La4  1  0.872062  0.964618  0.668358  1
  La  La5  1  0.966142  0.680390  0.879652  1
  La  La6  1  0.666728  0.869706  0.964343  1
  Pt  Pt7  1  0.000000  0.000000  0.000000  1
  Br  Br8  1  0.685394  0.208476  0.066419  1
  Br  Br9  1  0.382071  0.471749  0.185500  1
  Br  Br10  1  0.065590  0.681007  0.208978  1
  Br  Br11  1  0.793939  0.934561  0.316170  1
  Br  Br12  1  0.466327  0.183208  0.380292  1
  Br  Br13  1  0.185462  0.383565  0.467477  1
  Br  Br14  1  0.814538  0.616436  0.532523  1
  Br  Br15  1  0.533673  0.816793  0.619708  1
  Br  Br16  1  0.206062  0.065440  0.683830  1
  Br  Br17  1  0.934410  0.318993  0.791023  1
  Br  Br18  1  0.617930  0.528251  0.814500  1
  Br  Br19  1  0.314607  0.791524  0.933581  1
