# generated using pymatgen
data_Lu10In8HgRh3
_symmetry_space_group_name_H-M   'P 1'
_cell_length_a   3.55400900
_cell_length_b   8.05588920
_cell_length_c   18.12504369
_cell_angle_alpha   89.76824859
_cell_angle_beta   90.00000000
_cell_angle_gamma   90.00000000
_symmetry_Int_Tables_number   1
_chemical_formula_structural   Lu10In8HgRh3
_chemical_formula_sum   'Lu10 In8 Hg1 Rh3'
_cell_volume   518.92849267
_cell_formula_units_Z   1
loop_
 _symmetry_equiv_pos_site_id
 _symmetry_equiv_pos_as_xyz
  1  'x, y, z'
loop_
 _atom_site_type_symbol
 _atom_site_label
 _atom_site_symmetry_multiplicity
 _atom_site_fract_x
 _atom_site_fract_y
 _atom_site_fract_z
 _atom_site_occupancy
  Lu  Lu0  1  0.000000  0.873634  0.074595  1
  Lu  Lu1  1  0.000000  0.731762  0.286524  1
  Lu  Lu2  1  0.000000  0.745313  0.777190  1
  Lu  Lu3  1  0.000000  0.384268  0.417035  1
  Lu  Lu4  1  0.000000  0.114496  0.909735  1
  Lu  Lu5  1  0.000000  0.247303  0.722000  1
  Lu  Lu6  1  0.000000  0.499506  0.997499  1
  Lu  Lu7  1  0.000000  0.283932  0.223378  1
  Lu  Lu8  1  0.000000  0.617962  0.589266  1
  Lu  Lu9  1  0.000000  0.999995  0.502035  1
  In  In10  1  0.500000  0.205866  0.061809  1
  In  In11  1  0.500000  0.426739  0.850653  1
  In  In12  1  0.500000  0.574943  0.147009  1
  In  In13  1  0.500000  0.082660  0.355217  1
  In  In14  1  0.500000  0.929082  0.648994  1
  In  In15  1  0.500000  0.790720  0.928428  1
  In  In16  1  0.500000  0.705550  0.436796  1
  In  In17  1  0.500000  0.294433  0.568341  1
  Hg  Hg18  1  0.500000  0.972948  0.198367  1
  Rh  Rh19  1  0.500000  0.023621  0.802617  1
  Rh  Rh20  1  0.500000  0.523342  0.695991  1
  Rh  Rh21  1  0.500000  0.471927  0.306521  1
