# generated using pymatgen
data_Tm5Co19(SiP3)3
_symmetry_space_group_name_H-M   'P 1'
_cell_length_a   11.97712600
_cell_length_b   11.97712567
_cell_length_c   3.65757200
_cell_angle_alpha   90.00000000
_cell_angle_beta   90.00000000
_cell_angle_gamma   120.00000091
_symmetry_Int_Tables_number   1
_chemical_formula_structural   Tm5Co19(SiP3)3
_chemical_formula_sum   'Tm5 Co19 Si3 P9'
_cell_volume   454.38997020
_cell_formula_units_Z   1
loop_
 _symmetry_equiv_pos_site_id
 _symmetry_equiv_pos_as_xyz
  1  'x, y, z'
loop_
 _atom_site_type_symbol
 _atom_site_label
 _atom_site_symmetry_multiplicity
 _atom_site_fract_x
 _atom_site_fract_y
 _atom_site_fract_z
 _atom_site_occupancy
  Tm  Tm0  1  0.666667  0.333333  0.000000  1
  Tm  Tm1  1  0.333333  0.666667  0.000000  1
  Tm  Tm2  1  0.184363  0.184363  0.500000  1
  Tm  Tm3  1  0.815637  0.000000  0.500000  1
  Tm  Tm4  1  0.000000  0.815637  0.500000  1
  Co  Co5  1  0.824749  0.202182  0.000000  1
  Co  Co6  1  0.797818  0.622565  0.000000  1
  Co  Co7  1  0.377435  0.175251  0.000000  1
  Co  Co8  1  0.202182  0.824749  0.000000  1
  Co  Co9  1  0.622565  0.797818  0.000000  1
  Co  Co10  1  0.175251  0.377435  0.000000  1
  Co  Co11  1  0.556081  0.556081  0.000000  1
  Co  Co12  1  0.443919  0.000000  0.000000  1
  Co  Co13  1  0.000000  0.443919  0.000000  1
  Co  Co14  1  0.642428  0.127746  0.500000  1
  Co  Co15  1  0.872254  0.514683  0.500000  1
  Co  Co16  1  0.485317  0.357572  0.500000  1
  Co  Co17  1  0.127746  0.642428  0.500000  1
  Co  Co18  1  0.514683  0.872254  0.500000  1
  Co  Co19  1  0.357572  0.485317  0.500000  1
  Co  Co20  1  0.715854  0.715854  0.500000  1
  Co  Co21  1  0.284146  0.000000  0.500000  1
  Co  Co22  1  0.000000  0.284146  0.500000  1
  Co  Co23  1  0.000000  0.000000  0.000000  1
  Si  Si24  1  0.367895  0.367895  0.000000  1
  Si  Si25  1  0.632105  0.000000  0.000000  1
  Si  Si26  1  0.000000  0.632105  0.000000  1
  P  P27  1  0.833955  0.314600  0.500000  1
  P  P28  1  0.685400  0.519355  0.500000  1
  P  P29  1  0.480645  0.166045  0.500000  1
  P  P30  1  0.314600  0.833955  0.500000  1
  P  P31  1  0.519355  0.685400  0.500000  1
  P  P32  1  0.166045  0.480645  0.500000  1
  P  P33  1  0.819021  0.819021  0.000000  1
  P  P34  1  0.180979  0.000000  0.000000  1
  P  P35  1  0.000000  0.180979  0.000000  1
