# generated using pymatgen
data_LiSm6Cd22Ge
_symmetry_space_group_name_H-M   'P 1'
_cell_length_a   9.98358145
_cell_length_b   9.98358128
_cell_length_c   9.98358100
_cell_angle_alpha   59.99999762
_cell_angle_beta   59.99999818
_cell_angle_gamma   60.00000205
_symmetry_Int_Tables_number   1
_chemical_formula_structural   LiSm6Cd22Ge
_chemical_formula_sum   'Li1 Sm6 Cd22 Ge1'
_cell_volume   703.62954131
_cell_formula_units_Z   1
loop_
 _symmetry_equiv_pos_site_id
 _symmetry_equiv_pos_as_xyz
  1  'x, y, z'
loop_
 _atom_site_type_symbol
 _atom_site_label
 _atom_site_symmetry_multiplicity
 _atom_site_fract_x
 _atom_site_fract_y
 _atom_site_fract_z
 _atom_site_occupancy
  Li  Li0  1  0.500000  0.500000  0.500000  1
  Sm  Sm1  1  0.793673  0.793673  0.206327  1
  Sm  Sm2  1  0.206327  0.793673  0.206327  1
  Sm  Sm3  1  0.793673  0.206327  0.206327  1
  Sm  Sm4  1  0.206327  0.206327  0.793673  1
  Sm  Sm5  1  0.793673  0.206327  0.793673  1
  Sm  Sm6  1  0.206327  0.793673  0.793673  1
  Cd  Cd7  1  0.834407  0.834407  0.496782  1
  Cd  Cd8  1  0.834407  0.496782  0.834407  1
  Cd  Cd9  1  0.496782  0.834407  0.834407  1
  Cd  Cd10  1  0.834407  0.834407  0.834407  1
  Cd  Cd11  1  0.165593  0.165593  0.503218  1
  Cd  Cd12  1  0.165593  0.503218  0.165593  1
  Cd  Cd13  1  0.503218  0.165593  0.165593  1
  Cd  Cd14  1  0.165593  0.165593  0.165593  1
  Cd  Cd15  1  0.616818  0.616818  0.149549  1
  Cd  Cd16  1  0.616818  0.149549  0.616818  1
  Cd  Cd17  1  0.149549  0.616818  0.616818  1
  Cd  Cd18  1  0.616818  0.616818  0.616818  1
  Cd  Cd19  1  0.383182  0.383182  0.850451  1
  Cd  Cd20  1  0.383182  0.850451  0.383182  1
  Cd  Cd21  1  0.850451  0.383182  0.383182  1
  Cd  Cd22  1  0.383182  0.383182  0.383182  1
  Cd  Cd23  1  0.000000  0.000000  0.500000  1
  Cd  Cd24  1  0.500000  0.000000  0.500000  1
  Cd  Cd25  1  0.000000  0.500000  0.500000  1
  Cd  Cd26  1  0.500000  0.500000  0.000000  1
  Cd  Cd27  1  0.000000  0.500000  0.000000  1
  Cd  Cd28  1  0.500000  0.000000  0.000000  1
  Ge  Ge29  1  0.000000  0.000000  0.000000  1
