# generated using pymatgen
data_TbYb(Ga2Ag)2
_symmetry_space_group_name_H-M   'P 1'
_cell_length_a   4.36447600
_cell_length_b   6.98129410
_cell_length_c   10.33179269
_cell_angle_alpha   89.34598000
_cell_angle_beta   90.00000000
_cell_angle_gamma   90.00000000
_symmetry_Int_Tables_number   1
_chemical_formula_structural   TbYb(Ga2Ag)2
_chemical_formula_sum   'Tb2 Yb2 Ga8 Ag4'
_cell_volume   314.78601710
_cell_formula_units_Z   2
loop_
 _symmetry_equiv_pos_site_id
 _symmetry_equiv_pos_as_xyz
  1  'x, y, z'
loop_
 _atom_site_type_symbol
 _atom_site_label
 _atom_site_symmetry_multiplicity
 _atom_site_fract_x
 _atom_site_fract_y
 _atom_site_fract_z
 _atom_site_occupancy
  Tb  Tb0  1  0.750000  0.720808  0.328674  1
  Tb  Tb1  1  0.250000  0.279192  0.671326  1
  Yb  Yb2  1  0.250000  0.777924  0.828833  1
  Yb  Yb3  1  0.750000  0.222076  0.171167  1
  Ga  Ga4  1  0.250000  0.928210  0.152436  1
  Ga  Ga5  1  0.750000  0.071790  0.847564  1
  Ga  Ga6  1  0.750000  0.573917  0.651870  1
  Ga  Ga7  1  0.250000  0.426083  0.348130  1
  Ga  Ga8  1  0.250000  0.703497  0.536680  1
  Ga  Ga9  1  0.750000  0.296503  0.463320  1
  Ga  Ga10  1  0.750000  0.798486  0.034964  1
  Ga  Ga11  1  0.250000  0.201514  0.965036  1
  Ag  Ag12  1  0.250000  0.541788  0.097361  1
  Ag  Ag13  1  0.750000  0.458212  0.902639  1
  Ag  Ag14  1  0.750000  0.956263  0.598192  1
  Ag  Ag15  1  0.250000  0.043737  0.401808  1
