# generated using pymatgen
data_Ti12CuSn5Sb4
_symmetry_space_group_name_H-M   'P 1'
_cell_length_a   9.24461220
_cell_length_b   9.17725193
_cell_length_c   5.61550212
_cell_angle_alpha   90.00000213
_cell_angle_beta   90.02100518
_cell_angle_gamma   119.75926084
_symmetry_Int_Tables_number   1
_chemical_formula_structural   Ti12CuSn5Sb4
_chemical_formula_sum   'Ti12 Cu1 Sn5 Sb4'
_cell_volume   413.58899039
_cell_formula_units_Z   1
loop_
 _symmetry_equiv_pos_site_id
 _symmetry_equiv_pos_as_xyz
  1  'x, y, z'
loop_
 _atom_site_type_symbol
 _atom_site_label
 _atom_site_symmetry_multiplicity
 _atom_site_fract_x
 _atom_site_fract_y
 _atom_site_fract_z
 _atom_site_occupancy
  Ti  Ti0  1  0.842894  0.692236  0.747070  1
  Ti  Ti1  1  0.157106  0.849342  0.252930  1
  Ti  Ti2  1  0.692802  0.848580  0.252137  1
  Ti  Ti3  1  0.307198  0.155777  0.747863  1
  Ti  Ti4  1  0.849224  0.149874  0.747840  1
  Ti  Ti5  1  0.150776  0.300650  0.252160  1
  Ti  Ti6  1  0.501267  0.001899  0.499554  1
  Ti  Ti7  1  0.498342  0.500347  0.999464  1
  Ti  Ti8  1  0.000000  0.498017  0.000000  1
  Ti  Ti9  1  0.000000  0.498963  0.500000  1
  Ti  Ti10  1  0.501658  0.002003  0.000536  1
  Ti  Ti11  1  0.498733  0.500633  0.500446  1
  Cu  Cu12  1  0.000000  0.993185  0.500000  1
  Sn  Sn13  1  0.198286  0.802058  0.749167  1
  Sn  Sn14  1  0.801714  0.603773  0.250833  1
  Sn  Sn15  1  0.668656  0.335784  0.750988  1
  Sn  Sn16  1  0.331344  0.667128  0.249012  1
  Sn  Sn17  1  0.000000  0.995132  0.000000  1
  Sb  Sb18  1  0.198085  0.399164  0.748284  1
  Sb  Sb19  1  0.801915  0.201079  0.251716  1
  Sb  Sb20  1  0.400829  0.202604  0.251588  1
  Sb  Sb21  1  0.599171  0.801775  0.748412  1
