# generated using pymatgen
data_Ho5Lu11(Ga3Co)2
_symmetry_space_group_name_H-M   'P 1'
_cell_length_a   9.81996900
_cell_length_b   9.81996908
_cell_length_c   6.84732900
_cell_angle_alpha   90.00000000
_cell_angle_beta   90.00000000
_cell_angle_gamma   119.99999636
_symmetry_Int_Tables_number   1
_chemical_formula_structural   Ho5Lu11(Ga3Co)2
_chemical_formula_sum   'Ho5 Lu11 Ga6 Co2'
_cell_volume   571.83677310
_cell_formula_units_Z   1
loop_
 _symmetry_equiv_pos_site_id
 _symmetry_equiv_pos_as_xyz
  1  'x, y, z'
loop_
 _atom_site_type_symbol
 _atom_site_label
 _atom_site_symmetry_multiplicity
 _atom_site_fract_x
 _atom_site_fract_y
 _atom_site_fract_z
 _atom_site_occupancy
  Ho  Ho0  1  0.534992  0.465008  0.707859  1
  Ho  Ho1  1  0.930016  0.465008  0.707859  1
  Ho  Ho2  1  0.534992  0.069984  0.707859  1
  Ho  Ho3  1  0.000000  0.000000  0.230375  1
  Ho  Ho4  1  0.000000  0.000000  0.730554  1
  Lu  Lu5  1  0.174338  0.825662  0.509164  1
  Lu  Lu6  1  0.651322  0.825662  0.509164  1
  Lu  Lu7  1  0.174338  0.348678  0.509164  1
  Lu  Lu8  1  0.825933  0.174067  0.012929  1
  Lu  Lu9  1  0.348135  0.174067  0.012929  1
  Lu  Lu10  1  0.825933  0.651865  0.012929  1
  Lu  Lu11  1  0.333333  0.666667  0.828382  1
  Lu  Lu12  1  0.666667  0.333333  0.326920  1
  Lu  Lu13  1  0.463509  0.536491  0.207401  1
  Lu  Lu14  1  0.072980  0.536491  0.207401  1
  Lu  Lu15  1  0.463509  0.927020  0.207401  1
  Ga  Ga16  1  0.163945  0.836055  0.960519  1
  Ga  Ga17  1  0.672110  0.836055  0.960519  1
  Ga  Ga18  1  0.163945  0.327890  0.960519  1
  Ga  Ga19  1  0.836311  0.163689  0.458834  1
  Ga  Ga20  1  0.327378  0.163689  0.458834  1
  Ga  Ga21  1  0.836311  0.672622  0.458834  1
  Co  Co22  1  0.333333  0.666667  0.442765  1
  Co  Co23  1  0.666667  0.333333  0.944930  1
