# generated using pymatgen
data_ErTmThFe9
_symmetry_space_group_name_H-M   'P 1'
_cell_length_a   8.67916870
_cell_length_b   8.67916840
_cell_length_c   8.67916887
_cell_angle_alpha   34.05625382
_cell_angle_beta   34.05625962
_cell_angle_gamma   34.05625040
_symmetry_Int_Tables_number   1
_chemical_formula_structural   ErTmThFe9
_chemical_formula_sum   'Er1 Tm1 Th1 Fe9'
_cell_volume   182.77734942
_cell_formula_units_Z   1
loop_
 _symmetry_equiv_pos_site_id
 _symmetry_equiv_pos_as_xyz
  1  'x, y, z'
loop_
 _atom_site_type_symbol
 _atom_site_label
 _atom_site_symmetry_multiplicity
 _atom_site_fract_x
 _atom_site_fract_y
 _atom_site_fract_z
 _atom_site_occupancy
  Er  Er0  1  0.857208  0.857208  0.857208  1
  Tm  Tm1  1  0.142672  0.142672  0.142672  1
  Th  Th2  1  0.000101  0.000101  0.000101  1
  Fe  Fe3  1  0.416889  0.416889  0.916467  1
  Fe  Fe4  1  0.916467  0.416889  0.416889  1
  Fe  Fe5  1  0.583065  0.083720  0.583065  1
  Fe  Fe6  1  0.583065  0.583065  0.083720  1
  Fe  Fe7  1  0.416889  0.916467  0.416889  1
  Fe  Fe8  1  0.083720  0.583065  0.583065  1
  Fe  Fe9  1  0.332550  0.332550  0.332550  1
  Fe  Fe10  1  0.667433  0.667433  0.667433  1
  Fe  Fe11  1  0.499942  0.499942  0.499942  1
