# generated using pymatgen
data_Tb4Y6Si5Pb
_symmetry_space_group_name_H-M   'P 1'
_cell_length_a   8.56098900
_cell_length_b   8.60031028
_cell_length_c   6.46239400
_cell_angle_alpha   90.00000000
_cell_angle_beta   90.00000000
_cell_angle_gamma   119.84886797
_symmetry_Int_Tables_number   1
_chemical_formula_structural   Tb4Y6Si5Pb
_chemical_formula_sum   'Tb4 Y6 Si5 Pb1'
_cell_volume   412.68767686
_cell_formula_units_Z   1
loop_
 _symmetry_equiv_pos_site_id
 _symmetry_equiv_pos_as_xyz
  1  'x, y, z'
loop_
 _atom_site_type_symbol
 _atom_site_label
 _atom_site_symmetry_multiplicity
 _atom_site_fract_x
 _atom_site_fract_y
 _atom_site_fract_z
 _atom_site_occupancy
  Tb  Tb0  1  0.331060  0.655893  0.496178  1
  Tb  Tb1  1  0.675169  0.344107  0.003822  1
  Tb  Tb2  1  0.675169  0.344107  0.496178  1
  Tb  Tb3  1  0.331060  0.655893  0.003822  1
  Y  Y4  1  0.987876  0.746810  0.750000  1
  Y  Y5  1  0.998028  0.242708  0.250000  1
  Y  Y6  1  0.755321  0.757292  0.250000  1
  Y  Y7  1  0.766693  0.000000  0.750000  1
  Y  Y8  1  0.241066  0.253190  0.750000  1
  Y  Y9  1  0.241031  0.000000  0.250000  1
  Si  Si10  1  0.393061  0.391287  0.250000  1
  Si  Si11  1  0.001773  0.608713  0.250000  1
  Si  Si12  1  0.998131  0.394010  0.750000  1
  Si  Si13  1  0.604121  0.605990  0.750000  1
  Si  Si14  1  0.606074  0.000000  0.250000  1
  Pb  Pb15  1  0.394367  0.000000  0.750000  1
