# generated using pymatgen
data_TbNd3Mn4Al4O20
_symmetry_space_group_name_H-M   'P 1'
_cell_length_a   5.71771600
_cell_length_b   7.43063725
_cell_length_c   8.55449600
_cell_angle_alpha   89.87677161
_cell_angle_beta   90.00000000
_cell_angle_gamma   90.00000000
_symmetry_Int_Tables_number   1
_chemical_formula_structural   TbNd3Mn4Al4O20
_chemical_formula_sum   'Tb1 Nd3 Mn4 Al4 O20'
_cell_volume   363.44781607
_cell_formula_units_Z   1
loop_
 _symmetry_equiv_pos_site_id
 _symmetry_equiv_pos_as_xyz
  1  'x, y, z'
loop_
 _atom_site_type_symbol
 _atom_site_label
 _atom_site_symmetry_multiplicity
 _atom_site_fract_x
 _atom_site_fract_y
 _atom_site_fract_z
 _atom_site_occupancy
  Tb  Tb0  1  0.000000  0.135851  0.170138  1
  Nd  Nd1  1  0.000000  0.364216  0.670007  1
  Nd  Nd2  1  0.000000  0.634800  0.329817  1
  Nd  Nd3  1  0.000000  0.866305  0.831498  1
  Mn  Mn4  1  0.256288  0.497845  0.000698  1
  Mn  Mn5  1  0.744003  0.000728  0.498489  1
  Mn  Mn6  1  0.743712  0.497845  0.000698  1
  Mn  Mn7  1  0.255997  0.000728  0.498489  1
  Al  Al8  1  0.500000  0.109136  0.860594  1
  Al  Al9  1  0.500000  0.895519  0.141140  1
  Al  Al10  1  0.500000  0.607737  0.639963  1
  Al  Al11  1  0.500000  0.390126  0.358445  1
  O  O12  1  0.254091  0.904455  0.288403  1
  O  O13  1  0.257629  0.099738  0.710213  1
  O  O14  1  0.744953  0.392669  0.209427  1
  O  O15  1  0.742728  0.599721  0.790243  1
  O  O16  1  0.742371  0.099738  0.710213  1
  O  O17  1  0.745909  0.904455  0.288403  1
  O  O18  1  0.257272  0.599721  0.790243  1
  O  O19  1  0.255047  0.392669  0.209427  1
  O  O20  1  0.500000  0.341334  0.931077  1
  O  O21  1  0.500000  0.659351  0.071539  1
  O  O22  1  0.500000  0.840162  0.566365  1
  O  O23  1  0.500000  0.159481  0.432750  1
  O  O24  1  0.283288  0.004743  0.002882  1
  O  O25  1  0.713921  0.500107  0.498891  1
  O  O26  1  0.716712  0.004743  0.002882  1
  O  O27  1  0.286079  0.500107  0.498891  1
  O  O28  1  0.000000  0.158687  0.442711  1
  O  O29  1  0.000000  0.842639  0.552536  1
  O  O30  1  0.000000  0.656128  0.053021  1
  O  O31  1  0.000000  0.338515  0.949907  1
