# generated using pymatgen
data_Dy3Ho2Co16(TcP4)3
_symmetry_space_group_name_H-M   'P 1'
_cell_length_a   12.02169813
_cell_length_b   12.02169834
_cell_length_c   3.70719700
_cell_angle_alpha   90.00000000
_cell_angle_beta   90.00000000
_cell_angle_gamma   120.01666249
_symmetry_Int_Tables_number   1
_chemical_formula_structural   Dy3Ho2Co16(TcP4)3
_chemical_formula_sum   'Dy3 Ho2 Co16 Tc3 P12'
_cell_volume   463.91134937
_cell_formula_units_Z   1
loop_
 _symmetry_equiv_pos_site_id
 _symmetry_equiv_pos_as_xyz
  1  'x, y, z'
loop_
 _atom_site_type_symbol
 _atom_site_label
 _atom_site_symmetry_multiplicity
 _atom_site_fract_x
 _atom_site_fract_y
 _atom_site_fract_z
 _atom_site_occupancy
  Dy  Dy0  1  0.666682  0.333364  0.000000  1
  Dy  Dy1  1  0.333364  0.666682  0.000000  1
  Dy  Dy2  1  0.815297  0.815297  0.500000  1
  Ho  Ho3  1  0.184833  0.999967  0.500000  1
  Ho  Ho4  1  0.999967  0.184833  0.500000  1
  Co  Co5  1  0.874087  0.356680  0.500000  1
  Co  Co6  1  0.643212  0.517248  0.500000  1
  Co  Co7  1  0.482469  0.125960  0.500000  1
  Co  Co8  1  0.356680  0.874087  0.500000  1
  Co  Co9  1  0.517248  0.643212  0.500000  1
  Co  Co10  1  0.125960  0.482469  0.500000  1
  Co  Co11  1  0.803398  0.179063  0.000000  1
  Co  Co12  1  0.821232  0.624249  0.000000  1
  Co  Co13  1  0.375373  0.196528  0.000000  1
  Co  Co14  1  0.179063  0.803398  0.000000  1
  Co  Co15  1  0.624249  0.821232  0.000000  1
  Co  Co16  1  0.196528  0.375373  0.000000  1
  Co  Co17  1  0.281813  0.281813  0.500000  1
  Co  Co18  1  0.718066  0.000288  0.500000  1
  Co  Co19  1  0.000288  0.718066  0.500000  1
  Co  Co20  1  0.000198  0.000198  0.000000  1
  Tc  Tc21  1  0.445314  0.445314  0.000000  1
  Tc  Tc22  1  0.554458  0.000195  0.000000  1
  Tc  Tc23  1  0.000195  0.554458  0.000000  1
  P  P24  1  0.686030  0.164976  0.500000  1
  P  P25  1  0.835199  0.521267  0.500000  1
  P  P26  1  0.478708  0.313846  0.500000  1
  P  P27  1  0.164976  0.686030  0.500000  1
  P  P28  1  0.521267  0.835199  0.500000  1
  P  P29  1  0.313846  0.478708  0.500000  1
  P  P30  1  0.178540  0.178540  0.000000  1
  P  P31  1  0.821477  0.000417  0.000000  1
  P  P32  1  0.000417  0.821477  0.000000  1
  P  P33  1  0.636882  0.636882  0.000000  1
  P  P34  1  0.362724  0.999959  0.000000  1
  P  P35  1  0.999959  0.362724  0.000000  1
