# generated using pymatgen
data_K6Be2O5
_symmetry_space_group_name_H-M   'P 1'
_cell_length_a   6.31188200
_cell_length_b   6.31188200
_cell_length_c   11.49799700
_cell_angle_alpha   90.00000000
_cell_angle_beta   90.00000000
_cell_angle_gamma   90.00000000
_symmetry_Int_Tables_number   1
_chemical_formula_structural   K6Be2O5
_chemical_formula_sum   'K12 Be4 O10'
_cell_volume   458.07852616
_cell_formula_units_Z   2
loop_
 _symmetry_equiv_pos_site_id
 _symmetry_equiv_pos_as_xyz
  1  'x, y, z'
loop_
 _atom_site_type_symbol
 _atom_site_label
 _atom_site_symmetry_multiplicity
 _atom_site_fract_x
 _atom_site_fract_y
 _atom_site_fract_z
 _atom_site_occupancy
  K  K0  1  0.328523  0.328523  0.000000  1
  K  K1  1  0.671478  0.671478  0.000000  1
  K  K2  1  0.828523  0.171476  0.500000  1
  K  K3  1  0.171476  0.828523  0.500000  1
  K  K4  1  0.000000  0.000000  0.224148  1
  K  K5  1  0.500000  0.000000  0.250000  1
  K  K6  1  0.000000  0.500000  0.250000  1
  K  K7  1  0.500000  0.500000  0.275852  1
  K  K8  1  0.500000  0.500000  0.724147  1
  K  K9  1  0.500000  0.000000  0.750000  1
  K  K10  1  0.000000  0.500000  0.750000  1
  K  K11  1  0.000000  0.000000  0.775852  1
  Be  Be12  1  0.816238  0.183763  0.000000  1
  Be  Be13  1  0.183763  0.816238  0.000000  1
  Be  Be14  1  0.316238  0.316238  0.500000  1
  Be  Be15  1  0.683763  0.683763  0.500000  1
  O  O16  1  0.000000  0.000000  0.000000  1
  O  O17  1  0.728522  0.271478  0.118949  1
  O  O18  1  0.271478  0.728522  0.118949  1
  O  O19  1  0.228522  0.228522  0.381051  1
  O  O20  1  0.771479  0.771479  0.381051  1
  O  O21  1  0.500000  0.500000  0.500000  1
  O  O22  1  0.228522  0.228522  0.618950  1
  O  O23  1  0.771479  0.771479  0.618950  1
  O  O24  1  0.728522  0.271478  0.881050  1
  O  O25  1  0.271478  0.728522  0.881050  1
