# generated using pymatgen
data_Er8Cd2SnHgAu8
_symmetry_space_group_name_H-M   'P 1'
_cell_length_a   7.96922400
_cell_length_b   7.96922400
_cell_length_c   7.30750100
_cell_angle_alpha   90.00000000
_cell_angle_beta   90.00000000
_cell_angle_gamma   90.00000000
_symmetry_Int_Tables_number   1
_chemical_formula_structural   Er8Cd2SnHgAu8
_chemical_formula_sum   'Er8 Cd2 Sn1 Hg1 Au8'
_cell_volume   464.08865498
_cell_formula_units_Z   1
loop_
 _symmetry_equiv_pos_site_id
 _symmetry_equiv_pos_as_xyz
  1  'x, y, z'
loop_
 _atom_site_type_symbol
 _atom_site_label
 _atom_site_symmetry_multiplicity
 _atom_site_fract_x
 _atom_site_fract_y
 _atom_site_fract_z
 _atom_site_occupancy
  Er  Er0  1  0.180190  0.182131  0.999263  1
  Er  Er1  1  0.317869  0.680190  0.500737  1
  Er  Er2  1  0.682131  0.319810  0.500737  1
  Er  Er3  1  0.819810  0.817869  0.999263  1
  Er  Er4  1  0.339369  0.659369  0.000250  1
  Er  Er5  1  0.660631  0.340631  0.000250  1
  Er  Er6  1  0.840631  0.839369  0.499750  1
  Er  Er7  1  0.159369  0.160631  0.499750  1
  Cd  Cd8  1  0.500000  0.000000  0.250000  1
  Cd  Cd9  1  0.000000  0.500000  0.250000  1
  Sn  Sn10  1  0.500000  0.000000  0.750000  1
  Hg  Hg11  1  0.000000  0.500000  0.750000  1
  Au  Au12  1  0.127705  0.871456  0.771575  1
  Au  Au13  1  0.871595  0.128873  0.229148  1
  Au  Au14  1  0.371127  0.371595  0.270852  1
  Au  Au15  1  0.628544  0.627705  0.728425  1
  Au  Au16  1  0.628873  0.628405  0.270852  1
  Au  Au17  1  0.872295  0.128544  0.771575  1
  Au  Au18  1  0.371456  0.372295  0.728425  1
  Au  Au19  1  0.128405  0.871127  0.229148  1
