# generated using pymatgen
data_Tb9Pr(Si2Hg)2
_symmetry_space_group_name_H-M   'P 1'
_cell_length_a   7.59011002
_cell_length_b   7.59010888
_cell_length_c   9.01170793
_cell_angle_alpha   114.86697713
_cell_angle_beta   114.86696923
_cell_angle_gamma   90.14873446
_symmetry_Int_Tables_number   1
_chemical_formula_structural   Tb9Pr(Si2Hg)2
_chemical_formula_sum   'Tb9 Pr1 Si4 Hg2'
_cell_volume   417.08256546
_cell_formula_units_Z   1
loop_
 _symmetry_equiv_pos_site_id
 _symmetry_equiv_pos_as_xyz
  1  'x, y, z'
loop_
 _atom_site_type_symbol
 _atom_site_label
 _atom_site_symmetry_multiplicity
 _atom_site_fract_x
 _atom_site_fract_y
 _atom_site_fract_z
 _atom_site_occupancy
  Tb  Tb0  1  0.500883  0.499897  0.001098  1
  Tb  Tb1  1  0.999897  0.000883  0.001098  1
  Tb  Tb2  1  0.964486  0.814256  0.278971  1
  Tb  Tb3  1  0.314256  0.464486  0.278971  1
  Tb  Tb4  1  0.811858  0.311858  0.278584  1
  Tb  Tb5  1  0.464502  0.964502  0.276872  1
  Tb  Tb6  1  0.034370  0.188413  0.722290  1
  Tb  Tb7  1  0.688413  0.534370  0.722290  1
  Tb  Tb8  1  0.186029  0.686029  0.722113  1
  Pr  Pr9  1  0.532819  0.032819  0.714880  1
  Si  Si10  1  0.621755  0.877367  0.002712  1
  Si  Si11  1  0.377367  0.121755  0.002712  1
  Si  Si12  1  0.882440  0.382440  0.003551  1
  Si  Si13  1  0.122149  0.622149  0.000968  1
  Hg  Hg14  1  0.752685  0.746092  0.496445  1
  Hg  Hg15  1  0.246092  0.252685  0.496445  1
