# generated using pymatgen
data_Cs6NdSmBr12
_symmetry_space_group_name_H-M   'P 1'
_cell_length_a   10.11156928
_cell_length_b   10.10886245
_cell_length_c   8.41072600
_cell_angle_alpha   90.00000000
_cell_angle_beta   90.00000000
_cell_angle_gamma   90.01856899
_symmetry_Int_Tables_number   1
_chemical_formula_structural   Cs6NdSmBr12
_chemical_formula_sum   'Cs6 Nd1 Sm1 Br12'
_cell_volume   859.71461754
_cell_formula_units_Z   1
loop_
 _symmetry_equiv_pos_site_id
 _symmetry_equiv_pos_as_xyz
  1  'x, y, z'
loop_
 _atom_site_type_symbol
 _atom_site_label
 _atom_site_symmetry_multiplicity
 _atom_site_fract_x
 _atom_site_fract_y
 _atom_site_fract_z
 _atom_site_occupancy
  Cs  Cs0  1  0.000000  0.000000  0.500000  1
  Cs  Cs1  1  0.000000  0.000000  0.000000  1
  Cs  Cs2  1  0.234080  0.584844  0.500000  1
  Cs  Cs3  1  0.765920  0.415156  0.500000  1
  Cs  Cs4  1  0.414804  0.235715  0.000000  1
  Cs  Cs5  1  0.585196  0.764285  0.000000  1
  Nd  Nd6  1  0.500000  0.000000  0.500000  1
  Sm  Sm7  1  0.000000  0.500000  0.000000  1
  Br  Br8  1  0.696066  0.059147  0.744651  1
  Br  Br9  1  0.303934  0.940853  0.744651  1
  Br  Br10  1  0.941751  0.694110  0.242407  1
  Br  Br11  1  0.058249  0.305890  0.242407  1
  Br  Br12  1  0.303934  0.940853  0.255349  1
  Br  Br13  1  0.696066  0.059147  0.255349  1
  Br  Br14  1  0.058249  0.305890  0.757593  1
  Br  Br15  1  0.941751  0.694110  0.757593  1
  Br  Br16  1  0.569970  0.722586  0.500000  1
  Br  Br17  1  0.430030  0.277414  0.500000  1
  Br  Br18  1  0.274441  0.569477  0.000000  1
  Br  Br19  1  0.725559  0.430523  0.000000  1
