# generated using pymatgen
data_K2Sr3Br8
_symmetry_space_group_name_H-M   'P 1'
_cell_length_a   9.47086432
_cell_length_b   9.51989208
_cell_length_c   9.07868000
_cell_angle_alpha   90.28857781
_cell_angle_beta   118.08235825
_cell_angle_gamma   122.90522860
_symmetry_Int_Tables_number   1
_chemical_formula_structural   K2Sr3Br8
_chemical_formula_sum   'K2 Sr3 Br8'
_cell_volume   567.50880251
_cell_formula_units_Z   1
loop_
 _symmetry_equiv_pos_site_id
 _symmetry_equiv_pos_as_xyz
  1  'x, y, z'
loop_
 _atom_site_type_symbol
 _atom_site_label
 _atom_site_symmetry_multiplicity
 _atom_site_fract_x
 _atom_site_fract_y
 _atom_site_fract_z
 _atom_site_occupancy
  K  K0  1  0.891280  0.411021  0.442274  1
  K  K1  1  0.508560  0.100403  0.749577  1
  Sr  Sr2  1  0.200115  0.256273  0.096794  1
  Sr  Sr3  1  0.700247  0.756064  0.097430  1
  Sr  Sr4  1  0.700962  0.756007  0.598037  1
  Br  Br5  1  0.526886  0.361636  0.027023  1
  Br  Br6  1  0.410568  0.687828  0.704284  1
  Br  Br7  1  0.004592  0.854687  0.998095  1
  Br  Br8  1  0.523633  0.360135  0.490715  1
  Br  Br9  1  0.397152  0.658348  0.198294  1
  Br  Br10  1  0.990260  0.823979  0.490352  1
  Br  Br11  1  0.877118  0.151523  0.702441  1
  Br  Br12  1  0.873317  0.150305  0.166627  1
