# generated using pymatgen
data_YTm2P4Pd7
_symmetry_space_group_name_H-M   'P 1'
_cell_length_a   7.93001566
_cell_length_b   7.93001628
_cell_length_c   9.41811700
_cell_angle_alpha   55.87334273
_cell_angle_beta   55.87333969
_cell_angle_gamma   29.24476026
_symmetry_Int_Tables_number   1
_chemical_formula_structural   YTm2P4Pd7
_chemical_formula_sum   'Y1 Tm2 P4 Pd7'
_cell_volume   235.74435439
_cell_formula_units_Z   1
loop_
 _symmetry_equiv_pos_site_id
 _symmetry_equiv_pos_as_xyz
  1  'x, y, z'
loop_
 _atom_site_type_symbol
 _atom_site_label
 _atom_site_symmetry_multiplicity
 _atom_site_fract_x
 _atom_site_fract_y
 _atom_site_fract_z
 _atom_site_occupancy
  Y  Y0  1  0.500000  0.500000  0.500000  1
  Tm  Tm1  1  0.820545  0.820545  0.175836  1
  Tm  Tm2  1  0.179455  0.179455  0.824164  1
  P  P3  1  0.393513  0.393513  0.319000  1
  P  P4  1  0.606487  0.606487  0.681000  1
  P  P5  1  0.839810  0.839810  0.753862  1
  P  P6  1  0.160190  0.160190  0.246138  1
  Pd  Pd7  1  0.669742  0.669742  0.075945  1
  Pd  Pd8  1  0.009775  0.009775  0.213852  1
  Pd  Pd9  1  0.990225  0.990225  0.786148  1
  Pd  Pd10  1  0.500000  0.500000  0.000000  1
  Pd  Pd11  1  0.195883  0.195883  0.468296  1
  Pd  Pd12  1  0.804117  0.804117  0.531704  1
  Pd  Pd13  1  0.330258  0.330258  0.924055  1
