# generated using pymatgen
data_TaBeNb2Ga
_symmetry_space_group_name_H-M   'P 1'
_cell_length_a   6.74121200
_cell_length_b   6.76368000
_cell_length_c   3.43332800
_cell_angle_alpha   90.00000000
_cell_angle_beta   90.00000000
_cell_angle_gamma   90.00000000
_symmetry_Int_Tables_number   1
_chemical_formula_structural   TaBeNb2Ga
_chemical_formula_sum   'Ta2 Be2 Nb4 Ga2'
_cell_volume   156.54396617
_cell_formula_units_Z   2
loop_
 _symmetry_equiv_pos_site_id
 _symmetry_equiv_pos_as_xyz
  1  'x, y, z'
loop_
 _atom_site_type_symbol
 _atom_site_label
 _atom_site_symmetry_multiplicity
 _atom_site_fract_x
 _atom_site_fract_y
 _atom_site_fract_z
 _atom_site_occupancy
  Ta  Ta0  1  0.494755  0.509419  0.000000  1
  Ta  Ta1  1  0.994755  0.990581  0.000000  1
  Be  Be2  1  0.120013  0.623599  0.000000  1
  Be  Be3  1  0.620013  0.876401  0.000000  1
  Nb  Nb4  1  0.820489  0.690734  0.500000  1
  Nb  Nb5  1  0.320489  0.809266  0.500000  1
  Nb  Nb6  1  0.183128  0.336278  0.500000  1
  Nb  Nb7  1  0.683128  0.163722  0.500000  1
  Ga  Ga8  1  0.381615  0.114176  0.000000  1
  Ga  Ga9  1  0.881615  0.385824  0.000000  1
