# generated using pymatgen
data_Rb2NaErBi2
_symmetry_space_group_name_H-M   'P 1'
_cell_length_a   10.22721192
_cell_length_b   10.22721169
_cell_length_c   10.22721104
_cell_angle_alpha   136.10773218
_cell_angle_beta   63.64554885
_cell_angle_gamma   136.32581383
_symmetry_Int_Tables_number   1
_chemical_formula_structural   Rb2NaErBi2
_chemical_formula_sum   'Rb4 Na2 Er2 Bi4'
_cell_volume   505.42739532
_cell_formula_units_Z   2
loop_
 _symmetry_equiv_pos_site_id
 _symmetry_equiv_pos_as_xyz
  1  'x, y, z'
loop_
 _atom_site_type_symbol
 _atom_site_label
 _atom_site_symmetry_multiplicity
 _atom_site_fract_x
 _atom_site_fract_y
 _atom_site_fract_z
 _atom_site_occupancy
  Rb  Rb0  1  0.826123  0.267700  0.093824  1
  Rb  Rb1  1  0.673876  0.767700  0.441577  1
  Rb  Rb2  1  0.326123  0.232300  0.558423  1
  Rb  Rb3  1  0.173877  0.732299  0.906175  1
  Na  Na4  1  0.750000  0.250000  0.500000  1
  Na  Na5  1  0.250000  0.750000  0.500000  1
  Er  Er6  1  0.250000  0.250000  0.000000  1
  Er  Er7  1  0.750001  0.750001  0.000000  1
  Bi  Bi8  1  0.399467  0.725489  0.124958  1
  Bi  Bi9  1  0.100532  0.225490  0.326021  1
  Bi  Bi10  1  0.899467  0.774510  0.673979  1
  Bi  Bi11  1  0.600532  0.274510  0.875042  1
