# generated using pymatgen
data_Ho10Hg8PdRh3
_symmetry_space_group_name_H-M   'P 1'
_cell_length_a   3.68476906
_cell_length_b   7.91300199
_cell_length_c   17.78040155
_cell_angle_alpha   90.08073639
_cell_angle_beta   89.98396486
_cell_angle_gamma   89.66303755
_symmetry_Int_Tables_number   1
_chemical_formula_structural   Ho10Hg8PdRh3
_chemical_formula_sum   'Ho10 Hg8 Pd1 Rh3'
_cell_volume   518.42406663
_cell_formula_units_Z   1
loop_
 _symmetry_equiv_pos_site_id
 _symmetry_equiv_pos_as_xyz
  1  'x, y, z'
loop_
 _atom_site_type_symbol
 _atom_site_label
 _atom_site_symmetry_multiplicity
 _atom_site_fract_x
 _atom_site_fract_y
 _atom_site_fract_z
 _atom_site_occupancy
  Ho  Ho0  1  0.999924  0.499657  0.500476  1
  Ho  Ho1  1  0.000035  0.002377  0.999989  1
  Ho  Ho2  1  0.000332  0.721513  0.285610  1
  Ho  Ho3  1  0.999664  0.264796  0.715271  1
  Ho  Ho4  1  0.999710  0.764281  0.783886  1
  Ho  Ho5  1  0.000265  0.245488  0.214543  1
  Ho  Ho6  1  0.000297  0.612090  0.087753  1
  Ho  Ho7  1  0.999766  0.392356  0.910702  1
  Ho  Ho8  1  0.999594  0.890753  0.589929  1
  Ho  Ho9  1  0.000318  0.109131  0.413609  1
  Hg  Hg10  1  0.499973  0.711527  0.937163  1
  Hg  Hg11  1  0.499736  0.292041  0.061367  1
  Hg  Hg12  1  0.500091  0.789525  0.439236  1
  Hg  Hg13  1  0.499834  0.209195  0.561885  1
  Hg  Hg14  1  0.499670  0.586465  0.645951  1
  Hg  Hg15  1  0.500123  0.409718  0.354255  1
  Hg  Hg16  1  0.500172  0.912380  0.145794  1
  Hg  Hg17  1  0.499723  0.088710  0.853985  1
  Pd  Pd18  1  0.501075  0.020010  0.300859  1
  Rh  Rh19  1  0.500495  0.524538  0.196937  1
  Rh  Rh20  1  0.499792  0.475870  0.802100  1
  Rh  Rh21  1  0.499413  0.977580  0.698699  1
