# generated using pymatgen
data_Ti3Re5
_symmetry_space_group_name_H-M   'P 1'
_cell_length_a   4.41236350
_cell_length_b   4.41238710
_cell_length_c   6.97024266
_cell_angle_alpha   108.43063752
_cell_angle_beta   108.43254820
_cell_angle_gamma   90.02964507
_symmetry_Int_Tables_number   1
_chemical_formula_structural   Ti3Re5
_chemical_formula_sum   'Ti3 Re5'
_cell_volume   121.37485009
_cell_formula_units_Z   1
loop_
 _symmetry_equiv_pos_site_id
 _symmetry_equiv_pos_as_xyz
  1  'x, y, z'
loop_
 _atom_site_type_symbol
 _atom_site_label
 _atom_site_symmetry_multiplicity
 _atom_site_fract_x
 _atom_site_fract_y
 _atom_site_fract_z
 _atom_site_occupancy
  Ti  Ti0  1  0.000953  0.994876  0.459872  1
  Ti  Ti1  1  0.504572  0.498529  0.467749  1
  Ti  Ti2  1  0.754579  0.746248  0.963829  1
  Re  Re3  1  0.377993  0.870272  0.212101  1
  Re  Re4  1  0.877317  0.370945  0.212078  1
  Re  Re5  1  0.254729  0.246219  0.963885  1
  Re  Re6  1  0.629624  0.122160  0.715592  1
  Re  Re7  1  0.129197  0.622846  0.715698  1
