# generated using pymatgen
data_EuEr5MoO12
_symmetry_space_group_name_H-M   'P 1'
_cell_length_a   6.44758167
_cell_length_b   6.44322741
_cell_length_c   6.44011700
_cell_angle_alpha   98.71666203
_cell_angle_beta   98.67081571
_cell_angle_gamma   98.44533391
_symmetry_Int_Tables_number   1
_chemical_formula_structural   EuEr5MoO12
_chemical_formula_sum   'Eu1 Er5 Mo1 O12'
_cell_volume   257.45741762
_cell_formula_units_Z   1
loop_
 _symmetry_equiv_pos_site_id
 _symmetry_equiv_pos_as_xyz
  1  'x, y, z'
loop_
 _atom_site_type_symbol
 _atom_site_label
 _atom_site_symmetry_multiplicity
 _atom_site_fract_x
 _atom_site_fract_y
 _atom_site_fract_z
 _atom_site_occupancy
  Eu  Eu0  1  0.141507  0.605606  0.309692  1
  Er  Er1  1  0.855291  0.384828  0.686718  1
  Er  Er2  1  0.611203  0.312348  0.142294  1
  Er  Er3  1  0.317586  0.143871  0.613487  1
  Er  Er4  1  0.685520  0.858576  0.390983  1
  Er  Er5  1  0.390018  0.682944  0.854288  1
  Mo  Mo6  1  0.998583  0.997883  0.998553  1
  O  O7  1  0.923466  0.033631  0.699160  1
  O  O8  1  0.952222  0.295827  0.064760  1
  O  O9  1  0.589539  0.177833  0.430981  1
  O  O10  1  0.819742  0.566376  0.413248  1
  O  O11  1  0.297738  0.078816  0.965322  1
  O  O12  1  0.567844  0.408958  0.823252  1
  O  O13  1  0.439016  0.593688  0.177591  1
  O  O14  1  0.702112  0.920811  0.035235  1
  O  O15  1  0.176893  0.430233  0.601931  1
  O  O16  1  0.419745  0.826457  0.574348  1
  O  O17  1  0.035158  0.703232  0.920394  1
  O  O18  1  0.076816  0.978080  0.297765  1
