# generated using pymatgen
data_SmHo2Er(Mo2O7)2
_symmetry_space_group_name_H-M   'P 1'
_cell_length_a   7.41110386
_cell_length_b   7.41110314
_cell_length_c   7.43324508
_cell_angle_alpha   59.32652012
_cell_angle_beta   59.32652429
_cell_angle_gamma   59.01390108
_symmetry_Int_Tables_number   1
_chemical_formula_structural   SmHo2Er(Mo2O7)2
_chemical_formula_sum   'Sm1 Ho2 Er1 Mo4 O14'
_cell_volume   283.56812300
_cell_formula_units_Z   1
loop_
 _symmetry_equiv_pos_site_id
 _symmetry_equiv_pos_as_xyz
  1  'x, y, z'
loop_
 _atom_site_type_symbol
 _atom_site_label
 _atom_site_symmetry_multiplicity
 _atom_site_fract_x
 _atom_site_fract_y
 _atom_site_fract_z
 _atom_site_occupancy
  Sm  Sm0  1  0.125000  0.125000  0.125000  1
  Ho  Ho1  1  0.625000  0.125000  0.125000  1
  Ho  Ho2  1  0.125000  0.625000  0.125000  1
  Er  Er3  1  0.125000  0.125000  0.625000  1
  Mo  Mo4  1  0.625000  0.625000  0.625000  1
  Mo  Mo5  1  0.125000  0.625000  0.625000  1
  Mo  Mo6  1  0.625000  0.125000  0.625000  1
  Mo  Mo7  1  0.625000  0.625000  0.125000  1
  O  O8  1  0.285732  0.285732  0.704955  1
  O  O9  1  0.285954  0.708115  0.288430  1
  O  O10  1  0.964046  0.541885  0.961570  1
  O  O11  1  0.708115  0.285954  0.288430  1
  O  O12  1  0.000464  0.000464  0.995525  1
  O  O13  1  0.531718  0.531718  0.971009  1
  O  O14  1  0.286186  0.711225  0.717818  1
  O  O15  1  0.538775  0.963814  0.532182  1
  O  O16  1  0.541885  0.964046  0.961570  1
  O  O17  1  0.718282  0.718282  0.278991  1
  O  O18  1  0.249536  0.249536  0.254475  1
  O  O19  1  0.964268  0.964268  0.545045  1
  O  O20  1  0.963814  0.538775  0.532182  1
  O  O21  1  0.711225  0.286186  0.717818  1
