# generated using pymatgen
data_Ca6PrNi4Sn13
_symmetry_space_group_name_H-M   'P 1'
_cell_length_a   11.31720700
_cell_length_b   11.31720700
_cell_length_c   4.63578800
_cell_angle_alpha   90.00000000
_cell_angle_beta   90.00000000
_cell_angle_gamma   90.00000000
_symmetry_Int_Tables_number   1
_chemical_formula_structural   Ca6PrNi4Sn13
_chemical_formula_sum   'Ca6 Pr1 Ni4 Sn13'
_cell_volume   593.74789918
_cell_formula_units_Z   1
loop_
 _symmetry_equiv_pos_site_id
 _symmetry_equiv_pos_as_xyz
  1  'x, y, z'
loop_
 _atom_site_type_symbol
 _atom_site_label
 _atom_site_symmetry_multiplicity
 _atom_site_fract_x
 _atom_site_fract_y
 _atom_site_fract_z
 _atom_site_occupancy
  Ca  Ca0  1  0.837599  0.170156  0.000000  1
  Ca  Ca1  1  0.829844  0.837599  0.000000  1
  Ca  Ca2  1  0.162401  0.829844  0.000000  1
  Ca  Ca3  1  0.170156  0.162401  0.000000  1
  Ca  Ca4  1  0.000000  0.500000  0.000000  1
  Ca  Ca5  1  0.500000  0.000000  0.000000  1
  Pr  Pr6  1  0.500000  0.500000  0.500000  1
  Ni  Ni7  1  0.776019  0.619032  0.500000  1
  Ni  Ni8  1  0.380968  0.776019  0.500000  1
  Ni  Ni9  1  0.619032  0.223981  0.500000  1
  Ni  Ni10  1  0.223981  0.380968  0.500000  1
  Sn  Sn11  1  0.018312  0.284823  0.500000  1
  Sn  Sn12  1  0.981688  0.715177  0.500000  1
  Sn  Sn13  1  0.215752  0.611646  0.500000  1
  Sn  Sn14  1  0.577422  0.306030  0.000000  1
  Sn  Sn15  1  0.693970  0.577422  0.000000  1
  Sn  Sn16  1  0.784248  0.388354  0.500000  1
  Sn  Sn17  1  0.715177  0.018312  0.500000  1
  Sn  Sn18  1  0.000000  0.000000  0.500000  1
  Sn  Sn19  1  0.284823  0.981688  0.500000  1
  Sn  Sn20  1  0.422578  0.693970  0.000000  1
  Sn  Sn21  1  0.611646  0.784248  0.500000  1
  Sn  Sn22  1  0.306030  0.422578  0.000000  1
  Sn  Sn23  1  0.388354  0.215752  0.500000  1
