# generated using pymatgen
data_BaCaCd(H6Ir)2
_symmetry_space_group_name_H-M   'P 1'
_cell_length_a   5.01826000
_cell_length_b   5.01826118
_cell_length_c   8.44908200
_cell_angle_alpha   90.00000000
_cell_angle_beta   90.00000000
_cell_angle_gamma   119.99999225
_symmetry_Int_Tables_number   1
_chemical_formula_structural   BaCaCd(H6Ir)2
_chemical_formula_sum   'Ba1 Ca1 Cd1 H12 Ir2'
_cell_volume   184.26659459
_cell_formula_units_Z   1
loop_
 _symmetry_equiv_pos_site_id
 _symmetry_equiv_pos_as_xyz
  1  'x, y, z'
loop_
 _atom_site_type_symbol
 _atom_site_label
 _atom_site_symmetry_multiplicity
 _atom_site_fract_x
 _atom_site_fract_y
 _atom_site_fract_z
 _atom_site_occupancy
  Ba  Ba0  1  0.000000  0.000000  0.002533  1
  Ca  Ca1  1  0.333333  0.666667  0.625450  1
  Cd  Cd2  1  0.666667  0.333333  0.369916  1
  H  H3  1  0.172119  0.827881  0.376242  1
  H  H4  1  0.655761  0.827881  0.376242  1
  H  H5  1  0.172119  0.344239  0.376242  1
  H  H6  1  0.831891  0.168109  0.629414  1
  H  H7  1  0.336219  0.168109  0.629414  1
  H  H8  1  0.831891  0.663781  0.629414  1
  H  H9  1  0.511607  0.023214  0.849709  1
  H  H10  1  0.511607  0.488393  0.849709  1
  H  H11  1  0.976786  0.488393  0.849709  1
  H  H12  1  0.485242  0.970485  0.145526  1
  H  H13  1  0.485242  0.514758  0.145526  1
  H  H14  1  0.029515  0.514758  0.145526  1
  Ir  Ir15  1  0.666667  0.333333  0.731233  1
  Ir  Ir16  1  0.333333  0.666667  0.268197  1
