# generated using pymatgen
data_Ce3Sm2Dy3(AlRu)8
_symmetry_space_group_name_H-M   'P 1'
_cell_length_a   4.05315300
_cell_length_b   7.16285272
_cell_length_c   16.06078858
_cell_angle_alpha   91.47463363
_cell_angle_beta   90.00000000
_cell_angle_gamma   90.00000000
_symmetry_Int_Tables_number   1
_chemical_formula_structural   Ce3Sm2Dy3(AlRu)8
_chemical_formula_sum   'Ce3 Sm2 Dy3 Al8 Ru8'
_cell_volume   466.12460626
_cell_formula_units_Z   1
loop_
 _symmetry_equiv_pos_site_id
 _symmetry_equiv_pos_as_xyz
  1  'x, y, z'
loop_
 _atom_site_type_symbol
 _atom_site_label
 _atom_site_symmetry_multiplicity
 _atom_site_fract_x
 _atom_site_fract_y
 _atom_site_fract_z
 _atom_site_occupancy
  Ce  Ce0  1  0.750000  0.465525  0.281620  1
  Ce  Ce1  1  0.750000  0.329111  0.063434  1
  Ce  Ce2  1  0.250000  0.537725  0.718583  1
  Sm  Sm3  1  0.250000  0.664357  0.938205  1
  Sm  Sm4  1  0.250000  0.039373  0.780092  1
  Dy  Dy5  1  0.750000  0.960156  0.220400  1
  Dy  Dy6  1  0.250000  0.162678  0.560355  1
  Dy  Dy7  1  0.750000  0.840816  0.439072  1
  Al  Al8  1  0.750000  0.503343  0.561350  1
  Al  Al9  1  0.750000  0.362661  0.852641  1
  Al  Al10  1  0.750000  0.993424  0.935823  1
  Al  Al11  1  0.750000  0.871426  0.648469  1
  Al  Al12  1  0.250000  0.496909  0.437280  1
  Al  Al13  1  0.250000  0.995182  0.067419  1
  Al  Al14  1  0.250000  0.640272  0.151512  1
  Al  Al15  1  0.250000  0.127701  0.347650  1
  Ru  Ru16  1  0.750000  0.729166  0.804720  1
  Ru  Ru17  1  0.250000  0.231887  0.941524  1
  Ru  Ru18  1  0.750000  0.263574  0.430331  1
  Ru  Ru19  1  0.250000  0.740041  0.316788  1
  Ru  Ru20  1  0.750000  0.766738  0.067518  1
  Ru  Ru21  1  0.750000  0.268341  0.684911  1
  Ru  Ru22  1  0.250000  0.271088  0.185932  1
  Ru  Ru23  1  0.250000  0.738504  0.564370  1
