# generated using pymatgen
data_Nd8DyLuPb8
_symmetry_space_group_name_H-M   'P 1'
_cell_length_a   8.33192600
_cell_length_b   8.44853000
_cell_length_c   16.05168300
_cell_angle_alpha   90.00000000
_cell_angle_beta   90.00000000
_cell_angle_gamma   90.00000000
_symmetry_Int_Tables_number   1
_chemical_formula_structural   Nd8DyLuPb8
_chemical_formula_sum   'Nd16 Dy2 Lu2 Pb16'
_cell_volume   1129.91852526
_cell_formula_units_Z   2
loop_
 _symmetry_equiv_pos_site_id
 _symmetry_equiv_pos_as_xyz
  1  'x, y, z'
loop_
 _atom_site_type_symbol
 _atom_site_label
 _atom_site_symmetry_multiplicity
 _atom_site_fract_x
 _atom_site_fract_y
 _atom_site_fract_z
 _atom_site_occupancy
  Nd  Nd0  1  0.626942  0.157842  0.620470  1
  Nd  Nd1  1  0.126942  0.342158  0.879530  1
  Nd  Nd2  1  0.373257  0.842430  0.119953  1
  Nd  Nd3  1  0.873257  0.657570  0.380047  1
  Nd  Nd4  1  0.373257  0.842430  0.380047  1
  Nd  Nd5  1  0.873257  0.657570  0.119953  1
  Nd  Nd6  1  0.626942  0.157842  0.879530  1
  Nd  Nd7  1  0.126942  0.342158  0.620470  1
  Nd  Nd8  1  0.469216  0.678796  0.599423  1
  Nd  Nd9  1  0.969216  0.821204  0.900577  1
  Nd  Nd10  1  0.530028  0.321158  0.098687  1
  Nd  Nd11  1  0.030028  0.178842  0.401313  1
  Nd  Nd12  1  0.530028  0.321158  0.401313  1
  Nd  Nd13  1  0.030028  0.178842  0.098687  1
  Nd  Nd14  1  0.469216  0.678796  0.900577  1
  Nd  Nd15  1  0.969216  0.821204  0.599423  1
  Dy  Dy16  1  0.795837  0.495654  0.750000  1
  Dy  Dy17  1  0.295837  0.004346  0.750000  1
  Lu  Lu18  1  0.205437  0.504563  0.250000  1
  Lu  Lu19  1  0.705437  0.995437  0.250000  1
  Pb  Pb20  1  0.716093  0.967694  0.454490  1
  Pb  Pb21  1  0.216093  0.532306  0.045510  1
  Pb  Pb22  1  0.283521  0.032289  0.953633  1
  Pb  Pb23  1  0.783521  0.467711  0.546367  1
  Pb  Pb24  1  0.283521  0.032289  0.546367  1
  Pb  Pb25  1  0.783521  0.467711  0.953633  1
  Pb  Pb26  1  0.716093  0.967694  0.045510  1
  Pb  Pb27  1  0.216093  0.532306  0.454490  1
  Pb  Pb28  1  0.433008  0.378129  0.750000  1
  Pb  Pb29  1  0.933008  0.121871  0.750000  1
  Pb  Pb30  1  0.567537  0.623198  0.250000  1
  Pb  Pb31  1  0.067537  0.876802  0.250000  1
  Pb  Pb32  1  0.661018  0.845310  0.750000  1
  Pb  Pb33  1  0.161018  0.654690  0.750000  1
  Pb  Pb34  1  0.339049  0.154928  0.250000  1
  Pb  Pb35  1  0.839049  0.345072  0.250000  1
