# generated using pymatgen
data_Dy3Si2BRh6
_symmetry_space_group_name_H-M   'P 1'
_cell_length_a   5.52759900
_cell_length_b   5.52759911
_cell_length_c   14.62572700
_cell_angle_alpha   90.00000000
_cell_angle_beta   90.00000000
_cell_angle_gamma   120.00000530
_symmetry_Int_Tables_number   1
_chemical_formula_structural   Dy3Si2BRh6
_chemical_formula_sum   'Dy6 Si4 B2 Rh12'
_cell_volume   387.00906656
_cell_formula_units_Z   2
loop_
 _symmetry_equiv_pos_site_id
 _symmetry_equiv_pos_as_xyz
  1  'x, y, z'
loop_
 _atom_site_type_symbol
 _atom_site_label
 _atom_site_symmetry_multiplicity
 _atom_site_fract_x
 _atom_site_fract_y
 _atom_site_fract_z
 _atom_site_occupancy
  Dy  Dy0  1  0.666667  0.333333  0.969957  1
  Dy  Dy1  1  0.666667  0.333333  0.530043  1
  Dy  Dy2  1  0.333333  0.666667  0.041848  1
  Dy  Dy3  1  0.666667  0.333333  0.750000  1
  Dy  Dy4  1  0.333333  0.666667  0.458152  1
  Dy  Dy5  1  0.333333  0.666667  0.250000  1
  Si  Si6  1  0.000000  0.000000  0.489174  1
  Si  Si7  1  0.000000  0.000000  0.750000  1
  Si  Si8  1  0.333333  0.666667  0.750000  1
  Si  Si9  1  0.000000  0.000000  0.010826  1
  B  B10  1  0.666667  0.333333  0.250000  1
  B  B11  1  0.000000  0.000000  0.250000  1
  Rh  Rh12  1  0.166284  0.332570  0.873979  1
  Rh  Rh13  1  0.166284  0.332570  0.626021  1
  Rh  Rh14  1  0.667430  0.833716  0.873979  1
  Rh  Rh15  1  0.332389  0.166195  0.351879  1
  Rh  Rh16  1  0.833805  0.667611  0.351879  1
  Rh  Rh17  1  0.833805  0.166195  0.351879  1
  Rh  Rh18  1  0.833805  0.166195  0.148121  1
  Rh  Rh19  1  0.332389  0.166195  0.148121  1
  Rh  Rh20  1  0.667430  0.833716  0.626021  1
  Rh  Rh21  1  0.166284  0.833716  0.626021  1
  Rh  Rh22  1  0.833805  0.667611  0.148121  1
  Rh  Rh23  1  0.166284  0.833716  0.873979  1
