# generated using pymatgen
data_DyTm5Lu10(Ga3Co)2
_symmetry_space_group_name_H-M   'P 1'
_cell_length_a   9.79271000
_cell_length_b   9.79870738
_cell_length_c   6.87083700
_cell_angle_alpha   90.00886518
_cell_angle_beta   90.00000000
_cell_angle_gamma   119.97975534
_symmetry_Int_Tables_number   1
_chemical_formula_structural   DyTm5Lu10(Ga3Co)2
_chemical_formula_sum   'Dy1 Tm5 Lu10 Ga6 Co2'
_cell_volume   571.08468263
_cell_formula_units_Z   1
loop_
 _symmetry_equiv_pos_site_id
 _symmetry_equiv_pos_as_xyz
  1  'x, y, z'
loop_
 _atom_site_type_symbol
 _atom_site_label
 _atom_site_symmetry_multiplicity
 _atom_site_fract_x
 _atom_site_fract_y
 _atom_site_fract_z
 _atom_site_occupancy
  Dy  Dy0  1  0.999966  0.999932  0.731651  1
  Tm  Tm1  1  0.463524  0.927049  0.208168  1
  Tm  Tm2  1  0.535920  0.464128  0.708305  1
  Tm  Tm3  1  0.928209  0.464128  0.708305  1
  Tm  Tm4  1  0.536121  0.072243  0.708684  1
  Tm  Tm5  1  0.000005  0.000010  0.232291  1
  Lu  Lu6  1  0.173795  0.825195  0.511323  1
  Lu  Lu7  1  0.651399  0.825195  0.511323  1
  Lu  Lu8  1  0.174279  0.348558  0.510381  1
  Lu  Lu9  1  0.826539  0.174851  0.013813  1
  Lu  Lu10  1  0.348312  0.174851  0.013813  1
  Lu  Lu11  1  0.825610  0.651222  0.014475  1
  Lu  Lu12  1  0.332956  0.665912  0.827481  1
  Lu  Lu13  1  0.667017  0.334033  0.326666  1
  Lu  Lu14  1  0.462954  0.536950  0.207495  1
  Lu  Lu15  1  0.073995  0.536950  0.207495  1
  Ga  Ga16  1  0.163593  0.836033  0.957503  1
  Ga  Ga17  1  0.672440  0.836033  0.957503  1
  Ga  Ga18  1  0.164239  0.328478  0.958155  1
  Ga  Ga19  1  0.836286  0.163266  0.456437  1
  Ga  Ga20  1  0.326981  0.163266  0.456437  1
  Ga  Ga21  1  0.836454  0.672907  0.455666  1
  Co  Co22  1  0.332728  0.665457  0.445485  1
  Co  Co23  1  0.666679  0.333356  0.945983  1
