# generated using pymatgen
data_Na4Sr2GeAs4
_symmetry_space_group_name_H-M   'P 1'
_cell_length_a   9.67163777
_cell_length_b   9.67163793
_cell_length_c   7.49717402
_cell_angle_alpha   89.50457137
_cell_angle_beta   89.50457510
_cell_angle_gamma   119.86170123
_symmetry_Int_Tables_number   1
_chemical_formula_structural   Na4Sr2GeAs4
_chemical_formula_sum   'Na8 Sr4 Ge2 As8'
_cell_volume   608.08898812
_cell_formula_units_Z   2
loop_
 _symmetry_equiv_pos_site_id
 _symmetry_equiv_pos_as_xyz
  1  'x, y, z'
loop_
 _atom_site_type_symbol
 _atom_site_label
 _atom_site_symmetry_multiplicity
 _atom_site_fract_x
 _atom_site_fract_y
 _atom_site_fract_z
 _atom_site_occupancy
  Na  Na0  1  0.473084  0.943461  0.387763  1
  Na  Na1  1  0.943461  0.473084  0.887763  1
  Na  Na2  1  0.862230  0.718042  0.194262  1
  Na  Na3  1  0.295045  0.137865  0.225753  1
  Na  Na4  1  0.845846  0.140462  0.214713  1
  Na  Na5  1  0.137865  0.295045  0.725753  1
  Na  Na6  1  0.718042  0.862230  0.694262  1
  Na  Na7  1  0.140462  0.845846  0.714713  1
  Sr  Sr8  1  0.047448  0.526665  0.385677  1
  Sr  Sr9  1  0.481354  0.529131  0.383849  1
  Sr  Sr10  1  0.526665  0.047448  0.885677  1
  Sr  Sr11  1  0.529131  0.481354  0.883849  1
  Ge  Ge12  1  0.661566  0.326714  0.503391  1
  Ge  Ge13  1  0.326714  0.661566  0.003391  1
  As  As14  1  0.193166  0.379216  0.115801  1
  As  As15  1  0.617479  0.809203  0.096993  1
  As  As16  1  0.196131  0.811595  0.105976  1
  As  As17  1  0.809203  0.617479  0.596993  1
  As  As18  1  0.379216  0.193166  0.615801  1
  As  As19  1  0.811595  0.196131  0.605976  1
  As  As20  1  0.665388  0.338923  0.168120  1
  As  As21  1  0.338923  0.665388  0.668120  1
