# generated using pymatgen
data_Yb11PrSn4N3
_symmetry_space_group_name_H-M   'P 1'
_cell_length_a   4.86275900
_cell_length_b   4.94044700
_cell_length_c   19.51190000
_cell_angle_alpha   90.00000000
_cell_angle_beta   90.00000000
_cell_angle_gamma   90.00000000
_symmetry_Int_Tables_number   1
_chemical_formula_structural   Yb11PrSn4N3
_chemical_formula_sum   'Yb11 Pr1 Sn4 N3'
_cell_volume   468.75784873
_cell_formula_units_Z   1
loop_
 _symmetry_equiv_pos_site_id
 _symmetry_equiv_pos_as_xyz
  1  'x, y, z'
loop_
 _atom_site_type_symbol
 _atom_site_label
 _atom_site_symmetry_multiplicity
 _atom_site_fract_x
 _atom_site_fract_y
 _atom_site_fract_z
 _atom_site_occupancy
  Yb  Yb0  1  0.500000  0.500000  0.864810  1
  Yb  Yb1  1  0.500000  0.500000  0.135190  1
  Yb  Yb2  1  0.500000  0.500000  0.373092  1
  Yb  Yb3  1  0.500000  0.500000  0.626908  1
  Yb  Yb4  1  0.500000  0.000000  0.000000  1
  Yb  Yb5  1  0.500000  0.000000  0.252673  1
  Yb  Yb6  1  0.500000  0.000000  0.747327  1
  Yb  Yb7  1  0.000000  0.500000  0.000000  1
  Yb  Yb8  1  0.000000  0.500000  0.252976  1
  Yb  Yb9  1  0.000000  0.500000  0.500000  1
  Yb  Yb10  1  0.000000  0.500000  0.747024  1
  Pr  Pr11  1  0.500000  0.000000  0.500000  1
  Sn  Sn12  1  0.000000  0.000000  0.880452  1
  Sn  Sn13  1  0.000000  0.000000  0.119548  1
  Sn  Sn14  1  0.000000  0.000000  0.376552  1
  Sn  Sn15  1  0.000000  0.000000  0.623448  1
  N  N16  1  0.500000  0.500000  0.249945  1
  N  N17  1  0.500000  0.500000  0.500000  1
  N  N18  1  0.500000  0.500000  0.750055  1
