# generated using pymatgen
data_RbCdSiAs2
_symmetry_space_group_name_H-M   'P 1'
_cell_length_a   8.47906830
_cell_length_b   8.55288787
_cell_length_c   8.73417092
_cell_angle_alpha   70.84502569
_cell_angle_beta   75.93001890
_cell_angle_gamma   73.39875249
_symmetry_Int_Tables_number   1
_chemical_formula_structural   RbCdSiAs2
_chemical_formula_sum   'Rb4 Cd4 Si4 As8'
_cell_volume   565.53858886
_cell_formula_units_Z   4
loop_
 _symmetry_equiv_pos_site_id
 _symmetry_equiv_pos_as_xyz
  1  'x, y, z'
loop_
 _atom_site_type_symbol
 _atom_site_label
 _atom_site_symmetry_multiplicity
 _atom_site_fract_x
 _atom_site_fract_y
 _atom_site_fract_z
 _atom_site_occupancy
  Rb  Rb0  1  0.451926  0.765029  0.321707  1
  Rb  Rb1  1  0.548074  0.234971  0.678293  1
  Rb  Rb2  1  0.436825  0.801146  0.813434  1
  Rb  Rb3  1  0.563175  0.198854  0.186566  1
  Cd  Cd4  1  0.994759  0.897453  0.687685  1
  Cd  Cd5  1  0.005241  0.102547  0.312315  1
  Cd  Cd6  1  0.968909  0.819318  0.170068  1
  Cd  Cd7  1  0.031091  0.180682  0.829932  1
  Si  Si8  1  0.960573  0.583459  0.596610  1
  Si  Si9  1  0.039427  0.416541  0.403390  1
  Si  Si10  1  0.145003  0.448810  0.977674  1
  Si  Si11  1  0.854997  0.551190  0.022326  1
  As  As12  1  0.808383  0.863227  0.468072  1
  As  As13  1  0.191617  0.136773  0.531928  1
  As  As14  1  0.789093  0.412864  0.312288  1
  As  As15  1  0.210907  0.587136  0.687712  1
  As  As16  1  0.766829  0.856034  0.964223  1
  As  As17  1  0.233171  0.143966  0.035777  1
  As  As18  1  0.770887  0.453656  0.828036  1
  As  As19  1  0.229113  0.546344  0.171964  1
