# generated using pymatgen
data_Er4ZnCo2Ru5
_symmetry_space_group_name_H-M   'P 1'
_cell_length_a   5.23362473
_cell_length_b   5.18247163
_cell_length_c   8.75250400
_cell_angle_alpha   90.00000000
_cell_angle_beta   90.00000000
_cell_angle_gamma   119.97915990
_symmetry_Int_Tables_number   1
_chemical_formula_structural   Er4ZnCo2Ru5
_chemical_formula_sum   'Er4 Zn1 Co2 Ru5'
_cell_volume   205.63338490
_cell_formula_units_Z   1
loop_
 _symmetry_equiv_pos_site_id
 _symmetry_equiv_pos_as_xyz
  1  'x, y, z'
loop_
 _atom_site_type_symbol
 _atom_site_label
 _atom_site_symmetry_multiplicity
 _atom_site_fract_x
 _atom_site_fract_y
 _atom_site_fract_z
 _atom_site_occupancy
  Er  Er0  1  0.329860  0.663849  0.432591  1
  Er  Er1  1  0.661063  0.327506  0.561679  1
  Er  Er2  1  0.661063  0.327506  0.938321  1
  Er  Er3  1  0.329860  0.663849  0.067409  1
  Zn  Zn4  1  0.174992  0.345527  0.750000  1
  Co  Co5  1  0.181331  0.841602  0.750000  1
  Co  Co6  1  0.340429  0.172832  0.250000  1
  Ru  Ru7  1  0.835126  0.668886  0.250000  1
  Ru  Ru8  1  0.669970  0.841062  0.750000  1
  Ru  Ru9  1  0.993812  0.985384  0.999499  1
  Ru  Ru10  1  0.828681  0.176615  0.250000  1
  Ru  Ru11  1  0.993812  0.985384  0.500501  1
