# generated using pymatgen
data_Tb3Dy2Y(B7W)2
_symmetry_space_group_name_H-M   'P 1'
_cell_length_a   8.20782663
_cell_length_b   8.20782911
_cell_length_c   9.50379601
_cell_angle_alpha   90.04382412
_cell_angle_beta   89.95617596
_cell_angle_gamma   155.63039448
_symmetry_Int_Tables_number   1
_chemical_formula_structural   Tb3Dy2Y(B7W)2
_chemical_formula_sum   'Tb3 Dy2 Y1 B14 W2'
_cell_volume   264.18311920
_cell_formula_units_Z   1
loop_
 _symmetry_equiv_pos_site_id
 _symmetry_equiv_pos_as_xyz
  1  'x, y, z'
loop_
 _atom_site_type_symbol
 _atom_site_label
 _atom_site_symmetry_multiplicity
 _atom_site_fract_x
 _atom_site_fract_y
 _atom_site_fract_z
 _atom_site_occupancy
  Tb  Tb0  1  0.107315  0.892685  0.560907  1
  Tb  Tb1  1  0.892630  0.107370  0.061078  1
  Tb  Tb2  1  0.107222  0.892778  0.939034  1
  Dy  Dy3  1  0.892886  0.107114  0.439442  1
  Dy  Dy4  1  0.244451  0.755549  0.250008  1
  Y  Y5  1  0.755486  0.244514  0.749914  1
  B  B6  1  0.727795  0.272205  0.466826  1
  B  B7  1  0.272716  0.727284  0.532515  1
  B  B8  1  0.727528  0.272472  0.033025  1
  B  B9  1  0.272462  0.727538  0.967194  1
  B  B10  1  0.635082  0.364918  0.147407  1
  B  B11  1  0.365046  0.634954  0.852881  1
  B  B12  1  0.635137  0.364863  0.352584  1
  B  B13  1  0.365152  0.634848  0.646683  1
  B  B14  1  0.519962  0.480038  0.092038  1
  B  B15  1  0.479904  0.520096  0.908183  1
  B  B16  1  0.519857  0.480143  0.408281  1
  B  B17  1  0.479819  0.520181  0.591603  1
  B  B18  1  0.456457  0.543543  0.250453  1
  B  B19  1  0.543247  0.456753  0.749932  1
  W  W20  1  0.053409  0.946591  0.250134  1
  W  W21  1  0.946437  0.053563  0.749882  1
