# generated using pymatgen
data_Mg2Zn4B6Ir3Rh8
_symmetry_space_group_name_H-M   'P 1'
_cell_length_a   2.90280800
_cell_length_b   8.52902400
_cell_length_c   11.51142600
_cell_angle_alpha   90.00000000
_cell_angle_beta   90.00000000
_cell_angle_gamma   90.00000000
_symmetry_Int_Tables_number   1
_chemical_formula_structural   Mg2Zn4B6Ir3Rh8
_chemical_formula_sum   'Mg2 Zn4 B6 Ir3 Rh8'
_cell_volume   285.00125591
_cell_formula_units_Z   1
loop_
 _symmetry_equiv_pos_site_id
 _symmetry_equiv_pos_as_xyz
  1  'x, y, z'
loop_
 _atom_site_type_symbol
 _atom_site_label
 _atom_site_symmetry_multiplicity
 _atom_site_fract_x
 _atom_site_fract_y
 _atom_site_fract_z
 _atom_site_occupancy
  Mg  Mg0  1  0.500000  0.000000  0.205190  1
  Mg  Mg1  1  0.500000  0.000000  0.794810  1
  Zn  Zn2  1  0.500000  0.000000  0.500000  1
  Zn  Zn3  1  0.500000  0.500000  0.000000  1
  Zn  Zn4  1  0.500000  0.646892  0.500000  1
  Zn  Zn5  1  0.500000  0.353108  0.500000  1
  B  B6  1  0.500000  0.805659  0.000000  1
  B  B7  1  0.500000  0.194341  0.000000  1
  B  B8  1  0.500000  0.685780  0.271006  1
  B  B9  1  0.500000  0.314220  0.271006  1
  B  B10  1  0.500000  0.314220  0.728994  1
  B  B11  1  0.500000  0.685780  0.728994  1
  Ir  Ir12  1  0.000000  0.000000  0.000000  1
  Ir  Ir13  1  0.000000  0.500000  0.318157  1
  Ir  Ir14  1  0.000000  0.500000  0.681843  1
  Rh  Rh15  1  0.000000  0.711347  0.124684  1
  Rh  Rh16  1  0.000000  0.288653  0.124684  1
  Rh  Rh17  1  0.000000  0.288653  0.875316  1
  Rh  Rh18  1  0.000000  0.711347  0.875316  1
  Rh  Rh19  1  0.000000  0.824244  0.360035  1
  Rh  Rh20  1  0.000000  0.175756  0.360035  1
  Rh  Rh21  1  0.000000  0.175756  0.639965  1
  Rh  Rh22  1  0.000000  0.824244  0.639965  1
