# generated using pymatgen
data_Ta3Be2BIr3
_symmetry_space_group_name_H-M   'P 1'
_cell_length_a   3.45626100
_cell_length_b   6.30541216
_cell_length_c   10.80624461
_cell_angle_alpha   89.85865755
_cell_angle_beta   90.00000000
_cell_angle_gamma   90.00000000
_symmetry_Int_Tables_number   1
_chemical_formula_structural   Ta3Be2BIr3
_chemical_formula_sum   'Ta6 Be4 B2 Ir6'
_cell_volume   235.50139461
_cell_formula_units_Z   2
loop_
 _symmetry_equiv_pos_site_id
 _symmetry_equiv_pos_as_xyz
  1  'x, y, z'
loop_
 _atom_site_type_symbol
 _atom_site_label
 _atom_site_symmetry_multiplicity
 _atom_site_fract_x
 _atom_site_fract_y
 _atom_site_fract_z
 _atom_site_occupancy
  Ta  Ta0  1  0.000000  0.268861  0.957781  1
  Ta  Ta1  1  0.000000  0.731139  0.042219  1
  Ta  Ta2  1  0.000000  0.278950  0.540078  1
  Ta  Ta3  1  0.000000  0.721050  0.459922  1
  Ta  Ta4  1  0.000000  0.357706  0.256721  1
  Ta  Ta5  1  0.000000  0.642294  0.743279  1
  Be  Be6  1  0.000000  0.945264  0.252124  1
  Be  Be7  1  0.000000  0.054736  0.747876  1
  Be  Be8  1  0.500000  0.445314  0.093720  1
  Be  Be9  1  0.500000  0.554686  0.906280  1
  B  B10  1  0.500000  0.451665  0.416306  1
  B  B11  1  0.500000  0.548335  0.583694  1
  Ir  Ir12  1  0.500000  0.074049  0.123470  1
  Ir  Ir13  1  0.500000  0.925951  0.876530  1
  Ir  Ir14  1  0.500000  0.080079  0.379102  1
  Ir  Ir15  1  0.500000  0.919921  0.620898  1
  Ir  Ir16  1  0.500000  0.694475  0.255270  1
  Ir  Ir17  1  0.500000  0.305525  0.744730  1
