# generated using pymatgen
data_NaLiNi4P3
_symmetry_space_group_name_H-M   'P 1'
_cell_length_a   3.72378700
_cell_length_b   10.31470900
_cell_length_c   11.91623900
_cell_angle_alpha   90.00000000
_cell_angle_beta   90.00000000
_cell_angle_gamma   90.00000000
_symmetry_Int_Tables_number   1
_chemical_formula_structural   NaLiNi4P3
_chemical_formula_sum   'Na4 Li4 Ni16 P12'
_cell_volume   457.70010987
_cell_formula_units_Z   4
loop_
 _symmetry_equiv_pos_site_id
 _symmetry_equiv_pos_as_xyz
  1  'x, y, z'
loop_
 _atom_site_type_symbol
 _atom_site_label
 _atom_site_symmetry_multiplicity
 _atom_site_fract_x
 _atom_site_fract_y
 _atom_site_fract_z
 _atom_site_occupancy
  Na  Na0  1  0.250000  0.581088  0.704270  1
  Na  Na1  1  0.250000  0.918912  0.204270  1
  Na  Na2  1  0.750000  0.418912  0.295730  1
  Na  Na3  1  0.750000  0.081088  0.795730  1
  Li  Li4  1  0.250000  0.701448  0.994814  1
  Li  Li5  1  0.250000  0.798552  0.494814  1
  Li  Li6  1  0.750000  0.298552  0.005186  1
  Li  Li7  1  0.750000  0.201448  0.505186  1
  Ni  Ni8  1  0.250000  0.405732  0.485769  1
  Ni  Ni9  1  0.250000  0.094268  0.985769  1
  Ni  Ni10  1  0.750000  0.594268  0.514231  1
  Ni  Ni11  1  0.750000  0.905732  0.014231  1
  Ni  Ni12  1  0.250000  0.218633  0.169686  1
  Ni  Ni13  1  0.250000  0.281367  0.669686  1
  Ni  Ni14  1  0.750000  0.781367  0.830314  1
  Ni  Ni15  1  0.750000  0.718633  0.330314  1
  Ni  Ni16  1  0.250000  0.877965  0.703518  1
  Ni  Ni17  1  0.250000  0.622035  0.203518  1
  Ni  Ni18  1  0.750000  0.122035  0.296482  1
  Ni  Ni19  1  0.750000  0.377965  0.796482  1
  Ni  Ni20  1  0.250000  0.466676  0.927233  1
  Ni  Ni21  1  0.250000  0.033324  0.427233  1
  Ni  Ni22  1  0.750000  0.533324  0.072767  1
  Ni  Ni23  1  0.750000  0.966676  0.572767  1
  P  P24  1  0.250000  0.424634  0.114603  1
  P  P25  1  0.250000  0.075366  0.614603  1
  P  P26  1  0.750000  0.575366  0.885397  1
  P  P27  1  0.750000  0.924634  0.385397  1
  P  P28  1  0.250000  0.266242  0.857407  1
  P  P29  1  0.250000  0.233758  0.357407  1
  P  P30  1  0.750000  0.733758  0.142593  1
  P  P31  1  0.750000  0.766242  0.642593  1
  P  P32  1  0.250000  0.597058  0.393642  1
  P  P33  1  0.250000  0.902942  0.893642  1
  P  P34  1  0.750000  0.402942  0.606358  1
  P  P35  1  0.750000  0.097058  0.106358  1
