# generated using pymatgen
data_Ce2YSi2Ir
_symmetry_space_group_name_H-M   'P 1'
_cell_length_a   4.22309900
_cell_length_b   11.19349100
_cell_length_c   11.68952900
_cell_angle_alpha   90.00000000
_cell_angle_beta   90.00000000
_cell_angle_gamma   90.00000000
_symmetry_Int_Tables_number   1
_chemical_formula_structural   Ce2YSi2Ir
_chemical_formula_sum   'Ce8 Y4 Si8 Ir4'
_cell_volume   552.57830464
_cell_formula_units_Z   4
loop_
 _symmetry_equiv_pos_site_id
 _symmetry_equiv_pos_as_xyz
  1  'x, y, z'
loop_
 _atom_site_type_symbol
 _atom_site_label
 _atom_site_symmetry_multiplicity
 _atom_site_fract_x
 _atom_site_fract_y
 _atom_site_fract_z
 _atom_site_occupancy
  Ce  Ce0  1  0.250000  0.701781  0.214154  1
  Ce  Ce1  1  0.750000  0.298219  0.785846  1
  Ce  Ce2  1  0.750000  0.201781  0.285846  1
  Ce  Ce3  1  0.250000  0.798219  0.714154  1
  Ce  Ce4  1  0.250000  0.435582  0.375709  1
  Ce  Ce5  1  0.750000  0.564418  0.624291  1
  Ce  Ce6  1  0.750000  0.935582  0.124291  1
  Ce  Ce7  1  0.250000  0.064418  0.875709  1
  Y  Y8  1  0.250000  0.376036  0.053259  1
  Y  Y9  1  0.750000  0.623964  0.946741  1
  Y  Y10  1  0.750000  0.876036  0.446741  1
  Y  Y11  1  0.250000  0.123964  0.553259  1
  Si  Si12  1  0.250000  0.689019  0.477812  1
  Si  Si13  1  0.750000  0.310981  0.522188  1
  Si  Si14  1  0.750000  0.189019  0.022188  1
  Si  Si15  1  0.250000  0.810981  0.977812  1
  Si  Si16  1  0.250000  0.999033  0.309525  1
  Si  Si17  1  0.750000  0.000967  0.690475  1
  Si  Si18  1  0.750000  0.499033  0.190475  1
  Si  Si19  1  0.250000  0.500967  0.809525  1
  Ir  Ir20  1  0.250000  0.126533  0.129587  1
  Ir  Ir21  1  0.750000  0.873467  0.870413  1
  Ir  Ir22  1  0.750000  0.626533  0.370413  1
  Ir  Ir23  1  0.250000  0.373467  0.629587  1
