# generated using pymatgen
data_Tb2Fe5Co3(P3Ru)2
_symmetry_space_group_name_H-M   'P 1'
_cell_length_a   3.71833800
_cell_length_b   10.27182300
_cell_length_c   11.90863200
_cell_angle_alpha   90.00000000
_cell_angle_beta   90.00000000
_cell_angle_gamma   90.00000000
_symmetry_Int_Tables_number   1
_chemical_formula_structural   Tb2Fe5Co3(P3Ru)2
_chemical_formula_sum   'Tb4 Fe10 Co6 P12 Ru4'
_cell_volume   454.83959806
_cell_formula_units_Z   2
loop_
 _symmetry_equiv_pos_site_id
 _symmetry_equiv_pos_as_xyz
  1  'x, y, z'
loop_
 _atom_site_type_symbol
 _atom_site_label
 _atom_site_symmetry_multiplicity
 _atom_site_fract_x
 _atom_site_fract_y
 _atom_site_fract_z
 _atom_site_occupancy
  Tb  Tb0  1  0.250000  0.581694  0.704986  1
  Tb  Tb1  1  0.250000  0.918306  0.204986  1
  Tb  Tb2  1  0.750000  0.418899  0.295344  1
  Tb  Tb3  1  0.750000  0.081101  0.795344  1
  Fe  Fe4  1  0.750000  0.777952  0.828808  1
  Fe  Fe5  1  0.750000  0.722048  0.328808  1
  Fe  Fe6  1  0.250000  0.881376  0.701356  1
  Fe  Fe7  1  0.250000  0.618624  0.201356  1
  Fe  Fe8  1  0.750000  0.120134  0.297845  1
  Fe  Fe9  1  0.750000  0.379866  0.797845  1
  Fe  Fe10  1  0.250000  0.462243  0.934481  1
  Fe  Fe11  1  0.250000  0.037757  0.434481  1
  Fe  Fe12  1  0.750000  0.536575  0.065164  1
  Fe  Fe13  1  0.750000  0.963425  0.565164  1
  Co  Co14  1  0.250000  0.406966  0.486689  1
  Co  Co15  1  0.250000  0.093034  0.986689  1
  Co  Co16  1  0.750000  0.593753  0.513145  1
  Co  Co17  1  0.750000  0.906247  0.013145  1
  Co  Co18  1  0.250000  0.224115  0.171410  1
  Co  Co19  1  0.250000  0.275885  0.671410  1
  P  P20  1  0.250000  0.426464  0.113625  1
  P  P21  1  0.250000  0.073536  0.613625  1
  P  P22  1  0.750000  0.574652  0.885777  1
  P  P23  1  0.750000  0.925348  0.385777  1
  P  P24  1  0.250000  0.271787  0.860200  1
  P  P25  1  0.250000  0.228213  0.360200  1
  P  P26  1  0.750000  0.727772  0.140980  1
  P  P27  1  0.750000  0.772228  0.640980  1
  P  P28  1  0.250000  0.601114  0.389399  1
  P  P29  1  0.250000  0.898886  0.889399  1
  P  P30  1  0.750000  0.402097  0.609470  1
  P  P31  1  0.750000  0.097903  0.109470  1
  Ru  Ru32  1  0.250000  0.708481  0.990413  1
  Ru  Ru33  1  0.250000  0.791519  0.490413  1
  Ru  Ru34  1  0.750000  0.290859  0.010909  1
  Ru  Ru35  1  0.750000  0.209141  0.510909  1
