# generated using pymatgen
data_CdCl8
_symmetry_space_group_name_H-M   'P 1'
_cell_length_a   3.82330900
_cell_length_b   9.20182336
_cell_length_c   11.06551343
_cell_angle_alpha   78.44970250
_cell_angle_beta   96.39896657
_cell_angle_gamma   87.94770256
_symmetry_Int_Tables_number   1
_chemical_formula_structural   CdCl8
_chemical_formula_sum   'Cd1 Cl8'
_cell_volume   378.36446845
_cell_formula_units_Z   1
loop_
 _symmetry_equiv_pos_site_id
 _symmetry_equiv_pos_as_xyz
  1  'x, y, z'
loop_
 _atom_site_type_symbol
 _atom_site_label
 _atom_site_symmetry_multiplicity
 _atom_site_fract_x
 _atom_site_fract_y
 _atom_site_fract_z
 _atom_site_occupancy
  Cd  Cd0  1  0.244684  0.580549  0.695507  1
  Cl  Cl1  1  0.170338  0.889094  0.601624  1
  Cl  Cl2  1  0.703393  0.518571  0.559159  1
  Cl  Cl3  1  0.338479  0.972215  0.757193  1
  Cl  Cl4  1  0.099282  0.142088  0.268563  1
  Cl  Cl5  1  0.665405  0.290095  0.914072  1
  Cl  Cl6  1  0.969662  0.282855  0.374688  1
  Cl  Cl7  1  0.547608  0.071403  0.963018  1
  Cl  Cl8  1  0.803795  0.583414  0.859517  1
