# generated using pymatgen
data_TmInGaNi3
_symmetry_space_group_name_H-M   'P 1'
_cell_length_a   5.14137717
_cell_length_b   4.95317635
_cell_length_c   5.14137700
_cell_angle_alpha   58.73493157
_cell_angle_beta   59.99999466
_cell_angle_gamma   58.73492953
_symmetry_Int_Tables_number   1
_chemical_formula_structural   TmInGaNi3
_chemical_formula_sum   'Tm1 In1 Ga1 Ni3'
_cell_volume   90.77224729
_cell_formula_units_Z   1
loop_
 _symmetry_equiv_pos_site_id
 _symmetry_equiv_pos_as_xyz
  1  'x, y, z'
loop_
 _atom_site_type_symbol
 _atom_site_label
 _atom_site_symmetry_multiplicity
 _atom_site_fract_x
 _atom_site_fract_y
 _atom_site_fract_z
 _atom_site_occupancy
  Tm  Tm0  1  0.749637  0.751090  0.749637  1
  In  In1  1  0.001244  0.996268  0.001244  1
  Ga  Ga2  1  0.376169  0.871492  0.376169  1
  Ni  Ni3  1  0.372595  0.377050  0.372595  1
  Ni  Ni4  1  0.877761  0.377050  0.372595  1
  Ni  Ni5  1  0.372595  0.377050  0.877761  1
