# generated using pymatgen
data_Zr6Nb6Ga10Os7
_symmetry_space_group_name_H-M   'P 1'
_cell_length_a   8.98418127
_cell_length_b   8.92558771
_cell_length_c   8.92558778
_cell_angle_alpha   59.48449689
_cell_angle_beta   59.78259737
_cell_angle_gamma   59.78259608
_symmetry_Int_Tables_number   1
_chemical_formula_structural   Zr6Nb6Ga10Os7
_chemical_formula_sum   'Zr6 Nb6 Ga10 Os7'
_cell_volume   502.44984479
_cell_formula_units_Z   1
loop_
 _symmetry_equiv_pos_site_id
 _symmetry_equiv_pos_as_xyz
  1  'x, y, z'
loop_
 _atom_site_type_symbol
 _atom_site_label
 _atom_site_symmetry_multiplicity
 _atom_site_fract_x
 _atom_site_fract_y
 _atom_site_fract_z
 _atom_site_occupancy
  Zr  Zr0  1  0.685742  0.700419  0.309753  1
  Zr  Zr1  1  0.304086  0.700419  0.309753  1
  Zr  Zr2  1  0.702120  0.297880  0.297880  1
  Zr  Zr3  1  0.304086  0.309753  0.700419  1
  Zr  Zr4  1  0.685742  0.309753  0.700419  1
  Zr  Zr5  1  0.307468  0.692532  0.692532  1
  Nb  Nb6  1  0.875087  0.881150  0.368675  1
  Nb  Nb7  1  0.875087  0.368675  0.881150  1
  Nb  Nb8  1  0.376770  0.876371  0.876371  1
  Nb  Nb9  1  0.870488  0.876371  0.876371  1
  Nb  Nb10  1  0.126963  0.127849  0.618225  1
  Nb  Nb11  1  0.126963  0.618225  0.127849  1
  Ga  Ga12  1  0.648286  0.117502  0.117502  1
  Ga  Ga13  1  0.116710  0.117502  0.117502  1
  Ga  Ga14  1  0.655519  0.652510  0.036452  1
  Ga  Ga15  1  0.655519  0.036452  0.652510  1
  Ga  Ga16  1  0.029056  0.656143  0.656143  1
  Ga  Ga17  1  0.658659  0.656143  0.656143  1
  Ga  Ga18  1  0.340124  0.336377  0.983375  1
  Ga  Ga19  1  0.340124  0.983375  0.336377  1
  Ga  Ga20  1  0.964963  0.343963  0.343963  1
  Ga  Ga21  1  0.347112  0.343963  0.343963  1
  Os  Os22  1  0.012290  0.987710  0.987710  1
  Os  Os23  1  0.998759  0.999416  0.505592  1
  Os  Os24  1  0.496232  0.999416  0.505592  1
  Os  Os25  1  0.999524  0.500476  0.500476  1
  Os  Os26  1  0.496232  0.505592  0.999416  1
  Os  Os27  1  0.998759  0.505592  0.999416  1
  Os  Os28  1  0.501527  0.998473  0.998473  1
