# generated using pymatgen
data_Ba2TiCu3P4
_symmetry_space_group_name_H-M   'P 1'
_cell_length_a   5.70764001
_cell_length_b   6.86659857
_cell_length_c   5.69780184
_cell_angle_alpha   65.52040174
_cell_angle_beta   89.99483125
_cell_angle_gamma   90.00150626
_symmetry_Int_Tables_number   1
_chemical_formula_structural   Ba2TiCu3P4
_chemical_formula_sum   'Ba2 Ti1 Cu3 P4'
_cell_volume   203.23519590
_cell_formula_units_Z   1
loop_
 _symmetry_equiv_pos_site_id
 _symmetry_equiv_pos_as_xyz
  1  'x, y, z'
loop_
 _atom_site_type_symbol
 _atom_site_label
 _atom_site_symmetry_multiplicity
 _atom_site_fract_x
 _atom_site_fract_y
 _atom_site_fract_z
 _atom_site_occupancy
  Ba  Ba0  1  0.988036  0.999985  0.000052  1
  Ba  Ba1  1  0.511222  0.999968  0.500053  1
  Ti  Ti2  1  0.249770  0.499981  0.500074  1
  Cu  Cu3  1  0.250699  0.500064  0.999986  1
  Cu  Cu4  1  0.749630  0.500006  0.000002  1
  Cu  Cu5  1  0.750032  0.500073  0.499653  1
  P  P6  1  0.498010  0.707207  0.148083  1
  P  P7  1  0.002229  0.706842  0.645994  1
  P  P8  1  0.002303  0.293089  0.354128  1
  P  P9  1  0.498069  0.292784  0.851975  1
