# generated using pymatgen
data_Ca4PrSmU2O12
_symmetry_space_group_name_H-M   'P 1'
_cell_length_a   6.88905458
_cell_length_b   6.87104373
_cell_length_c   6.84456191
_cell_angle_alpha   91.60129092
_cell_angle_beta   91.42680652
_cell_angle_gamma   91.10461279
_symmetry_Int_Tables_number   1
_chemical_formula_structural   Ca4PrSmU2O12
_chemical_formula_sum   'Ca4 Pr1 Sm1 U2 O12'
_cell_volume   323.69569182
_cell_formula_units_Z   1
loop_
 _symmetry_equiv_pos_site_id
 _symmetry_equiv_pos_as_xyz
  1  'x, y, z'
loop_
 _atom_site_type_symbol
 _atom_site_label
 _atom_site_symmetry_multiplicity
 _atom_site_fract_x
 _atom_site_fract_y
 _atom_site_fract_z
 _atom_site_occupancy
  Ca  Ca0  1  0.551873  0.251254  0.058664  1
  Ca  Ca1  1  0.252066  0.059659  0.557496  1
  Ca  Ca2  1  0.064331  0.555224  0.249398  1
  Ca  Ca3  1  0.445221  0.750222  0.941696  1
  Pr  Pr4  1  0.747676  0.938905  0.441681  1
  Sm  Sm5  1  0.938207  0.443847  0.750250  1
  U  U6  1  0.004618  0.000396  0.001203  1
  U  U7  1  0.493576  0.497976  0.499672  1
  O  O8  1  0.294920  0.062281  0.925391  1
  O  O9  1  0.065091  0.920232  0.300080  1
  O  O10  1  0.927064  0.300336  0.060573  1
  O  O11  1  0.707896  0.937593  0.080544  1
  O  O12  1  0.934986  0.089817  0.697557  1
  O  O13  1  0.074518  0.698013  0.929379  1
  O  O14  1  0.194831  0.409665  0.541887  1
  O  O15  1  0.411808  0.542938  0.204564  1
  O  O16  1  0.462516  0.798506  0.592147  1
  O  O17  1  0.594683  0.456074  0.795463  1
  O  O18  1  0.800440  0.588269  0.465322  1
  O  O19  1  0.533679  0.198793  0.407031  1
