# generated using pymatgen
data_TbDyInGa2
_symmetry_space_group_name_H-M   'P 1'
_cell_length_a   7.23975637
_cell_length_b   7.23975637
_cell_length_c   4.45707200
_cell_angle_alpha   90.00000000
_cell_angle_beta   90.00000000
_cell_angle_gamma   90.16353594
_symmetry_Int_Tables_number   1
_chemical_formula_structural   TbDyInGa2
_chemical_formula_sum   'Tb2 Dy2 In2 Ga4'
_cell_volume   233.61234262
_cell_formula_units_Z   2
loop_
 _symmetry_equiv_pos_site_id
 _symmetry_equiv_pos_as_xyz
  1  'x, y, z'
loop_
 _atom_site_type_symbol
 _atom_site_label
 _atom_site_symmetry_multiplicity
 _atom_site_fract_x
 _atom_site_fract_y
 _atom_site_fract_z
 _atom_site_occupancy
  Tb  Tb0  1  0.172727  0.327273  0.500000  1
  Tb  Tb1  1  0.827273  0.672727  0.500000  1
  Dy  Dy2  1  0.327499  0.827499  0.500000  1
  Dy  Dy3  1  0.672501  0.172501  0.500000  1
  In  In4  1  0.000000  0.000000  0.000000  1
  In  In5  1  0.500000  0.500000  0.000000  1
  Ga  Ga6  1  0.126077  0.626077  0.000000  1
  Ga  Ga7  1  0.873923  0.373923  0.000000  1
  Ga  Ga8  1  0.374299  0.125701  0.000000  1
  Ga  Ga9  1  0.625701  0.874299  0.000000  1
