# generated using pymatgen
data_Ce2NdIn3CuRh2
_symmetry_space_group_name_H-M   'P 1'
_cell_length_a   7.52771800
_cell_length_b   7.68454686
_cell_length_c   3.97093100
_cell_angle_alpha   90.00000000
_cell_angle_beta   90.00000000
_cell_angle_gamma   119.32717146
_symmetry_Int_Tables_number   1
_chemical_formula_structural   Ce2NdIn3CuRh2
_chemical_formula_sum   'Ce2 Nd1 In3 Cu1 Rh2'
_cell_volume   200.26695203
_cell_formula_units_Z   1
loop_
 _symmetry_equiv_pos_site_id
 _symmetry_equiv_pos_as_xyz
  1  'x, y, z'
loop_
 _atom_site_type_symbol
 _atom_site_label
 _atom_site_symmetry_multiplicity
 _atom_site_fract_x
 _atom_site_fract_y
 _atom_site_fract_z
 _atom_site_occupancy
  Ce  Ce0  1  0.999595  0.419506  0.500000  1
  Ce  Ce1  1  0.580089  0.580494  0.500000  1
  Nd  Nd2  1  0.413214  0.000000  0.500000  1
  In  In3  1  0.748446  0.000000  0.000000  1
  In  In4  1  0.003289  0.756773  0.000000  1
  In  In5  1  0.246515  0.243227  0.000000  1
  Cu  Cu6  1  0.994706  0.000000  0.500000  1
  Rh  Rh7  1  0.329762  0.645380  0.000000  1
  Rh  Rh8  1  0.684383  0.354620  0.000000  1
