# generated using pymatgen
data_Sr4YSn3
_symmetry_space_group_name_H-M   'P 1'
_cell_length_a   9.76444534
_cell_length_b   9.76444337
_cell_length_c   9.76444583
_cell_angle_alpha   96.91738949
_cell_angle_beta   96.91778281
_cell_angle_gamma   139.38642567
_symmetry_Int_Tables_number   1
_chemical_formula_structural   Sr4YSn3
_chemical_formula_sum   'Sr8 Y2 Sn6'
_cell_volume   568.36241968
_cell_formula_units_Z   2
loop_
 _symmetry_equiv_pos_site_id
 _symmetry_equiv_pos_as_xyz
  1  'x, y, z'
loop_
 _atom_site_type_symbol
 _atom_site_label
 _atom_site_symmetry_multiplicity
 _atom_site_fract_x
 _atom_site_fract_y
 _atom_site_fract_z
 _atom_site_occupancy
  Sr  Sr0  1  0.084767  0.212230  0.296999  1
  Sr  Sr1  1  0.915233  0.787770  0.703001  1
  Sr  Sr2  1  0.787767  0.084767  0.872539  1
  Sr  Sr3  1  0.415230  0.712230  0.127462  1
  Sr  Sr4  1  0.212233  0.915233  0.127461  1
  Sr  Sr5  1  0.584770  0.287770  0.872538  1
  Sr  Sr6  1  0.712228  0.584767  0.296999  1
  Sr  Sr7  1  0.287772  0.415233  0.703001  1
  Y  Y8  1  0.249994  0.750000  0.499994  1
  Y  Y9  1  0.750006  0.250000  0.500006  1
  Sn  Sn10  1  0.145630  0.645630  0.791255  1
  Sn  Sn11  1  0.854370  0.354370  0.208745  1
  Sn  Sn12  1  0.354375  0.145630  0.500000  1
  Sn  Sn13  1  0.645625  0.854370  0.500000  1
  Sn  Sn14  1  0.249999  0.250000  0.999999  1
  Sn  Sn15  1  0.750001  0.750000  0.000001  1
