# generated using pymatgen
data_Y5Sn3Sb
_symmetry_space_group_name_H-M   'P 1'
_cell_length_a   8.16545200
_cell_length_b   8.17496200
_cell_length_c   15.47488900
_cell_angle_alpha   90.00000000
_cell_angle_beta   90.00000000
_cell_angle_gamma   90.00000000
_symmetry_Int_Tables_number   1
_chemical_formula_structural   Y5Sn3Sb
_chemical_formula_sum   'Y20 Sn12 Sb4'
_cell_volume   1032.98381110
_cell_formula_units_Z   4
loop_
 _symmetry_equiv_pos_site_id
 _symmetry_equiv_pos_as_xyz
  1  'x, y, z'
loop_
 _atom_site_type_symbol
 _atom_site_label
 _atom_site_symmetry_multiplicity
 _atom_site_fract_x
 _atom_site_fract_y
 _atom_site_fract_z
 _atom_site_occupancy
  Y  Y0  1  0.388653  0.839063  0.880461  1
  Y  Y1  1  0.888653  0.660937  0.619539  1
  Y  Y2  1  0.611347  0.160937  0.380461  1
  Y  Y3  1  0.111347  0.339063  0.119539  1
  Y  Y4  1  0.611057  0.161262  0.119435  1
  Y  Y5  1  0.111057  0.338738  0.380565  1
  Y  Y6  1  0.388943  0.838738  0.619435  1
  Y  Y7  1  0.888943  0.661262  0.880565  1
  Y  Y8  1  0.557119  0.331086  0.891571  1
  Y  Y9  1  0.057119  0.168914  0.608429  1
  Y  Y10  1  0.442881  0.668914  0.391571  1
  Y  Y11  1  0.942881  0.831086  0.108429  1
  Y  Y12  1  0.456111  0.671751  0.105146  1
  Y  Y13  1  0.956111  0.828249  0.394854  1
  Y  Y14  1  0.543889  0.328249  0.605146  1
  Y  Y15  1  0.043889  0.171751  0.894854  1
  Y  Y16  1  0.220807  0.500771  0.747913  1
  Y  Y17  1  0.720807  0.999229  0.752087  1
  Y  Y18  1  0.779193  0.499229  0.247913  1
  Y  Y19  1  0.279193  0.000771  0.252087  1
  Sn  Sn20  1  0.724371  0.973916  0.956089  1
  Sn  Sn21  1  0.224371  0.526084  0.543911  1
  Sn  Sn22  1  0.275629  0.026084  0.456089  1
  Sn  Sn23  1  0.775629  0.473916  0.043911  1
  Sn  Sn24  1  0.585751  0.627180  0.749162  1
  Sn  Sn25  1  0.085751  0.872820  0.750838  1
  Sn  Sn26  1  0.414249  0.372820  0.249162  1
  Sn  Sn27  1  0.914249  0.127180  0.250838  1
  Sn  Sn28  1  0.355991  0.142934  0.751123  1
  Sn  Sn29  1  0.855991  0.357066  0.748877  1
  Sn  Sn30  1  0.644009  0.857066  0.251123  1
  Sn  Sn31  1  0.144009  0.642934  0.248877  1
  Sb  Sb32  1  0.266884  0.018311  0.046302  1
  Sb  Sb33  1  0.766884  0.481689  0.453698  1
  Sb  Sb34  1  0.733116  0.981689  0.546302  1
  Sb  Sb35  1  0.233116  0.518311  0.953698  1
