# generated using pymatgen
data_Tb8Cd2FeNi
_symmetry_space_group_name_H-M   'P 1'
_cell_length_a   9.55560293
_cell_length_b   9.55560345
_cell_length_c   9.56132300
_cell_angle_alpha   59.98019453
_cell_angle_beta   59.98019273
_cell_angle_gamma   60.25758031
_symmetry_Int_Tables_number   1
_chemical_formula_structural   Tb8Cd2FeNi
_chemical_formula_sum   'Tb16 Cd4 Fe2 Ni2'
_cell_volume   618.33939084
_cell_formula_units_Z   2
loop_
 _symmetry_equiv_pos_site_id
 _symmetry_equiv_pos_as_xyz
  1  'x, y, z'
loop_
 _atom_site_type_symbol
 _atom_site_label
 _atom_site_symmetry_multiplicity
 _atom_site_fract_x
 _atom_site_fract_y
 _atom_site_fract_z
 _atom_site_occupancy
  Tb  Tb0  1  0.345772  0.345772  0.349443  1
  Tb  Tb1  1  0.345772  0.345772  0.959014  1
  Tb  Tb2  1  0.343796  0.960286  0.347959  1
  Tb  Tb3  1  0.960286  0.343796  0.347959  1
  Tb  Tb4  1  0.816020  0.187094  0.189160  1
  Tb  Tb5  1  0.187094  0.816020  0.807726  1
  Tb  Tb6  1  0.187094  0.816020  0.189160  1
  Tb  Tb7  1  0.816020  0.187094  0.807726  1
  Tb  Tb8  1  0.187868  0.187868  0.812132  1
  Tb  Tb9  1  0.810718  0.810718  0.189282  1
  Tb  Tb10  1  0.938503  0.558515  0.564445  1
  Tb  Tb11  1  0.558515  0.938503  0.938537  1
  Tb  Tb12  1  0.558515  0.938503  0.564445  1
  Tb  Tb13  1  0.938503  0.558515  0.938537  1
  Tb  Tb14  1  0.562854  0.562854  0.937146  1
  Tb  Tb15  1  0.939764  0.939764  0.560236  1
  Cd  Cd16  1  0.580047  0.580047  0.581023  1
  Cd  Cd17  1  0.580047  0.580047  0.258883  1
  Cd  Cd18  1  0.581012  0.256492  0.581247  1
  Cd  Cd19  1  0.256492  0.581012  0.581247  1
  Fe  Fe20  1  0.142950  0.142950  0.137109  1
  Fe  Fe21  1  0.142950  0.142950  0.576991  1
  Ni  Ni22  1  0.142848  0.576561  0.140295  1
  Ni  Ni23  1  0.576561  0.142848  0.140295  1
