# generated using pymatgen
data_La10Al4IrRu5
_symmetry_space_group_name_H-M   'P 1'
_cell_length_a   8.63241971
_cell_length_b   8.67198892
_cell_length_c   8.67198801
_cell_angle_alpha   109.63520130
_cell_angle_beta   109.67568222
_cell_angle_gamma   109.28804343
_symmetry_Int_Tables_number   1
_chemical_formula_structural   La10Al4IrRu5
_chemical_formula_sum   'La10 Al4 Ir1 Ru5'
_cell_volume   498.59345793
_cell_formula_units_Z   1
loop_
 _symmetry_equiv_pos_site_id
 _symmetry_equiv_pos_as_xyz
  1  'x, y, z'
loop_
 _atom_site_type_symbol
 _atom_site_label
 _atom_site_symmetry_multiplicity
 _atom_site_fract_x
 _atom_site_fract_y
 _atom_site_fract_z
 _atom_site_occupancy
  La  La0  1  0.250000  0.688180  0.438180  1
  La  La1  1  0.750000  0.811293  0.061293  1
  La  La2  1  0.441681  0.251864  0.686288  1
  La  La3  1  0.687395  0.438163  0.249253  1
  La  La4  1  0.058319  0.744607  0.810184  1
  La  La5  1  0.812605  0.061858  0.750768  1
  La  La6  1  0.210989  0.212829  0.214368  1
  La  La7  1  0.500185  0.999540  0.288716  1
  La  La8  1  0.289011  0.503380  0.001841  1
  La  La9  1  0.999815  0.288530  0.499354  1
  Al  Al10  1  0.590162  0.590811  0.590016  1
  Al  Al11  1  0.499127  0.999121  0.909029  1
  Al  Al12  1  0.909838  0.499854  0.000649  1
  Al  Al13  1  0.000873  0.909902  0.499994  1
  Ir  Ir14  1  0.250000  0.116103  0.866103  1
  Ru  Ru15  1  0.750000  0.382361  0.632361  1
  Ru  Ru16  1  0.866712  0.250333  0.116910  1
  Ru  Ru17  1  0.118570  0.868997  0.250646  1
  Ru  Ru18  1  0.633287  0.750197  0.383620  1
  Ru  Ru19  1  0.381430  0.632076  0.750427  1
