# generated using pymatgen
data_Tb4Y2Mn3(Co5P4)3
_symmetry_space_group_name_H-M   'P 1'
_cell_length_a   3.71477600
_cell_length_b   10.58501000
_cell_length_c   12.19667000
_cell_angle_alpha   90.00000000
_cell_angle_beta   90.00000000
_cell_angle_gamma   90.00000000
_symmetry_Int_Tables_number   1
_chemical_formula_structural   Tb4Y2Mn3(Co5P4)3
_chemical_formula_sum   'Tb4 Y2 Mn3 Co15 P12'
_cell_volume   479.58454278
_cell_formula_units_Z   1
loop_
 _symmetry_equiv_pos_site_id
 _symmetry_equiv_pos_as_xyz
  1  'x, y, z'
loop_
 _atom_site_type_symbol
 _atom_site_label
 _atom_site_symmetry_multiplicity
 _atom_site_fract_x
 _atom_site_fract_y
 _atom_site_fract_z
 _atom_site_occupancy
  Tb  Tb0  1  0.000000  0.500000  0.523249  1
  Tb  Tb1  1  0.500000  0.000000  0.477348  1
  Tb  Tb2  1  0.000000  0.680674  0.795671  1
  Tb  Tb3  1  0.000000  0.319326  0.795671  1
  Y  Y4  1  0.500000  0.818221  0.204846  1
  Y  Y5  1  0.500000  0.181779  0.204846  1
  Mn  Mn6  1  0.500000  0.500000  0.154450  1
  Mn  Mn7  1  0.000000  0.000000  0.841530  1
  Mn  Mn8  1  0.000000  0.500000  0.988872  1
  Co  Co9  1  0.500000  0.500000  0.699728  1
  Co  Co10  1  0.000000  0.000000  0.297696  1
  Co  Co11  1  0.500000  0.000000  0.013242  1
  Co  Co12  1  0.500000  0.330593  0.994647  1
  Co  Co13  1  0.500000  0.669407  0.994647  1
  Co  Co14  1  0.000000  0.164950  0.004794  1
  Co  Co15  1  0.000000  0.835050  0.004794  1
  Co  Co16  1  0.500000  0.295922  0.430459  1
  Co  Co17  1  0.500000  0.704078  0.430459  1
  Co  Co18  1  0.000000  0.203570  0.570011  1
  Co  Co19  1  0.000000  0.796430  0.570011  1
  Co  Co20  1  0.500000  0.880014  0.709745  1
  Co  Co21  1  0.500000  0.119986  0.709745  1
  Co  Co22  1  0.000000  0.620912  0.291540  1
  Co  Co23  1  0.000000  0.379088  0.291540  1
  P  P24  1  0.500000  0.500000  0.883040  1
  P  P25  1  0.000000  0.000000  0.116935  1
  P  P26  1  0.500000  0.500000  0.345876  1
  P  P27  1  0.000000  0.000000  0.655305  1
  P  P28  1  0.500000  0.309766  0.616102  1
  P  P29  1  0.500000  0.690234  0.616102  1
  P  P30  1  0.000000  0.189541  0.384399  1
  P  P31  1  0.000000  0.810459  0.384399  1
  P  P32  1  0.500000  0.847147  0.893385  1
  P  P33  1  0.500000  0.152853  0.893385  1
  P  P34  1  0.000000  0.655007  0.105764  1
  P  P35  1  0.000000  0.344993  0.105764  1
