# generated using pymatgen
data_Tb4FeCo5
_symmetry_space_group_name_H-M   'P 1'
_cell_length_a   5.41408426
_cell_length_b   5.41408453
_cell_length_c   7.03352101
_cell_angle_alpha   90.39768633
_cell_angle_beta   89.60231051
_cell_angle_gamma   120.43045790
_symmetry_Int_Tables_number   1
_chemical_formula_structural   Tb4FeCo5
_chemical_formula_sum   'Tb4 Fe1 Co5'
_cell_volume   177.76219241
_cell_formula_units_Z   1
loop_
 _symmetry_equiv_pos_site_id
 _symmetry_equiv_pos_as_xyz
  1  'x, y, z'
loop_
 _atom_site_type_symbol
 _atom_site_label
 _atom_site_symmetry_multiplicity
 _atom_site_fract_x
 _atom_site_fract_y
 _atom_site_fract_z
 _atom_site_occupancy
  Tb  Tb0  1  0.163612  0.836390  0.097982  1
  Tb  Tb1  1  0.662642  0.337359  0.402821  1
  Tb  Tb2  1  0.337359  0.662642  0.597178  1
  Tb  Tb3  1  0.836390  0.163612  0.902018  1
  Fe  Fe4  1  0.500001  0.500001  0.000000  1
  Co  Co5  1  0.163509  0.332835  0.250741  1
  Co  Co6  1  0.667165  0.836490  0.250741  1
  Co  Co7  1  0.000000  0.000000  0.499999  1
  Co  Co8  1  0.332835  0.163509  0.749259  1
  Co  Co9  1  0.836490  0.667165  0.749259  1
