# generated using pymatgen
data_Sc3CdGaRu
_symmetry_space_group_name_H-M   'P 1'
_cell_length_a   3.29887300
_cell_length_b   3.29887300
_cell_length_c   10.70397700
_cell_angle_alpha   90.00000000
_cell_angle_beta   90.00000000
_cell_angle_gamma   90.00000000
_symmetry_Int_Tables_number   1
_chemical_formula_structural   Sc3CdGaRu
_chemical_formula_sum   'Sc3 Cd1 Ga1 Ru1'
_cell_volume   116.48670480
_cell_formula_units_Z   1
loop_
 _symmetry_equiv_pos_site_id
 _symmetry_equiv_pos_as_xyz
  1  'x, y, z'
loop_
 _atom_site_type_symbol
 _atom_site_label
 _atom_site_symmetry_multiplicity
 _atom_site_fract_x
 _atom_site_fract_y
 _atom_site_fract_z
 _atom_site_occupancy
  Sc  Sc0  1  0.499999  0.499999  0.986110  1
  Sc  Sc1  1  0.499999  0.499999  0.309895  1
  Sc  Sc2  1  0.499999  0.499999  0.704013  1
  Cd  Cd3  1  0.000000  0.000000  0.505969  1
  Ga  Ga4  1  0.000000  0.000000  0.148515  1
  Ru  Ru5  1  0.000000  0.000000  0.845498  1
