# generated using pymatgen
data_Yb6Cr2N6Cl
_symmetry_space_group_name_H-M   'P 1'
_cell_length_a   6.01158499
_cell_length_b   6.01158584
_cell_length_c   6.01158443
_cell_angle_alpha   95.79400824
_cell_angle_beta   95.79401372
_cell_angle_gamma   95.79401652
_symmetry_Int_Tables_number   1
_chemical_formula_structural   Yb6Cr2N6Cl
_chemical_formula_sum   'Yb6 Cr2 N6 Cl1'
_cell_volume   213.67951870
_cell_formula_units_Z   1
loop_
 _symmetry_equiv_pos_site_id
 _symmetry_equiv_pos_as_xyz
  1  'x, y, z'
loop_
 _atom_site_type_symbol
 _atom_site_label
 _atom_site_symmetry_multiplicity
 _atom_site_fract_x
 _atom_site_fract_y
 _atom_site_fract_z
 _atom_site_occupancy
  Yb  Yb0  1  0.611172  0.112630  0.780050  1
  Yb  Yb1  1  0.112630  0.780050  0.611172  1
  Yb  Yb2  1  0.780050  0.611172  0.112630  1
  Yb  Yb3  1  0.388828  0.887370  0.219950  1
  Yb  Yb4  1  0.887370  0.219950  0.388828  1
  Yb  Yb5  1  0.219950  0.388828  0.887370  1
  Cr  Cr6  1  0.621838  0.621838  0.621838  1
  Cr  Cr7  1  0.378162  0.378162  0.378162  1
  N  N8  1  0.725983  0.847335  0.469599  1
  N  N9  1  0.847335  0.469599  0.725983  1
  N  N10  1  0.469599  0.725983  0.847335  1
  N  N11  1  0.274017  0.152665  0.530401  1
  N  N12  1  0.152665  0.530401  0.274017  1
  N  N13  1  0.530401  0.274017  0.152665  1
  Cl  Cl14  1  0.000000  0.000000  0.000000  1
