# generated using pymatgen
data_Dy5HoCo2(P3Rh4)4
_symmetry_space_group_name_H-M   'P 1'
_cell_length_a   3.86611000
_cell_length_b   11.13453800
_cell_length_c   12.77591700
_cell_angle_alpha   90.00266183
_cell_angle_beta   90.00000000
_cell_angle_gamma   90.00000000
_symmetry_Int_Tables_number   1
_chemical_formula_structural   Dy5HoCo2(P3Rh4)4
_chemical_formula_sum   'Dy5 Ho1 Co2 P12 Rh16'
_cell_volume   549.96935386
_cell_formula_units_Z   1
loop_
 _symmetry_equiv_pos_site_id
 _symmetry_equiv_pos_as_xyz
  1  'x, y, z'
loop_
 _atom_site_type_symbol
 _atom_site_label
 _atom_site_symmetry_multiplicity
 _atom_site_fract_x
 _atom_site_fract_y
 _atom_site_fract_z
 _atom_site_occupancy
  Dy  Dy0  1  0.000000  0.499852  0.521984  1
  Dy  Dy1  1  0.500000  0.000101  0.477919  1
  Dy  Dy2  1  0.500000  0.185191  0.201982  1
  Dy  Dy3  1  0.000000  0.685239  0.798093  1
  Dy  Dy4  1  0.000000  0.314847  0.798121  1
  Ho  Ho5  1  0.500000  0.814929  0.201858  1
  Co  Co6  1  0.000000  0.500114  0.979243  1
  Co  Co7  1  0.500000  0.999847  0.021023  1
  P  P8  1  0.500000  0.500087  0.881259  1
  P  P9  1  0.000000  0.999821  0.118933  1
  P  P10  1  0.500000  0.499902  0.351762  1
  P  P11  1  0.000000  0.000036  0.648218  1
  P  P12  1  0.500000  0.315893  0.619481  1
  P  P13  1  0.500000  0.684281  0.619338  1
  P  P14  1  0.000000  0.183949  0.380587  1
  P  P15  1  0.000000  0.815692  0.380213  1
  P  P16  1  0.500000  0.853538  0.895915  1
  P  P17  1  0.500000  0.146521  0.895970  1
  P  P18  1  0.000000  0.646879  0.104118  1
  P  P19  1  0.000000  0.353537  0.104120  1
  Rh  Rh20  1  0.500000  0.499804  0.168029  1
  Rh  Rh21  1  0.000000  0.999840  0.831798  1
  Rh  Rh22  1  0.500000  0.500134  0.703018  1
  Rh  Rh23  1  0.000000  0.999678  0.296895  1
  Rh  Rh24  1  0.500000  0.336794  0.993678  1
  Rh  Rh25  1  0.500000  0.663371  0.993879  1
  Rh  Rh26  1  0.000000  0.163291  0.006375  1
  Rh  Rh27  1  0.000000  0.836586  0.006595  1
  Rh  Rh28  1  0.500000  0.294123  0.430461  1
  Rh  Rh29  1  0.500000  0.705916  0.430116  1
  Rh  Rh30  1  0.000000  0.205620  0.569649  1
  Rh  Rh31  1  0.000000  0.794080  0.569552  1
  Rh  Rh32  1  0.500000  0.873580  0.712124  1
  Rh  Rh33  1  0.500000  0.126548  0.712271  1
  Rh  Rh34  1  0.000000  0.626963  0.287444  1
  Rh  Rh35  1  0.000000  0.373419  0.287978  1
