# generated using pymatgen
data_CaGa2Ni2Rh
_symmetry_space_group_name_H-M   'P 1'
_cell_length_a   9.36170300
_cell_length_b   9.36170221
_cell_length_c   3.82812700
_cell_angle_alpha   90.00000000
_cell_angle_beta   90.00000000
_cell_angle_gamma   119.99999925
_symmetry_Int_Tables_number   1
_chemical_formula_structural   CaGa2Ni2Rh
_chemical_formula_sum   'Ca3 Ga6 Ni6 Rh3'
_cell_volume   290.55386292
_cell_formula_units_Z   3
loop_
 _symmetry_equiv_pos_site_id
 _symmetry_equiv_pos_as_xyz
  1  'x, y, z'
loop_
 _atom_site_type_symbol
 _atom_site_label
 _atom_site_symmetry_multiplicity
 _atom_site_fract_x
 _atom_site_fract_y
 _atom_site_fract_z
 _atom_site_occupancy
  Ca  Ca0  1  0.000000  0.000000  0.000000  1
  Ca  Ca1  1  0.666667  0.333333  0.500000  1
  Ca  Ca2  1  0.333333  0.666667  0.500000  1
  Ga  Ga3  1  0.669056  0.677909  0.500000  1
  Ga  Ga4  1  0.322091  0.991146  0.500000  1
  Ga  Ga5  1  0.008854  0.330944  0.500000  1
  Ga  Ga6  1  0.322091  0.330944  0.500000  1
  Ga  Ga7  1  0.669056  0.991146  0.500000  1
  Ga  Ga8  1  0.008854  0.677909  0.500000  1
  Ni  Ni9  1  0.494659  0.505341  0.000000  1
  Ni  Ni10  1  0.494659  0.989318  0.000000  1
  Ni  Ni11  1  0.010682  0.505341  0.000000  1
  Ni  Ni12  1  0.181710  0.818290  0.000000  1
  Ni  Ni13  1  0.636580  0.818290  0.000000  1
  Ni  Ni14  1  0.181710  0.363420  0.000000  1
  Rh  Rh15  1  0.821962  0.178038  0.000000  1
  Rh  Rh16  1  0.821962  0.643925  0.000000  1
  Rh  Rh17  1  0.356075  0.178038  0.000000  1
