# generated using pymatgen
data_Ca3Pr8Ho9Sn16
_symmetry_space_group_name_H-M   'P 1'
_cell_length_a   8.02343900
_cell_length_b   8.37082314
_cell_length_c   15.73501300
_cell_angle_alpha   90.00000000
_cell_angle_beta   90.00000000
_cell_angle_gamma   90.04093816
_symmetry_Int_Tables_number   1
_chemical_formula_structural   Ca3Pr8Ho9Sn16
_chemical_formula_sum   'Ca3 Pr8 Ho9 Sn16'
_cell_volume   1056.80708540
_cell_formula_units_Z   1
loop_
 _symmetry_equiv_pos_site_id
 _symmetry_equiv_pos_as_xyz
  1  'x, y, z'
loop_
 _atom_site_type_symbol
 _atom_site_label
 _atom_site_symmetry_multiplicity
 _atom_site_fract_x
 _atom_site_fract_y
 _atom_site_fract_z
 _atom_site_occupancy
  Ca  Ca0  1  0.334400  0.997817  0.750000  1
  Ca  Ca1  1  0.165506  0.496115  0.250000  1
  Ca  Ca2  1  0.665684  0.001661  0.250000  1
  Pr  Pr3  1  0.505167  0.679911  0.597142  1
  Pr  Pr4  1  0.006831  0.823910  0.904111  1
  Pr  Pr5  1  0.492941  0.320041  0.095238  1
  Pr  Pr6  1  0.992427  0.179417  0.404732  1
  Pr  Pr7  1  0.492941  0.320041  0.404762  1
  Pr  Pr8  1  0.992427  0.179417  0.095268  1
  Pr  Pr9  1  0.505167  0.679911  0.902858  1
  Pr  Pr10  1  0.006831  0.823910  0.595889  1
  Ho  Ho11  1  0.667458  0.169101  0.624869  1
  Ho  Ho12  1  0.168956  0.330850  0.875131  1
  Ho  Ho13  1  0.333101  0.829044  0.123402  1
  Ho  Ho14  1  0.832585  0.668801  0.377100  1
  Ho  Ho15  1  0.333101  0.829044  0.376598  1
  Ho  Ho16  1  0.832585  0.668801  0.122900  1
  Ho  Ho17  1  0.667458  0.169101  0.875131  1
  Ho  Ho18  1  0.168956  0.330850  0.624869  1
  Ho  Ho19  1  0.836208  0.501794  0.750000  1
  Sn  Sn20  1  0.673779  0.958595  0.462295  1
  Sn  Sn21  1  0.173803  0.539068  0.038298  1
  Sn  Sn22  1  0.326096  0.041180  0.961908  1
  Sn  Sn23  1  0.826628  0.461944  0.541932  1
  Sn  Sn24  1  0.326096  0.041180  0.538092  1
  Sn  Sn25  1  0.826628  0.461944  0.958068  1
  Sn  Sn26  1  0.673779  0.958595  0.037705  1
  Sn  Sn27  1  0.173803  0.539068  0.461702  1
  Sn  Sn28  1  0.472580  0.383497  0.750000  1
  Sn  Sn29  1  0.967536  0.125849  0.750000  1
  Sn  Sn30  1  0.532944  0.619081  0.250000  1
  Sn  Sn31  1  0.032999  0.878196  0.250000  1
  Sn  Sn32  1  0.709537  0.858927  0.750000  1
  Sn  Sn33  1  0.199386  0.635595  0.750000  1
  Sn  Sn34  1  0.291538  0.132553  0.250000  1
  Sn  Sn35  1  0.792141  0.365190  0.250000  1
