# generated using pymatgen
data_La5Y11(CdCo)4
_symmetry_space_group_name_H-M   'P 1'
_cell_length_a   9.67240734
_cell_length_b   9.71146289
_cell_length_c   9.71146230
_cell_angle_alpha   59.92026472
_cell_angle_beta   60.13294256
_cell_angle_gamma   60.13294287
_symmetry_Int_Tables_number   1
_chemical_formula_structural   La5Y11(CdCo)4
_chemical_formula_sum   'La5 Y11 Cd4 Co4'
_cell_volume   645.94448889
_cell_formula_units_Z   1
loop_
 _symmetry_equiv_pos_site_id
 _symmetry_equiv_pos_as_xyz
  1  'x, y, z'
loop_
 _atom_site_type_symbol
 _atom_site_label
 _atom_site_symmetry_multiplicity
 _atom_site_fract_x
 _atom_site_fract_y
 _atom_site_fract_z
 _atom_site_occupancy
  La  La0  1  0.592951  0.598947  0.598947  1
  La  La1  1  0.596043  0.599561  0.208352  1
  La  La2  1  0.596043  0.208352  0.599561  1
  La  La3  1  0.209153  0.598947  0.598947  1
  La  La4  1  0.065054  0.434946  0.434946  1
  Y  Y5  1  0.435904  0.064096  0.064096  1
  Y  Y6  1  0.441757  0.059196  0.434891  1
  Y  Y7  1  0.064156  0.434891  0.059196  1
  Y  Y8  1  0.441757  0.434891  0.059196  1
  Y  Y9  1  0.064156  0.059196  0.434891  1
  Y  Y10  1  0.183453  0.816547  0.816547  1
  Y  Y11  1  0.815397  0.184603  0.184603  1
  Y  Y12  1  0.813583  0.184136  0.814674  1
  Y  Y13  1  0.187607  0.814674  0.184136  1
  Y  Y14  1  0.813583  0.814674  0.184136  1
  Y  Y15  1  0.187607  0.184136  0.814674  1
  Cd  Cd16  1  0.832042  0.830953  0.830953  1
  Cd  Cd17  1  0.829886  0.834517  0.505710  1
  Cd  Cd18  1  0.829886  0.505710  0.834517  1
  Cd  Cd19  1  0.506050  0.830953  0.830953  1
  Co  Co20  1  0.381207  0.393414  0.393414  1
  Co  Co21  1  0.390379  0.392842  0.826402  1
  Co  Co22  1  0.390379  0.826402  0.392842  1
  Co  Co23  1  0.831966  0.393414  0.393414  1
