# generated using pymatgen
data_Zr6V8MoOs3
_symmetry_space_group_name_H-M   'P 1'
_cell_length_a   5.20464827
_cell_length_b   5.21949050
_cell_length_c   12.84067168
_cell_angle_alpha   90.29779449
_cell_angle_beta   89.57223687
_cell_angle_gamma   119.57291799
_symmetry_Int_Tables_number   1
_chemical_formula_structural   Zr6V8MoOs3
_chemical_formula_sum   'Zr6 V8 Mo1 Os3'
_cell_volume   303.37380705
_cell_formula_units_Z   1
loop_
 _symmetry_equiv_pos_site_id
 _symmetry_equiv_pos_as_xyz
  1  'x, y, z'
loop_
 _atom_site_type_symbol
 _atom_site_label
 _atom_site_symmetry_multiplicity
 _atom_site_fract_x
 _atom_site_fract_y
 _atom_site_fract_z
 _atom_site_occupancy
  Zr  Zr0  1  0.333607  0.663743  0.915731  1
  Zr  Zr1  1  0.000851  0.000913  0.250485  1
  Zr  Zr2  1  0.667138  0.333249  0.583234  1
  Zr  Zr3  1  0.332862  0.666751  0.666766  1
  Zr  Zr4  1  0.999149  0.999087  0.999514  1
  Zr  Zr5  1  0.666393  0.336257  0.334269  1
  V  V6  1  0.167126  0.334674  0.458471  1
  V  V7  1  0.832874  0.665326  0.791529  1
  V  V8  1  0.332373  0.667009  0.293912  1
  V  V9  1  0.000000  0.000000  0.625000  1
  V  V10  1  0.667627  0.332991  0.956088  1
  V  V11  1  0.000000  0.500000  0.125000  1
  V  V12  1  0.666447  0.834193  0.458658  1
  V  V13  1  0.333553  0.165807  0.791342  1
  Mo  Mo14  1  0.500000  0.000000  0.125000  1
  Os  Os15  1  0.500000  0.500000  0.125000  1
  Os  Os16  1  0.165964  0.834717  0.458784  1
  Os  Os17  1  0.834036  0.165283  0.791216  1
