# generated using pymatgen
data_Tb3Gd(AsPt)4
_symmetry_space_group_name_H-M   'P 1'
_cell_length_a   4.29837600
_cell_length_b   4.29837530
_cell_length_c   15.66179000
_cell_angle_alpha   90.00000000
_cell_angle_beta   90.00000000
_cell_angle_gamma   120.00000541
_symmetry_Int_Tables_number   1
_chemical_formula_structural   Tb3Gd(AsPt)4
_chemical_formula_sum   'Tb3 Gd1 As4 Pt4'
_cell_volume   250.59981088
_cell_formula_units_Z   1
loop_
 _symmetry_equiv_pos_site_id
 _symmetry_equiv_pos_as_xyz
  1  'x, y, z'
loop_
 _atom_site_type_symbol
 _atom_site_label
 _atom_site_symmetry_multiplicity
 _atom_site_fract_x
 _atom_site_fract_y
 _atom_site_fract_z
 _atom_site_occupancy
  Tb  Tb0  1  0.000000  0.000000  0.251910  1
  Tb  Tb1  1  0.000000  0.000000  0.500000  1
  Tb  Tb2  1  0.000000  0.000000  0.748090  1
  Gd  Gd3  1  0.000000  0.000000  0.000000  1
  As  As4  1  0.333333  0.666665  0.117124  1
  As  As5  1  0.333333  0.666665  0.385951  1
  As  As6  1  0.666666  0.333333  0.614049  1
  As  As7  1  0.666666  0.333333  0.882875  1
  Pt  Pt8  1  0.666666  0.333333  0.138865  1
  Pt  Pt9  1  0.666666  0.333333  0.363962  1
  Pt  Pt10  1  0.333333  0.666665  0.636038  1
  Pt  Pt11  1  0.333333  0.666665  0.861135  1
