# generated using pymatgen
data_Ti5Co16Si7Au
_symmetry_space_group_name_H-M   'P 1'
_cell_length_a   7.89812537
_cell_length_b   7.88959495
_cell_length_c   7.88959434
_cell_angle_alpha   60.07155844
_cell_angle_beta   59.96423356
_cell_angle_gamma   59.96422724
_symmetry_Int_Tables_number   1
_chemical_formula_structural   Ti5Co16Si7Au
_chemical_formula_sum   'Ti5 Co16 Si7 Au1'
_cell_volume   347.63016375
_cell_formula_units_Z   1
loop_
 _symmetry_equiv_pos_site_id
 _symmetry_equiv_pos_as_xyz
  1  'x, y, z'
loop_
 _atom_site_type_symbol
 _atom_site_label
 _atom_site_symmetry_multiplicity
 _atom_site_fract_x
 _atom_site_fract_y
 _atom_site_fract_z
 _atom_site_occupancy
  Ti  Ti0  1  0.791470  0.787967  0.208530  1
  Ti  Ti1  1  0.789046  0.210954  0.210954  1
  Ti  Ti2  1  0.212033  0.208530  0.787967  1
  Ti  Ti3  1  0.791470  0.208530  0.787967  1
  Ti  Ti4  1  0.212033  0.787967  0.208530  1
  Co  Co5  1  0.621078  0.615213  0.142631  1
  Co  Co6  1  0.170067  0.486919  0.172944  1
  Co  Co7  1  0.857369  0.378922  0.378922  1
  Co  Co8  1  0.513081  0.829933  0.829933  1
  Co  Co9  1  0.511560  0.162667  0.162667  1
  Co  Co10  1  0.837333  0.836895  0.488440  1
  Co  Co11  1  0.170067  0.172944  0.486919  1
  Co  Co12  1  0.144106  0.618177  0.618177  1
  Co  Co13  1  0.163105  0.162667  0.162667  1
  Co  Co14  1  0.381823  0.380459  0.855894  1
  Co  Co15  1  0.619541  0.618177  0.618177  1
  Co  Co16  1  0.381823  0.855894  0.380459  1
  Co  Co17  1  0.384787  0.378922  0.378922  1
  Co  Co18  1  0.827056  0.829933  0.829933  1
  Co  Co19  1  0.621078  0.142631  0.615213  1
  Co  Co20  1  0.837333  0.488440  0.836895  1
  Si  Si21  1  0.500244  0.997554  0.499756  1
  Si  Si22  1  0.500244  0.499756  0.997554  1
  Si  Si23  1  0.501335  0.498665  0.498665  1
  Si  Si24  1  0.002446  0.997554  0.499756  1
  Si  Si25  1  0.002446  0.499756  0.997554  1
  Si  Si26  1  0.998421  0.501579  0.501579  1
  Si  Si27  1  0.498421  0.001579  0.001579  1
  Au  Au28  1  0.159182  0.840818  0.840818  1
