# generated using pymatgen
data_Ho8Re7Si16W5
_symmetry_space_group_name_H-M   'P 1'
_cell_length_a   6.78888881
_cell_length_b   6.78414905
_cell_length_c   12.89317199
_cell_angle_alpha   90.18174476
_cell_angle_beta   90.08397816
_cell_angle_gamma   90.08839424
_symmetry_Int_Tables_number   1
_chemical_formula_structural   Ho8Re7Si16W5
_chemical_formula_sum   'Ho8 Re7 Si16 W5'
_cell_volume   593.81433989
_cell_formula_units_Z   1
loop_
 _symmetry_equiv_pos_site_id
 _symmetry_equiv_pos_as_xyz
  1  'x, y, z'
loop_
 _atom_site_type_symbol
 _atom_site_label
 _atom_site_symmetry_multiplicity
 _atom_site_fract_x
 _atom_site_fract_y
 _atom_site_fract_z
 _atom_site_occupancy
  Ho  Ho0  1  0.336474  0.989568  0.468646  1
  Ho  Ho1  1  0.510085  0.835098  0.718727  1
  Ho  Ho2  1  0.490714  0.164420  0.220094  1
  Ho  Ho3  1  0.835685  0.508834  0.280578  1
  Ho  Ho4  1  0.166284  0.493127  0.780384  1
  Ho  Ho5  1  0.664853  0.009122  0.969115  1
  Ho  Ho6  1  0.990964  0.335134  0.530282  1
  Ho  Ho7  1  0.009949  0.667030  0.031488  1
  Re  Re8  1  0.512006  0.686316  0.117970  1
  Re  Re9  1  0.493778  0.313356  0.618627  1
  Re  Re10  1  0.685845  0.509994  0.881594  1
  Re  Re11  1  0.310719  0.487513  0.381913  1
  Re  Re12  1  0.809101  0.010273  0.368139  1
  Re  Re13  1  0.987936  0.185980  0.130045  1
  Re  Re14  1  0.013054  0.808946  0.632308  1
  Si  Si15  1  0.201551  0.114070  0.680366  1
  Si  Si16  1  0.383789  0.699973  0.931785  1
  Si  Si17  1  0.613917  0.300557  0.431385  1
  Si  Si18  1  0.697920  0.384664  0.067998  1
  Si  Si19  1  0.301560  0.613340  0.567750  1
  Si  Si20  1  0.800395  0.885504  0.182092  1
  Si  Si21  1  0.112343  0.197544  0.317911  1
  Si  Si22  1  0.882783  0.798065  0.817982  1
  Si  Si23  1  0.280437  0.977470  0.063598  1
  Si  Si24  1  0.518564  0.773629  0.310164  1
  Si  Si25  1  0.482301  0.223695  0.809619  1
  Si  Si26  1  0.780065  0.519519  0.689901  1
  Si  Si27  1  0.223060  0.479087  0.189526  1
  Si  Si28  1  0.726655  0.017925  0.560371  1
  Si  Si29  1  0.973175  0.288402  0.940057  1
  Si  Si30  1  0.018976  0.724269  0.439612  1
  W  W31  1  0.336974  0.335453  0.998116  1
  W  W32  1  0.162726  0.837870  0.250024  1
  W  W33  1  0.842041  0.161564  0.751878  1
  W  W34  1  0.662167  0.660439  0.499897  1
  W  W35  1  0.181153  0.002249  0.870056  1
