# generated using pymatgen
data_RbP4PdO12
_symmetry_space_group_name_H-M   'P 1'
_cell_length_a   10.66500180
_cell_length_b   10.66500193
_cell_length_c   5.34457772
_cell_angle_alpha   80.42492065
_cell_angle_beta   80.42491701
_cell_angle_gamma   72.36164044
_symmetry_Int_Tables_number   1
_chemical_formula_structural   RbP4PdO12
_chemical_formula_sum   'Rb2 P8 Pd2 O24'
_cell_volume   566.89032631
_cell_formula_units_Z   2
loop_
 _symmetry_equiv_pos_site_id
 _symmetry_equiv_pos_as_xyz
  1  'x, y, z'
loop_
 _atom_site_type_symbol
 _atom_site_label
 _atom_site_symmetry_multiplicity
 _atom_site_fract_x
 _atom_site_fract_y
 _atom_site_fract_z
 _atom_site_occupancy
  Rb  Rb0  1  0.400019  0.400019  0.737765  1
  Rb  Rb1  1  0.599981  0.599981  0.262235  1
  P  P2  1  0.802632  0.350654  0.835817  1
  P  P3  1  0.070419  0.305808  0.518652  1
  P  P4  1  0.305808  0.070419  0.518652  1
  P  P5  1  0.649346  0.197368  0.164183  1
  P  P6  1  0.350654  0.802632  0.835817  1
  P  P7  1  0.694192  0.929581  0.481348  1
  P  P8  1  0.929581  0.694192  0.481348  1
  P  P9  1  0.197368  0.649346  0.164183  1
  Pd  Pd10  1  0.500000  0.000000  0.000000  1
  Pd  Pd11  1  0.000000  0.500000  0.000000  1
  O  O12  1  0.423223  0.846090  0.016073  1
  O  O13  1  0.396193  0.111485  0.656592  1
  O  O14  1  0.423659  0.681668  0.715629  1
  O  O15  1  0.153910  0.576777  0.983927  1
  O  O16  1  0.576777  0.153910  0.983927  1
  O  O17  1  0.913563  0.668765  0.772673  1
  O  O18  1  0.211343  0.788657  0.000000  1
  O  O19  1  0.576341  0.318332  0.284371  1
  O  O20  1  0.603807  0.888515  0.343408  1
  O  O21  1  0.707625  0.074376  0.374736  1
  O  O22  1  0.318332  0.576341  0.284371  1
  O  O23  1  0.888515  0.603807  0.343408  1
  O  O24  1  0.846090  0.423223  0.016073  1
  O  O25  1  0.074376  0.707625  0.374736  1
  O  O26  1  0.153107  0.153107  0.583909  1
  O  O27  1  0.111485  0.396193  0.656592  1
  O  O28  1  0.681668  0.423659  0.715629  1
  O  O29  1  0.292375  0.925624  0.625264  1
  O  O30  1  0.788657  0.211343  0.000000  1
  O  O31  1  0.331235  0.086437  0.227327  1
  O  O32  1  0.668765  0.913563  0.772673  1
  O  O33  1  0.846893  0.846893  0.416091  1
  O  O34  1  0.925624  0.292375  0.625264  1
  O  O35  1  0.086437  0.331235  0.227327  1
