# generated using pymatgen
data_DyEr19Bi11Sb
_symmetry_space_group_name_H-M   'P 1'
_cell_length_a   8.18316853
_cell_length_b   9.46003000
_cell_length_c   11.93652101
_cell_angle_alpha   90.00000000
_cell_angle_beta   90.03688433
_cell_angle_gamma   90.00000000
_symmetry_Int_Tables_number   1
_chemical_formula_structural   DyEr19Bi11Sb
_chemical_formula_sum   'Dy1 Er19 Bi11 Sb1'
_cell_volume   924.04194539
_cell_formula_units_Z   1
loop_
 _symmetry_equiv_pos_site_id
 _symmetry_equiv_pos_as_xyz
  1  'x, y, z'
loop_
 _atom_site_type_symbol
 _atom_site_label
 _atom_site_symmetry_multiplicity
 _atom_site_fract_x
 _atom_site_fract_y
 _atom_site_fract_z
 _atom_site_occupancy
  Dy  Dy0  1  0.188857  0.750000  0.720351  1
  Er  Er1  1  0.353276  0.750000  0.213061  1
  Er  Er2  1  0.852604  0.750000  0.283722  1
  Er  Er3  1  0.647604  0.250000  0.783949  1
  Er  Er4  1  0.147486  0.250000  0.716248  1
  Er  Er5  1  0.690261  0.566440  0.057472  1
  Er  Er6  1  0.192842  0.935554  0.441167  1
  Er  Er7  1  0.308381  0.060666  0.941433  1
  Er  Er8  1  0.807217  0.435886  0.558650  1
  Er  Er9  1  0.308381  0.439334  0.941433  1
  Er  Er10  1  0.807217  0.064114  0.558650  1
  Er  Er11  1  0.690261  0.933560  0.057472  1
  Er  Er12  1  0.192842  0.564446  0.441167  1
  Er  Er13  1  0.475221  0.250000  0.488092  1
  Er  Er14  1  0.975848  0.250000  0.011605  1
  Er  Er15  1  0.525057  0.750000  0.511912  1
  Er  Er16  1  0.028090  0.750000  0.988022  1
  Er  Er17  1  0.312557  0.250000  0.218553  1
  Er  Er18  1  0.812402  0.250000  0.281567  1
  Er  Er19  1  0.683366  0.750000  0.784181  1
  Bi  Bi20  1  0.907224  0.750000  0.543103  1
  Bi  Bi21  1  0.593117  0.250000  0.042956  1
  Bi  Bi22  1  0.092910  0.250000  0.457134  1
  Bi  Bi23  1  0.565329  0.995454  0.325348  1
  Bi  Bi24  1  0.065308  0.504291  0.174390  1
  Bi  Bi25  1  0.434874  0.495235  0.674461  1
  Bi  Bi26  1  0.934183  0.004271  0.825574  1
  Bi  Bi27  1  0.434874  0.004765  0.674461  1
  Bi  Bi28  1  0.934183  0.495729  0.825574  1
  Bi  Bi29  1  0.565329  0.504546  0.325348  1
  Bi  Bi30  1  0.065308  0.995709  0.174390  1
  Sb  Sb31  1  0.407593  0.750000  0.958553  1
