# generated using pymatgen
data_CeMnFeSiC
_symmetry_space_group_name_H-M   'P 1'
_cell_length_a   5.63872925
_cell_length_b   5.63873100
_cell_length_c   6.84515742
_cell_angle_alpha   91.96621662
_cell_angle_beta   88.03378158
_cell_angle_gamma   140.23541198
_symmetry_Int_Tables_number   1
_chemical_formula_structural   CeMnFeSiC
_chemical_formula_sum   'Ce2 Mn2 Fe2 Si2 C2'
_cell_volume   139.11976958
_cell_formula_units_Z   2
loop_
 _symmetry_equiv_pos_site_id
 _symmetry_equiv_pos_as_xyz
  1  'x, y, z'
loop_
 _atom_site_type_symbol
 _atom_site_label
 _atom_site_symmetry_multiplicity
 _atom_site_fract_x
 _atom_site_fract_y
 _atom_site_fract_z
 _atom_site_occupancy
  Ce  Ce0  1  0.553411  0.446589  0.245306  1
  Ce  Ce1  1  0.446589  0.553411  0.754694  1
  Mn  Mn2  1  0.169639  0.830361  0.560833  1
  Mn  Mn3  1  0.830361  0.169639  0.439167  1
  Fe  Fe4  1  0.835435  0.164565  0.061433  1
  Fe  Fe5  1  0.164565  0.835435  0.938567  1
  Si  Si6  1  0.272178  0.727822  0.234933  1
  Si  Si7  1  0.727822  0.272178  0.765067  1
  C  C8  1  0.000000  0.000000  0.000000  1
  C  C9  1  0.000000  0.000000  0.500000  1
