# generated using pymatgen
data_HoEr9(IrPt2)2
_symmetry_space_group_name_H-M   'P 1'
_cell_length_a   10.97636236
_cell_length_b   10.97976000
_cell_length_c   6.32016400
_cell_angle_alpha   90.00000000
_cell_angle_beta   90.01475151
_cell_angle_gamma   90.00000000
_symmetry_Int_Tables_number   1
_chemical_formula_structural   HoEr9(IrPt2)2
_chemical_formula_sum   'Ho2 Er18 Ir4 Pt8'
_cell_volume   761.69239006
_cell_formula_units_Z   2
loop_
 _symmetry_equiv_pos_site_id
 _symmetry_equiv_pos_as_xyz
  1  'x, y, z'
loop_
 _atom_site_type_symbol
 _atom_site_label
 _atom_site_symmetry_multiplicity
 _atom_site_fract_x
 _atom_site_fract_y
 _atom_site_fract_z
 _atom_site_occupancy
  Ho  Ho0  1  0.087664  0.705485  0.626240  1
  Ho  Ho1  1  0.087664  0.294515  0.126240  1
  Er  Er2  1  0.295540  0.087305  0.374676  1
  Er  Er3  1  0.295540  0.912695  0.874676  1
  Er  Er4  1  0.704756  0.087518  0.874103  1
  Er  Er5  1  0.704756  0.912482  0.374103  1
  Er  Er6  1  0.587695  0.795074  0.874261  1
  Er  Er7  1  0.587695  0.204926  0.374261  1
  Er  Er8  1  0.412498  0.795173  0.374260  1
  Er  Er9  1  0.412498  0.204827  0.874260  1
  Er  Er10  1  0.204803  0.412396  0.625713  1
  Er  Er11  1  0.204803  0.587604  0.125713  1
  Er  Er12  1  0.794854  0.412697  0.125895  1
  Er  Er13  1  0.794854  0.587303  0.625895  1
  Er  Er14  1  0.912054  0.704724  0.125907  1
  Er  Er15  1  0.912054  0.295276  0.625907  1
  Er  Er16  1  0.999745  0.000395  0.499672  1
  Er  Er17  1  0.999745  0.999605  0.999672  1
  Er  Er18  1  0.500005  0.499985  0.999758  1
  Er  Er19  1  0.500005  0.500015  0.499758  1
  Ir  Ir20  1  0.500216  0.999998  0.120479  1
  Ir  Ir21  1  0.500216  0.000002  0.620479  1
  Ir  Ir22  1  0.999638  0.500007  0.879646  1
  Ir  Ir23  1  0.999638  0.499993  0.379646  1
  Pt  Pt24  1  0.846025  0.153499  0.250041  1
  Pt  Pt25  1  0.846025  0.846501  0.750041  1
  Pt  Pt26  1  0.153877  0.153139  0.749172  1
  Pt  Pt27  1  0.153877  0.846861  0.249172  1
  Pt  Pt28  1  0.653612  0.346424  0.749948  1
  Pt  Pt29  1  0.653612  0.653576  0.249948  1
  Pt  Pt30  1  0.347018  0.346410  0.250229  1
  Pt  Pt31  1  0.347018  0.653590  0.750229  1
