# generated using pymatgen
data_ThIn2NiIr8
_symmetry_space_group_name_H-M   'P 1'
_cell_length_a   5.25572200
_cell_length_b   8.78563000
_cell_length_c   8.78563000
_cell_angle_alpha   90.00000000
_cell_angle_beta   90.00000000
_cell_angle_gamma   90.00000000
_symmetry_Int_Tables_number   1
_chemical_formula_structural   ThIn2NiIr8
_chemical_formula_sum   'Th2 In4 Ni2 Ir16'
_cell_volume   405.67496181
_cell_formula_units_Z   2
loop_
 _symmetry_equiv_pos_site_id
 _symmetry_equiv_pos_as_xyz
  1  'x, y, z'
loop_
 _atom_site_type_symbol
 _atom_site_label
 _atom_site_symmetry_multiplicity
 _atom_site_fract_x
 _atom_site_fract_y
 _atom_site_fract_z
 _atom_site_occupancy
  Th  Th0  1  0.000000  0.500000  0.500000  1
  Th  Th1  1  0.000000  0.000000  0.000000  1
  In  In2  1  0.000000  0.621511  0.121511  1
  In  In3  1  0.000000  0.378489  0.878489  1
  In  In4  1  0.000000  0.878489  0.621511  1
  In  In5  1  0.000000  0.121511  0.378489  1
  Ni  Ni6  1  0.500000  0.000000  0.500000  1
  Ni  Ni7  1  0.500000  0.500000  0.000000  1
  Ir  Ir8  1  0.758775  0.174626  0.674626  1
  Ir  Ir9  1  0.758775  0.825374  0.325374  1
  Ir  Ir10  1  0.758775  0.325374  0.174626  1
  Ir  Ir11  1  0.758775  0.674626  0.825374  1
  Ir  Ir12  1  0.241225  0.825374  0.325374  1
  Ir  Ir13  1  0.241225  0.174626  0.674626  1
  Ir  Ir14  1  0.241225  0.674626  0.825374  1
  Ir  Ir15  1  0.241225  0.325374  0.174626  1
  Ir  Ir16  1  0.500000  0.705168  0.564891  1
  Ir  Ir17  1  0.500000  0.294832  0.435109  1
  Ir  Ir18  1  0.500000  0.794832  0.064891  1
  Ir  Ir19  1  0.500000  0.205168  0.935109  1
  Ir  Ir20  1  0.500000  0.564891  0.294832  1
  Ir  Ir21  1  0.500000  0.435109  0.705168  1
  Ir  Ir22  1  0.500000  0.064891  0.205168  1
  Ir  Ir23  1  0.500000  0.935109  0.794832  1
