# generated using pymatgen
data_Ca5Tb12Nb3(ReN4)12
_symmetry_space_group_name_H-M   'P 1'
_cell_length_a   11.26236814
_cell_length_b   11.32909899
_cell_length_c   11.26236773
_cell_angle_alpha   109.59129125
_cell_angle_beta   109.35088006
_cell_angle_gamma   109.59129221
_symmetry_Int_Tables_number   1
_chemical_formula_structural   Ca5Tb12Nb3(ReN4)12
_chemical_formula_sum   'Ca5 Tb12 Nb3 Re12 N48'
_cell_volume   1104.55467727
_cell_formula_units_Z   1
loop_
 _symmetry_equiv_pos_site_id
 _symmetry_equiv_pos_as_xyz
  1  'x, y, z'
loop_
 _atom_site_type_symbol
 _atom_site_label
 _atom_site_symmetry_multiplicity
 _atom_site_fract_x
 _atom_site_fract_y
 _atom_site_fract_z
 _atom_site_occupancy
  Ca  Ca0  1  0.000000  0.000000  0.000000  1
  Ca  Ca1  1  0.500000  0.500000  0.000000  1
  Ca  Ca2  1  0.000000  0.000000  0.500000  1
  Ca  Ca3  1  0.500000  0.000000  0.500000  1
  Ca  Ca4  1  0.000000  0.500000  0.500000  1
  Tb  Tb5  1  0.378401  0.752342  0.126904  1
  Tb  Tb6  1  0.248504  0.373941  0.121599  1
  Tb  Tb7  1  0.373096  0.125438  0.251496  1
  Tb  Tb8  1  0.875344  0.622883  0.247278  1
  Tb  Tb9  1  0.747278  0.124395  0.371934  1
  Tb  Tb10  1  0.128066  0.252460  0.375344  1
  Tb  Tb11  1  0.871934  0.747540  0.624657  1
  Tb  Tb12  1  0.252722  0.875605  0.628066  1
  Tb  Tb13  1  0.124656  0.377117  0.752722  1
  Tb  Tb14  1  0.626905  0.874562  0.748504  1
  Tb  Tb15  1  0.621599  0.247658  0.873096  1
  Tb  Tb16  1  0.751496  0.626060  0.878401  1
  Nb  Nb17  1  0.500000  0.000000  0.000000  1
  Nb  Nb18  1  0.000000  0.500000  0.000000  1
  Nb  Nb19  1  0.500000  0.500000  0.500000  1
  Re  Re20  1  0.876279  0.251592  0.125699  1
  Re  Re21  1  0.746438  0.875475  0.119533  1
  Re  Re22  1  0.625700  0.374106  0.249420  1
  Re  Re23  1  0.126905  0.870963  0.246437  1
  Re  Re24  1  0.250580  0.624687  0.376279  1
  Re  Re25  1  0.619533  0.744058  0.373095  1
  Re  Re26  1  0.380467  0.255942  0.626906  1
  Re  Re27  1  0.749420  0.375314  0.623721  1
  Re  Re28  1  0.873095  0.129037  0.753562  1
  Re  Re29  1  0.374301  0.625894  0.750580  1
  Re  Re30  1  0.253561  0.124525  0.880467  1
  Re  Re31  1  0.123721  0.748407  0.874301  1
  N  N32  1  0.312234  0.901479  0.015808  1
  N  N33  1  0.232032  0.134000  0.035645  1
  N  N34  1  0.881662  0.402360  0.087359  1
  N  N35  1  0.730840  0.704148  0.101228  1
  N  N36  1  0.627943  0.401497  0.101170  1
  N  N37  1  0.976660  0.681918  0.092219  1
  N  N38  1  0.026774  0.226447  0.127944  1
  N  N39  1  0.592218  0.910300  0.115558  1
  N  N40  1  0.203574  0.589245  0.187766  1
  N  N41  1  0.464356  0.598355  0.196387  1
  N  N42  1  0.129612  0.026692  0.230841  1
  N  N43  1  0.587359  0.184999  0.205696  1
  N  N44  1  0.303613  0.901968  0.267969  1
  N  N45  1  0.484192  0.385671  0.296426  1
  N  N46  1  0.902648  0.277394  0.300441  1
  N  N47  1  0.896396  0.029106  0.295117  1
  N  N48  1  0.294304  0.479303  0.381662  1
  N  N49  1  0.601228  0.897080  0.370389  1
  N  N50  1  0.800441  0.523049  0.397794  1
  N  N51  1  0.101279  0.867290  0.396396  1
  N  N52  1  0.102207  0.625255  0.402648  1
  N  N53  1  0.795116  0.766010  0.398721  1
  N  N54  1  0.601170  0.199673  0.473227  1
  N  N55  1  0.384442  0.294743  0.476661  1
  N  N56  1  0.615557  0.705257  0.523339  1
  N  N57  1  0.398831  0.800327  0.526774  1
  N  N58  1  0.204883  0.233989  0.601279  1
  N  N59  1  0.897793  0.374745  0.597352  1
  N  N60  1  0.898720  0.132710  0.603603  1
  N  N61  1  0.199559  0.476952  0.602207  1
  N  N62  1  0.398772  0.102920  0.629611  1
  N  N63  1  0.705696  0.520697  0.618337  1
  N  N64  1  0.097352  0.722606  0.699559  1
  N  N65  1  0.103604  0.970893  0.704883  1
  N  N66  1  0.515808  0.614328  0.703574  1
  N  N67  1  0.696387  0.098032  0.732031  1
  N  N68  1  0.870389  0.973309  0.769160  1
  N  N69  1  0.412641  0.815000  0.794303  1
  N  N70  1  0.535645  0.401646  0.803613  1
  N  N71  1  0.796425  0.410755  0.812233  1
  N  N72  1  0.407781  0.089699  0.884442  1
  N  N73  1  0.973227  0.773554  0.872057  1
  N  N74  1  0.023339  0.318082  0.907781  1
  N  N75  1  0.372057  0.598503  0.898830  1
  N  N76  1  0.269160  0.295852  0.898772  1
  N  N77  1  0.118338  0.597639  0.912640  1
  N  N78  1  0.687766  0.098521  0.984191  1
  N  N79  1  0.767969  0.866001  0.964356  1
