# generated using pymatgen
data_Ba4PuTcO8
_symmetry_space_group_name_H-M   'P 1'
_cell_length_a   7.55907700
_cell_length_b   7.55907761
_cell_length_c   5.97866900
_cell_angle_alpha   90.00000000
_cell_angle_beta   90.00000000
_cell_angle_gamma   133.47405282
_symmetry_Int_Tables_number   1
_chemical_formula_structural   Ba4PuTcO8
_chemical_formula_sum   'Ba4 Pu1 Tc1 O8'
_cell_volume   247.90817291
_cell_formula_units_Z   1
loop_
 _symmetry_equiv_pos_site_id
 _symmetry_equiv_pos_as_xyz
  1  'x, y, z'
loop_
 _atom_site_type_symbol
 _atom_site_label
 _atom_site_symmetry_multiplicity
 _atom_site_fract_x
 _atom_site_fract_y
 _atom_site_fract_z
 _atom_site_occupancy
  Ba  Ba0  1  0.355426  0.644574  0.000000  1
  Ba  Ba1  1  0.853109  0.146891  0.500000  1
  Ba  Ba2  1  0.146891  0.853109  0.500000  1
  Ba  Ba3  1  0.644574  0.355426  0.000000  1
  Pu  Pu4  1  0.000000  0.000000  0.000000  1
  Tc  Tc5  1  0.500000  0.500000  0.500000  1
  O  O6  1  0.258068  0.258068  0.740976  1
  O  O7  1  0.741932  0.741932  0.259024  1
  O  O8  1  0.741932  0.741932  0.740976  1
  O  O9  1  0.258068  0.258068  0.259024  1
  O  O10  1  0.159550  0.840450  0.000000  1
  O  O11  1  0.652493  0.347507  0.500000  1
  O  O12  1  0.347507  0.652493  0.500000  1
  O  O13  1  0.840450  0.159550  0.000000  1
