# generated using pymatgen
data_Zr5Hg3B
_symmetry_space_group_name_H-M   'P 1'
_cell_length_a   8.77183600
_cell_length_b   8.77183566
_cell_length_c   5.51413800
_cell_angle_alpha   90.00000000
_cell_angle_beta   90.00000000
_cell_angle_gamma   119.99999374
_symmetry_Int_Tables_number   1
_chemical_formula_structural   Zr5Hg3B
_chemical_formula_sum   'Zr10 Hg6 B2'
_cell_volume   367.44240924
_cell_formula_units_Z   2
loop_
 _symmetry_equiv_pos_site_id
 _symmetry_equiv_pos_as_xyz
  1  'x, y, z'
loop_
 _atom_site_type_symbol
 _atom_site_label
 _atom_site_symmetry_multiplicity
 _atom_site_fract_x
 _atom_site_fract_y
 _atom_site_fract_z
 _atom_site_occupancy
  Zr  Zr0  1  0.666667  0.333333  0.000000  1
  Zr  Zr1  1  0.333333  0.666667  0.000000  1
  Zr  Zr2  1  0.333333  0.666667  0.500000  1
  Zr  Zr3  1  0.666667  0.333333  0.500000  1
  Zr  Zr4  1  0.774310  0.774310  0.750000  1
  Zr  Zr5  1  0.225690  0.000000  0.750000  1
  Zr  Zr6  1  0.000000  0.225690  0.750000  1
  Zr  Zr7  1  0.225690  0.225690  0.250000  1
  Zr  Zr8  1  0.774310  0.000000  0.250000  1
  Zr  Zr9  1  0.000000  0.774310  0.250000  1
  Hg  Hg10  1  0.399404  0.399404  0.750000  1
  Hg  Hg11  1  0.600596  0.000000  0.750000  1
  Hg  Hg12  1  0.000000  0.600596  0.750000  1
  Hg  Hg13  1  0.600596  0.600596  0.250000  1
  Hg  Hg14  1  0.399404  0.000000  0.250000  1
  Hg  Hg15  1  0.000000  0.399404  0.250000  1
  B  B16  1  0.000000  0.000000  0.000000  1
  B  B17  1  0.000000  0.000000  0.500000  1
