# generated using pymatgen
data_La2Ho18Si15Pd
_symmetry_space_group_name_H-M   'P 1'
_cell_length_a   7.41099587
_cell_length_b   7.75032063
_cell_length_c   14.63127951
_cell_angle_alpha   89.58646375
_cell_angle_beta   89.95567295
_cell_angle_gamma   89.92772352
_symmetry_Int_Tables_number   1
_chemical_formula_structural   La2Ho18Si15Pd
_chemical_formula_sum   'La2 Ho18 Si15 Pd1'
_cell_volume   840.36269192
_cell_formula_units_Z   1
loop_
 _symmetry_equiv_pos_site_id
 _symmetry_equiv_pos_as_xyz
  1  'x, y, z'
loop_
 _atom_site_type_symbol
 _atom_site_label
 _atom_site_symmetry_multiplicity
 _atom_site_fract_x
 _atom_site_fract_y
 _atom_site_fract_z
 _atom_site_occupancy
  La  La0  1  0.522581  0.571202  0.341623  1
  La  La1  1  0.023071  0.428368  0.657432  1
  Ho  Ho2  1  0.810597  0.576639  0.875209  1
  Ho  Ho3  1  0.315569  0.423418  0.125432  1
  Ho  Ho4  1  0.182289  0.928239  0.373301  1
  Ho  Ho5  1  0.682301  0.069730  0.626984  1
  Ho  Ho6  1  0.182823  0.927900  0.628411  1
  Ho  Ho7  1  0.682819  0.071034  0.371356  1
  Ho  Ho8  1  0.815842  0.572093  0.126039  1
  Ho  Ho9  1  0.319338  0.428029  0.873329  1
  Ho  Ho10  1  0.644184  0.231813  0.999201  1
  Ho  Ho11  1  0.155845  0.759455  0.000789  1
  Ho  Ho12  1  0.351459  0.263381  0.500086  1
  Ho  Ho13  1  0.850069  0.735708  0.499850  1
  Ho  Ho14  1  0.475294  0.933403  0.845611  1
  Ho  Ho15  1  0.973420  0.066353  0.152575  1
  Ho  Ho16  1  0.473099  0.934810  0.153240  1
  Ho  Ho17  1  0.971658  0.066510  0.848659  1
  Ho  Ho18  1  0.527403  0.566220  0.652293  1
  Ho  Ho19  1  0.027888  0.434167  0.347745  1
  Si  Si20  1  0.018092  0.352113  0.000052  1
  Si  Si21  1  0.477298  0.859923  0.501327  1
  Si  Si22  1  0.978133  0.139643  0.498883  1
  Si  Si23  1  0.650767  0.277304  0.790855  1
  Si  Si24  1  0.152013  0.721607  0.208974  1
  Si  Si25  1  0.350418  0.215543  0.287927  1
  Si  Si26  1  0.850432  0.784173  0.712853  1
  Si  Si27  1  0.361330  0.219581  0.710273  1
  Si  Si28  1  0.860771  0.780911  0.288899  1
  Si  Si29  1  0.646273  0.269583  0.205851  1
  Si  Si30  1  0.147109  0.728278  0.793729  1
  Si  Si31  1  0.774019  0.881534  0.000900  1
  Si  Si32  1  0.260115  0.124024  0.999474  1
  Si  Si33  1  0.233724  0.627107  0.501834  1
  Si  Si34  1  0.732933  0.373623  0.498504  1
  Pd  Pd35  1  0.519022  0.656582  0.000500  1
