# generated using pymatgen
data_LaCe2USb5
_symmetry_space_group_name_H-M   'P 1'
_cell_length_a   9.81524500
_cell_length_b   9.75414086
_cell_length_c   6.22900700
_cell_angle_alpha   90.00000000
_cell_angle_beta   90.00000000
_cell_angle_gamma   120.20743957
_symmetry_Int_Tables_number   1
_chemical_formula_structural   LaCe2USb5
_chemical_formula_sum   'La2 Ce4 U2 Sb10'
_cell_volume   515.38053554
_cell_formula_units_Z   2
loop_
 _symmetry_equiv_pos_site_id
 _symmetry_equiv_pos_as_xyz
  1  'x, y, z'
loop_
 _atom_site_type_symbol
 _atom_site_label
 _atom_site_symmetry_multiplicity
 _atom_site_fract_x
 _atom_site_fract_y
 _atom_site_fract_z
 _atom_site_occupancy
  La  La0  1  0.616234  0.000000  0.250000  1
  La  La1  1  0.383766  0.000000  0.750000  1
  Ce  Ce2  1  0.002749  0.615255  0.250000  1
  Ce  Ce3  1  0.997251  0.384745  0.750000  1
  Ce  Ce4  1  0.387493  0.384745  0.250000  1
  Ce  Ce5  1  0.612507  0.615255  0.750000  1
  U  U6  1  0.000000  0.000000  0.000000  1
  U  U7  1  0.000000  0.000000  0.500000  1
  Sb  Sb8  1  0.271814  0.000000  0.250000  1
  Sb  Sb9  1  0.728186  0.000000  0.750000  1
  Sb  Sb10  1  0.003938  0.276606  0.250000  1
  Sb  Sb11  1  0.996062  0.723394  0.750000  1
  Sb  Sb12  1  0.727332  0.723394  0.250000  1
  Sb  Sb13  1  0.272668  0.276606  0.750000  1
  Sb  Sb14  1  0.330577  0.661156  0.000000  1
  Sb  Sb15  1  0.669423  0.338844  0.000000  1
  Sb  Sb16  1  0.669423  0.338844  0.500000  1
  Sb  Sb17  1  0.330577  0.661156  0.500000  1
