# generated using pymatgen
data_Lu7(CuTe)2
_symmetry_space_group_name_H-M   'P 1'
_cell_length_a   9.05968564
_cell_length_b   9.05968441
_cell_length_c   9.05968561
_cell_angle_alpha   154.64640304
_cell_angle_beta   117.77340217
_cell_angle_gamma   68.30545071
_symmetry_Int_Tables_number   1
_chemical_formula_structural   Lu7(CuTe)2
_chemical_formula_sum   'Lu7 Cu2 Te2'
_cell_volume   279.12177459
_cell_formula_units_Z   1
loop_
 _symmetry_equiv_pos_site_id
 _symmetry_equiv_pos_as_xyz
  1  'x, y, z'
loop_
 _atom_site_type_symbol
 _atom_site_label
 _atom_site_symmetry_multiplicity
 _atom_site_fract_x
 _atom_site_fract_y
 _atom_site_fract_z
 _atom_site_occupancy
  Lu  Lu0  1  0.545425  0.131820  0.413605  1
  Lu  Lu1  1  0.281784  0.868180  0.413605  1
  Lu  Lu2  1  0.935418  0.314111  0.621306  1
  Lu  Lu3  1  0.307195  0.685889  0.621306  1
  Lu  Lu4  1  0.622139  0.356674  0.265465  1
  Lu  Lu5  1  0.908790  0.643326  0.265465  1
  Lu  Lu6  1  0.003957  0.000000  0.003957  1
  Cu  Cu7  1  0.163456  0.234911  0.928544  1
  Cu  Cu8  1  0.693633  0.765089  0.928544  1
  Te  Te9  1  0.267439  0.500000  0.767439  1
  Te  Te10  1  0.661624  0.000000  0.661624  1
