# generated using pymatgen
data_Sr12Cd5Sn6Au
_symmetry_space_group_name_H-M   'P 1'
_cell_length_a   5.71675901
_cell_length_b   8.07413200
_cell_length_c   17.18805102
_cell_angle_alpha   90.00000000
_cell_angle_beta   90.00499235
_cell_angle_gamma   90.00000000
_symmetry_Int_Tables_number   1
_chemical_formula_structural   Sr12Cd5Sn6Au
_chemical_formula_sum   'Sr12 Cd5 Sn6 Au1'
_cell_volume   793.36376673
_cell_formula_units_Z   1
loop_
 _symmetry_equiv_pos_site_id
 _symmetry_equiv_pos_as_xyz
  1  'x, y, z'
loop_
 _atom_site_type_symbol
 _atom_site_label
 _atom_site_symmetry_multiplicity
 _atom_site_fract_x
 _atom_site_fract_y
 _atom_site_fract_z
 _atom_site_occupancy
  Sr  Sr0  1  0.500000  0.237803  0.000000  1
  Sr  Sr1  1  0.500000  0.762198  0.000000  1
  Sr  Sr2  1  0.000087  0.243244  0.160233  1
  Sr  Sr3  1  0.000087  0.756757  0.160233  1
  Sr  Sr4  1  0.500114  0.250968  0.333243  1
  Sr  Sr5  1  0.500114  0.749033  0.333243  1
  Sr  Sr6  1  0.000000  0.248433  0.500000  1
  Sr  Sr7  1  0.000000  0.751568  0.500000  1
  Sr  Sr8  1  0.499886  0.250968  0.666757  1
  Sr  Sr9  1  0.499886  0.749033  0.666757  1
  Sr  Sr10  1  0.999913  0.243244  0.839767  1
  Sr  Sr11  1  0.999913  0.756757  0.839767  1
  Cd  Cd12  1  0.500158  0.500000  0.164934  1
  Cd  Cd13  1  0.000164  0.000000  0.331754  1
  Cd  Cd14  1  0.500000  0.500000  0.500000  1
  Cd  Cd15  1  0.999836  0.000000  0.668246  1
  Cd  Cd16  1  0.499842  0.500000  0.835066  1
  Sn  Sn17  1  0.000000  0.500000  0.000000  1
  Sn  Sn18  1  0.500190  0.000000  0.171635  1
  Sn  Sn19  1  0.999996  0.500000  0.332231  1
  Sn  Sn20  1  0.500000  0.000000  0.500000  1
  Sn  Sn21  1  0.000002  0.500000  0.667769  1
  Sn  Sn22  1  0.499808  0.000000  0.828365  1
  Au  Au23  1  0.000000  0.000000  0.000000  1
