# generated using pymatgen
data_Yb3Pr(Pd2Pb)2
_symmetry_space_group_name_H-M   'P 1'
_cell_length_a   7.85609285
_cell_length_b   7.85609285
_cell_length_c   3.78746300
_cell_angle_alpha   90.00000000
_cell_angle_beta   90.00000000
_cell_angle_gamma   90.30514637
_symmetry_Int_Tables_number   1
_chemical_formula_structural   Yb3Pr(Pd2Pb)2
_chemical_formula_sum   'Yb3 Pr1 Pd4 Pb2'
_cell_volume   233.75206459
_cell_formula_units_Z   1
loop_
 _symmetry_equiv_pos_site_id
 _symmetry_equiv_pos_as_xyz
  1  'x, y, z'
loop_
 _atom_site_type_symbol
 _atom_site_label
 _atom_site_symmetry_multiplicity
 _atom_site_fract_x
 _atom_site_fract_y
 _atom_site_fract_z
 _atom_site_occupancy
  Yb  Yb0  1  0.333672  0.830541  0.500000  1
  Yb  Yb1  1  0.669459  0.166328  0.500000  1
  Yb  Yb2  1  0.828428  0.671572  0.500000  1
  Pr  Pr3  1  0.171493  0.328507  0.500000  1
  Pd  Pd4  1  0.865066  0.375641  0.000000  1
  Pd  Pd5  1  0.630165  0.869835  0.000000  1
  Pd  Pd6  1  0.377145  0.122855  0.000000  1
  Pd  Pd7  1  0.124359  0.634934  0.000000  1
  Pb  Pb8  1  0.504552  0.504339  0.000000  1
  Pb  Pb9  1  0.995661  0.995448  0.000000  1
