# generated using pymatgen
data_V12ZnGa5(NiN2)2
_symmetry_space_group_name_H-M   'P 1'
_cell_length_a   6.54829511
_cell_length_b   6.54980205
_cell_length_c   6.55147532
_cell_angle_alpha   90.13952296
_cell_angle_beta   90.08917701
_cell_angle_gamma   90.08394962
_symmetry_Int_Tables_number   1
_chemical_formula_structural   V12ZnGa5(NiN2)2
_chemical_formula_sum   'V12 Zn1 Ga5 Ni2 N4'
_cell_volume   280.99154077
_cell_formula_units_Z   1
loop_
 _symmetry_equiv_pos_site_id
 _symmetry_equiv_pos_as_xyz
  1  'x, y, z'
loop_
 _atom_site_type_symbol
 _atom_site_label
 _atom_site_symmetry_multiplicity
 _atom_site_fract_x
 _atom_site_fract_y
 _atom_site_fract_z
 _atom_site_occupancy
  V  V0  1  0.788613  0.962708  0.376011  1
  V  V1  1  0.709784  0.041576  0.874830  1
  V  V2  1  0.210271  0.456884  0.124197  1
  V  V3  1  0.289817  0.537625  0.625630  1
  V  V4  1  0.961952  0.375095  0.790638  1
  V  V5  1  0.040571  0.875258  0.711597  1
  V  V6  1  0.461690  0.126083  0.209672  1
  V  V7  1  0.541998  0.624270  0.289164  1
  V  V8  1  0.376347  0.790799  0.959727  1
  V  V9  1  0.873721  0.708430  0.038563  1
  V  V10  1  0.124670  0.212636  0.459537  1
  V  V11  1  0.625127  0.288675  0.540719  1
  Zn  Zn12  1  0.178670  0.821831  0.318891  1
  Ga  Ga13  1  0.677860  0.677984  0.678740  1
  Ga  Ga14  1  0.569972  0.416687  0.935424  1
  Ga  Ga15  1  0.421636  0.939046  0.576348  1
  Ga  Ga16  1  0.929504  0.563799  0.418592  1
  Ga  Ga17  1  0.071008  0.079321  0.068371  1
  Ni  Ni18  1  0.318597  0.180171  0.823294  1
  Ni  Ni19  1  0.820524  0.318485  0.177257  1
  N  N20  1  0.878182  0.125827  0.625500  1
  N  N21  1  0.625709  0.877843  0.124072  1
  N  N22  1  0.126587  0.623640  0.878175  1
  N  N23  1  0.377191  0.375329  0.375050  1
