# generated using pymatgen
data_PrTmFe3P7Ru9
_symmetry_space_group_name_H-M   'P 1'
_cell_length_a   9.33504900
_cell_length_b   9.33504961
_cell_length_c   3.86382900
_cell_angle_alpha   90.00000000
_cell_angle_beta   90.00000000
_cell_angle_gamma   120.00000137
_symmetry_Int_Tables_number   1
_chemical_formula_structural   PrTmFe3P7Ru9
_chemical_formula_sum   'Pr1 Tm1 Fe3 P7 Ru9'
_cell_volume   291.59613004
_cell_formula_units_Z   1
loop_
 _symmetry_equiv_pos_site_id
 _symmetry_equiv_pos_as_xyz
  1  'x, y, z'
loop_
 _atom_site_type_symbol
 _atom_site_label
 _atom_site_symmetry_multiplicity
 _atom_site_fract_x
 _atom_site_fract_y
 _atom_site_fract_z
 _atom_site_occupancy
  Pr  Pr0  1  0.333333  0.666667  0.000000  1
  Tm  Tm1  1  0.000000  0.000000  0.500000  1
  Fe  Fe2  1  0.933571  0.443210  0.000000  1
  Fe  Fe3  1  0.509640  0.066429  0.000000  1
  Fe  Fe4  1  0.556790  0.490360  0.000000  1
  P  P5  1  0.972354  0.224826  0.000000  1
  P  P6  1  0.252472  0.027646  0.000000  1
  P  P7  1  0.775174  0.747528  0.000000  1
  P  P8  1  0.058671  0.612447  0.500000  1
  P  P9  1  0.553775  0.941329  0.500000  1
  P  P10  1  0.387553  0.446225  0.500000  1
  P  P11  1  0.666667  0.333333  0.000000  1
  Ru  Ru12  1  0.729792  0.975323  0.000000  1
  Ru  Ru13  1  0.245532  0.270208  0.000000  1
  Ru  Ru14  1  0.024677  0.754468  0.000000  1
  Ru  Ru15  1  0.101458  0.380611  0.500000  1
  Ru  Ru16  1  0.279154  0.898542  0.500000  1
  Ru  Ru17  1  0.619389  0.720846  0.500000  1
  Ru  Ru18  1  0.754774  0.218260  0.500000  1
  Ru  Ru19  1  0.463487  0.245226  0.500000  1
  Ru  Ru20  1  0.781740  0.536513  0.500000  1
