# generated using pymatgen
data_Th10Ge2Bi5Pb
_symmetry_space_group_name_H-M   'P 1'
_cell_length_a   9.70664800
_cell_length_b   9.69540541
_cell_length_c   6.56972100
_cell_angle_alpha   90.00000000
_cell_angle_beta   90.00000000
_cell_angle_gamma   120.03835915
_symmetry_Int_Tables_number   1
_chemical_formula_structural   Th10Ge2Bi5Pb
_chemical_formula_sum   'Th10 Ge2 Bi5 Pb1'
_cell_volume   535.23538093
_cell_formula_units_Z   1
loop_
 _symmetry_equiv_pos_site_id
 _symmetry_equiv_pos_as_xyz
  1  'x, y, z'
loop_
 _atom_site_type_symbol
 _atom_site_label
 _atom_site_symmetry_multiplicity
 _atom_site_fract_x
 _atom_site_fract_y
 _atom_site_fract_z
 _atom_site_occupancy
  Th  Th0  1  0.333382  0.667045  0.999609  1
  Th  Th1  1  0.666339  0.332955  0.500391  1
  Th  Th2  1  0.666339  0.332955  0.999609  1
  Th  Th3  1  0.333382  0.667045  0.500391  1
  Th  Th4  1  0.259234  0.000000  0.250000  1
  Th  Th5  1  0.260169  0.259315  0.750000  1
  Th  Th6  1  0.000854  0.740685  0.750000  1
  Th  Th7  1  0.000073  0.259405  0.250000  1
  Th  Th8  1  0.740670  0.740595  0.250000  1
  Th  Th9  1  0.740287  0.000000  0.750000  1
  Ge  Ge10  1  0.999820  0.000000  0.999522  1
  Ge  Ge11  1  0.999820  0.000000  0.500478  1
  Bi  Bi12  1  0.609992  0.000000  0.250000  1
  Bi  Bi13  1  0.611532  0.611617  0.750000  1
  Bi  Bi14  1  0.999914  0.388383  0.750000  1
  Bi  Bi15  1  0.000910  0.611623  0.250000  1
  Bi  Bi16  1  0.389287  0.388377  0.250000  1
  Pb  Pb17  1  0.387991  0.000000  0.750000  1
