# generated using pymatgen
data_Pa2MnAl20Os3
_symmetry_space_group_name_H-M   'P 1'
_cell_length_a   6.83189774
_cell_length_b   6.82451310
_cell_length_c   9.10555400
_cell_angle_alpha   89.99492415
_cell_angle_beta   90.09254410
_cell_angle_gamma   97.52381399
_symmetry_Int_Tables_number   1
_chemical_formula_structural   Pa2MnAl20Os3
_chemical_formula_sum   'Pa2 Mn1 Al20 Os3'
_cell_volume   420.88514459
_cell_formula_units_Z   1
loop_
 _symmetry_equiv_pos_site_id
 _symmetry_equiv_pos_as_xyz
  1  'x, y, z'
loop_
 _atom_site_type_symbol
 _atom_site_label
 _atom_site_symmetry_multiplicity
 _atom_site_fract_x
 _atom_site_fract_y
 _atom_site_fract_z
 _atom_site_occupancy
  Pa  Pa0  1  0.873893  0.131242  0.753052  1
  Pa  Pa1  1  0.126107  0.868758  0.246948  1
  Mn  Mn2  1  0.000000  0.500000  0.000000  1
  Al  Al3  1  0.518186  0.781499  0.750239  1
  Al  Al4  1  0.782605  0.516446  0.246524  1
  Al  Al5  1  0.481814  0.218501  0.249761  1
  Al  Al6  1  0.217395  0.483554  0.753476  1
  Al  Al7  1  0.628006  0.378883  0.955055  1
  Al  Al8  1  0.371994  0.621117  0.044945  1
  Al  Al9  1  0.623582  0.376977  0.546538  1
  Al  Al10  1  0.376418  0.623023  0.453462  1
  Al  Al11  1  0.408658  0.145867  0.750352  1
  Al  Al12  1  0.143355  0.410814  0.246144  1
  Al  Al13  1  0.591342  0.854133  0.249648  1
  Al  Al14  1  0.856645  0.589186  0.753856  1
  Al  Al15  1  0.844935  0.154389  0.396349  1
  Al  Al16  1  0.155065  0.845611  0.603651  1
  Al  Al17  1  0.846647  0.159564  0.101499  1
  Al  Al18  1  0.153353  0.840436  0.898501  1
  Al  Al19  1  0.781667  0.775043  0.001825  1
  Al  Al20  1  0.780345  0.780055  0.501095  1
  Al  Al21  1  0.218333  0.224957  0.998175  1
  Al  Al22  1  0.219655  0.219945  0.498905  1
  Os  Os23  1  0.500000  0.000000  0.000000  1
  Os  Os24  1  0.500000  0.000000  0.500000  1
  Os  Os25  1  0.000000  0.500000  0.500000  1
