# generated using pymatgen
data_K3RbSnSe4
_symmetry_space_group_name_H-M   'P 1'
_cell_length_a   8.43855600
_cell_length_b   10.48173500
_cell_length_c   15.32801200
_cell_angle_alpha   90.00000000
_cell_angle_beta   90.00000000
_cell_angle_gamma   90.00000000
_symmetry_Int_Tables_number   1
_chemical_formula_structural   K3RbSnSe4
_chemical_formula_sum   'K12 Rb4 Sn4 Se16'
_cell_volume   1355.77351018
_cell_formula_units_Z   4
loop_
 _symmetry_equiv_pos_site_id
 _symmetry_equiv_pos_as_xyz
  1  'x, y, z'
loop_
 _atom_site_type_symbol
 _atom_site_label
 _atom_site_symmetry_multiplicity
 _atom_site_fract_x
 _atom_site_fract_y
 _atom_site_fract_z
 _atom_site_occupancy
  K  K0  1  0.980323  0.750000  0.424529  1
  K  K1  1  0.480323  0.250000  0.075471  1
  K  K2  1  0.019677  0.250000  0.575471  1
  K  K3  1  0.519677  0.750000  0.924529  1
  K  K4  1  0.841106  0.049713  0.269818  1
  K  K5  1  0.341106  0.950287  0.230182  1
  K  K6  1  0.158894  0.549713  0.730182  1
  K  K7  1  0.658894  0.450287  0.769818  1
  K  K8  1  0.158894  0.950287  0.730182  1
  K  K9  1  0.658894  0.049713  0.769818  1
  K  K10  1  0.841106  0.450287  0.269818  1
  K  K11  1  0.341106  0.549713  0.230182  1
  Rb  Rb12  1  0.000000  0.000000  0.000000  1
  Rb  Rb13  1  0.500000  0.000000  0.500000  1
  Rb  Rb14  1  0.000000  0.500000  0.000000  1
  Rb  Rb15  1  0.500000  0.500000  0.500000  1
  Sn  Sn16  1  0.765323  0.750000  0.667435  1
  Sn  Sn17  1  0.234677  0.250000  0.332565  1
  Sn  Sn18  1  0.734677  0.750000  0.167435  1
  Sn  Sn19  1  0.265323  0.250000  0.832565  1
  Se  Se20  1  0.960449  0.250000  0.824183  1
  Se  Se21  1  0.539551  0.250000  0.324183  1
  Se  Se22  1  0.460449  0.750000  0.675817  1
  Se  Se23  1  0.039551  0.750000  0.175817  1
  Se  Se24  1  0.635119  0.552096  0.087899  1
  Se  Se25  1  0.135119  0.447904  0.412101  1
  Se  Se26  1  0.364881  0.052096  0.912101  1
  Se  Se27  1  0.864881  0.947904  0.587899  1
  Se  Se28  1  0.364881  0.447904  0.912101  1
  Se  Se29  1  0.864881  0.552096  0.587899  1
  Se  Se30  1  0.635119  0.947904  0.087899  1
  Se  Se31  1  0.135119  0.052096  0.412101  1
  Se  Se32  1  0.622003  0.750000  0.324500  1
  Se  Se33  1  0.122003  0.250000  0.175500  1
  Se  Se34  1  0.377997  0.250000  0.675500  1
  Se  Se35  1  0.877997  0.750000  0.824500  1
