# generated using pymatgen
data_Er2Lu4FeBi2
_symmetry_space_group_name_H-M   'P 1'
_cell_length_a   8.17084500
_cell_length_b   8.17943397
_cell_length_c   4.13478700
_cell_angle_alpha   90.00000000
_cell_angle_beta   90.00000000
_cell_angle_gamma   119.96527413
_symmetry_Int_Tables_number   1
_chemical_formula_structural   Er2Lu4FeBi2
_chemical_formula_sum   'Er2 Lu4 Fe1 Bi2'
_cell_volume   239.40094416
_cell_formula_units_Z   1
loop_
 _symmetry_equiv_pos_site_id
 _symmetry_equiv_pos_as_xyz
  1  'x, y, z'
loop_
 _atom_site_type_symbol
 _atom_site_label
 _atom_site_symmetry_multiplicity
 _atom_site_fract_x
 _atom_site_fract_y
 _atom_site_fract_z
 _atom_site_occupancy
  Er  Er0  1  0.000547  0.614099  0.000000  1
  Er  Er1  1  0.386448  0.385901  0.000000  1
  Lu  Lu2  1  0.228762  0.000000  0.500000  1
  Lu  Lu3  1  0.999648  0.229676  0.500000  1
  Lu  Lu4  1  0.769972  0.770324  0.500000  1
  Lu  Lu5  1  0.616645  0.000000  0.000000  1
  Fe  Fe6  1  0.996628  0.000000  0.000000  1
  Bi  Bi7  1  0.334654  0.667960  0.500000  1
  Bi  Bi8  1  0.666695  0.332040  0.500000  1
