# generated using pymatgen
data_Ti12Al7Ga(CuO)4
_symmetry_space_group_name_H-M   'P 1'
_cell_length_a   8.11871728
_cell_length_b   8.11892783
_cell_length_c   8.11853334
_cell_angle_alpha   60.07236749
_cell_angle_beta   60.07372074
_cell_angle_gamma   60.06930040
_symmetry_Int_Tables_number   1
_chemical_formula_structural   Ti12Al7Ga(CuO)4
_chemical_formula_sum   'Ti12 Al7 Ga1 Cu4 O4'
_cell_volume   379.01354268
_cell_formula_units_Z   1
loop_
 _symmetry_equiv_pos_site_id
 _symmetry_equiv_pos_as_xyz
  1  'x, y, z'
loop_
 _atom_site_type_symbol
 _atom_site_label
 _atom_site_symmetry_multiplicity
 _atom_site_fract_x
 _atom_site_fract_y
 _atom_site_fract_z
 _atom_site_occupancy
  Ti  Ti0  1  0.570638  0.929451  0.570699  1
  Ti  Ti1  1  0.320654  0.679904  0.679898  1
  Ti  Ti2  1  0.679169  0.320254  0.320263  1
  Ti  Ti3  1  0.320261  0.679205  0.320243  1
  Ti  Ti4  1  0.679876  0.679936  0.320643  1
  Ti  Ti5  1  0.320279  0.320257  0.679189  1
  Ti  Ti6  1  0.570609  0.570669  0.929477  1
  Ti  Ti7  1  0.929457  0.570667  0.570670  1
  Ti  Ti8  1  0.569112  0.930260  0.930254  1
  Ti  Ti9  1  0.930298  0.930281  0.569109  1
  Ti  Ti10  1  0.679880  0.320636  0.679936  1
  Ti  Ti11  1  0.930282  0.569131  0.930262  1
  Al  Al12  1  0.334037  0.334050  0.334016  1
  Al  Al13  1  0.252034  0.915677  0.915711  1
  Al  Al14  1  0.915682  0.252004  0.915727  1
  Al  Al15  1  0.915717  0.915727  0.252022  1
  Al  Al16  1  0.333804  0.998221  0.333857  1
  Al  Al17  1  0.333852  0.333858  0.998204  1
  Al  Al18  1  0.998235  0.333803  0.333849  1
  Ga  Ga19  1  0.914619  0.914627  0.914593  1
  Cu  Cu20  1  0.124632  0.124632  0.124635  1
  Cu  Cu21  1  0.624361  0.125502  0.125498  1
  Cu  Cu22  1  0.125498  0.624372  0.125487  1
  Cu  Cu23  1  0.125491  0.125484  0.624373  1
  O  O24  1  0.624996  0.624956  0.624936  1
  O  O25  1  0.124783  0.625830  0.625844  1
  O  O26  1  0.625864  0.124766  0.625837  1
  O  O27  1  0.625880  0.625839  0.124769  1
