# generated using pymatgen
data_Tm16Al4Ru3Pt
_symmetry_space_group_name_H-M   'P 1'
_cell_length_a   9.38742689
_cell_length_b   9.42020376
_cell_length_c   9.42020400
_cell_angle_alpha   59.99999916
_cell_angle_beta   59.88443153
_cell_angle_gamma   59.88442469
_symmetry_Int_Tables_number   1
_chemical_formula_structural   Tm16Al4Ru3Pt
_chemical_formula_sum   'Tm16 Al4 Ru3 Pt1'
_cell_volume   588.01892451
_cell_formula_units_Z   1
loop_
 _symmetry_equiv_pos_site_id
 _symmetry_equiv_pos_as_xyz
  1  'x, y, z'
loop_
 _atom_site_type_symbol
 _atom_site_label
 _atom_site_symmetry_multiplicity
 _atom_site_fract_x
 _atom_site_fract_y
 _atom_site_fract_z
 _atom_site_occupancy
  Tm  Tm0  1  0.349565  0.355364  0.355364  1
  Tm  Tm1  1  0.349565  0.355364  0.939708  1
  Tm  Tm2  1  0.349565  0.939708  0.355364  1
  Tm  Tm3  1  0.948650  0.350451  0.350451  1
  Tm  Tm4  1  0.810078  0.195018  0.195018  1
  Tm  Tm5  1  0.192895  0.806194  0.806194  1
  Tm  Tm6  1  0.192895  0.806194  0.194717  1
  Tm  Tm7  1  0.810078  0.195018  0.799888  1
  Tm  Tm8  1  0.192895  0.194717  0.806194  1
  Tm  Tm9  1  0.810078  0.799888  0.195018  1
  Tm  Tm10  1  0.936636  0.561908  0.561908  1
  Tm  Tm11  1  0.557860  0.939124  0.939124  1
  Tm  Tm12  1  0.557860  0.939124  0.563892  1
  Tm  Tm13  1  0.936636  0.561908  0.939548  1
  Tm  Tm14  1  0.557860  0.563892  0.939124  1
  Tm  Tm15  1  0.936636  0.939548  0.561908  1
  Al  Al16  1  0.579076  0.577411  0.577411  1
  Al  Al17  1  0.579076  0.577411  0.266101  1
  Al  Al18  1  0.579076  0.266101  0.577411  1
  Al  Al19  1  0.265939  0.578021  0.578021  1
  Ru  Ru20  1  0.144443  0.140326  0.140326  1
  Ru  Ru21  1  0.144443  0.140326  0.574904  1
  Ru  Ru22  1  0.144443  0.574904  0.140326  1
  Pt  Pt23  1  0.573750  0.142084  0.142084  1
