# generated using pymatgen
data_Er3ThTlInPd4
_symmetry_space_group_name_H-M   'P 1'
_cell_length_a   7.82356414
_cell_length_b   7.82672741
_cell_length_c   3.69702800
_cell_angle_alpha   90.00000000
_cell_angle_beta   90.00000000
_cell_angle_gamma   90.78011031
_symmetry_Int_Tables_number   1
_chemical_formula_structural   Er3ThTlInPd4
_chemical_formula_sum   'Er3 Th1 Tl1 In1 Pd4'
_cell_volume   226.35877722
_cell_formula_units_Z   1
loop_
 _symmetry_equiv_pos_site_id
 _symmetry_equiv_pos_as_xyz
  1  'x, y, z'
loop_
 _atom_site_type_symbol
 _atom_site_label
 _atom_site_symmetry_multiplicity
 _atom_site_fract_x
 _atom_site_fract_y
 _atom_site_fract_z
 _atom_site_occupancy
  Er  Er0  1  0.824755  0.665725  0.500000  1
  Er  Er1  1  0.168533  0.327505  0.500000  1
  Er  Er2  1  0.673861  0.176123  0.500000  1
  Th  Th3  1  0.330875  0.828063  0.500000  1
  Tl  Tl4  1  0.993718  0.003513  0.000000  1
  In  In5  1  0.503540  0.493696  0.000000  1
  Pd  Pd6  1  0.376656  0.130213  0.000000  1
  Pd  Pd7  1  0.872038  0.377804  0.000000  1
  Pd  Pd8  1  0.131089  0.625919  0.000000  1
  Pd  Pd9  1  0.624935  0.871440  0.000000  1
