# generated using pymatgen
data_Tb10Nd6Cd3Ag(PdPt)2
_symmetry_space_group_name_H-M   'P 1'
_cell_length_a   9.81844532
_cell_length_b   9.81844548
_cell_length_c   9.79751000
_cell_angle_alpha   60.07050957
_cell_angle_beta   60.07050905
_cell_angle_gamma   60.20628521
_symmetry_Int_Tables_number   1
_chemical_formula_structural   Tb10Nd6Cd3Ag(PdPt)2
_chemical_formula_sum   'Tb10 Nd6 Cd3 Ag1 Pd2 Pt2'
_cell_volume   669.61032681
_cell_formula_units_Z   1
loop_
 _symmetry_equiv_pos_site_id
 _symmetry_equiv_pos_as_xyz
  1  'x, y, z'
loop_
 _atom_site_type_symbol
 _atom_site_label
 _atom_site_symmetry_multiplicity
 _atom_site_fract_x
 _atom_site_fract_y
 _atom_site_fract_z
 _atom_site_occupancy
  Tb  Tb0  1  0.352003  0.352003  0.348260  1
  Tb  Tb1  1  0.352396  0.352396  0.946118  1
  Tb  Tb2  1  0.355410  0.939850  0.352940  1
  Tb  Tb3  1  0.939850  0.355410  0.352940  1
  Tb  Tb4  1  0.810765  0.188517  0.189308  1
  Tb  Tb5  1  0.187936  0.811263  0.811874  1
  Tb  Tb6  1  0.188517  0.810765  0.189308  1
  Tb  Tb7  1  0.811263  0.187936  0.811874  1
  Tb  Tb8  1  0.189813  0.189813  0.810656  1
  Tb  Tb9  1  0.812062  0.812062  0.187715  1
  Nd  Nd10  1  0.935202  0.562691  0.562107  1
  Nd  Nd11  1  0.562426  0.937964  0.937236  1
  Nd  Nd12  1  0.562691  0.935202  0.562107  1
  Nd  Nd13  1  0.937964  0.562426  0.937236  1
  Nd  Nd14  1  0.562223  0.562223  0.934591  1
  Nd  Nd15  1  0.937954  0.937954  0.561653  1
  Cd  Cd16  1  0.580574  0.580574  0.259988  1
  Cd  Cd17  1  0.579798  0.260639  0.580925  1
  Cd  Cd18  1  0.260639  0.579798  0.580925  1
  Ag  Ag19  1  0.581858  0.581858  0.581544  1
  Pd  Pd20  1  0.143476  0.143476  0.146198  1
  Pd  Pd21  1  0.143362  0.143362  0.567308  1
  Pt  Pt22  1  0.142207  0.569610  0.143594  1
  Pt  Pt23  1  0.569610  0.142207  0.143594  1
