# generated using pymatgen
data_YHo3FeSi4Ir
_symmetry_space_group_name_H-M   'P 1'
_cell_length_a   5.65805559
_cell_length_b   5.65805452
_cell_length_c   10.00585655
_cell_angle_alpha   63.08468092
_cell_angle_beta   63.08468503
_cell_angle_gamma   43.28025157
_symmetry_Int_Tables_number   1
_chemical_formula_structural   YHo3FeSi4Ir
_chemical_formula_sum   'Y1 Ho3 Fe1 Si4 Ir1'
_cell_volume   191.80224627
_cell_formula_units_Z   1
loop_
 _symmetry_equiv_pos_site_id
 _symmetry_equiv_pos_as_xyz
  1  'x, y, z'
loop_
 _atom_site_type_symbol
 _atom_site_label
 _atom_site_symmetry_multiplicity
 _atom_site_fract_x
 _atom_site_fract_y
 _atom_site_fract_z
 _atom_site_occupancy
  Y  Y0  1  0.185991  0.185991  0.890659  1
  Ho  Ho1  1  0.004909  0.004909  0.323392  1
  Ho  Ho2  1  0.997833  0.997833  0.673193  1
  Ho  Ho3  1  0.813713  0.813713  0.108191  1
  Fe  Fe4  1  0.272772  0.272772  0.378303  1
  Si  Si5  1  0.651644  0.651644  0.430948  1
  Si  Si6  1  0.358903  0.358903  0.558294  1
  Si  Si7  1  0.499088  0.499088  0.129458  1
  Si  Si8  1  0.487888  0.487888  0.879502  1
  Ir  Ir9  1  0.727259  0.727259  0.628058  1
