# generated using pymatgen
data_TbMg(Si7Ir3)2
_symmetry_space_group_name_H-M   'P 1'
_cell_length_a   8.00547694
_cell_length_b   8.00547742
_cell_length_c   8.00547680
_cell_angle_alpha   56.67898350
_cell_angle_beta   56.67898082
_cell_angle_gamma   56.67898156
_symmetry_Int_Tables_number   1
_chemical_formula_structural   TbMg(Si7Ir3)2
_chemical_formula_sum   'Tb1 Mg1 Si14 Ir6'
_cell_volume   334.95912174
_cell_formula_units_Z   1
loop_
 _symmetry_equiv_pos_site_id
 _symmetry_equiv_pos_as_xyz
  1  'x, y, z'
loop_
 _atom_site_type_symbol
 _atom_site_label
 _atom_site_symmetry_multiplicity
 _atom_site_fract_x
 _atom_site_fract_y
 _atom_site_fract_z
 _atom_site_occupancy
  Tb  Tb0  1  0.500000  0.500000  0.500000  1
  Mg  Mg1  1  0.000000  0.000000  0.000000  1
  Si  Si2  1  0.851872  0.063331  0.674553  1
  Si  Si3  1  0.674553  0.851872  0.063331  1
  Si  Si4  1  0.063331  0.674553  0.851872  1
  Si  Si5  1  0.651136  0.828490  0.433970  1
  Si  Si6  1  0.250202  0.250202  0.250202  1
  Si  Si7  1  0.749798  0.749798  0.749798  1
  Si  Si8  1  0.171510  0.566030  0.348864  1
  Si  Si9  1  0.566030  0.348864  0.171510  1
  Si  Si10  1  0.348864  0.171510  0.566030  1
  Si  Si11  1  0.936669  0.325447  0.148128  1
  Si  Si12  1  0.325447  0.148128  0.936669  1
  Si  Si13  1  0.148128  0.936669  0.325447  1
  Si  Si14  1  0.828490  0.433970  0.651136  1
  Si  Si15  1  0.433970  0.651136  0.828490  1
  Ir  Ir16  1  0.750653  0.071969  0.427231  1
  Ir  Ir17  1  0.427231  0.750653  0.071969  1
  Ir  Ir18  1  0.071969  0.427231  0.750653  1
  Ir  Ir19  1  0.249347  0.928031  0.572769  1
  Ir  Ir20  1  0.572769  0.249347  0.928031  1
  Ir  Ir21  1  0.928031  0.572769  0.249347  1
