# generated using pymatgen
data_Ho8Zn2CuSi12Rh
_symmetry_space_group_name_H-M   'P 1'
_cell_length_a   8.08028400
_cell_length_b   8.08037816
_cell_length_c   8.03961000
_cell_angle_alpha   90.00041533
_cell_angle_beta   89.99991573
_cell_angle_gamma   120.00011711
_symmetry_Int_Tables_number   1
_chemical_formula_structural   Ho8Zn2CuSi12Rh
_chemical_formula_sum   'Ho8 Zn2 Cu1 Si12 Rh1'
_cell_volume   454.59369954
_cell_formula_units_Z   1
loop_
 _symmetry_equiv_pos_site_id
 _symmetry_equiv_pos_as_xyz
  1  'x, y, z'
loop_
 _atom_site_type_symbol
 _atom_site_label
 _atom_site_symmetry_multiplicity
 _atom_site_fract_x
 _atom_site_fract_y
 _atom_site_fract_z
 _atom_site_occupancy
  Ho  Ho0  1  0.999997  0.000001  0.249608  1
  Ho  Ho1  1  0.000001  0.999997  0.750464  1
  Ho  Ho2  1  0.500179  0.499816  0.247993  1
  Ho  Ho3  1  0.500178  0.000359  0.247995  1
  Ho  Ho4  1  0.999640  0.499818  0.247994  1
  Ho  Ho5  1  0.498097  0.501902  0.751921  1
  Ho  Ho6  1  0.498095  0.996192  0.751921  1
  Ho  Ho7  1  0.003803  0.501902  0.751921  1
  Zn  Zn8  1  0.333334  0.666668  0.495316  1
  Zn  Zn9  1  0.666666  0.333334  0.505023  1
  Cu  Cu10  1  0.666667  0.333342  0.996859  1
  Si  Si11  1  0.166966  0.833034  0.500579  1
  Si  Si12  1  0.166966  0.333931  0.500577  1
  Si  Si13  1  0.666070  0.833035  0.500579  1
  Si  Si14  1  0.833636  0.166365  0.499454  1
  Si  Si15  1  0.833638  0.667274  0.499457  1
  Si  Si16  1  0.332726  0.166363  0.499455  1
  Si  Si17  1  0.832274  0.167723  0.999033  1
  Si  Si18  1  0.832274  0.664549  0.999033  1
  Si  Si19  1  0.335455  0.167726  0.999032  1
  Si  Si20  1  0.168231  0.831769  0.001068  1
  Si  Si21  1  0.168231  0.336460  0.001066  1
  Si  Si22  1  0.663540  0.831771  0.001067  1
  Rh  Rh23  1  0.333337  0.666666  0.002586  1
