# generated using pymatgen
data_Y6Ti2Co16Si11P
_symmetry_space_group_name_H-M   'P 1'
_cell_length_a   3.77737800
_cell_length_b   10.90625339
_cell_length_c   12.45227147
_cell_angle_alpha   89.96890529
_cell_angle_beta   90.00000000
_cell_angle_gamma   90.00000000
_symmetry_Int_Tables_number   1
_chemical_formula_structural   Y6Ti2Co16Si11P
_chemical_formula_sum   'Y6 Ti2 Co16 Si11 P1'
_cell_volume   512.99667051
_cell_formula_units_Z   1
loop_
 _symmetry_equiv_pos_site_id
 _symmetry_equiv_pos_as_xyz
  1  'x, y, z'
loop_
 _atom_site_type_symbol
 _atom_site_label
 _atom_site_symmetry_multiplicity
 _atom_site_fract_x
 _atom_site_fract_y
 _atom_site_fract_z
 _atom_site_occupancy
  Y  Y0  1  0.000000  0.499559  0.529465  1
  Y  Y1  1  0.500000  0.000249  0.469593  1
  Y  Y2  1  0.500000  0.822588  0.205454  1
  Y  Y3  1  0.500000  0.180180  0.203896  1
  Y  Y4  1  0.000000  0.676914  0.795134  1
  Y  Y5  1  0.000000  0.322756  0.793947  1
  Ti  Ti6  1  0.500000  0.497373  0.147392  1
  Ti  Ti7  1  0.000000  0.000378  0.853015  1
  Co  Co8  1  0.500000  0.499747  0.700143  1
  Co  Co9  1  0.000000  0.000571  0.299686  1
  Co  Co10  1  0.000000  0.496551  0.990422  1
  Co  Co11  1  0.500000  0.001143  0.012052  1
  Co  Co12  1  0.500000  0.331895  0.000720  1
  Co  Co13  1  0.500000  0.666665  0.998946  1
  Co  Co14  1  0.000000  0.171325  0.003808  1
  Co  Co15  1  0.000000  0.832089  0.001850  1
  Co  Co16  1  0.500000  0.301059  0.430410  1
  Co  Co17  1  0.500000  0.698923  0.431491  1
  Co  Co18  1  0.000000  0.199138  0.568002  1
  Co  Co19  1  0.000000  0.800898  0.568520  1
  Co  Co20  1  0.500000  0.883167  0.707516  1
  Co  Co21  1  0.500000  0.117484  0.707502  1
  Co  Co22  1  0.000000  0.616856  0.292842  1
  Co  Co23  1  0.000000  0.381910  0.288853  1
  Si  Si24  1  0.500000  0.499775  0.887673  1
  Si  Si25  1  0.000000  0.000223  0.112496  1
  Si  Si26  1  0.500000  0.500159  0.348944  1
  Si  Si27  1  0.000000  0.999906  0.650487  1
  Si  Si28  1  0.500000  0.302589  0.614695  1
  Si  Si29  1  0.500000  0.697613  0.615388  1
  Si  Si30  1  0.000000  0.197466  0.384105  1
  Si  Si31  1  0.000000  0.802498  0.384648  1
  Si  Si32  1  0.500000  0.841376  0.895330  1
  Si  Si33  1  0.500000  0.159183  0.895032  1
  Si  Si34  1  0.000000  0.658046  0.105508  1
  P  P35  1  0.000000  0.341748  0.105037  1
