# generated using pymatgen
data_TbTmB6Ru
_symmetry_space_group_name_H-M   'P 1'
_cell_length_a   3.64463900
_cell_length_b   9.10933900
_cell_length_c   11.50041000
_cell_angle_alpha   90.00000000
_cell_angle_beta   90.00000000
_cell_angle_gamma   90.00000000
_symmetry_Int_Tables_number   1
_chemical_formula_structural   TbTmB6Ru
_chemical_formula_sum   'Tb4 Tm4 B24 Ru4'
_cell_volume   381.81651222
_cell_formula_units_Z   4
loop_
 _symmetry_equiv_pos_site_id
 _symmetry_equiv_pos_as_xyz
  1  'x, y, z'
loop_
 _atom_site_type_symbol
 _atom_site_label
 _atom_site_symmetry_multiplicity
 _atom_site_fract_x
 _atom_site_fract_y
 _atom_site_fract_z
 _atom_site_occupancy
  Tb  Tb0  1  0.000000  0.322415  0.414089  1
  Tb  Tb1  1  0.000000  0.677585  0.585911  1
  Tb  Tb2  1  0.000000  0.822415  0.085911  1
  Tb  Tb3  1  0.000000  0.177585  0.914089  1
  Tm  Tm4  1  0.000000  0.943957  0.372421  1
  Tm  Tm5  1  0.000000  0.056043  0.627579  1
  Tm  Tm6  1  0.000000  0.443957  0.127579  1
  Tm  Tm7  1  0.000000  0.556043  0.872421  1
  B  B8  1  0.500000  0.554609  0.432512  1
  B  B9  1  0.500000  0.445391  0.567488  1
  B  B10  1  0.500000  0.054609  0.067488  1
  B  B11  1  0.500000  0.945391  0.932512  1
  B  B12  1  0.500000  0.749327  0.419246  1
  B  B13  1  0.500000  0.250673  0.580754  1
  B  B14  1  0.500000  0.249327  0.080754  1
  B  B15  1  0.500000  0.750673  0.919246  1
  B  B16  1  0.500000  0.791629  0.266211  1
  B  B17  1  0.500000  0.208371  0.733789  1
  B  B18  1  0.500000  0.291629  0.233789  1
  B  B19  1  0.500000  0.708371  0.766211  1
  B  B20  1  0.500000  0.631257  0.184675  1
  B  B21  1  0.500000  0.368743  0.815325  1
  B  B22  1  0.500000  0.131257  0.315325  1
  B  B23  1  0.500000  0.868743  0.684675  1
  B  B24  1  0.500000  0.983613  0.213498  1
  B  B25  1  0.500000  0.016387  0.786502  1
  B  B26  1  0.500000  0.483613  0.286502  1
  B  B27  1  0.500000  0.516387  0.713498  1
  B  B28  1  0.500000  0.604902  0.028869  1
  B  B29  1  0.500000  0.395098  0.971131  1
  B  B30  1  0.500000  0.104902  0.471131  1
  B  B31  1  0.500000  0.895098  0.528869  1
  Ru  Ru32  1  0.000000  0.638590  0.320273  1
  Ru  Ru33  1  0.000000  0.361410  0.679727  1
  Ru  Ru34  1  0.000000  0.138590  0.179727  1
  Ru  Ru35  1  0.000000  0.861410  0.820273  1
