# generated using pymatgen
data_Sr2HgSb3Pt4
_symmetry_space_group_name_H-M   'P 1'
_cell_length_a   4.73669676
_cell_length_b   4.62654100
_cell_length_c   10.49292700
_cell_angle_alpha   90.00000000
_cell_angle_beta   91.62108785
_cell_angle_gamma   90.00000000
_symmetry_Int_Tables_number   1
_chemical_formula_structural   Sr2HgSb3Pt4
_chemical_formula_sum   'Sr2 Hg1 Sb3 Pt4'
_cell_volume   229.85544563
_cell_formula_units_Z   1
loop_
 _symmetry_equiv_pos_site_id
 _symmetry_equiv_pos_as_xyz
  1  'x, y, z'
loop_
 _atom_site_type_symbol
 _atom_site_label
 _atom_site_symmetry_multiplicity
 _atom_site_fract_x
 _atom_site_fract_y
 _atom_site_fract_z
 _atom_site_occupancy
  Sr  Sr0  1  0.260692  0.750001  0.251975  1
  Sr  Sr1  1  0.739121  0.250000  0.748549  1
  Hg  Hg2  1  0.253147  0.250000  0.004206  1
  Sb  Sb3  1  0.802265  0.250000  0.379402  1
  Sb  Sb4  1  0.198543  0.750001  0.619042  1
  Sb  Sb5  1  0.746323  0.750001  0.997862  1
  Pt  Pt6  1  0.761059  0.250000  0.133247  1
  Pt  Pt7  1  0.689066  0.750001  0.496887  1
  Pt  Pt8  1  0.312308  0.250000  0.503033  1
  Pt  Pt9  1  0.237477  0.750001  0.865797  1
