# generated using pymatgen
data_K2Si2PbS6
_symmetry_space_group_name_H-M   'P 1'
_cell_length_a   8.56358242
_cell_length_b   8.56358329
_cell_length_c   9.14035438
_cell_angle_alpha   89.96795920
_cell_angle_beta   89.96795902
_cell_angle_gamma   114.04386450
_symmetry_Int_Tables_number   1
_chemical_formula_structural   K2Si2PbS6
_chemical_formula_sum   'K4 Si4 Pb2 S12'
_cell_volume   612.14709155
_cell_formula_units_Z   2
loop_
 _symmetry_equiv_pos_site_id
 _symmetry_equiv_pos_as_xyz
  1  'x, y, z'
loop_
 _atom_site_type_symbol
 _atom_site_label
 _atom_site_symmetry_multiplicity
 _atom_site_fract_x
 _atom_site_fract_y
 _atom_site_fract_z
 _atom_site_occupancy
  K  K0  1  0.261864  0.534001  0.519383  1
  K  K1  1  0.738136  0.465999  0.480617  1
  K  K2  1  0.465999  0.738136  0.980617  1
  K  K3  1  0.534001  0.261864  0.019383  1
  Si  Si4  1  0.977947  0.651264  0.055407  1
  Si  Si5  1  0.022053  0.348736  0.944593  1
  Si  Si6  1  0.348736  0.022053  0.444593  1
  Si  Si7  1  0.651264  0.977947  0.555407  1
  Pb  Pb8  1  0.992426  0.007574  0.250000  1
  Pb  Pb9  1  0.007574  0.992426  0.750000  1
  S  S10  1  0.649545  0.758904  0.659098  1
  S  S11  1  0.919221  0.519282  0.844088  1
  S  S12  1  0.241096  0.350455  0.840902  1
  S  S13  1  0.519282  0.919221  0.344088  1
  S  S14  1  0.350455  0.241096  0.340902  1
  S  S15  1  0.899464  0.172391  0.534560  1
  S  S16  1  0.827609  0.100536  0.965440  1
  S  S17  1  0.172391  0.899464  0.034560  1
  S  S18  1  0.080779  0.480718  0.155912  1
  S  S19  1  0.480718  0.080779  0.655912  1
  S  S20  1  0.100536  0.827609  0.465440  1
  S  S21  1  0.758904  0.649545  0.159098  1
