# generated using pymatgen
data_Zr6Zn22SiAg
_symmetry_space_group_name_H-M   'P 1'
_cell_length_a   8.80613285
_cell_length_b   8.80613246
_cell_length_c   8.80613200
_cell_angle_alpha   60.00000173
_cell_angle_beta   60.00000318
_cell_angle_gamma   59.99999850
_symmetry_Int_Tables_number   1
_chemical_formula_structural   Zr6Zn22SiAg
_chemical_formula_sum   'Zr6 Zn22 Si1 Ag1'
_cell_volume   482.88159327
_cell_formula_units_Z   1
loop_
 _symmetry_equiv_pos_site_id
 _symmetry_equiv_pos_as_xyz
  1  'x, y, z'
loop_
 _atom_site_type_symbol
 _atom_site_label
 _atom_site_symmetry_multiplicity
 _atom_site_fract_x
 _atom_site_fract_y
 _atom_site_fract_z
 _atom_site_occupancy
  Zr  Zr0  1  0.710481  0.289519  0.289519  1
  Zr  Zr1  1  0.289519  0.710481  0.710481  1
  Zr  Zr2  1  0.289519  0.710481  0.289519  1
  Zr  Zr3  1  0.710481  0.289519  0.710481  1
  Zr  Zr4  1  0.289519  0.289519  0.710481  1
  Zr  Zr5  1  0.710481  0.710481  0.289519  1
  Zn  Zn6  1  0.124635  0.124635  0.124635  1
  Zn  Zn7  1  0.875365  0.875365  0.875365  1
  Zn  Zn8  1  0.124635  0.124635  0.626095  1
  Zn  Zn9  1  0.124635  0.626095  0.124635  1
  Zn  Zn10  1  0.875365  0.875365  0.373905  1
  Zn  Zn11  1  0.875365  0.373905  0.875365  1
  Zn  Zn12  1  0.626095  0.124635  0.124635  1
  Zn  Zn13  1  0.373905  0.875365  0.875365  1
  Zn  Zn14  1  0.500000  0.000000  0.000000  1
  Zn  Zn15  1  0.000000  0.500000  0.500000  1
  Zn  Zn16  1  0.000000  0.500000  0.000000  1
  Zn  Zn17  1  0.500000  0.000000  0.500000  1
  Zn  Zn18  1  0.000000  0.000000  0.500000  1
  Zn  Zn19  1  0.500000  0.500000  0.000000  1
  Zn  Zn20  1  0.335857  0.335857  0.335857  1
  Zn  Zn21  1  0.664143  0.664143  0.664143  1
  Zn  Zn22  1  0.335857  0.335857  0.992429  1
  Zn  Zn23  1  0.335857  0.992429  0.335857  1
  Zn  Zn24  1  0.664143  0.664143  0.007571  1
  Zn  Zn25  1  0.664143  0.007571  0.664143  1
  Zn  Zn26  1  0.992429  0.335857  0.335857  1
  Zn  Zn27  1  0.007571  0.664143  0.664143  1
  Si  Si28  1  0.500000  0.500000  0.500000  1
  Ag  Ag29  1  0.000000  0.000000  0.000000  1
