# generated using pymatgen
data_TbYb11(PrSn2)8
_symmetry_space_group_name_H-M   'P 1'
_cell_length_a   7.97047773
_cell_length_b   8.50578973
_cell_length_c   16.06526143
_cell_angle_alpha   90.04245821
_cell_angle_beta   90.04623549
_cell_angle_gamma   89.94031653
_symmetry_Int_Tables_number   1
_chemical_formula_structural   TbYb11(PrSn2)8
_chemical_formula_sum   'Tb1 Yb11 Pr8 Sn16'
_cell_volume   1089.14648958
_cell_formula_units_Z   1
loop_
 _symmetry_equiv_pos_site_id
 _symmetry_equiv_pos_as_xyz
  1  'x, y, z'
loop_
 _atom_site_type_symbol
 _atom_site_label
 _atom_site_symmetry_multiplicity
 _atom_site_fract_x
 _atom_site_fract_y
 _atom_site_fract_z
 _atom_site_occupancy
  Tb  Tb0  1  0.334025  0.826050  0.875924  1
  Yb  Yb1  1  0.833213  0.672498  0.623363  1
  Yb  Yb2  1  0.666392  0.172698  0.376312  1
  Yb  Yb3  1  0.165935  0.327596  0.123578  1
  Yb  Yb4  1  0.667182  0.172885  0.123704  1
  Yb  Yb5  1  0.166325  0.327254  0.376365  1
  Yb  Yb6  1  0.333969  0.827478  0.623385  1
  Yb  Yb7  1  0.833543  0.673009  0.876972  1
  Yb  Yb8  1  0.161110  0.503918  0.749393  1
  Yb  Yb9  1  0.662815  0.996426  0.749484  1
  Yb  Yb10  1  0.838056  0.495209  0.250136  1
  Yb  Yb11  1  0.338179  0.004457  0.250052  1
  Pr  Pr12  1  0.494104  0.316375  0.903976  1
  Pr  Pr13  1  0.993429  0.185061  0.595229  1
  Pr  Pr14  1  0.506048  0.685118  0.403758  1
  Pr  Pr15  1  0.005566  0.814922  0.096534  1
  Pr  Pr16  1  0.506980  0.684492  0.096679  1
  Pr  Pr17  1  0.005930  0.815007  0.403924  1
  Pr  Pr18  1  0.494057  0.315564  0.595795  1
  Pr  Pr19  1  0.993615  0.185450  0.904908  1
  Sn  Sn20  1  0.328866  0.034449  0.037733  1
  Sn  Sn21  1  0.829596  0.464508  0.461248  1
  Sn  Sn22  1  0.669797  0.964854  0.538941  1
  Sn  Sn23  1  0.172501  0.537274  0.960534  1
  Sn  Sn24  1  0.667871  0.963858  0.960111  1
  Sn  Sn25  1  0.170335  0.535479  0.539055  1
  Sn  Sn26  1  0.330114  0.035344  0.461173  1
  Sn  Sn27  1  0.829200  0.464269  0.038726  1
  Sn  Sn28  1  0.533537  0.604598  0.750584  1
  Sn  Sn29  1  0.036694  0.895349  0.751650  1
  Sn  Sn30  1  0.465373  0.396749  0.249889  1
  Sn  Sn31  1  0.965239  0.102881  0.250061  1
  Sn  Sn32  1  0.289651  0.140399  0.751100  1
  Sn  Sn33  1  0.789215  0.358670  0.750329  1
  Sn  Sn34  1  0.711048  0.858362  0.249715  1
  Sn  Sn35  1  0.210489  0.641492  0.249681  1
