# generated using pymatgen
data_Tb16Lu4Sn7Pb9
_symmetry_space_group_name_H-M   'P 1'
_cell_length_a   8.08875619
_cell_length_b   8.24029225
_cell_length_c   15.60360000
_cell_angle_alpha   90.00000000
_cell_angle_beta   90.00000000
_cell_angle_gamma   90.10182617
_symmetry_Int_Tables_number   1
_chemical_formula_structural   Tb16Lu4Sn7Pb9
_chemical_formula_sum   'Tb16 Lu4 Sn7 Pb9'
_cell_volume   1040.03626492
_cell_formula_units_Z   1
loop_
 _symmetry_equiv_pos_site_id
 _symmetry_equiv_pos_as_xyz
  1  'x, y, z'
loop_
 _atom_site_type_symbol
 _atom_site_label
 _atom_site_symmetry_multiplicity
 _atom_site_fract_x
 _atom_site_fract_y
 _atom_site_fract_z
 _atom_site_occupancy
  Tb  Tb0  1  0.365530  0.839923  0.877254  1
  Tb  Tb1  1  0.868828  0.662280  0.623328  1
  Tb  Tb2  1  0.632884  0.162054  0.376090  1
  Tb  Tb3  1  0.132744  0.337916  0.123890  1
  Tb  Tb4  1  0.632884  0.162054  0.123910  1
  Tb  Tb5  1  0.132744  0.337916  0.376110  1
  Tb  Tb6  1  0.365530  0.839923  0.622746  1
  Tb  Tb7  1  0.868828  0.662280  0.876672  1
  Tb  Tb8  1  0.521350  0.318923  0.901140  1
  Tb  Tb9  1  0.021548  0.179046  0.599408  1
  Tb  Tb10  1  0.478815  0.679184  0.400301  1
  Tb  Tb11  1  0.978636  0.820745  0.099743  1
  Tb  Tb12  1  0.478815  0.679184  0.099699  1
  Tb  Tb13  1  0.978636  0.820745  0.400257  1
  Tb  Tb14  1  0.521350  0.318923  0.598860  1
  Tb  Tb15  1  0.021548  0.179046  0.900592  1
  Lu  Lu16  1  0.195751  0.501310  0.750000  1
  Lu  Lu17  1  0.699156  0.999808  0.750000  1
  Lu  Lu18  1  0.801706  0.497784  0.250000  1
  Lu  Lu19  1  0.301743  0.002370  0.250000  1
  Sn  Sn20  1  0.063661  0.881270  0.750000  1
  Sn  Sn21  1  0.436523  0.381291  0.250000  1
  Sn  Sn22  1  0.936482  0.118592  0.250000  1
  Sn  Sn23  1  0.329666  0.148847  0.750000  1
  Sn  Sn24  1  0.830931  0.349642  0.750000  1
  Sn  Sn25  1  0.670792  0.850931  0.250000  1
  Sn  Sn26  1  0.170804  0.648992  0.250000  1
  Pb  Pb27  1  0.291322  0.035241  0.042517  1
  Pb  Pb28  1  0.791264  0.464647  0.457493  1
  Pb  Pb29  1  0.708739  0.964659  0.542700  1
  Pb  Pb30  1  0.208698  0.535405  0.957335  1
  Pb  Pb31  1  0.708739  0.964659  0.957300  1
  Pb  Pb32  1  0.208698  0.535405  0.542665  1
  Pb  Pb33  1  0.291322  0.035241  0.457483  1
  Pb  Pb34  1  0.791264  0.464647  0.042507  1
  Pb  Pb35  1  0.562067  0.619113  0.750000  1
