# generated using pymatgen
data_Hf2MnCr3
_symmetry_space_group_name_H-M   'P 1'
_cell_length_a   4.99581960
_cell_length_b   4.99581921
_cell_length_c   4.99581883
_cell_angle_alpha   59.95191886
_cell_angle_beta   59.95192317
_cell_angle_gamma   59.95192465
_symmetry_Int_Tables_number   1
_chemical_formula_structural   Hf2MnCr3
_chemical_formula_sum   'Hf2 Mn1 Cr3'
_cell_volume   88.07067856
_cell_formula_units_Z   1
loop_
 _symmetry_equiv_pos_site_id
 _symmetry_equiv_pos_as_xyz
  1  'x, y, z'
loop_
 _atom_site_type_symbol
 _atom_site_label
 _atom_site_symmetry_multiplicity
 _atom_site_fract_x
 _atom_site_fract_y
 _atom_site_fract_z
 _atom_site_occupancy
  Hf  Hf0  1  0.625322  0.625322  0.625322  1
  Hf  Hf1  1  0.374678  0.374678  0.374678  1
  Mn  Mn2  1  0.000000  0.000000  0.000000  1
  Cr  Cr3  1  0.000000  0.500000  0.000000  1
  Cr  Cr4  1  0.500000  0.000000  0.000000  1
  Cr  Cr5  1  0.000000  0.000000  0.500000  1
