# generated using pymatgen
data_Y20Al3Pd3Ru2
_symmetry_space_group_name_H-M   'P 1'
_cell_length_a   9.56002100
_cell_length_b   9.56002071
_cell_length_c   9.49736400
_cell_angle_alpha   90.00000000
_cell_angle_beta   90.00000000
_cell_angle_gamma   119.99999754
_symmetry_Int_Tables_number   1
_chemical_formula_structural   Y20Al3Pd3Ru2
_chemical_formula_sum   'Y20 Al3 Pd3 Ru2'
_cell_volume   751.71186477
_cell_formula_units_Z   1
loop_
 _symmetry_equiv_pos_site_id
 _symmetry_equiv_pos_as_xyz
  1  'x, y, z'
loop_
 _atom_site_type_symbol
 _atom_site_label
 _atom_site_symmetry_multiplicity
 _atom_site_fract_x
 _atom_site_fract_y
 _atom_site_fract_z
 _atom_site_occupancy
  Y  Y0  1  0.000000  0.000000  0.449314  1
  Y  Y1  1  0.000000  0.000000  0.050686  1
  Y  Y2  1  0.209125  0.790875  0.442351  1
  Y  Y3  1  0.209125  0.418251  0.442351  1
  Y  Y4  1  0.581749  0.790875  0.442351  1
  Y  Y5  1  0.794852  0.205148  0.560478  1
  Y  Y6  1  0.794852  0.589704  0.560478  1
  Y  Y7  1  0.410296  0.205148  0.560478  1
  Y  Y8  1  0.794852  0.205148  0.939522  1
  Y  Y9  1  0.794852  0.589704  0.939522  1
  Y  Y10  1  0.410296  0.205148  0.939522  1
  Y  Y11  1  0.209125  0.790875  0.057649  1
  Y  Y12  1  0.209125  0.418251  0.057649  1
  Y  Y13  1  0.581749  0.790875  0.057649  1
  Y  Y14  1  0.541019  0.458981  0.250000  1
  Y  Y15  1  0.541019  0.082038  0.250000  1
  Y  Y16  1  0.917962  0.458981  0.250000  1
  Y  Y17  1  0.459241  0.540759  0.750000  1
  Y  Y18  1  0.459241  0.918483  0.750000  1
  Y  Y19  1  0.081517  0.540759  0.750000  1
  Al  Al20  1  0.103892  0.896108  0.750000  1
  Al  Al21  1  0.103892  0.207784  0.750000  1
  Al  Al22  1  0.792216  0.896108  0.750000  1
  Pd  Pd23  1  0.867148  0.132852  0.250000  1
  Pd  Pd24  1  0.867148  0.734296  0.250000  1
  Pd  Pd25  1  0.265704  0.132852  0.250000  1
  Ru  Ru26  1  0.333333  0.666667  0.250000  1
  Ru  Ru27  1  0.666667  0.333333  0.750000  1
