# generated using pymatgen
data_Pr2Al20Re2OsRh
_symmetry_space_group_name_H-M   'P 1'
_cell_length_a   6.92899364
_cell_length_b   6.92499302
_cell_length_c   9.25349738
_cell_angle_alpha   89.38686337
_cell_angle_beta   89.53709941
_cell_angle_gamma   96.74359764
_symmetry_Int_Tables_number   1
_chemical_formula_structural   Pr2Al20Re2OsRh
_chemical_formula_sum   'Pr2 Al20 Re2 Os1 Rh1'
_cell_volume   440.89611960
_cell_formula_units_Z   1
loop_
 _symmetry_equiv_pos_site_id
 _symmetry_equiv_pos_as_xyz
  1  'x, y, z'
loop_
 _atom_site_type_symbol
 _atom_site_label
 _atom_site_symmetry_multiplicity
 _atom_site_fract_x
 _atom_site_fract_y
 _atom_site_fract_z
 _atom_site_occupancy
  Pr  Pr0  1  0.873005  0.123893  0.749837  1
  Pr  Pr1  1  0.126995  0.876107  0.250163  1
  Al  Al2  1  0.622614  0.378012  0.544469  1
  Al  Al3  1  0.377386  0.621988  0.455531  1
  Al  Al4  1  0.380987  0.623209  0.046279  1
  Al  Al5  1  0.619013  0.376791  0.953721  1
  Al  Al6  1  0.225199  0.224560  0.499602  1
  Al  Al7  1  0.774801  0.775440  0.500398  1
  Al  Al8  1  0.773115  0.773550  0.998664  1
  Al  Al9  1  0.226885  0.226450  0.001336  1
  Al  Al10  1  0.838890  0.158178  0.101475  1
  Al  Al11  1  0.161110  0.841822  0.898525  1
  Al  Al12  1  0.157910  0.839528  0.599673  1
  Al  Al13  1  0.842090  0.160472  0.400327  1
  Al  Al14  1  0.859433  0.591558  0.749725  1
  Al  Al15  1  0.140567  0.408442  0.250275  1
  Al  Al16  1  0.407613  0.139263  0.749601  1
  Al  Al17  1  0.592387  0.860737  0.250399  1
  Al  Al18  1  0.220404  0.479317  0.745512  1
  Al  Al19  1  0.779596  0.520683  0.254488  1
  Al  Al20  1  0.520128  0.781231  0.751712  1
  Al  Al21  1  0.479872  0.218769  0.248288  1
  Re  Re22  1  0.000000  0.500000  0.500000  1
  Re  Re23  1  0.500000  0.000000  0.000000  1
  Os  Os24  1  0.500000  0.000000  0.500000  1
  Rh  Rh25  1  0.000000  0.500000  0.000000  1
