# generated using pymatgen
data_Yb2Al16RuPt8
_symmetry_space_group_name_H-M   'P 1'
_cell_length_a   11.19676691
_cell_length_b   11.19676683
_cell_length_c   11.19676700
_cell_angle_alpha   158.70726409
_cell_angle_beta   116.72774322
_cell_angle_gamma   67.57407435
_symmetry_Int_Tables_number   1
_chemical_formula_structural   Yb2Al16RuPt8
_chemical_formula_sum   'Yb2 Al16 Ru1 Pt8'
_cell_volume   452.20755438
_cell_formula_units_Z   1
loop_
 _symmetry_equiv_pos_site_id
 _symmetry_equiv_pos_as_xyz
  1  'x, y, z'
loop_
 _atom_site_type_symbol
 _atom_site_label
 _atom_site_symmetry_multiplicity
 _atom_site_fract_x
 _atom_site_fract_y
 _atom_site_fract_z
 _atom_site_occupancy
  Yb  Yb0  1  0.229350  0.229733  0.999616  1
  Yb  Yb1  1  0.769884  0.770267  0.999617  1
  Al  Al2  1  0.274662  0.391795  0.882868  1
  Al  Al3  1  0.087474  0.923569  0.163905  1
  Al  Al4  1  0.505248  0.201550  0.303697  1
  Al  Al5  1  0.240336  0.076432  0.163906  1
  Al  Al6  1  0.909182  0.415828  0.493352  1
  Al  Al7  1  0.725983  0.599870  0.126114  1
  Al  Al8  1  0.902352  0.208712  0.693638  1
  Al  Al9  1  0.484927  0.791285  0.693639  1
  Al  Al10  1  0.387155  0.000001  0.387156  1
  Al  Al11  1  0.627996  0.000004  0.628002  1
  Al  Al12  1  0.491076  0.608207  0.882870  1
  Al  Al13  1  0.102148  0.798450  0.303696  1
  Al  Al14  1  0.906728  0.084963  0.821769  1
  Al  Al15  1  0.736805  0.915040  0.821769  1
  Al  Al16  1  0.526238  0.400128  0.126108  1
  Al  Al17  1  0.077523  0.584170  0.493351  1
  Ru  Ru18  1  0.779590  0.500019  0.279612  1
  Pt  Pt19  1  0.025591  0.343284  0.682297  1
  Pt  Pt20  1  0.627287  0.123675  0.503614  1
  Pt  Pt21  1  0.252741  0.500005  0.752745  1
  Pt  Pt22  1  0.379940  0.876325  0.503613  1
  Pt  Pt23  1  0.984690  0.999997  0.984686  1
  Pt  Pt24  1  0.649045  0.335998  0.313029  1
  Pt  Pt25  1  0.339012  0.656706  0.682300  1
  Pt  Pt26  1  0.977034  0.663987  0.313031  1
