# generated using pymatgen
data_Sm6Zn21Ru2S
_symmetry_space_group_name_H-M   'P 1'
_cell_length_a   9.04181749
_cell_length_b   9.04181868
_cell_length_c   8.92653200
_cell_angle_alpha   60.42089063
_cell_angle_beta   60.42088634
_cell_angle_gamma   59.15822102
_symmetry_Int_Tables_number   1
_chemical_formula_structural   Sm6Zn21Ru2S
_chemical_formula_sum   'Sm6 Zn21 Ru2 S1'
_cell_volume   515.86947932
_cell_formula_units_Z   1
loop_
 _symmetry_equiv_pos_site_id
 _symmetry_equiv_pos_as_xyz
  1  'x, y, z'
loop_
 _atom_site_type_symbol
 _atom_site_label
 _atom_site_symmetry_multiplicity
 _atom_site_fract_x
 _atom_site_fract_y
 _atom_site_fract_z
 _atom_site_occupancy
  Sm  Sm0  1  0.717612  0.282388  0.282388  1
  Sm  Sm1  1  0.717612  0.282388  0.717612  1
  Sm  Sm2  1  0.718873  0.718873  0.281127  1
  Sm  Sm3  1  0.282388  0.717612  0.717612  1
  Sm  Sm4  1  0.282388  0.717612  0.282388  1
  Sm  Sm5  1  0.281127  0.281127  0.718873  1
  Zn  Zn6  1  0.622710  0.129253  0.124019  1
  Zn  Zn7  1  0.129253  0.622710  0.124019  1
  Zn  Zn8  1  0.124019  0.124019  0.622710  1
  Zn  Zn9  1  0.124019  0.124019  0.129253  1
  Zn  Zn10  1  0.377290  0.870747  0.875981  1
  Zn  Zn11  1  0.870747  0.377290  0.875981  1
  Zn  Zn12  1  0.875981  0.875981  0.377290  1
  Zn  Zn13  1  0.875981  0.875981  0.870747  1
  Zn  Zn14  1  0.500000  0.000000  0.000000  1
  Zn  Zn15  1  0.500000  0.000000  0.500000  1
  Zn  Zn16  1  0.000000  0.500000  0.500000  1
  Zn  Zn17  1  0.000000  0.500000  0.000000  1
  Zn  Zn18  1  0.000000  0.000000  0.000000  1
  Zn  Zn19  1  0.012591  0.326863  0.330272  1
  Zn  Zn20  1  0.326863  0.012591  0.330272  1
  Zn  Zn21  1  0.330272  0.330272  0.012591  1
  Zn  Zn22  1  0.330272  0.330272  0.326863  1
  Zn  Zn23  1  0.987409  0.673137  0.669728  1
  Zn  Zn24  1  0.673137  0.987409  0.669728  1
  Zn  Zn25  1  0.669728  0.669728  0.987409  1
  Zn  Zn26  1  0.669728  0.669728  0.673137  1
  Ru  Ru27  1  0.500000  0.500000  0.000000  1
  Ru  Ru28  1  0.000000  0.000000  0.500000  1
  S  S29  1  0.500000  0.500000  0.500000  1
