# generated using pymatgen
data_Pr5NdAl24ZnOs7
_symmetry_space_group_name_H-M   'P 1'
_cell_length_a   8.95925542
_cell_length_b   8.95925482
_cell_length_c   9.67540089
_cell_angle_alpha   90.10370949
_cell_angle_beta   89.89629092
_cell_angle_gamma   119.87427303
_symmetry_Int_Tables_number   1
_chemical_formula_structural   Pr5NdAl24ZnOs7
_chemical_formula_sum   'Pr5 Nd1 Al24 Zn1 Os7'
_cell_volume   673.42816513
_cell_formula_units_Z   1
loop_
 _symmetry_equiv_pos_site_id
 _symmetry_equiv_pos_as_xyz
  1  'x, y, z'
loop_
 _atom_site_type_symbol
 _atom_site_label
 _atom_site_symmetry_multiplicity
 _atom_site_fract_x
 _atom_site_fract_y
 _atom_site_fract_z
 _atom_site_occupancy
  Pr  Pr0  1  0.190905  0.382570  0.246555  1
  Pr  Pr1  1  0.809058  0.617300  0.753420  1
  Pr  Pr2  1  0.617430  0.809095  0.246555  1
  Pr  Pr3  1  0.382700  0.190942  0.753420  1
  Pr  Pr4  1  0.192301  0.807699  0.254780  1
  Nd  Nd5  1  0.807643  0.192357  0.745205  1
  Al  Al6  1  0.328563  0.671437  0.012859  1
  Al  Al7  1  0.671552  0.328448  0.986915  1
  Al  Al8  1  0.666174  0.333826  0.511648  1
  Al  Al9  1  0.333925  0.666075  0.488572  1
  Al  Al10  1  0.162611  0.326085  0.571843  1
  Al  Al11  1  0.837193  0.673838  0.428259  1
  Al  Al12  1  0.673915  0.837389  0.571843  1
  Al  Al13  1  0.850278  0.677688  0.079715  1
  Al  Al14  1  0.326162  0.162807  0.428259  1
  Al  Al15  1  0.149492  0.322219  0.920171  1
  Al  Al16  1  0.162960  0.837040  0.575072  1
  Al  Al17  1  0.322312  0.149722  0.079715  1
  Al  Al18  1  0.837029  0.162971  0.425165  1
  Al  Al19  1  0.677781  0.850508  0.920171  1
  Al  Al20  1  0.836674  0.163326  0.074166  1
  Al  Al21  1  0.163308  0.836692  0.925620  1
  Al  Al22  1  0.562455  0.123137  0.249139  1
  Al  Al23  1  0.437899  0.877169  0.750851  1
  Al  Al24  1  0.876863  0.437545  0.249139  1
  Al  Al25  1  0.122831  0.562101  0.750851  1
  Al  Al26  1  0.565167  0.434833  0.256602  1
  Al  Al27  1  0.434822  0.565178  0.743408  1
  Al  Al28  1  0.998807  0.001193  0.250671  1
  Al  Al29  1  0.001024  0.998976  0.749332  1
  Zn  Zn30  1  0.500011  0.499989  0.000008  1
  Os  Os31  1  0.500176  0.000092  0.999867  1
  Os  Os32  1  0.999908  0.499824  0.999867  1
  Os  Os33  1  0.500210  0.000120  0.500151  1
  Os  Os34  1  0.999880  0.499790  0.500151  1
  Os  Os35  1  0.500032  0.499968  0.500020  1
  Os  Os36  1  0.999982  0.000018  0.999936  1
  Os  Os37  1  0.999967  0.000033  0.500076  1
