# generated using pymatgen
data_Tb2Dy6Re(B8Ru)3
_symmetry_space_group_name_H-M   'P 1'
_cell_length_a   3.67674100
_cell_length_b   9.16573515
_cell_length_c   11.55016639
_cell_angle_alpha   89.85936613
_cell_angle_beta   90.00000000
_cell_angle_gamma   90.00000000
_symmetry_Int_Tables_number   1
_chemical_formula_structural   Tb2Dy6Re(B8Ru)3
_chemical_formula_sum   'Tb2 Dy6 Re1 B24 Ru3'
_cell_volume   389.23983014
_cell_formula_units_Z   1
loop_
 _symmetry_equiv_pos_site_id
 _symmetry_equiv_pos_as_xyz
  1  'x, y, z'
loop_
 _atom_site_type_symbol
 _atom_site_label
 _atom_site_symmetry_multiplicity
 _atom_site_fract_x
 _atom_site_fract_y
 _atom_site_fract_z
 _atom_site_occupancy
  Tb  Tb0  1  0.000000  0.324197  0.413220  1
  Tb  Tb1  1  0.000000  0.676601  0.583521  1
  Dy  Dy2  1  0.000000  0.820640  0.088113  1
  Dy  Dy3  1  0.000000  0.176341  0.914963  1
  Dy  Dy4  1  0.000000  0.944208  0.372448  1
  Dy  Dy5  1  0.000000  0.057346  0.628693  1
  Dy  Dy6  1  0.000000  0.443641  0.127393  1
  Dy  Dy7  1  0.000000  0.556953  0.871221  1
  Re  Re8  1  0.000000  0.637802  0.321096  1
  B  B9  1  0.500000  0.552925  0.432895  1
  B  B10  1  0.500000  0.446024  0.568008  1
  B  B11  1  0.500000  0.053765  0.067112  1
  B  B12  1  0.500000  0.946206  0.933106  1
  B  B13  1  0.500000  0.748445  0.419033  1
  B  B14  1  0.500000  0.252077  0.581006  1
  B  B15  1  0.500000  0.247752  0.080197  1
  B  B16  1  0.500000  0.752222  0.919624  1
  B  B17  1  0.500000  0.791833  0.266116  1
  B  B18  1  0.500000  0.209075  0.733970  1
  B  B19  1  0.500000  0.290519  0.232512  1
  B  B20  1  0.500000  0.709918  0.766600  1
  B  B21  1  0.500000  0.631848  0.185411  1
  B  B22  1  0.500000  0.367605  0.814902  1
  B  B23  1  0.500000  0.131845  0.313893  1
  B  B24  1  0.500000  0.868760  0.685783  1
  B  B25  1  0.500000  0.983831  0.212564  1
  B  B26  1  0.500000  0.016351  0.788063  1
  B  B27  1  0.500000  0.482812  0.287011  1
  B  B28  1  0.500000  0.515680  0.712860  1
  B  B29  1  0.500000  0.608204  0.029235  1
  B  B30  1  0.500000  0.390956  0.969373  1
  B  B31  1  0.500000  0.108234  0.470608  1
  B  B32  1  0.500000  0.893804  0.530309  1
  Ru  Ru33  1  0.000000  0.361684  0.679578  1
  Ru  Ru34  1  0.000000  0.137534  0.178145  1
  Ru  Ru35  1  0.000000  0.862361  0.821418  1
