# generated using pymatgen
data_MoPb4W3O13
_symmetry_space_group_name_H-M   'P 1'
_cell_length_a   7.59559050
_cell_length_b   7.59559182
_cell_length_c   7.59559000
_cell_angle_alpha   60.01666051
_cell_angle_beta   60.01665478
_cell_angle_gamma   60.01665845
_symmetry_Int_Tables_number   1
_chemical_formula_structural   MoPb4W3O13
_chemical_formula_sum   'Mo1 Pb4 W3 O13'
_cell_volume   309.97998402
_cell_formula_units_Z   1
loop_
 _symmetry_equiv_pos_site_id
 _symmetry_equiv_pos_as_xyz
  1  'x, y, z'
loop_
 _atom_site_type_symbol
 _atom_site_label
 _atom_site_symmetry_multiplicity
 _atom_site_fract_x
 _atom_site_fract_y
 _atom_site_fract_z
 _atom_site_occupancy
  Mo  Mo0  1  0.499687  0.499687  0.499687  1
  Pb  Pb1  1  0.000476  0.000476  0.000476  1
  Pb  Pb2  1  0.501547  0.006309  0.006309  1
  Pb  Pb3  1  0.006309  0.006309  0.501547  1
  Pb  Pb4  1  0.006309  0.501547  0.006309  1
  W  W5  1  0.000636  0.500370  0.500370  1
  W  W6  1  0.500370  0.500370  0.000636  1
  W  W7  1  0.500370  0.000636  0.500370  1
  O  O8  1  0.841777  0.421334  0.421334  1
  O  O9  1  0.419432  0.819291  0.819291  1
  O  O10  1  0.421334  0.421334  0.841777  1
  O  O11  1  0.819291  0.819291  0.419432  1
  O  O12  1  0.819291  0.419432  0.819291  1
  O  O13  1  0.421334  0.841777  0.421334  1
  O  O14  1  0.163890  0.571366  0.571366  1
  O  O15  1  0.573328  0.180169  0.180169  1
  O  O16  1  0.571366  0.571366  0.163890  1
  O  O17  1  0.180169  0.180169  0.573328  1
  O  O18  1  0.180169  0.573328  0.180169  1
  O  O19  1  0.571366  0.163890  0.571366  1
  O  O20  1  0.126547  0.126547  0.126547  1
