# generated using pymatgen
data_Tb9Y11(Sn5Sb3)2
_symmetry_space_group_name_H-M   'P 1'
_cell_length_a   8.14136955
_cell_length_b   8.16775564
_cell_length_c   15.46926324
_cell_angle_alpha   90.30365591
_cell_angle_beta   90.04403695
_cell_angle_gamma   90.01281465
_symmetry_Int_Tables_number   1
_chemical_formula_structural   Tb9Y11(Sn5Sb3)2
_chemical_formula_sum   'Tb9 Y11 Sn10 Sb6'
_cell_volume   1028.64044364
_cell_formula_units_Z   1
loop_
 _symmetry_equiv_pos_site_id
 _symmetry_equiv_pos_as_xyz
  1  'x, y, z'
loop_
 _atom_site_type_symbol
 _atom_site_label
 _atom_site_symmetry_multiplicity
 _atom_site_fract_x
 _atom_site_fract_y
 _atom_site_fract_z
 _atom_site_occupancy
  Tb  Tb0  1  0.882718  0.661469  0.879506  1
  Tb  Tb1  1  0.548242  0.330856  0.894031  1
  Tb  Tb2  1  0.047744  0.169386  0.605849  1
  Tb  Tb3  1  0.454434  0.675565  0.394851  1
  Tb  Tb4  1  0.953780  0.824788  0.105436  1
  Tb  Tb5  1  0.457521  0.668967  0.105236  1
  Tb  Tb6  1  0.957954  0.830691  0.394687  1
  Tb  Tb7  1  0.539935  0.321946  0.603582  1
  Tb  Tb8  1  0.040455  0.177592  0.896257  1
  Y  Y9  1  0.384052  0.838409  0.879820  1
  Y  Y10  1  0.883838  0.661579  0.620243  1
  Y  Y11  1  0.617468  0.161145  0.378901  1
  Y  Y12  1  0.117209  0.338960  0.120814  1
  Y  Y13  1  0.616173  0.162098  0.120098  1
  Y  Y14  1  0.116679  0.337841  0.379890  1
  Y  Y15  1  0.382066  0.838990  0.620911  1
  Y  Y16  1  0.214602  0.498497  0.749868  1
  Y  Y17  1  0.714460  0.001591  0.750054  1
  Y  Y18  1  0.785407  0.500838  0.248540  1
  Y  Y19  1  0.285327  0.999068  0.251452  1
  Sn  Sn20  1  0.278059  0.028019  0.456720  1
  Sn  Sn21  1  0.777620  0.472095  0.043637  1
  Sn  Sn22  1  0.579873  0.625067  0.748957  1
  Sn  Sn23  1  0.079810  0.875148  0.750994  1
  Sn  Sn24  1  0.419657  0.374952  0.250702  1
  Sn  Sn25  1  0.919666  0.125099  0.249272  1
  Sn  Sn26  1  0.349863  0.143477  0.751307  1
  Sn  Sn27  1  0.849899  0.356601  0.748695  1
  Sn  Sn28  1  0.650235  0.856605  0.249599  1
  Sn  Sn29  1  0.150392  0.643208  0.250356  1
  Sb  Sb30  1  0.271778  0.022004  0.045654  1
  Sb  Sb31  1  0.772197  0.477478  0.454443  1
  Sb  Sb32  1  0.724848  0.974798  0.545006  1
  Sb  Sb33  1  0.225690  0.524366  0.954718  1
  Sb  Sb34  1  0.725138  0.976913  0.954061  1
  Sb  Sb35  1  0.225210  0.523894  0.545856  1
