# generated using pymatgen
data_Sr4In4Pt3Au
_symmetry_space_group_name_H-M   'P 1'
_cell_length_a   4.56950400
_cell_length_b   7.73459052
_cell_length_c   8.71124679
_cell_angle_alpha   89.59384797
_cell_angle_beta   90.00000000
_cell_angle_gamma   90.00000000
_symmetry_Int_Tables_number   1
_chemical_formula_structural   Sr4In4Pt3Au
_chemical_formula_sum   'Sr4 In4 Pt3 Au1'
_cell_volume   307.87597063
_cell_formula_units_Z   1
loop_
 _symmetry_equiv_pos_site_id
 _symmetry_equiv_pos_as_xyz
  1  'x, y, z'
loop_
 _atom_site_type_symbol
 _atom_site_label
 _atom_site_symmetry_multiplicity
 _atom_site_fract_x
 _atom_site_fract_y
 _atom_site_fract_z
 _atom_site_occupancy
  Sr  Sr0  1  0.750000  0.973836  0.674716  1
  Sr  Sr1  1  0.250000  0.030718  0.322493  1
  Sr  Sr2  1  0.750000  0.464909  0.819413  1
  Sr  Sr3  1  0.250000  0.526214  0.181828  1
  In  In4  1  0.750000  0.353191  0.434203  1
  In  In5  1  0.250000  0.154571  0.935035  1
  In  In6  1  0.250000  0.644601  0.559250  1
  In  In7  1  0.750000  0.855810  0.072478  1
  Pt  Pt8  1  0.250000  0.277075  0.622611  1
  Pt  Pt9  1  0.750000  0.722436  0.378972  1
  Pt  Pt10  1  0.750000  0.221654  0.121574  1
  Au  Au11  1  0.250000  0.774985  0.877428  1
