# generated using pymatgen
data_Tb16Mg3CdTcPt3
_symmetry_space_group_name_H-M   'P 1'
_cell_length_a   9.82073486
_cell_length_b   9.84176871
_cell_length_c   9.84176943
_cell_angle_alpha   59.23568842
_cell_angle_beta   59.12162892
_cell_angle_gamma   59.12162495
_symmetry_Int_Tables_number   1
_chemical_formula_structural   Tb16Mg3CdTcPt3
_chemical_formula_sum   'Tb16 Mg3 Cd1 Tc1 Pt3'
_cell_volume   659.74538833
_cell_formula_units_Z   1
loop_
 _symmetry_equiv_pos_site_id
 _symmetry_equiv_pos_as_xyz
  1  'x, y, z'
loop_
 _atom_site_type_symbol
 _atom_site_label
 _atom_site_symmetry_multiplicity
 _atom_site_fract_x
 _atom_site_fract_y
 _atom_site_fract_z
 _atom_site_occupancy
  Tb  Tb0  1  0.350077  0.350585  0.350585  1
  Tb  Tb1  1  0.347895  0.348818  0.953251  1
  Tb  Tb2  1  0.347895  0.953251  0.348818  1
  Tb  Tb3  1  0.956360  0.347535  0.347535  1
  Tb  Tb4  1  0.815905  0.187541  0.187541  1
  Tb  Tb5  1  0.188515  0.809631  0.809631  1
  Tb  Tb6  1  0.188652  0.815395  0.187510  1
  Tb  Tb7  1  0.810692  0.187623  0.810950  1
  Tb  Tb8  1  0.188652  0.187510  0.815395  1
  Tb  Tb9  1  0.810692  0.810950  0.187623  1
  Tb  Tb10  1  0.937111  0.565477  0.565477  1
  Tb  Tb11  1  0.557621  0.936950  0.936950  1
  Tb  Tb12  1  0.566178  0.933714  0.565962  1
  Tb  Tb13  1  0.939336  0.556724  0.935510  1
  Tb  Tb14  1  0.566178  0.565962  0.933714  1
  Tb  Tb15  1  0.939336  0.935510  0.556724  1
  Mg  Mg16  1  0.575685  0.579141  0.579141  1
  Mg  Mg17  1  0.575576  0.579222  0.261803  1
  Mg  Mg18  1  0.575576  0.261803  0.579222  1
  Cd  Cd19  1  0.254205  0.580587  0.580587  1
  Tc  Tc20  1  0.144645  0.143245  0.143245  1
  Pt  Pt21  1  0.145147  0.144034  0.574008  1
  Pt  Pt22  1  0.145147  0.574008  0.144034  1
  Pt  Pt23  1  0.572923  0.144783  0.144783  1
