# generated using pymatgen
data_La2Nd6Cd2RuPt
_symmetry_space_group_name_H-M   'P 1'
_cell_length_a   10.01450728
_cell_length_b   10.01450711
_cell_length_c   10.05565300
_cell_angle_alpha   59.86399101
_cell_angle_beta   59.86399159
_cell_angle_gamma   59.89714482
_symmetry_Int_Tables_number   1
_chemical_formula_structural   La2Nd6Cd2RuPt
_chemical_formula_sum   'La4 Nd12 Cd4 Ru2 Pt2'
_cell_volume   711.08453984
_cell_formula_units_Z   2
loop_
 _symmetry_equiv_pos_site_id
 _symmetry_equiv_pos_as_xyz
  1  'x, y, z'
loop_
 _atom_site_type_symbol
 _atom_site_label
 _atom_site_symmetry_multiplicity
 _atom_site_fract_x
 _atom_site_fract_y
 _atom_site_fract_z
 _atom_site_occupancy
  La  La0  1  0.347119  0.347119  0.355542  1
  La  La1  1  0.347119  0.347119  0.950222  1
  La  La2  1  0.342903  0.957265  0.349916  1
  La  La3  1  0.957265  0.342903  0.349916  1
  Nd  Nd4  1  0.815982  0.189444  0.189095  1
  Nd  Nd5  1  0.189444  0.815982  0.805479  1
  Nd  Nd6  1  0.189444  0.815982  0.189095  1
  Nd  Nd7  1  0.815982  0.189444  0.805479  1
  Nd  Nd8  1  0.188054  0.188054  0.811946  1
  Nd  Nd9  1  0.807967  0.807967  0.192033  1
  Nd  Nd10  1  0.936133  0.559412  0.566525  1
  Nd  Nd11  1  0.559412  0.936133  0.937929  1
  Nd  Nd12  1  0.559412  0.936133  0.566525  1
  Nd  Nd13  1  0.936133  0.559412  0.937929  1
  Nd  Nd14  1  0.562897  0.562897  0.937103  1
  Nd  Nd15  1  0.936044  0.936044  0.563956  1
  Cd  Cd16  1  0.580069  0.580069  0.580135  1
  Cd  Cd17  1  0.580069  0.580069  0.259728  1
  Cd  Cd18  1  0.580897  0.258360  0.580372  1
  Cd  Cd19  1  0.258360  0.580897  0.580372  1
  Ru  Ru20  1  0.144473  0.144473  0.137851  1
  Ru  Ru21  1  0.144473  0.144473  0.573203  1
  Pt  Pt22  1  0.145156  0.575196  0.139824  1
  Pt  Pt23  1  0.575196  0.145156  0.139824  1
