# generated using pymatgen
data_Tb4CuNi3
_symmetry_space_group_name_H-M   'P 1'
_cell_length_a   4.24767900
_cell_length_b   5.48605095
_cell_length_c   7.05737103
_cell_angle_alpha   89.81675918
_cell_angle_beta   90.00000000
_cell_angle_gamma   90.00000000
_symmetry_Int_Tables_number   1
_chemical_formula_structural   Tb4CuNi3
_chemical_formula_sum   'Tb4 Cu1 Ni3'
_cell_volume   164.45695887
_cell_formula_units_Z   1
loop_
 _symmetry_equiv_pos_site_id
 _symmetry_equiv_pos_as_xyz
  1  'x, y, z'
loop_
 _atom_site_type_symbol
 _atom_site_label
 _atom_site_symmetry_multiplicity
 _atom_site_fract_x
 _atom_site_fract_y
 _atom_site_fract_z
 _atom_site_occupancy
  Tb  Tb0  1  0.000000  0.637643  0.314014  1
  Tb  Tb1  1  0.000000  0.859135  0.821646  1
  Tb  Tb2  1  0.500000  0.368217  0.689553  1
  Tb  Tb3  1  0.500000  0.135473  0.173300  1
  Cu  Cu4  1  0.000000  0.126335  0.465608  1
  Ni  Ni5  1  0.000000  0.366671  0.964009  1
  Ni  Ni6  1  0.500000  0.876903  0.533894  1
  Ni  Ni7  1  0.500000  0.629624  0.037976  1
