# generated using pymatgen
data_TbTm4Lu3Ga3Co
_symmetry_space_group_name_H-M   'P 1'
_cell_length_a   9.83998200
_cell_length_b   9.83998253
_cell_length_c   6.89199500
_cell_angle_alpha   90.00000000
_cell_angle_beta   90.00000000
_cell_angle_gamma   119.99999821
_symmetry_Int_Tables_number   1
_chemical_formula_structural   TbTm4Lu3Ga3Co
_chemical_formula_sum   'Tb2 Tm8 Lu6 Ga6 Co2'
_cell_volume   577.91534311
_cell_formula_units_Z   2
loop_
 _symmetry_equiv_pos_site_id
 _symmetry_equiv_pos_as_xyz
  1  'x, y, z'
loop_
 _atom_site_type_symbol
 _atom_site_label
 _atom_site_symmetry_multiplicity
 _atom_site_fract_x
 _atom_site_fract_y
 _atom_site_fract_z
 _atom_site_occupancy
  Tb  Tb0  1  0.000000  0.000000  0.768954  1
  Tb  Tb1  1  0.000000  0.000000  0.268954  1
  Tm  Tm2  1  0.666667  0.333333  0.172455  1
  Tm  Tm3  1  0.333333  0.666667  0.672455  1
  Tm  Tm4  1  0.536603  0.073206  0.792542  1
  Tm  Tm5  1  0.926794  0.463397  0.792542  1
  Tm  Tm6  1  0.536603  0.463397  0.792542  1
  Tm  Tm7  1  0.463397  0.926794  0.292542  1
  Tm  Tm8  1  0.073206  0.536603  0.292542  1
  Tm  Tm9  1  0.463397  0.536603  0.292542  1
  Lu  Lu10  1  0.825579  0.651158  0.488573  1
  Lu  Lu11  1  0.348842  0.174421  0.488573  1
  Lu  Lu12  1  0.825579  0.174421  0.488573  1
  Lu  Lu13  1  0.174421  0.348842  0.988573  1
  Lu  Lu14  1  0.651158  0.825579  0.988573  1
  Lu  Lu15  1  0.174421  0.825579  0.988573  1
  Ga  Ga16  1  0.836271  0.672543  0.040802  1
  Ga  Ga17  1  0.327457  0.163729  0.040802  1
  Ga  Ga18  1  0.836271  0.163729  0.040802  1
  Ga  Ga19  1  0.163729  0.327457  0.540802  1
  Ga  Ga20  1  0.672543  0.836271  0.540802  1
  Ga  Ga21  1  0.163729  0.836271  0.540802  1
  Co  Co22  1  0.666667  0.333333  0.555874  1
  Co  Co23  1  0.333333  0.666667  0.055874  1
