# generated using pymatgen
data_EuY2Ho(Ga2Ag)4
_symmetry_space_group_name_H-M   'P 1'
_cell_length_a   4.39716900
_cell_length_b   7.00952850
_cell_length_c   10.32087597
_cell_angle_alpha   89.38328261
_cell_angle_beta   90.00000000
_cell_angle_gamma   90.00000000
_symmetry_Int_Tables_number   1
_chemical_formula_structural   EuY2Ho(Ga2Ag)4
_chemical_formula_sum   'Eu1 Y2 Ho1 Ga8 Ag4'
_cell_volume   318.09245180
_cell_formula_units_Z   1
loop_
 _symmetry_equiv_pos_site_id
 _symmetry_equiv_pos_as_xyz
  1  'x, y, z'
loop_
 _atom_site_type_symbol
 _atom_site_label
 _atom_site_symmetry_multiplicity
 _atom_site_fract_x
 _atom_site_fract_y
 _atom_site_fract_z
 _atom_site_occupancy
  Eu  Eu0  1  0.250000  0.778923  0.825737  1
  Y  Y1  1  0.750000  0.220475  0.172498  1
  Y  Y2  1  0.750000  0.721312  0.328310  1
  Ho  Ho3  1  0.250000  0.279797  0.671674  1
  Ga  Ga4  1  0.250000  0.698780  0.533092  1
  Ga  Ga5  1  0.750000  0.295982  0.462504  1
  Ga  Ga6  1  0.750000  0.795783  0.038484  1
  Ga  Ga7  1  0.250000  0.207094  0.964679  1
  Ga  Ga8  1  0.250000  0.926990  0.156072  1
  Ga  Ga9  1  0.750000  0.077448  0.849752  1
  Ga  Ga10  1  0.750000  0.569933  0.649004  1
  Ga  Ga11  1  0.250000  0.425037  0.344591  1
  Ag  Ag12  1  0.250000  0.543046  0.099939  1
  Ag  Ag13  1  0.750000  0.455299  0.902784  1
  Ag  Ag14  1  0.750000  0.959908  0.596944  1
  Ag  Ag15  1  0.250000  0.044194  0.403932  1
