# generated using pymatgen
data_Sr8Li3Si12Ag
_symmetry_space_group_name_H-M   'P 1'
_cell_length_a   11.77735504
_cell_length_b   10.10085722
_cell_length_c   8.53881291
_cell_angle_alpha   77.87498738
_cell_angle_beta   57.03844712
_cell_angle_gamma   45.14106166
_symmetry_Int_Tables_number   1
_chemical_formula_structural   Sr8Li3Si12Ag
_chemical_formula_sum   'Sr8 Li3 Si12 Ag1'
_cell_volume   577.78928754
_cell_formula_units_Z   1
loop_
 _symmetry_equiv_pos_site_id
 _symmetry_equiv_pos_as_xyz
  1  'x, y, z'
loop_
 _atom_site_type_symbol
 _atom_site_label
 _atom_site_symmetry_multiplicity
 _atom_site_fract_x
 _atom_site_fract_y
 _atom_site_fract_z
 _atom_site_occupancy
  Sr  Sr0  1  0.123792  0.124031  0.876696  1
  Sr  Sr1  1  0.876697  0.875482  0.123791  1
  Sr  Sr2  1  0.125488  0.126084  0.373931  1
  Sr  Sr3  1  0.373932  0.374498  0.125487  1
  Sr  Sr4  1  0.624586  0.623729  0.375729  1
  Sr  Sr5  1  0.375729  0.375958  0.624586  1
  Sr  Sr6  1  0.625329  0.625622  0.874522  1
  Sr  Sr7  1  0.874523  0.874527  0.625328  1
  Li  Li8  1  0.832772  0.167228  0.832772  1
  Li  Li9  1  0.167219  0.832781  0.167219  1
  Li  Li10  1  0.417258  0.082742  0.417258  1
  Si  Si11  1  0.913075  0.593086  0.426452  1
  Si  Si12  1  0.069451  0.424462  0.591800  1
  Si  Si13  1  0.426452  0.067387  0.913075  1
  Si  Si14  1  0.591800  0.914287  0.069451  1
  Si  Si15  1  0.336685  0.658423  0.824344  1
  Si  Si16  1  0.658222  0.336362  0.180899  1
  Si  Si17  1  0.824344  0.180547  0.336685  1
  Si  Si18  1  0.180899  0.824517  0.658222  1
  Si  Si19  1  0.910743  0.589258  0.910742  1
  Si  Si20  1  0.588230  0.911771  0.588229  1
  Si  Si21  1  0.338526  0.661475  0.338526  1
  Si  Si22  1  0.661389  0.338611  0.661389  1
  Ag  Ag23  1  0.082864  0.417136  0.082864  1
