# generated using pymatgen
data_Tb5NdTm10(CdPt)4
_symmetry_space_group_name_H-M   'P 1'
_cell_length_a   9.61834652
_cell_length_b   9.63122954
_cell_length_c   9.63123043
_cell_angle_alpha   59.93658943
_cell_angle_beta   60.04423762
_cell_angle_gamma   60.04424135
_symmetry_Int_Tables_number   1
_chemical_formula_structural   Tb5NdTm10(CdPt)4
_chemical_formula_sum   'Tb5 Nd1 Tm10 Cd4 Pt4'
_cell_volume   631.00118413
_cell_formula_units_Z   1
loop_
 _symmetry_equiv_pos_site_id
 _symmetry_equiv_pos_as_xyz
  1  'x, y, z'
loop_
 _atom_site_type_symbol
 _atom_site_label
 _atom_site_symmetry_multiplicity
 _atom_site_fract_x
 _atom_site_fract_y
 _atom_site_fract_z
 _atom_site_occupancy
  Tb  Tb0  1  0.563578  0.936422  0.936422  1
  Tb  Tb1  1  0.561706  0.938149  0.563412  1
  Tb  Tb2  1  0.936734  0.563412  0.938149  1
  Tb  Tb3  1  0.561706  0.563412  0.938149  1
  Tb  Tb4  1  0.936734  0.938149  0.563412  1
  Nd  Nd5  1  0.935562  0.564438  0.564438  1
  Tm  Tm6  1  0.352617  0.350872  0.350872  1
  Tm  Tm7  1  0.351539  0.351009  0.945914  1
  Tm  Tm8  1  0.351539  0.945914  0.351009  1
  Tm  Tm9  1  0.945640  0.350872  0.350872  1
  Tm  Tm10  1  0.811551  0.188449  0.188449  1
  Tm  Tm11  1  0.188781  0.811219  0.811219  1
  Tm  Tm12  1  0.189954  0.811642  0.187469  1
  Tm  Tm13  1  0.810935  0.187469  0.811642  1
  Tm  Tm14  1  0.189954  0.187469  0.811642  1
  Tm  Tm15  1  0.810935  0.811642  0.187469  1
  Cd  Cd16  1  0.579136  0.581346  0.581346  1
  Cd  Cd17  1  0.581216  0.581170  0.256399  1
  Cd  Cd18  1  0.581216  0.256399  0.581170  1
  Cd  Cd19  1  0.258172  0.581346  0.581346  1
  Pt  Pt20  1  0.142676  0.142880  0.142880  1
  Pt  Pt21  1  0.143279  0.141783  0.571661  1
  Pt  Pt22  1  0.143279  0.571661  0.141783  1
  Pt  Pt23  1  0.571565  0.142880  0.142880  1
