# generated using pymatgen
data_Sr21Ga8Bi7
_symmetry_space_group_name_H-M   'P 1'
_cell_length_a   12.18617018
_cell_length_b   12.18617173
_cell_length_c   12.18617000
_cell_angle_alpha   60.00000470
_cell_angle_beta   60.00000048
_cell_angle_gamma   60.00000140
_symmetry_Int_Tables_number   1
_chemical_formula_structural   Sr21Ga8Bi7
_chemical_formula_sum   'Sr21 Ga8 Bi7'
_cell_volume   1279.63699960
_cell_formula_units_Z   1
loop_
 _symmetry_equiv_pos_site_id
 _symmetry_equiv_pos_as_xyz
  1  'x, y, z'
loop_
 _atom_site_type_symbol
 _atom_site_label
 _atom_site_symmetry_multiplicity
 _atom_site_fract_x
 _atom_site_fract_y
 _atom_site_fract_z
 _atom_site_occupancy
  Sr  Sr0  1  0.867239  0.867239  0.398282  1
  Sr  Sr1  1  0.601718  0.132761  0.132761  1
  Sr  Sr2  1  0.867239  0.398282  0.867239  1
  Sr  Sr3  1  0.132761  0.132761  0.132761  1
  Sr  Sr4  1  0.398282  0.867239  0.867239  1
  Sr  Sr5  1  0.867239  0.867239  0.867239  1
  Sr  Sr6  1  0.174445  0.825555  0.500000  1
  Sr  Sr7  1  0.825555  0.500000  0.500000  1
  Sr  Sr8  1  0.132761  0.132761  0.601718  1
  Sr  Sr9  1  0.825555  0.174445  0.500000  1
  Sr  Sr10  1  0.174445  0.500000  0.500000  1
  Sr  Sr11  1  0.132761  0.601718  0.132761  1
  Sr  Sr12  1  0.500000  0.500000  0.174445  1
  Sr  Sr13  1  0.500000  0.174445  0.825555  1
  Sr  Sr14  1  0.500000  0.825555  0.174445  1
  Sr  Sr15  1  0.500000  0.500000  0.825555  1
  Sr  Sr16  1  0.500000  0.174445  0.500000  1
  Sr  Sr17  1  0.174445  0.500000  0.825555  1
  Sr  Sr18  1  0.000000  0.000000  0.000000  1
  Sr  Sr19  1  0.500000  0.825555  0.500000  1
  Sr  Sr20  1  0.825555  0.500000  0.174445  1
  Ga  Ga21  1  0.693534  0.919401  0.693534  1
  Ga  Ga22  1  0.693534  0.693534  0.919401  1
  Ga  Ga23  1  0.693534  0.693534  0.693534  1
  Ga  Ga24  1  0.306466  0.080599  0.306466  1
  Ga  Ga25  1  0.919401  0.693534  0.693534  1
  Ga  Ga26  1  0.306466  0.306466  0.080599  1
  Ga  Ga27  1  0.080599  0.306466  0.306466  1
  Ga  Ga28  1  0.306466  0.306466  0.306466  1
  Bi  Bi29  1  0.789899  0.210101  0.789899  1
  Bi  Bi30  1  0.789899  0.210101  0.210101  1
  Bi  Bi31  1  0.210101  0.789899  0.210101  1
  Bi  Bi32  1  0.210101  0.789899  0.789899  1
  Bi  Bi33  1  0.789899  0.789899  0.210101  1
  Bi  Bi34  1  0.210101  0.210101  0.789899  1
  Bi  Bi35  1  0.500000  0.500000  0.500000  1
