# generated using pymatgen
data_NdHo7(Sc3Ge4)4
_symmetry_space_group_name_H-M   'P 1'
_cell_length_a   7.23558845
_cell_length_b   7.49657676
_cell_length_c   14.09010709
_cell_angle_alpha   90.02259916
_cell_angle_beta   89.87184289
_cell_angle_gamma   90.25524099
_symmetry_Int_Tables_number   1
_chemical_formula_structural   NdHo7(Sc3Ge4)4
_chemical_formula_sum   'Nd1 Ho7 Sc12 Ge16'
_cell_volume   764.26806826
_cell_formula_units_Z   1
loop_
 _symmetry_equiv_pos_site_id
 _symmetry_equiv_pos_as_xyz
  1  'x, y, z'
loop_
 _atom_site_type_symbol
 _atom_site_label
 _atom_site_symmetry_multiplicity
 _atom_site_fract_x
 _atom_site_fract_y
 _atom_site_fract_z
 _atom_site_occupancy
  Nd  Nd0  1  0.004507  0.174881  0.095314  1
  Ho  Ho1  1  0.995467  0.822337  0.902180  1
  Ho  Ho2  1  0.497519  0.675788  0.902177  1
  Ho  Ho3  1  0.996445  0.823342  0.596694  1
  Ho  Ho4  1  0.503671  0.325324  0.096566  1
  Ho  Ho5  1  0.003298  0.176892  0.403133  1
  Ho  Ho6  1  0.503671  0.323957  0.405114  1
  Ho  Ho7  1  0.496191  0.676361  0.596586  1
  Sc  Sc8  1  0.167297  0.500996  0.749661  1
  Sc  Sc9  1  0.832301  0.499318  0.250807  1
  Sc  Sc10  1  0.333162  0.999638  0.251005  1
  Sc  Sc11  1  0.666667  0.999492  0.749634  1
  Sc  Sc12  1  0.334719  0.169108  0.625599  1
  Sc  Sc13  1  0.664908  0.830742  0.375288  1
  Sc  Sc14  1  0.165381  0.668951  0.376074  1
  Sc  Sc15  1  0.664975  0.829282  0.126163  1
  Sc  Sc16  1  0.834654  0.330728  0.625052  1
  Sc  Sc17  1  0.334903  0.170011  0.873518  1
  Sc  Sc18  1  0.833230  0.332551  0.874769  1
  Sc  Sc19  1  0.166074  0.668419  0.124534  1
  Ge  Ge20  1  0.030799  0.125803  0.750314  1
  Ge  Ge21  1  0.968551  0.871006  0.250624  1
  Ge  Ge22  1  0.466901  0.624735  0.250503  1
  Ge  Ge23  1  0.532698  0.375196  0.749354  1
  Ge  Ge24  1  0.300615  0.860266  0.749729  1
  Ge  Ge25  1  0.696095  0.139545  0.251800  1
  Ge  Ge26  1  0.202405  0.363341  0.251870  1
  Ge  Ge27  1  0.800462  0.639612  0.749735  1
  Ge  Ge28  1  0.173933  0.460009  0.542004  1
  Ge  Ge29  1  0.826451  0.539807  0.458600  1
  Ge  Ge30  1  0.326030  0.961078  0.458850  1
  Ge  Ge31  1  0.824313  0.543028  0.040481  1
  Ge  Ge32  1  0.673286  0.039023  0.541738  1
  Ge  Ge33  1  0.175650  0.462703  0.956968  1
  Ge  Ge34  1  0.668123  0.037859  0.957442  1
  Ge  Ge35  1  0.334648  0.958871  0.040120  1
