# generated using pymatgen
data_Zr4Al18Os2PtRh3
_symmetry_space_group_name_H-M   'P 1'
_cell_length_a   7.46893745
_cell_length_b   7.46905651
_cell_length_c   9.27592804
_cell_angle_alpha   90.00578096
_cell_angle_beta   90.00395057
_cell_angle_gamma   119.38606358
_symmetry_Int_Tables_number   1
_chemical_formula_structural   Zr4Al18Os2PtRh3
_chemical_formula_sum   'Zr4 Al18 Os2 Pt1 Rh3'
_cell_volume   450.88541825
_cell_formula_units_Z   1
loop_
 _symmetry_equiv_pos_site_id
 _symmetry_equiv_pos_as_xyz
  1  'x, y, z'
loop_
 _atom_site_type_symbol
 _atom_site_label
 _atom_site_symmetry_multiplicity
 _atom_site_fract_x
 _atom_site_fract_y
 _atom_site_fract_z
 _atom_site_occupancy
  Zr  Zr0  1  0.990806  0.674512  0.250190  1
  Zr  Zr1  1  0.006812  0.324096  0.749951  1
  Zr  Zr2  1  0.676326  0.993296  0.250094  1
  Zr  Zr3  1  0.325965  0.009406  0.749854  1
  Al  Al4  1  0.001614  0.335205  0.077250  1
  Al  Al5  1  0.006446  0.668602  0.921788  1
  Al  Al6  1  0.003739  0.664839  0.576477  1
  Al  Al7  1  0.335137  0.996386  0.424020  1
  Al  Al8  1  0.997600  0.334701  0.423910  1
  Al  Al9  1  0.665316  0.002499  0.576620  1
  Al  Al10  1  0.664769  0.998478  0.922232  1
  Al  Al11  1  0.331417  0.993660  0.077696  1
  Al  Al12  1  0.330689  0.330614  0.554248  1
  Al  Al13  1  0.669281  0.669204  0.446022  1
  Al  Al14  1  0.668584  0.671853  0.057095  1
  Al  Al15  1  0.328007  0.331297  0.942617  1
  Al  Al16  1  0.128497  0.127504  0.250242  1
  Al  Al17  1  0.872662  0.871661  0.749770  1
  Al  Al18  1  0.342580  0.560075  0.250424  1
  Al  Al19  1  0.657754  0.444422  0.746755  1
  Al  Al20  1  0.555158  0.342104  0.253231  1
  Al  Al21  1  0.439494  0.657247  0.749555  1
  Os  Os22  1  0.999939  0.999715  0.000502  1
  Os  Os23  1  0.000187  0.999461  0.499510  1
  Pt  Pt24  1  0.672706  0.327228  0.000702  1
  Rh  Rh25  1  0.327592  0.672633  0.000745  1
  Rh  Rh26  1  0.327614  0.672529  0.499304  1
  Rh  Rh27  1  0.673310  0.326773  0.499197  1
