# generated using pymatgen
data_Tm19InIr12
_symmetry_space_group_name_H-M   'P 1'
_cell_length_a   10.73825300
_cell_length_b   10.73825300
_cell_length_c   6.26161200
_cell_angle_alpha   90.00000000
_cell_angle_beta   90.00000000
_cell_angle_gamma   90.00000000
_symmetry_Int_Tables_number   1
_chemical_formula_structural   Tm19InIr12
_chemical_formula_sum   'Tm19 In1 Ir12'
_cell_volume   722.02696494
_cell_formula_units_Z   1
loop_
 _symmetry_equiv_pos_site_id
 _symmetry_equiv_pos_as_xyz
  1  'x, y, z'
loop_
 _atom_site_type_symbol
 _atom_site_label
 _atom_site_symmetry_multiplicity
 _atom_site_fract_x
 _atom_site_fract_y
 _atom_site_fract_z
 _atom_site_occupancy
  Tm  Tm0  1  0.285147  0.084757  0.378175  1
  Tm  Tm1  1  0.291707  0.912266  0.878942  1
  Tm  Tm2  1  0.708293  0.087734  0.878942  1
  Tm  Tm3  1  0.714853  0.915243  0.378175  1
  Tm  Tm4  1  0.587864  0.792060  0.878203  1
  Tm  Tm5  1  0.587699  0.207998  0.375639  1
  Tm  Tm6  1  0.412301  0.792002  0.375639  1
  Tm  Tm7  1  0.412136  0.207940  0.878203  1
  Tm  Tm8  1  0.207998  0.412301  0.624361  1
  Tm  Tm9  1  0.207940  0.587864  0.121797  1
  Tm  Tm10  1  0.792060  0.412136  0.121797  1
  Tm  Tm11  1  0.792002  0.587699  0.624361  1
  Tm  Tm12  1  0.912266  0.708293  0.121058  1
  Tm  Tm13  1  0.915243  0.285147  0.621825  1
  Tm  Tm14  1  0.084757  0.714853  0.621825  1
  Tm  Tm15  1  0.087734  0.291707  0.121058  1
  Tm  Tm16  1  0.000000  0.000000  0.000000  1
  Tm  Tm17  1  0.500000  0.500000  0.000000  1
  Tm  Tm18  1  0.500000  0.500000  0.500000  1
  In  In19  1  0.000000  0.000000  0.500000  1
  Ir  Ir20  1  0.844805  0.156693  0.245133  1
  Ir  Ir21  1  0.843307  0.844805  0.754867  1
  Ir  Ir22  1  0.156693  0.155195  0.754867  1
  Ir  Ir23  1  0.155195  0.843307  0.245133  1
  Ir  Ir24  1  0.654571  0.346810  0.747935  1
  Ir  Ir25  1  0.653190  0.654571  0.252065  1
  Ir  Ir26  1  0.346810  0.345429  0.252065  1
  Ir  Ir27  1  0.345429  0.653190  0.747935  1
  Ir  Ir28  1  0.500000  0.000000  0.124448  1
  Ir  Ir29  1  0.500000  0.000000  0.620535  1
  Ir  Ir30  1  0.000000  0.500000  0.875552  1
  Ir  Ir31  1  0.000000  0.500000  0.379465  1
