# generated using pymatgen
data_Dy4Y3Ho13Pb16
_symmetry_space_group_name_H-M   'P 1'
_cell_length_a   8.20189338
_cell_length_b   8.27661512
_cell_length_c   15.62734503
_cell_angle_alpha   90.00487506
_cell_angle_beta   90.02048889
_cell_angle_gamma   89.98716892
_symmetry_Int_Tables_number   1
_chemical_formula_structural   Dy4Y3Ho13Pb16
_chemical_formula_sum   'Dy4 Y3 Ho13 Pb16'
_cell_volume   1060.84525973
_cell_formula_units_Z   1
loop_
 _symmetry_equiv_pos_site_id
 _symmetry_equiv_pos_as_xyz
  1  'x, y, z'
loop_
 _atom_site_type_symbol
 _atom_site_label
 _atom_site_symmetry_multiplicity
 _atom_site_fract_x
 _atom_site_fract_y
 _atom_site_fract_z
 _atom_site_occupancy
  Dy  Dy0  1  0.463726  0.676647  0.100085  1
  Dy  Dy1  1  0.963758  0.823318  0.399909  1
  Dy  Dy2  1  0.536225  0.323347  0.600064  1
  Dy  Dy3  1  0.036263  0.176699  0.899902  1
  Y  Y4  1  0.036298  0.176646  0.600082  1
  Y  Y5  1  0.463696  0.676630  0.399931  1
  Y  Y6  1  0.963659  0.823396  0.100087  1
  Ho  Ho7  1  0.376540  0.841207  0.879133  1
  Ho  Ho8  1  0.876491  0.658848  0.620914  1
  Ho  Ho9  1  0.623487  0.158854  0.379092  1
  Ho  Ho10  1  0.123437  0.341110  0.120879  1
  Ho  Ho11  1  0.623390  0.158889  0.120827  1
  Ho  Ho12  1  0.123472  0.341176  0.379028  1
  Ho  Ho13  1  0.376538  0.841195  0.620974  1
  Ho  Ho14  1  0.876464  0.658721  0.879071  1
  Ho  Ho15  1  0.536395  0.323405  0.899852  1
  Ho  Ho16  1  0.208429  0.504358  0.750128  1
  Ho  Ho17  1  0.708233  0.995667  0.750093  1
  Ho  Ho18  1  0.791714  0.495567  0.249960  1
  Ho  Ho19  1  0.291705  0.004440  0.249915  1
  Pb  Pb20  1  0.281509  0.033108  0.042748  1
  Pb  Pb21  1  0.781517  0.466897  0.457243  1
  Pb  Pb22  1  0.718457  0.966900  0.542788  1
  Pb  Pb23  1  0.218846  0.532801  0.957171  1
  Pb  Pb24  1  0.718448  0.967157  0.957163  1
  Pb  Pb25  1  0.218553  0.533086  0.542813  1
  Pb  Pb26  1  0.281441  0.033081  0.457216  1
  Pb  Pb27  1  0.781226  0.466759  0.042610  1
  Pb  Pb28  1  0.571419  0.626344  0.750003  1
  Pb  Pb29  1  0.071442  0.873479  0.750051  1
  Pb  Pb30  1  0.428558  0.373530  0.249960  1
  Pb  Pb31  1  0.928560  0.126499  0.250050  1
  Pb  Pb32  1  0.347245  0.153453  0.750155  1
  Pb  Pb33  1  0.846867  0.346793  0.750081  1
  Pb  Pb34  1  0.652996  0.846789  0.249980  1
  Pb  Pb35  1  0.152992  0.653201  0.250041  1
