# generated using pymatgen
data_Ho6Th2MgInCo2
_symmetry_space_group_name_H-M   'P 1'
_cell_length_a   9.60494830
_cell_length_b   9.60494718
_cell_length_c   9.60831900
_cell_angle_alpha   59.98838323
_cell_angle_beta   59.98838708
_cell_angle_gamma   60.06729611
_symmetry_Int_Tables_number   1
_chemical_formula_structural   Ho6Th2MgInCo2
_chemical_formula_sum   'Ho12 Th4 Mg2 In2 Co4'
_cell_volume   626.99846162
_cell_formula_units_Z   2
loop_
 _symmetry_equiv_pos_site_id
 _symmetry_equiv_pos_as_xyz
  1  'x, y, z'
loop_
 _atom_site_type_symbol
 _atom_site_label
 _atom_site_symmetry_multiplicity
 _atom_site_fract_x
 _atom_site_fract_y
 _atom_site_fract_z
 _atom_site_occupancy
  Ho  Ho0  1  0.812437  0.186324  0.188730  1
  Ho  Ho1  1  0.186324  0.812437  0.812509  1
  Ho  Ho2  1  0.186324  0.812437  0.188730  1
  Ho  Ho3  1  0.812437  0.186324  0.812509  1
  Ho  Ho4  1  0.185888  0.185888  0.814112  1
  Ho  Ho5  1  0.811236  0.811236  0.188764  1
  Ho  Ho6  1  0.937083  0.564599  0.564717  1
  Ho  Ho7  1  0.564599  0.937083  0.933601  1
  Ho  Ho8  1  0.564599  0.937083  0.564717  1
  Ho  Ho9  1  0.937083  0.564599  0.933601  1
  Ho  Ho10  1  0.564075  0.564075  0.935925  1
  Ho  Ho11  1  0.936046  0.936046  0.563954  1
  Th  Th12  1  0.344270  0.344270  0.343877  1
  Th  Th13  1  0.344270  0.344270  0.967586  1
  Th  Th14  1  0.345630  0.963825  0.345274  1
  Th  Th15  1  0.963825  0.345630  0.345274  1
  Mg  Mg16  1  0.579723  0.263685  0.578295  1
  Mg  Mg17  1  0.263685  0.579723  0.578295  1
  In  In18  1  0.582519  0.582519  0.584246  1
  In  In19  1  0.582519  0.582519  0.250714  1
  Co  Co20  1  0.143185  0.143185  0.145963  1
  Co  Co21  1  0.143185  0.143185  0.567667  1
  Co  Co22  1  0.143249  0.565808  0.145471  1
  Co  Co23  1  0.565808  0.143249  0.145471  1
