# generated using pymatgen
data_TbZr7(Si4Mo3)4
_symmetry_space_group_name_H-M   'P 1'
_cell_length_a   6.63966932
_cell_length_b   6.79135232
_cell_length_c   12.73286591
_cell_angle_alpha   90.10204549
_cell_angle_beta   90.01737355
_cell_angle_gamma   90.00828046
_symmetry_Int_Tables_number   1
_chemical_formula_structural   TbZr7(Si4Mo3)4
_chemical_formula_sum   'Tb1 Zr7 Si16 Mo12'
_cell_volume   574.15369411
_cell_formula_units_Z   1
loop_
 _symmetry_equiv_pos_site_id
 _symmetry_equiv_pos_as_xyz
  1  'x, y, z'
loop_
 _atom_site_type_symbol
 _atom_site_label
 _atom_site_symmetry_multiplicity
 _atom_site_fract_x
 _atom_site_fract_y
 _atom_site_fract_z
 _atom_site_occupancy
  Tb  Tb0  1  0.997642  0.167896  0.091442  1
  Zr  Zr1  1  0.498355  0.329492  0.093065  1
  Zr  Zr2  1  0.997226  0.172172  0.406874  1
  Zr  Zr3  1  0.503501  0.671872  0.593588  1
  Zr  Zr4  1  0.003859  0.825891  0.903460  1
  Zr  Zr5  1  0.504525  0.671213  0.905111  1
  Zr  Zr6  1  0.003366  0.828656  0.594036  1
  Zr  Zr7  1  0.496346  0.328902  0.408476  1
  Si  Si8  1  0.665957  0.041611  0.543177  1
  Si  Si9  1  0.167285  0.461497  0.954923  1
  Si  Si10  1  0.339793  0.955449  0.042067  1
  Si  Si11  1  0.834267  0.541758  0.457878  1
  Si  Si12  1  0.333340  0.958160  0.457959  1
  Si  Si13  1  0.833321  0.545334  0.042154  1
  Si  Si14  1  0.663809  0.040138  0.954745  1
  Si  Si15  1  0.165569  0.458421  0.543615  1
  Si  Si16  1  0.531968  0.376293  0.749195  1
  Si  Si17  1  0.032506  0.125319  0.750482  1
  Si  Si18  1  0.466837  0.624783  0.250661  1
  Si  Si19  1  0.966227  0.871725  0.252111  1
  Si  Si20  1  0.797825  0.636142  0.748962  1
  Si  Si21  1  0.299377  0.864403  0.749251  1
  Si  Si22  1  0.202740  0.364236  0.251649  1
  Si  Si23  1  0.697553  0.137719  0.251819  1
  Mo  Mo24  1  0.831273  0.334993  0.623624  1
  Mo  Mo25  1  0.333452  0.165332  0.875433  1
  Mo  Mo26  1  0.168633  0.664468  0.124211  1
  Mo  Mo27  1  0.666531  0.834464  0.377401  1
  Mo  Mo28  1  0.169290  0.663483  0.377335  1
  Mo  Mo29  1  0.665952  0.833914  0.124942  1
  Mo  Mo30  1  0.829765  0.337033  0.874739  1
  Mo  Mo31  1  0.331242  0.165124  0.623649  1
  Mo  Mo32  1  0.666500  0.988716  0.748704  1
  Mo  Mo33  1  0.165717  0.512761  0.749825  1
  Mo  Mo34  1  0.334521  0.008583  0.251838  1
  Mo  Mo35  1  0.833935  0.492044  0.251599  1
