# generated using pymatgen
data_Ho15Er(In3Fe)2
_symmetry_space_group_name_H-M   'P 1'
_cell_length_a   10.29543500
_cell_length_b   10.29739212
_cell_length_c   7.00747125
_cell_angle_alpha   90.02732721
_cell_angle_beta   89.99970809
_cell_angle_gamma   119.99404390
_symmetry_Int_Tables_number   1
_chemical_formula_structural   Ho15Er(In3Fe)2
_chemical_formula_sum   'Ho15 Er1 In6 Fe2'
_cell_volume   643.41310959
_cell_formula_units_Z   1
loop_
 _symmetry_equiv_pos_site_id
 _symmetry_equiv_pos_as_xyz
  1  'x, y, z'
loop_
 _atom_site_type_symbol
 _atom_site_label
 _atom_site_symmetry_multiplicity
 _atom_site_fract_x
 _atom_site_fract_y
 _atom_site_fract_z
 _atom_site_occupancy
  Ho  Ho0  1  0.927526  0.463933  0.506099  1
  Ho  Ho1  1  0.536417  0.463934  0.506084  1
  Ho  Ho2  1  0.464184  0.928383  0.006159  1
  Ho  Ho3  1  0.072271  0.535835  0.005532  1
  Ho  Ho4  1  0.463559  0.535834  0.005525  1
  Ho  Ho5  1  0.178668  0.357336  0.709363  1
  Ho  Ho6  1  0.642647  0.821535  0.710250  1
  Ho  Ho7  1  0.178892  0.821526  0.710262  1
  Ho  Ho8  1  0.821225  0.642442  0.210254  1
  Ho  Ho9  1  0.357689  0.178629  0.211431  1
  Ho  Ho10  1  0.820941  0.178636  0.211446  1
  Ho  Ho11  1  0.666466  0.332935  0.894455  1
  Ho  Ho12  1  0.333552  0.667095  0.394077  1
  Ho  Ho13  1  0.999929  0.999851  0.492865  1
  Ho  Ho14  1  0.000237  0.000473  0.992964  1
  Er  Er15  1  0.535934  0.071850  0.506850  1
  In  In16  1  0.837058  0.674113  0.754499  1
  In  In17  1  0.325939  0.163048  0.754602  1
  In  In18  1  0.837122  0.163058  0.754607  1
  In  In19  1  0.162876  0.325769  0.253442  1
  In  In20  1  0.674343  0.837120  0.253455  1
  In  In21  1  0.162751  0.837114  0.253464  1
  Fe  Fe22  1  0.666195  0.332382  0.280868  1
  Fe  Fe23  1  0.333577  0.667171  0.779490  1
