# generated using pymatgen
data_Pr5Nd3Sc12Si15Ag
_symmetry_space_group_name_H-M   'P 1'
_cell_length_a   7.28760274
_cell_length_b   7.52437879
_cell_length_c   14.33208730
_cell_angle_alpha   90.01564370
_cell_angle_beta   89.66806880
_cell_angle_gamma   90.24458431
_symmetry_Int_Tables_number   1
_chemical_formula_structural   Pr5Nd3Sc12Si15Ag
_chemical_formula_sum   'Pr5 Nd3 Sc12 Si15 Ag1'
_cell_volume   785.87509775
_cell_formula_units_Z   1
loop_
 _symmetry_equiv_pos_site_id
 _symmetry_equiv_pos_as_xyz
  1  'x, y, z'
loop_
 _atom_site_type_symbol
 _atom_site_label
 _atom_site_symmetry_multiplicity
 _atom_site_fract_x
 _atom_site_fract_y
 _atom_site_fract_z
 _atom_site_occupancy
  Pr  Pr0  1  0.492891  0.674392  0.600984  1
  Pr  Pr1  1  0.989620  0.833739  0.597339  1
  Pr  Pr2  1  0.987032  0.828392  0.902746  1
  Pr  Pr3  1  0.512546  0.327371  0.097184  1
  Pr  Pr4  1  0.012929  0.172683  0.098295  1
  Nd  Nd5  1  0.009126  0.171142  0.398365  1
  Nd  Nd6  1  0.513722  0.325507  0.399075  1
  Nd  Nd7  1  0.486895  0.673524  0.902481  1
  Sc  Sc8  1  0.342557  0.171706  0.627973  1
  Sc  Sc9  1  0.666049  0.824238  0.373712  1
  Sc  Sc10  1  0.663907  0.000359  0.752090  1
  Sc  Sc11  1  0.166534  0.676544  0.371324  1
  Sc  Sc12  1  0.829657  0.323030  0.876151  1
  Sc  Sc13  1  0.823231  0.325240  0.625112  1
  Sc  Sc14  1  0.839134  0.502713  0.250729  1
  Sc  Sc15  1  0.339860  0.996180  0.248536  1
  Sc  Sc16  1  0.328271  0.174215  0.876033  1
  Sc  Sc17  1  0.169593  0.676370  0.125005  1
  Sc  Sc18  1  0.671163  0.824603  0.124261  1
  Sc  Sc19  1  0.161459  0.496413  0.754126  1
  Si  Si20  1  0.287336  0.882413  0.751123  1
  Si  Si21  1  0.465368  0.624482  0.248438  1
  Si  Si22  1  0.036198  0.129385  0.749850  1
  Si  Si23  1  0.535883  0.376905  0.752622  1
  Si  Si24  1  0.964397  0.875540  0.249307  1
  Si  Si25  1  0.710355  0.118107  0.248979  1
  Si  Si26  1  0.849303  0.537266  0.039613  1
  Si  Si27  1  0.348500  0.962030  0.039993  1
  Si  Si28  1  0.150583  0.463336  0.961006  1
  Si  Si29  1  0.652670  0.038061  0.538156  1
  Si  Si30  1  0.344451  0.960449  0.460606  1
  Si  Si31  1  0.839446  0.541630  0.457457  1
  Si  Si32  1  0.790764  0.617320  0.751786  1
  Si  Si33  1  0.212481  0.381886  0.249693  1
  Si  Si34  1  0.650552  0.036272  0.959790  1
  Ag  Ag35  1  0.155536  0.456560  0.540061  1
