# generated using pymatgen
data_Sr8Cd3In4Hg
_symmetry_space_group_name_H-M   'P 1'
_cell_length_a   8.23247207
_cell_length_b   8.21697400
_cell_length_c   7.95077000
_cell_angle_alpha   89.99979472
_cell_angle_beta   89.99366552
_cell_angle_gamma   89.99967962
_symmetry_Int_Tables_number   1
_chemical_formula_structural   Sr8Cd3In4Hg
_chemical_formula_sum   'Sr8 Cd3 In4 Hg1'
_cell_volume   537.83785581
_cell_formula_units_Z   1
loop_
 _symmetry_equiv_pos_site_id
 _symmetry_equiv_pos_as_xyz
  1  'x, y, z'
loop_
 _atom_site_type_symbol
 _atom_site_label
 _atom_site_symmetry_multiplicity
 _atom_site_fract_x
 _atom_site_fract_y
 _atom_site_fract_z
 _atom_site_occupancy
  Sr  Sr0  1  0.500704  0.499255  0.246037  1
  Sr  Sr1  1  0.500702  0.000731  0.246039  1
  Sr  Sr2  1  0.999236  0.499130  0.251865  1
  Sr  Sr3  1  0.999235  0.000840  0.251867  1
  Sr  Sr4  1  0.999183  0.000793  0.748131  1
  Sr  Sr5  1  0.999185  0.499236  0.748125  1
  Sr  Sr6  1  0.500775  0.499334  0.753953  1
  Sr  Sr7  1  0.500772  0.000681  0.753954  1
  Cd  Cd8  1  0.243499  0.750000  0.999999  1
  Cd  Cd9  1  0.743446  0.250000  0.499983  1
  Cd  Cd10  1  0.256500  0.750000  0.500010  1
  In  In11  1  0.754796  0.749999  0.000344  1
  In  In12  1  0.745155  0.749999  0.499703  1
  In  In13  1  0.254841  0.250001  0.500291  1
  In  In14  1  0.245498  0.250001  0.999699  1
  Hg  Hg15  1  0.756474  0.250001  0.999995  1
