# generated using pymatgen
data_Er4IrRuRh2
_symmetry_space_group_name_H-M   'P 1'
_cell_length_a   6.78643800
_cell_length_b   6.77954800
_cell_length_c   6.76152200
_cell_angle_alpha   90.00000000
_cell_angle_beta   90.00108911
_cell_angle_gamma   90.00000000
_symmetry_Int_Tables_number   1
_chemical_formula_structural   Er4IrRuRh2
_chemical_formula_sum   'Er8 Ir2 Ru2 Rh4'
_cell_volume   311.09074514
_cell_formula_units_Z   2
loop_
 _symmetry_equiv_pos_site_id
 _symmetry_equiv_pos_as_xyz
  1  'x, y, z'
loop_
 _atom_site_type_symbol
 _atom_site_label
 _atom_site_symmetry_multiplicity
 _atom_site_fract_x
 _atom_site_fract_y
 _atom_site_fract_z
 _atom_site_occupancy
  Er  Er0  1  0.500275  0.999965  0.250253  1
  Er  Er1  1  0.500277  0.500033  0.250257  1
  Er  Er2  1  0.000569  0.500034  0.250199  1
  Er  Er3  1  0.000570  0.999967  0.250190  1
  Er  Er4  1  0.999717  0.999960  0.749732  1
  Er  Er5  1  0.999713  0.500042  0.749727  1
  Er  Er6  1  0.499432  0.500034  0.749821  1
  Er  Er7  1  0.499434  0.999968  0.749821  1
  Ir  Ir8  1  0.750018  0.249999  0.000058  1
  Ir  Ir9  1  0.250020  0.750003  0.499943  1
  Ru  Ru10  1  0.749986  0.249999  0.500099  1
  Ru  Ru11  1  0.249987  0.749999  0.999897  1
  Rh  Rh12  1  0.250021  0.250000  0.999998  1
  Rh  Rh13  1  0.749989  0.750001  0.000002  1
  Rh  Rh14  1  0.750013  0.750002  0.499985  1
  Rh  Rh15  1  0.249980  0.250003  0.500019  1
