# generated using pymatgen
data_TbY3Ga18Rh5Au
_symmetry_space_group_name_H-M   'P 1'
_cell_length_a   7.62641443
_cell_length_b   7.62642638
_cell_length_c   9.53802100
_cell_angle_alpha   89.98122701
_cell_angle_beta   89.98054942
_cell_angle_gamma   119.79510750
_symmetry_Int_Tables_number   1
_chemical_formula_structural   TbY3Ga18Rh5Au
_chemical_formula_sum   'Tb1 Y3 Ga18 Rh5 Au1'
_cell_volume   481.41903191
_cell_formula_units_Z   1
loop_
 _symmetry_equiv_pos_site_id
 _symmetry_equiv_pos_as_xyz
  1  'x, y, z'
loop_
 _atom_site_type_symbol
 _atom_site_label
 _atom_site_symmetry_multiplicity
 _atom_site_fract_x
 _atom_site_fract_y
 _atom_site_fract_z
 _atom_site_occupancy
  Tb  Tb0  1  0.993017  0.664271  0.250462  1
  Y  Y1  1  0.998795  0.329830  0.750009  1
  Y  Y2  1  0.670173  0.001208  0.249991  1
  Y  Y3  1  0.335730  0.006989  0.749534  1
  Ga  Ga4  1  0.329505  0.330709  0.562743  1
  Ga  Ga5  1  0.669289  0.670495  0.437259  1
  Ga  Ga6  1  0.667345  0.675176  0.070335  1
  Ga  Ga7  1  0.324826  0.332654  0.929663  1
  Ga  Ga8  1  0.340716  0.551016  0.251635  1
  Ga  Ga9  1  0.661306  0.462407  0.741931  1
  Ga  Ga10  1  0.537588  0.338698  0.258069  1
  Ga  Ga11  1  0.448976  0.659274  0.748365  1
  Ga  Ga12  1  0.011783  0.334432  0.083274  1
  Ga  Ga13  1  0.010561  0.675167  0.917458  1
  Ga  Ga14  1  0.003121  0.666634  0.578055  1
  Ga  Ga15  1  0.333369  0.996879  0.421946  1
  Ga  Ga16  1  0.999905  0.334019  0.421196  1
  Ga  Ga17  1  0.665976  0.000095  0.578805  1
  Ga  Ga18  1  0.665564  0.988217  0.916728  1
  Ga  Ga19  1  0.324837  0.989441  0.082541  1
  Ga  Ga20  1  0.124542  0.120955  0.251233  1
  Ga  Ga21  1  0.879047  0.875464  0.748767  1
  Rh  Rh22  1  0.000356  0.999645  0.999997  1
  Rh  Rh23  1  0.999965  0.000035  0.500003  1
  Rh  Rh24  1  0.330024  0.669971  0.999999  1
  Rh  Rh25  1  0.328795  0.671203  0.500001  1
  Rh  Rh26  1  0.672134  0.327871  0.500001  1
  Au  Au27  1  0.672753  0.327249  0.000001  1
