# generated using pymatgen
data_Ca4InSiPt4
_symmetry_space_group_name_H-M   'P 1'
_cell_length_a   5.70665559
_cell_length_b   5.70665229
_cell_length_c   7.99104074
_cell_angle_alpha   79.09799478
_cell_angle_beta   79.09806422
_cell_angle_gamma   60.41439469
_symmetry_Int_Tables_number   1
_chemical_formula_structural   Ca4InSiPt4
_chemical_formula_sum   'Ca4 In1 Si1 Pt4'
_cell_volume   220.81989050
_cell_formula_units_Z   1
loop_
 _symmetry_equiv_pos_site_id
 _symmetry_equiv_pos_as_xyz
  1  'x, y, z'
loop_
 _atom_site_type_symbol
 _atom_site_label
 _atom_site_symmetry_multiplicity
 _atom_site_fract_x
 _atom_site_fract_y
 _atom_site_fract_z
 _atom_site_occupancy
  Ca  Ca0  1  0.511958  0.784622  0.348636  1
  Ca  Ca1  1  0.215379  0.488042  0.151365  1
  Ca  Ca2  1  0.488009  0.209753  0.648302  1
  Ca  Ca3  1  0.790246  0.511992  0.851697  1
  In  In4  1  0.145292  0.854708  0.750000  1
  Si  Si5  1  0.886265  0.113736  0.250000  1
  Pt  Pt6  1  0.259486  0.010181  0.016628  1
  Pt  Pt7  1  0.989818  0.740515  0.483372  1
  Pt  Pt8  1  0.731323  0.017775  0.020056  1
  Pt  Pt9  1  0.982225  0.268677  0.479944  1
