# generated using pymatgen
data_YErMn4(CoP)6
_symmetry_space_group_name_H-M   'P 1'
_cell_length_a   3.60521600
_cell_length_b   10.32286800
_cell_length_c   12.02800300
_cell_angle_alpha   90.00000000
_cell_angle_beta   90.00000000
_cell_angle_gamma   90.00000000
_symmetry_Int_Tables_number   1
_chemical_formula_structural   YErMn4(CoP)6
_chemical_formula_sum   'Y2 Er2 Mn8 Co12 P12'
_cell_volume   447.63619093
_cell_formula_units_Z   2
loop_
 _symmetry_equiv_pos_site_id
 _symmetry_equiv_pos_as_xyz
  1  'x, y, z'
loop_
 _atom_site_type_symbol
 _atom_site_label
 _atom_site_symmetry_multiplicity
 _atom_site_fract_x
 _atom_site_fract_y
 _atom_site_fract_z
 _atom_site_occupancy
  Y  Y0  1  0.250000  0.582789  0.709171  1
  Y  Y1  1  0.250000  0.917211  0.209171  1
  Er  Er2  1  0.750000  0.417238  0.290841  1
  Er  Er3  1  0.750000  0.082762  0.790841  1
  Mn  Mn4  1  0.250000  0.713046  0.990794  1
  Mn  Mn5  1  0.250000  0.786954  0.490794  1
  Mn  Mn6  1  0.750000  0.286894  0.008971  1
  Mn  Mn7  1  0.750000  0.213106  0.508971  1
  Mn  Mn8  1  0.250000  0.406587  0.490342  1
  Mn  Mn9  1  0.250000  0.093413  0.990342  1
  Mn  Mn10  1  0.750000  0.592746  0.508487  1
  Mn  Mn11  1  0.750000  0.907254  0.008487  1
  Co  Co12  1  0.250000  0.221967  0.177077  1
  Co  Co13  1  0.250000  0.278033  0.677077  1
  Co  Co14  1  0.750000  0.778672  0.823047  1
  Co  Co15  1  0.750000  0.721328  0.323047  1
  Co  Co16  1  0.250000  0.883203  0.696157  1
  Co  Co17  1  0.250000  0.616797  0.196157  1
  Co  Co18  1  0.750000  0.118253  0.304265  1
  Co  Co19  1  0.750000  0.381747  0.804265  1
  Co  Co20  1  0.250000  0.465155  0.934176  1
  Co  Co21  1  0.250000  0.034845  0.434176  1
  Co  Co22  1  0.750000  0.533819  0.066734  1
  Co  Co23  1  0.750000  0.966181  0.566734  1
  P  P24  1  0.250000  0.418892  0.112083  1
  P  P25  1  0.250000  0.081108  0.612083  1
  P  P26  1  0.750000  0.580825  0.889066  1
  P  P27  1  0.750000  0.919175  0.389066  1
  P  P28  1  0.250000  0.268434  0.867061  1
  P  P29  1  0.250000  0.231566  0.367061  1
  P  P30  1  0.750000  0.730667  0.132350  1
  P  P31  1  0.750000  0.769333  0.632350  1
  P  P32  1  0.250000  0.599121  0.383116  1
  P  P33  1  0.250000  0.900879  0.883116  1
  P  P34  1  0.750000  0.399759  0.616261  1
  P  P35  1  0.750000  0.100241  0.116261  1
