# generated using pymatgen
data_BaScSi2Ge2N7
_symmetry_space_group_name_H-M   'P 1'
_cell_length_a   6.12613297
_cell_length_b   6.10833434
_cell_length_c   9.91231521
_cell_angle_alpha   90.37909002
_cell_angle_beta   89.81100409
_cell_angle_gamma   119.90393825
_symmetry_Int_Tables_number   1
_chemical_formula_structural   BaScSi2Ge2N7
_chemical_formula_sum   'Ba2 Sc2 Si4 Ge4 N14'
_cell_volume   321.53260895
_cell_formula_units_Z   2
loop_
 _symmetry_equiv_pos_site_id
 _symmetry_equiv_pos_as_xyz
  1  'x, y, z'
loop_
 _atom_site_type_symbol
 _atom_site_label
 _atom_site_symmetry_multiplicity
 _atom_site_fract_x
 _atom_site_fract_y
 _atom_site_fract_z
 _atom_site_occupancy
  Ba  Ba0  1  0.666891  0.334116  0.576104  1
  Ba  Ba1  1  0.333109  0.667226  0.076104  1
  Sc  Sc2  1  0.667373  0.333861  0.950974  1
  Sc  Sc3  1  0.332627  0.666488  0.450974  1
  Si  Si4  1  0.171985  0.827944  0.761224  1
  Si  Si5  1  0.828015  0.655960  0.261224  1
  Si  Si6  1  0.000517  0.995465  0.025538  1
  Si  Si7  1  0.999483  0.994948  0.525538  1
  Ge  Ge8  1  0.172016  0.345168  0.760904  1
  Ge  Ge9  1  0.827984  0.173152  0.260904  1
  Ge  Ge10  1  0.346376  0.174200  0.261175  1
  Ge  Ge11  1  0.653624  0.827824  0.761175  1
  N  N12  1  0.004915  0.991629  0.838023  1
  N  N13  1  0.995085  0.986714  0.338023  1
  N  N14  1  0.845542  0.689730  0.087091  1
  N  N15  1  0.154458  0.844188  0.587091  1
  N  N16  1  0.687056  0.843854  0.575678  1
  N  N17  1  0.312944  0.156800  0.075678  1
  N  N18  1  0.845722  0.155772  0.074129  1
  N  N19  1  0.154278  0.310050  0.574129  1
  N  N20  1  0.498668  0.501039  0.823187  1
  N  N21  1  0.988949  0.506721  0.319334  1
  N  N22  1  0.501332  0.002370  0.323187  1
  N  N23  1  0.481997  0.989504  0.819459  1
  N  N24  1  0.518003  0.507505  0.319459  1
  N  N25  1  0.011051  0.517773  0.819334  1
