# generated using pymatgen
data_Pr6CoPtBr6
_symmetry_space_group_name_H-M   'P 1'
_cell_length_a   10.45315655
_cell_length_b   10.45315728
_cell_length_c   10.59717633
_cell_angle_alpha   109.50560803
_cell_angle_beta   109.50561076
_cell_angle_gamma   108.84451332
_symmetry_Int_Tables_number   1
_chemical_formula_structural   Pr6CoPtBr6
_chemical_formula_sum   'Pr12 Co2 Pt2 Br12'
_cell_volume   897.43599728
_cell_formula_units_Z   2
loop_
 _symmetry_equiv_pos_site_id
 _symmetry_equiv_pos_as_xyz
  1  'x, y, z'
loop_
 _atom_site_type_symbol
 _atom_site_label
 _atom_site_symmetry_multiplicity
 _atom_site_fract_x
 _atom_site_fract_y
 _atom_site_fract_z
 _atom_site_occupancy
  Pr  Pr0  1  0.468354  0.477655  0.239943  1
  Pr  Pr1  1  0.737713  0.228412  0.260057  1
  Pr  Pr2  1  0.737039  0.010562  0.475993  1
  Pr  Pr3  1  0.238954  0.465431  0.475993  1
  Pr  Pr4  1  0.271588  0.762287  0.239943  1
  Pr  Pr5  1  0.034569  0.261046  0.024007  1
  Pr  Pr6  1  0.022345  0.031646  0.260057  1
  Pr  Pr7  1  0.489438  0.762961  0.024007  1
  Pr  Pr8  1  0.481281  0.231281  0.462562  1
  Pr  Pr9  1  0.013240  0.486760  0.750000  1
  Pr  Pr10  1  0.268719  0.018719  0.037438  1
  Pr  Pr11  1  0.236760  0.263240  0.750000  1
  Co  Co12  1  0.250951  0.249049  0.250000  1
  Co  Co13  1  0.499049  0.000951  0.250000  1
  Pt  Pt14  1  0.999373  0.249373  0.498746  1
  Pt  Pt15  1  0.250627  0.500627  0.001254  1
  Br  Br16  1  0.249911  0.754525  0.746564  1
  Br  Br17  1  0.507962  0.503347  0.753436  1
  Br  Br18  1  0.988187  0.744291  0.994289  1
  Br  Br19  1  0.745475  0.250089  0.753436  1
  Br  Br20  1  0.996653  0.992038  0.746564  1
  Br  Br21  1  0.250002  0.993899  0.505711  1
  Br  Br22  1  0.755709  0.511813  0.505711  1
  Br  Br23  1  0.506101  0.249998  0.994289  1
  Br  Br24  1  0.754415  0.745585  0.250000  1
  Br  Br25  1  0.744645  0.994645  0.989291  1
  Br  Br26  1  0.995585  0.504415  0.250000  1
  Br  Br27  1  0.505355  0.755355  0.510709  1
