# generated using pymatgen
data_Rb4Ho3Tm(Bi2Se5)4
_symmetry_space_group_name_H-M   'P 1'
_cell_length_a   4.16270300
_cell_length_b   12.38475402
_cell_length_c   22.35366903
_cell_angle_alpha   90.00572466
_cell_angle_beta   90.00000000
_cell_angle_gamma   90.00000000
_symmetry_Int_Tables_number   1
_chemical_formula_structural   Rb4Ho3Tm(Bi2Se5)4
_chemical_formula_sum   'Rb4 Ho3 Tm1 Bi8 Se20'
_cell_volume   1152.42222522
_cell_formula_units_Z   1
loop_
 _symmetry_equiv_pos_site_id
 _symmetry_equiv_pos_as_xyz
  1  'x, y, z'
loop_
 _atom_site_type_symbol
 _atom_site_label
 _atom_site_symmetry_multiplicity
 _atom_site_fract_x
 _atom_site_fract_y
 _atom_site_fract_z
 _atom_site_occupancy
  Rb  Rb0  1  0.250000  0.489248  0.210282  1
  Rb  Rb1  1  0.750000  0.510727  0.789706  1
  Rb  Rb2  1  0.750000  0.989303  0.289754  1
  Rb  Rb3  1  0.250000  0.010778  0.710198  1
  Ho  Ho4  1  0.250000  0.364248  0.023897  1
  Ho  Ho5  1  0.750000  0.635755  0.976096  1
  Ho  Ho6  1  0.750000  0.864546  0.476215  1
  Tm  Tm7  1  0.250000  0.135613  0.523854  1
  Bi  Bi8  1  0.250000  0.801893  0.126287  1
  Bi  Bi9  1  0.750000  0.198099  0.873702  1
  Bi  Bi10  1  0.750000  0.301755  0.373796  1
  Bi  Bi11  1  0.250000  0.698087  0.626311  1
  Bi  Bi12  1  0.250000  0.596488  0.423624  1
  Bi  Bi13  1  0.750000  0.403314  0.576206  1
  Bi  Bi14  1  0.750000  0.096438  0.076340  1
  Bi  Bi15  1  0.250000  0.903561  0.923650  1
  Se  Se16  1  0.250000  0.813200  0.390791  1
  Se  Se17  1  0.750000  0.186102  0.608181  1
  Se  Se18  1  0.750000  0.313235  0.109208  1
  Se  Se19  1  0.250000  0.686765  0.890785  1
  Se  Se20  1  0.250000  0.246754  0.295268  1
  Se  Se21  1  0.750000  0.753183  0.704763  1
  Se  Se22  1  0.750000  0.746817  0.204757  1
  Se  Se23  1  0.250000  0.253185  0.795238  1
  Se  Se24  1  0.250000  0.352997  0.481312  1
  Se  Se25  1  0.750000  0.645588  0.519006  1
  Se  Se26  1  0.750000  0.854485  0.019024  1
  Se  Se27  1  0.250000  0.145514  0.980971  1
  Se  Se28  1  0.250000  0.026779  0.159141  1
  Se  Se29  1  0.750000  0.973218  0.840855  1
  Se  Se30  1  0.750000  0.526799  0.340878  1
  Se  Se31  1  0.250000  0.473341  0.659139  1
  Se  Se32  1  0.250000  0.583175  0.059531  1
  Se  Se33  1  0.750000  0.416818  0.940465  1
  Se  Se34  1  0.750000  0.083992  0.441404  1
  Se  Se35  1  0.250000  0.918198  0.559366  1
