# generated using pymatgen
data_Ce3U5B24Mo3Ru
_symmetry_space_group_name_H-M   'P 1'
_cell_length_a   3.71460700
_cell_length_b   9.31520072
_cell_length_c   11.41603745
_cell_angle_alpha   90.05990371
_cell_angle_beta   90.00000000
_cell_angle_gamma   90.00000000
_symmetry_Int_Tables_number   1
_chemical_formula_structural   Ce3U5B24Mo3Ru
_chemical_formula_sum   'Ce3 U5 B24 Mo3 Ru1'
_cell_volume   395.02104881
_cell_formula_units_Z   1
loop_
 _symmetry_equiv_pos_site_id
 _symmetry_equiv_pos_as_xyz
  1  'x, y, z'
loop_
 _atom_site_type_symbol
 _atom_site_label
 _atom_site_symmetry_multiplicity
 _atom_site_fract_x
 _atom_site_fract_y
 _atom_site_fract_z
 _atom_site_occupancy
  Ce  Ce0  1  0.000000  0.334570  0.408825  1
  Ce  Ce1  1  0.000000  0.664734  0.593710  1
  Ce  Ce2  1  0.000000  0.836460  0.090478  1
  U  U3  1  0.000000  0.165037  0.907204  1
  U  U4  1  0.000000  0.958471  0.395116  1
  U  U5  1  0.000000  0.042731  0.604983  1
  U  U6  1  0.000000  0.454065  0.103566  1
  U  U7  1  0.000000  0.543222  0.895649  1
  B  B8  1  0.500000  0.552908  0.430167  1
  B  B9  1  0.500000  0.447297  0.569419  1
  B  B10  1  0.500000  0.053531  0.066362  1
  B  B11  1  0.500000  0.951229  0.931063  1
  B  B12  1  0.500000  0.744572  0.421635  1
  B  B13  1  0.500000  0.254597  0.577719  1
  B  B14  1  0.500000  0.243992  0.075487  1
  B  B15  1  0.500000  0.755269  0.922718  1
  B  B16  1  0.500000  0.802684  0.273678  1
  B  B17  1  0.500000  0.195570  0.727843  1
  B  B18  1  0.500000  0.303943  0.225611  1
  B  B19  1  0.500000  0.697092  0.774546  1
  B  B20  1  0.500000  0.643363  0.188528  1
  B  B21  1  0.500000  0.354168  0.813098  1
  B  B22  1  0.500000  0.143515  0.312154  1
  B  B23  1  0.500000  0.856732  0.687907  1
  B  B24  1  0.500000  0.988096  0.219367  1
  B  B25  1  0.500000  0.014111  0.781599  1
  B  B26  1  0.500000  0.489635  0.281048  1
  B  B27  1  0.500000  0.511269  0.720689  1
  B  B28  1  0.500000  0.638272  0.038884  1
  B  B29  1  0.500000  0.357769  0.960708  1
  B  B30  1  0.500000  0.137570  0.461997  1
  B  B31  1  0.500000  0.861327  0.537450  1
  Mo  Mo32  1  0.000000  0.351592  0.683155  1
  Mo  Mo33  1  0.000000  0.147089  0.179395  1
  Mo  Mo34  1  0.000000  0.856780  0.819545  1
  Ru  Ru35  1  0.000000  0.646744  0.318695  1
