# generated using pymatgen
data_Pr8Y3Ho5(ScSi4)4
_symmetry_space_group_name_H-M   'P 1'
_cell_length_a   7.38825260
_cell_length_b   7.76090121
_cell_length_c   14.73624384
_cell_angle_alpha   89.99354233
_cell_angle_beta   90.03824227
_cell_angle_gamma   90.02612808
_symmetry_Int_Tables_number   1
_chemical_formula_structural   Pr8Y3Ho5(ScSi4)4
_chemical_formula_sum   'Pr8 Y3 Ho5 Sc4 Si16'
_cell_volume   844.96855184
_cell_formula_units_Z   1
loop_
 _symmetry_equiv_pos_site_id
 _symmetry_equiv_pos_as_xyz
  1  'x, y, z'
loop_
 _atom_site_type_symbol
 _atom_site_label
 _atom_site_symmetry_multiplicity
 _atom_site_fract_x
 _atom_site_fract_y
 _atom_site_fract_z
 _atom_site_occupancy
  Pr  Pr0  1  0.017717  0.178915  0.401144  1
  Pr  Pr1  1  0.517903  0.321034  0.401042  1
  Pr  Pr2  1  0.482489  0.678773  0.901259  1
  Pr  Pr3  1  0.482305  0.678870  0.599063  1
  Pr  Pr4  1  0.982218  0.821095  0.599119  1
  Pr  Pr5  1  0.982386  0.821175  0.901236  1
  Pr  Pr6  1  0.517536  0.321176  0.098554  1
  Pr  Pr7  1  0.017530  0.178800  0.098555  1
  Y  Y8  1  0.323368  0.177880  0.624910  1
  Y  Y9  1  0.676671  0.822124  0.375240  1
  Y  Y10  1  0.176584  0.677703  0.375221  1
  Ho  Ho11  1  0.823621  0.322298  0.875259  1
  Ho  Ho12  1  0.823443  0.322251  0.625191  1
  Ho  Ho13  1  0.323595  0.177781  0.875204  1
  Ho  Ho14  1  0.176404  0.677724  0.124608  1
  Ho  Ho15  1  0.676432  0.822243  0.124598  1
  Sc  Sc16  1  0.656330  0.989770  0.750249  1
  Sc  Sc17  1  0.843747  0.489385  0.249581  1
  Sc  Sc18  1  0.343772  0.010647  0.249594  1
  Sc  Sc19  1  0.156007  0.510357  0.750241  1
  Si  Si20  1  0.281044  0.874207  0.750384  1
  Si  Si21  1  0.475460  0.607052  0.249311  1
  Si  Si22  1  0.023896  0.107814  0.750411  1
  Si  Si23  1  0.524936  0.392613  0.750421  1
  Si  Si24  1  0.147259  0.467999  0.539739  1
  Si  Si25  1  0.975452  0.892828  0.249303  1
  Si  Si26  1  0.719226  0.125661  0.249592  1
  Si  Si27  1  0.851785  0.532428  0.039324  1
  Si  Si28  1  0.351785  0.967548  0.039263  1
  Si  Si29  1  0.148254  0.467599  0.960554  1
  Si  Si30  1  0.648604  0.032534  0.539601  1
  Si  Si31  1  0.352086  0.968279  0.460771  1
  Si  Si32  1  0.851681  0.531392  0.461150  1
  Si  Si33  1  0.781152  0.625226  0.750129  1
  Si  Si34  1  0.219133  0.374402  0.249608  1
  Si  Si35  1  0.648188  0.032416  0.960571  1
