# generated using pymatgen
data_TbY2Ga8Ag3
_symmetry_space_group_name_H-M   'P 1'
_cell_length_a   4.33404727
_cell_length_b   8.37143566
_cell_length_c   8.37143570
_cell_angle_alpha   69.73432879
_cell_angle_beta   74.99761616
_cell_angle_gamma   74.99761698
_symmetry_Int_Tables_number   1
_chemical_formula_structural   TbY2Ga8Ag3
_chemical_formula_sum   'Tb1 Y2 Ga8 Ag3'
_cell_volume   270.37943199
_cell_formula_units_Z   1
loop_
 _symmetry_equiv_pos_site_id
 _symmetry_equiv_pos_as_xyz
  1  'x, y, z'
loop_
 _atom_site_type_symbol
 _atom_site_label
 _atom_site_symmetry_multiplicity
 _atom_site_fract_x
 _atom_site_fract_y
 _atom_site_fract_z
 _atom_site_occupancy
  Tb  Tb0  1  0.000000  0.000000  0.000000  1
  Y  Y1  1  0.299996  0.700004  0.700004  1
  Y  Y2  1  0.700004  0.299996  0.299996  1
  Ga  Ga3  1  0.341538  0.289504  0.027420  1
  Ga  Ga4  1  0.658462  0.710496  0.972580  1
  Ga  Ga5  1  0.341538  0.027420  0.289504  1
  Ga  Ga6  1  0.658462  0.972580  0.710496  1
  Ga  Ga7  1  0.143308  0.574863  0.138522  1
  Ga  Ga8  1  0.856692  0.425137  0.861478  1
  Ga  Ga9  1  0.143308  0.138522  0.574863  1
  Ga  Ga10  1  0.856692  0.861478  0.425137  1
  Ag  Ag11  1  0.500000  0.304724  0.695276  1
  Ag  Ag12  1  0.500000  0.695276  0.304724  1
  Ag  Ag13  1  0.000000  0.500000  0.500000  1
