# generated using pymatgen
data_Lu4AlTc5Ru2
_symmetry_space_group_name_H-M   'P 1'
_cell_length_a   5.29914319
_cell_length_b   5.29914311
_cell_length_c   8.94771600
_cell_angle_alpha   90.00000000
_cell_angle_beta   90.00000000
_cell_angle_gamma   121.34312156
_symmetry_Int_Tables_number   1
_chemical_formula_structural   Lu4AlTc5Ru2
_chemical_formula_sum   'Lu4 Al1 Tc5 Ru2'
_cell_volume   214.59309151
_cell_formula_units_Z   1
loop_
 _symmetry_equiv_pos_site_id
 _symmetry_equiv_pos_as_xyz
  1  'x, y, z'
loop_
 _atom_site_type_symbol
 _atom_site_label
 _atom_site_symmetry_multiplicity
 _atom_site_fract_x
 _atom_site_fract_y
 _atom_site_fract_z
 _atom_site_occupancy
  Lu  Lu0  1  0.335928  0.664072  0.441605  1
  Lu  Lu1  1  0.663737  0.336263  0.564876  1
  Lu  Lu2  1  0.663737  0.336263  0.935124  1
  Lu  Lu3  1  0.335928  0.664072  0.058395  1
  Al  Al4  1  0.833514  0.166486  0.250000  1
  Tc  Tc5  1  0.167853  0.345732  0.750000  1
  Tc  Tc6  1  0.165021  0.834979  0.750000  1
  Tc  Tc7  1  0.347623  0.180167  0.250000  1
  Tc  Tc8  1  0.819833  0.652377  0.250000  1
  Tc  Tc9  1  0.654268  0.832147  0.750000  1
  Ru  Ru10  1  0.006280  0.993720  0.005257  1
  Ru  Ru11  1  0.006280  0.993720  0.494743  1
