# generated using pymatgen
data_Tm12Mn2FePb2
_symmetry_space_group_name_H-M   'P 1'
_cell_length_a   8.30258240
_cell_length_b   8.30295688
_cell_length_c   8.30258360
_cell_angle_alpha   108.65447318
_cell_angle_beta   108.49457554
_cell_angle_gamma   111.27804178
_symmetry_Int_Tables_number   1
_chemical_formula_structural   Tm12Mn2FePb2
_chemical_formula_sum   'Tm12 Mn2 Fe1 Pb2'
_cell_volume   440.27207320
_cell_formula_units_Z   1
loop_
 _symmetry_equiv_pos_site_id
 _symmetry_equiv_pos_as_xyz
  1  'x, y, z'
loop_
 _atom_site_type_symbol
 _atom_site_label
 _atom_site_symmetry_multiplicity
 _atom_site_fract_x
 _atom_site_fract_y
 _atom_site_fract_z
 _atom_site_occupancy
  Tm  Tm0  1  0.191542  0.425168  0.233626  1
  Tm  Tm1  1  0.808458  0.574832  0.766374  1
  Tm  Tm2  1  0.191542  0.957921  0.766378  1
  Tm  Tm3  1  0.958023  0.191543  0.766476  1
  Tm  Tm4  1  0.808458  0.042079  0.233622  1
  Tm  Tm5  1  0.041977  0.808457  0.233524  1
  Tm  Tm6  1  0.425068  0.191543  0.233522  1
  Tm  Tm7  1  0.574932  0.808457  0.766478  1
  Tm  Tm8  1  0.308442  0.308461  0.616899  1
  Tm  Tm9  1  0.691558  0.691539  0.383101  1
  Tm  Tm10  1  0.691562  0.308461  0.000019  1
  Tm  Tm11  1  0.308438  0.691539  0.999981  1
  Mn  Mn12  1  0.386262  0.386272  0.000010  1
  Mn  Mn13  1  0.613738  0.613728  0.999990  1
  Fe  Fe14  1  0.000000  0.000000  0.000000  1
  Pb  Pb15  1  0.000000  0.500000  0.500000  1
  Pb  Pb16  1  0.500000  0.000000  0.500000  1
