# generated using pymatgen
data_CaZrTaGaO7
_symmetry_space_group_name_H-M   'P 1'
_cell_length_a   7.42549231
_cell_length_b   7.42795043
_cell_length_c   11.49512790
_cell_angle_alpha   80.50816076
_cell_angle_beta   80.49937779
_cell_angle_gamma   60.36264049
_symmetry_Int_Tables_number   1
_chemical_formula_structural   CaZrTaGaO7
_chemical_formula_sum   'Ca4 Zr4 Ta4 Ga4 O28'
_cell_volume   540.94948115
_cell_formula_units_Z   4
loop_
 _symmetry_equiv_pos_site_id
 _symmetry_equiv_pos_as_xyz
  1  'x, y, z'
loop_
 _atom_site_type_symbol
 _atom_site_label
 _atom_site_symmetry_multiplicity
 _atom_site_fract_x
 _atom_site_fract_y
 _atom_site_fract_z
 _atom_site_occupancy
  Ca  Ca0  1  0.251658  0.499857  0.002397  1
  Ca  Ca1  1  0.500804  0.748076  0.497450  1
  Ca  Ca2  1  0.748342  0.500143  0.997603  1
  Ca  Ca3  1  0.499196  0.251924  0.502550  1
  Zr  Zr4  1  0.985257  0.237400  0.527346  1
  Zr  Zr5  1  0.762694  0.013964  0.972473  1
  Zr  Zr6  1  0.014743  0.762600  0.472654  1
  Zr  Zr7  1  0.237306  0.986036  0.027527  1
  Ta  Ta8  1  0.124576  0.368824  0.753510  1
  Ta  Ta9  1  0.630733  0.874500  0.746542  1
  Ta  Ta10  1  0.875424  0.631176  0.246490  1
  Ta  Ta11  1  0.369267  0.125500  0.253458  1
  Ga  Ga12  1  0.865216  0.135071  0.250012  1
  Ga  Ga13  1  0.134784  0.864929  0.749988  1
  Ga  Ga14  1  0.460545  0.539703  0.249874  1
  Ga  Ga15  1  0.539455  0.460297  0.750126  1
  O  O16  1  0.529439  0.883979  0.916892  1
  O  O17  1  0.116037  0.471122  0.583280  1
  O  O18  1  0.470561  0.116021  0.083108  1
  O  O19  1  0.883963  0.528878  0.416720  1
  O  O20  1  0.241085  0.552943  0.780462  1
  O  O21  1  0.446276  0.758511  0.719775  1
  O  O22  1  0.758915  0.447057  0.219538  1
  O  O23  1  0.553724  0.241489  0.280225  1
  O  O24  1  0.058454  0.164297  0.708288  1
  O  O25  1  0.836253  0.939281  0.791588  1
  O  O26  1  0.941546  0.835703  0.291712  1
  O  O27  1  0.163747  0.060719  0.208412  1
  O  O28  1  0.339095  0.608746  0.399738  1
  O  O29  1  0.391264  0.661916  0.100236  1
  O  O30  1  0.660905  0.391254  0.600262  1
  O  O31  1  0.608736  0.338084  0.899764  1
  O  O32  1  0.880523  0.123889  0.079036  1
  O  O33  1  0.875238  0.119659  0.421219  1
  O  O34  1  0.119477  0.876111  0.920964  1
  O  O35  1  0.124762  0.880341  0.578781  1
  O  O36  1  0.128712  0.283141  0.928939  1
  O  O37  1  0.717476  0.870265  0.571248  1
  O  O38  1  0.871288  0.716859  0.071061  1
  O  O39  1  0.282524  0.129735  0.428752  1
  O  O40  1  0.165795  0.428930  0.212983  1
  O  O41  1  0.572689  0.836067  0.287215  1
  O  O42  1  0.834205  0.571070  0.787017  1
  O  O43  1  0.427311  0.163933  0.712785  1
