# generated using pymatgen
data_Tb3SmSiBr6
_symmetry_space_group_name_H-M   'P 1'
_cell_length_a   4.09878500
_cell_length_b   13.38040366
_cell_length_c   14.17436770
_cell_angle_alpha   89.73199909
_cell_angle_beta   90.00000000
_cell_angle_gamma   90.00000000
_symmetry_Int_Tables_number   1
_chemical_formula_structural   Tb3SmSiBr6
_chemical_formula_sum   'Tb6 Sm2 Si2 Br12'
_cell_volume   777.36198225
_cell_formula_units_Z   2
loop_
 _symmetry_equiv_pos_site_id
 _symmetry_equiv_pos_as_xyz
  1  'x, y, z'
loop_
 _atom_site_type_symbol
 _atom_site_label
 _atom_site_symmetry_multiplicity
 _atom_site_fract_x
 _atom_site_fract_y
 _atom_site_fract_z
 _atom_site_occupancy
  Tb  Tb0  1  0.500000  0.117977  0.341313  1
  Tb  Tb1  1  0.500000  0.882023  0.658687  1
  Tb  Tb2  1  0.500000  0.617459  0.158130  1
  Tb  Tb3  1  0.500000  0.382541  0.841870  1
  Tb  Tb4  1  0.000000  0.617645  0.921819  1
  Tb  Tb5  1  0.000000  0.382355  0.078181  1
  Sm  Sm6  1  0.000000  0.120004  0.579712  1
  Sm  Sm7  1  0.000000  0.879996  0.420288  1
  Si  Si8  1  0.500000  0.000000  0.500000  1
  Si  Si9  1  0.500000  0.500000  0.000000  1
  Br  Br10  1  0.500000  0.245876  0.162391  1
  Br  Br11  1  0.500000  0.754124  0.837609  1
  Br  Br12  1  0.500000  0.740159  0.334074  1
  Br  Br13  1  0.500000  0.259841  0.665926  1
  Br  Br14  1  0.000000  0.254760  0.407854  1
  Br  Br15  1  0.000000  0.745240  0.592146  1
  Br  Br16  1  0.000000  0.752979  0.088361  1
  Br  Br17  1  0.000000  0.247021  0.911639  1
  Br  Br18  1  0.000000  0.005412  0.242321  1
  Br  Br19  1  0.000000  0.994588  0.757679  1
  Br  Br20  1  0.000000  0.502091  0.254784  1
  Br  Br21  1  0.000000  0.497909  0.745216  1
