# generated using pymatgen
data_Tb4Nd2CoI10
_symmetry_space_group_name_H-M   'P 1'
_cell_length_a   7.79059573
_cell_length_b   9.80729965
_cell_length_c   9.76711931
_cell_angle_alpha   106.97062459
_cell_angle_beta   96.47720705
_cell_angle_gamma   105.17512141
_symmetry_Int_Tables_number   1
_chemical_formula_structural   Tb4Nd2CoI10
_chemical_formula_sum   'Tb4 Nd2 Co1 I10'
_cell_volume   674.24262100
_cell_formula_units_Z   1
loop_
 _symmetry_equiv_pos_site_id
 _symmetry_equiv_pos_as_xyz
  1  'x, y, z'
loop_
 _atom_site_type_symbol
 _atom_site_label
 _atom_site_symmetry_multiplicity
 _atom_site_fract_x
 _atom_site_fract_y
 _atom_site_fract_z
 _atom_site_occupancy
  Tb  Tb0  1  0.029830  0.717720  0.915269  1
  Tb  Tb1  1  0.970170  0.282280  0.084731  1
  Tb  Tb2  1  0.655505  0.876482  0.836433  1
  Tb  Tb3  1  0.344495  0.123518  0.163567  1
  Nd  Nd4  1  0.887635  0.958761  0.231519  1
  Nd  Nd5  1  0.112365  0.041239  0.768481  1
  Co  Co6  1  0.000000  0.000000  0.000000  1
  I  I7  1  0.649235  0.550832  0.728929  1
  I  I8  1  0.350765  0.449168  0.271071  1
  I  I9  1  0.733879  0.910003  0.540007  1
  I  I10  1  0.266121  0.089997  0.459993  1
  I  I11  1  0.084473  0.376019  0.821911  1
  I  I12  1  0.915527  0.623981  0.178089  1
  I  I13  1  0.449378  0.815609  0.090646  1
  I  I14  1  0.550622  0.184391  0.909354  1
  I  I15  1  0.222678  0.738796  0.655163  1
  I  I16  1  0.777322  0.261204  0.344837  1
