# generated using pymatgen
data_TbLu5(NiRh8)2
_symmetry_space_group_name_H-M   'P 1'
_cell_length_a   5.25914100
_cell_length_b   5.25914273
_cell_length_c   17.30642900
_cell_angle_alpha   90.00000000
_cell_angle_beta   90.00000000
_cell_angle_gamma   119.99998280
_symmetry_Int_Tables_number   1
_chemical_formula_structural   TbLu5(NiRh8)2
_chemical_formula_sum   'Tb1 Lu5 Ni2 Rh16'
_cell_volume   414.54143310
_cell_formula_units_Z   1
loop_
 _symmetry_equiv_pos_site_id
 _symmetry_equiv_pos_as_xyz
  1  'x, y, z'
loop_
 _atom_site_type_symbol
 _atom_site_label
 _atom_site_symmetry_multiplicity
 _atom_site_fract_x
 _atom_site_fract_y
 _atom_site_fract_z
 _atom_site_occupancy
  Tb  Tb0  1  0.333333  0.666667  0.750000  1
  Lu  Lu1  1  0.333333  0.666667  0.958076  1
  Lu  Lu2  1  0.666667  0.333333  0.042167  1
  Lu  Lu3  1  0.666667  0.333333  0.457833  1
  Lu  Lu4  1  0.333333  0.666667  0.541924  1
  Lu  Lu5  1  0.666667  0.333333  0.250000  1
  Ni  Ni6  1  0.333333  0.666667  0.250000  1
  Ni  Ni7  1  0.666667  0.333333  0.750000  1
  Rh  Rh8  1  0.168966  0.831034  0.373337  1
  Rh  Rh9  1  0.168966  0.337932  0.373337  1
  Rh  Rh10  1  0.662068  0.831034  0.373337  1
  Rh  Rh11  1  0.831109  0.168891  0.626394  1
  Rh  Rh12  1  0.831109  0.662216  0.626394  1
  Rh  Rh13  1  0.337784  0.168891  0.626394  1
  Rh  Rh14  1  0.831109  0.168891  0.873606  1
  Rh  Rh15  1  0.831109  0.662216  0.873606  1
  Rh  Rh16  1  0.337784  0.168891  0.873606  1
  Rh  Rh17  1  0.168966  0.831034  0.126663  1
  Rh  Rh18  1  0.168966  0.337932  0.126663  1
  Rh  Rh19  1  0.662068  0.831034  0.126663  1
  Rh  Rh20  1  0.000000  0.000000  0.250000  1
  Rh  Rh21  1  0.000000  0.000000  0.750000  1
  Rh  Rh22  1  0.000000  0.000000  0.499948  1
  Rh  Rh23  1  0.000000  0.000000  0.000052  1
