# generated using pymatgen
data_HoLu2In3Ir2Au
_symmetry_space_group_name_H-M   'P 1'
_cell_length_a   7.65707958
_cell_length_b   7.67436366
_cell_length_c   3.82131100
_cell_angle_alpha   90.00000000
_cell_angle_beta   90.00000000
_cell_angle_gamma   119.97006167
_symmetry_Int_Tables_number   1
_chemical_formula_structural   HoLu2In3Ir2Au
_chemical_formula_sum   'Ho1 Lu2 In3 Ir2 Au1'
_cell_volume   194.52682123
_cell_formula_units_Z   1
loop_
 _symmetry_equiv_pos_site_id
 _symmetry_equiv_pos_as_xyz
  1  'x, y, z'
loop_
 _atom_site_type_symbol
 _atom_site_label
 _atom_site_symmetry_multiplicity
 _atom_site_fract_x
 _atom_site_fract_y
 _atom_site_fract_z
 _atom_site_occupancy
  Ho  Ho0  1  0.386935  0.975559  0.500000  1
  Lu  Lu1  1  0.026390  0.410965  0.500000  1
  Lu  Lu2  1  0.588804  0.615329  0.500000  1
  In  In3  1  0.740696  0.001692  0.000000  1
  In  In4  1  0.997180  0.738047  0.000000  1
  In  In5  1  0.260940  0.259689  0.000000  1
  Ir  Ir6  1  0.332589  0.663415  0.000000  1
  Ir  Ir7  1  0.998319  0.999904  0.500000  1
  Au  Au8  1  0.668146  0.335400  0.000000  1
