# generated using pymatgen
data_Yb5Co15(Si3Ir)4
_symmetry_space_group_name_H-M   'P 1'
_cell_length_a   12.23627600
_cell_length_b   12.23627798
_cell_length_c   3.78701000
_cell_angle_alpha   90.00000000
_cell_angle_beta   90.00000000
_cell_angle_gamma   120.00000545
_symmetry_Int_Tables_number   1
_chemical_formula_structural   Yb5Co15(Si3Ir)4
_chemical_formula_sum   'Yb5 Co15 Si12 Ir4'
_cell_volume   491.04993605
_cell_formula_units_Z   1
loop_
 _symmetry_equiv_pos_site_id
 _symmetry_equiv_pos_as_xyz
  1  'x, y, z'
loop_
 _atom_site_type_symbol
 _atom_site_label
 _atom_site_symmetry_multiplicity
 _atom_site_fract_x
 _atom_site_fract_y
 _atom_site_fract_z
 _atom_site_occupancy
  Yb  Yb0  1  0.333333  0.666667  0.000000  1
  Yb  Yb1  1  0.666667  0.333333  0.000000  1
  Yb  Yb2  1  0.184359  0.184359  0.500000  1
  Yb  Yb3  1  0.815641  0.000000  0.500000  1
  Yb  Yb4  1  0.000000  0.815641  0.500000  1
  Co  Co5  1  0.196226  0.816567  0.000000  1
  Co  Co6  1  0.183433  0.379658  0.000000  1
  Co  Co7  1  0.620342  0.803774  0.000000  1
  Co  Co8  1  0.816567  0.196226  0.000000  1
  Co  Co9  1  0.379658  0.183433  0.000000  1
  Co  Co10  1  0.803774  0.620342  0.000000  1
  Co  Co11  1  0.716474  0.716474  0.500000  1
  Co  Co12  1  0.283526  0.000000  0.500000  1
  Co  Co13  1  0.000000  0.283526  0.500000  1
  Co  Co14  1  0.122524  0.643453  0.500000  1
  Co  Co15  1  0.356547  0.479070  0.500000  1
  Co  Co16  1  0.520930  0.877476  0.500000  1
  Co  Co17  1  0.643453  0.122524  0.500000  1
  Co  Co18  1  0.479070  0.356547  0.500000  1
  Co  Co19  1  0.877476  0.520930  0.500000  1
  Si  Si20  1  0.808722  0.808722  0.000000  1
  Si  Si21  1  0.191278  0.000000  0.000000  1
  Si  Si22  1  0.000000  0.191278  0.000000  1
  Si  Si23  1  0.314527  0.836161  0.500000  1
  Si  Si24  1  0.163839  0.478366  0.500000  1
  Si  Si25  1  0.521634  0.685473  0.500000  1
  Si  Si26  1  0.836161  0.314527  0.500000  1
  Si  Si27  1  0.478366  0.163839  0.500000  1
  Si  Si28  1  0.685473  0.521634  0.500000  1
  Si  Si29  1  0.366839  0.366839  0.000000  1
  Si  Si30  1  0.633161  0.000000  0.000000  1
  Si  Si31  1  0.000000  0.633161  0.000000  1
  Ir  Ir32  1  0.557935  0.557935  0.000000  1
  Ir  Ir33  1  0.442065  0.000000  0.000000  1
  Ir  Ir34  1  0.000000  0.442065  0.000000  1
  Ir  Ir35  1  0.000000  0.000000  0.000000  1
