# generated using pymatgen
data_VPRu
_symmetry_space_group_name_H-M   'P 1'
_cell_length_a   3.68764900
_cell_length_b   6.11125300
_cell_length_c   6.99792100
_cell_angle_alpha   90.00000000
_cell_angle_beta   90.00000000
_cell_angle_gamma   90.00000000
_symmetry_Int_Tables_number   1
_chemical_formula_structural   VPRu
_chemical_formula_sum   'V4 P4 Ru4'
_cell_volume   157.70623943
_cell_formula_units_Z   4
loop_
 _symmetry_equiv_pos_site_id
 _symmetry_equiv_pos_as_xyz
  1  'x, y, z'
loop_
 _atom_site_type_symbol
 _atom_site_label
 _atom_site_symmetry_multiplicity
 _atom_site_fract_x
 _atom_site_fract_y
 _atom_site_fract_z
 _atom_site_occupancy
  V  V0  1  0.750000  0.524263  0.670773  1
  V  V1  1  0.250000  0.975737  0.170773  1
  V  V2  1  0.750000  0.024263  0.829227  1
  V  V3  1  0.250000  0.475737  0.329227  1
  P  P4  1  0.250000  0.738876  0.877144  1
  P  P5  1  0.250000  0.238876  0.622856  1
  P  P6  1  0.750000  0.261124  0.122856  1
  P  P7  1  0.750000  0.761124  0.377144  1
  Ru  Ru8  1  0.250000  0.351339  0.936426  1
  Ru  Ru9  1  0.250000  0.851339  0.563574  1
  Ru  Ru10  1  0.750000  0.148661  0.436426  1
  Ru  Ru11  1  0.750000  0.648661  0.063574  1
