# generated using pymatgen
data_Nd3Co2Tc(NiP)6
_symmetry_space_group_name_H-M   'P 1'
_cell_length_a   3.83803500
_cell_length_b   10.63740000
_cell_length_c   12.48688200
_cell_angle_alpha   90.00000000
_cell_angle_beta   90.00000000
_cell_angle_gamma   90.00000000
_symmetry_Int_Tables_number   1
_chemical_formula_structural   Nd3Co2Tc(NiP)6
_chemical_formula_sum   'Nd6 Co4 Tc2 Ni12 P12'
_cell_volume   509.79835403
_cell_formula_units_Z   2
loop_
 _symmetry_equiv_pos_site_id
 _symmetry_equiv_pos_as_xyz
  1  'x, y, z'
loop_
 _atom_site_type_symbol
 _atom_site_label
 _atom_site_symmetry_multiplicity
 _atom_site_fract_x
 _atom_site_fract_y
 _atom_site_fract_z
 _atom_site_occupancy
  Nd  Nd0  1  0.000000  0.500000  0.519424  1
  Nd  Nd1  1  0.500000  0.000000  0.479419  1
  Nd  Nd2  1  0.500000  0.814475  0.206423  1
  Nd  Nd3  1  0.500000  0.185525  0.206423  1
  Nd  Nd4  1  0.000000  0.684658  0.793420  1
  Nd  Nd5  1  0.000000  0.315342  0.793420  1
  Co  Co6  1  0.000000  0.500000  0.985260  1
  Co  Co7  1  0.500000  0.000000  0.016252  1
  Co  Co8  1  0.000000  0.616639  0.287164  1
  Co  Co9  1  0.000000  0.383361  0.287164  1
  Tc  Tc10  1  0.500000  0.500000  0.152061  1
  Tc  Tc11  1  0.000000  0.000000  0.850573  1
  Ni  Ni12  1  0.500000  0.500000  0.702333  1
  Ni  Ni13  1  0.000000  0.000000  0.298807  1
  Ni  Ni14  1  0.500000  0.331040  0.989536  1
  Ni  Ni15  1  0.500000  0.668960  0.989536  1
  Ni  Ni16  1  0.000000  0.169943  0.011717  1
  Ni  Ni17  1  0.000000  0.830057  0.011717  1
  Ni  Ni18  1  0.500000  0.303986  0.424501  1
  Ni  Ni19  1  0.500000  0.696014  0.424501  1
  Ni  Ni20  1  0.000000  0.198088  0.571986  1
  Ni  Ni21  1  0.000000  0.801912  0.571986  1
  Ni  Ni22  1  0.500000  0.882820  0.712841  1
  Ni  Ni23  1  0.500000  0.117180  0.712841  1
  P  P24  1  0.500000  0.500000  0.883664  1
  P  P25  1  0.000000  0.000000  0.117240  1
  P  P26  1  0.500000  0.500000  0.339251  1
  P  P27  1  0.000000  0.000000  0.658578  1
  P  P28  1  0.500000  0.309054  0.612825  1
  P  P29  1  0.500000  0.690946  0.612825  1
  P  P30  1  0.000000  0.193882  0.385799  1
  P  P31  1  0.000000  0.806118  0.385799  1
  P  P32  1  0.500000  0.851761  0.895758  1
  P  P33  1  0.500000  0.148239  0.895758  1
  P  P34  1  0.000000  0.647793  0.106602  1
  P  P35  1  0.000000  0.352207  0.106602  1
