# generated using pymatgen
data_TcSn7Ir2
_symmetry_space_group_name_H-M   'P 1'
_cell_length_a   9.52170797
_cell_length_b   8.25826441
_cell_length_c   8.26234228
_cell_angle_alpha   70.38892825
_cell_angle_beta   54.78548248
_cell_angle_gamma   54.82558490
_symmetry_Int_Tables_number   1
_chemical_formula_structural   TcSn7Ir2
_chemical_formula_sum   'Tc2 Sn14 Ir4'
_cell_volume   433.86864464
_cell_formula_units_Z   2
loop_
 _symmetry_equiv_pos_site_id
 _symmetry_equiv_pos_as_xyz
  1  'x, y, z'
loop_
 _atom_site_type_symbol
 _atom_site_label
 _atom_site_symmetry_multiplicity
 _atom_site_fract_x
 _atom_site_fract_y
 _atom_site_fract_z
 _atom_site_occupancy
  Tc  Tc0  1  0.651208  0.000137  0.999863  1
  Tc  Tc1  1  0.999863  0.348792  0.651208  1
  Sn  Sn2  1  0.677168  0.322832  0.996861  1
  Sn  Sn3  1  0.999887  0.000113  0.327012  1
  Sn  Sn4  1  0.323201  0.003251  0.673471  1
  Sn  Sn5  1  0.996749  0.676799  0.999923  1
  Sn  Sn6  1  0.327012  0.672988  0.999887  1
  Sn  Sn7  1  0.996861  0.003139  0.677168  1
  Sn  Sn8  1  0.673471  0.000077  0.323201  1
  Sn  Sn9  1  0.999923  0.326529  0.996749  1
  Sn  Sn10  1  0.250484  0.496310  0.503690  1
  Sn  Sn11  1  0.503030  0.250009  0.749991  1
  Sn  Sn12  1  0.753976  0.746024  0.753976  1
  Sn  Sn13  1  0.503690  0.749516  0.250484  1
  Sn  Sn14  1  0.749991  0.496970  0.503030  1
  Sn  Sn15  1  0.253976  0.246024  0.253976  1
  Ir  Ir16  1  0.656261  0.343739  0.343733  1
  Ir  Ir17  1  0.339546  0.000031  0.999969  1
  Ir  Ir18  1  0.999969  0.660454  0.339546  1
  Ir  Ir19  1  0.343733  0.656267  0.656261  1
