# generated using pymatgen
data_CdRu4Pb3O14
_symmetry_space_group_name_H-M   'P 1'
_cell_length_a   7.36684482
_cell_length_b   7.36684414
_cell_length_c   7.31729616
_cell_angle_alpha   59.77575430
_cell_angle_beta   59.77575629
_cell_angle_gamma   59.99999941
_symmetry_Int_Tables_number   1
_chemical_formula_structural   CdRu4Pb3O14
_chemical_formula_sum   'Cd1 Ru4 Pb3 O14'
_cell_volume   279.84546176
_cell_formula_units_Z   1
loop_
 _symmetry_equiv_pos_site_id
 _symmetry_equiv_pos_as_xyz
  1  'x, y, z'
loop_
 _atom_site_type_symbol
 _atom_site_label
 _atom_site_symmetry_multiplicity
 _atom_site_fract_x
 _atom_site_fract_y
 _atom_site_fract_z
 _atom_site_occupancy
  Cd  Cd0  1  0.125000  0.125000  0.625000  1
  Ru  Ru1  1  0.625000  0.125000  0.625000  1
  Ru  Ru2  1  0.625000  0.625000  0.125000  1
  Ru  Ru3  1  0.125000  0.625000  0.625000  1
  Ru  Ru4  1  0.625000  0.625000  0.625000  1
  Pb  Pb5  1  0.125000  0.625000  0.125000  1
  Pb  Pb6  1  0.625000  0.125000  0.125000  1
  Pb  Pb7  1  0.125000  0.125000  0.125000  1
  O  O8  1  0.699033  0.699033  0.299580  1
  O  O9  1  0.943594  0.562329  0.550482  1
  O  O10  1  0.550967  0.947645  0.950420  1
  O  O11  1  0.943594  0.943594  0.550482  1
  O  O12  1  0.947645  0.550967  0.950420  1
  O  O13  1  0.562329  0.943594  0.550482  1
  O  O14  1  0.302355  0.699033  0.299580  1
  O  O15  1  0.306406  0.687671  0.699518  1
  O  O16  1  0.699033  0.302355  0.299580  1
  O  O17  1  0.687671  0.306406  0.699518  1
  O  O18  1  0.550967  0.550967  0.950420  1
  O  O19  1  0.306406  0.306406  0.699518  1
  O  O20  1  0.241950  0.241950  0.274151  1
  O  O21  1  0.008050  0.008050  0.975849  1
