# generated using pymatgen
data_U2AlCuIrRu
_symmetry_space_group_name_H-M   'P 1'
_cell_length_a   5.68755100
_cell_length_b   5.31631906
_cell_length_c   7.89518300
_cell_angle_alpha   90.00000000
_cell_angle_beta   90.00000000
_cell_angle_gamma   122.33811128
_symmetry_Int_Tables_number   1
_chemical_formula_structural   U2AlCuIrRu
_chemical_formula_sum   'U4 Al2 Cu2 Ir2 Ru2'
_cell_volume   201.70053281
_cell_formula_units_Z   2
loop_
 _symmetry_equiv_pos_site_id
 _symmetry_equiv_pos_as_xyz
  1  'x, y, z'
loop_
 _atom_site_type_symbol
 _atom_site_label
 _atom_site_symmetry_multiplicity
 _atom_site_fract_x
 _atom_site_fract_y
 _atom_site_fract_z
 _atom_site_occupancy
  U  U0  1  0.349521  0.695447  0.417634  1
  U  U1  1  0.654075  0.304553  0.917634  1
  U  U2  1  0.654075  0.304553  0.582366  1
  U  U3  1  0.349521  0.695447  0.082366  1
  Al  Al4  1  0.998817  0.000000  0.500000  1
  Al  Al5  1  0.998817  0.000000  0.000000  1
  Cu  Cu6  1  0.161240  0.323218  0.750000  1
  Cu  Cu7  1  0.838023  0.676782  0.250000  1
  Ir  Ir8  1  0.152793  0.805642  0.750000  1
  Ir  Ir9  1  0.347150  0.194358  0.250000  1
  Ru  Ru10  1  0.845291  0.194616  0.250000  1
  Ru  Ru11  1  0.650676  0.805384  0.750000  1
