# generated using pymatgen
data_Ac2CoSiBr2
_symmetry_space_group_name_H-M   'P 1'
_cell_length_a   4.24942000
_cell_length_b   4.24942028
_cell_length_c   12.55693600
_cell_angle_alpha   90.00000000
_cell_angle_beta   90.00000000
_cell_angle_gamma   119.99999778
_symmetry_Int_Tables_number   1
_chemical_formula_structural   Ac2CoSiBr2
_chemical_formula_sum   'Ac2 Co1 Si1 Br2'
_cell_volume   196.36933364
_cell_formula_units_Z   1
loop_
 _symmetry_equiv_pos_site_id
 _symmetry_equiv_pos_as_xyz
  1  'x, y, z'
loop_
 _atom_site_type_symbol
 _atom_site_label
 _atom_site_symmetry_multiplicity
 _atom_site_fract_x
 _atom_site_fract_y
 _atom_site_fract_z
 _atom_site_occupancy
  Ac  Ac0  1  0.000000  0.000000  0.161520  1
  Ac  Ac1  1  0.000000  0.000000  0.839235  1
  Co  Co2  1  0.333333  0.666666  0.997773  1
  Si  Si3  1  0.666666  0.333334  0.002021  1
  Br  Br4  1  0.333333  0.666666  0.325032  1
  Br  Br5  1  0.666666  0.333334  0.674417  1
