# generated using pymatgen
data_Ca7Mn2NbN9
_symmetry_space_group_name_H-M   'P 1'
_cell_length_a   10.00327500
_cell_length_b   6.07538431
_cell_length_c   9.03084574
_cell_angle_alpha   87.81707431
_cell_angle_beta   90.00000000
_cell_angle_gamma   90.00000000
_symmetry_Int_Tables_number   1
_chemical_formula_structural   Ca7Mn2NbN9
_chemical_formula_sum   'Ca14 Mn4 Nb2 N18'
_cell_volume   548.43998574
_cell_formula_units_Z   2
loop_
 _symmetry_equiv_pos_site_id
 _symmetry_equiv_pos_as_xyz
  1  'x, y, z'
loop_
 _atom_site_type_symbol
 _atom_site_label
 _atom_site_symmetry_multiplicity
 _atom_site_fract_x
 _atom_site_fract_y
 _atom_site_fract_z
 _atom_site_occupancy
  Ca  Ca0  1  0.935938  0.429761  0.162353  1
  Ca  Ca1  1  0.080545  0.247217  0.494035  1
  Ca  Ca2  1  0.250000  0.089903  0.804801  1
  Ca  Ca3  1  0.435938  0.570239  0.837647  1
  Ca  Ca4  1  0.580545  0.752783  0.505965  1
  Ca  Ca5  1  0.580623  0.066026  0.832060  1
  Ca  Ca6  1  0.919377  0.066026  0.832060  1
  Ca  Ca7  1  0.419377  0.933974  0.167940  1
  Ca  Ca8  1  0.419455  0.247217  0.494035  1
  Ca  Ca9  1  0.080623  0.933974  0.167940  1
  Ca  Ca10  1  0.919455  0.752783  0.505965  1
  Ca  Ca11  1  0.064062  0.570239  0.837647  1
  Ca  Ca12  1  0.750000  0.910097  0.195199  1
  Ca  Ca13  1  0.564062  0.429761  0.162353  1
  Mn  Mn14  1  0.250000  0.331239  0.068380  1
  Mn  Mn15  1  0.750000  0.458396  0.721991  1
  Mn  Mn16  1  0.750000  0.668761  0.931620  1
  Mn  Mn17  1  0.250000  0.541604  0.278009  1
  Nb  Nb18  1  0.750000  0.278709  0.438857  1
  Nb  Nb19  1  0.250000  0.721291  0.561143  1
  N  N20  1  0.404451  0.230110  0.979205  1
  N  N21  1  0.250000  0.236666  0.270844  1
  N  N22  1  0.902180  0.115709  0.343366  1
  N  N23  1  0.606945  0.366381  0.629064  1
  N  N24  1  0.750000  0.555934  0.332143  1
  N  N25  1  0.250000  0.639184  0.079737  1
  N  N26  1  0.893055  0.366381  0.629064  1
  N  N27  1  0.393055  0.633619  0.370936  1
  N  N28  1  0.750000  0.360816  0.920263  1
  N  N29  1  0.097820  0.884291  0.656634  1
  N  N30  1  0.750000  0.763334  0.729156  1
  N  N31  1  0.106945  0.633619  0.370936  1
  N  N32  1  0.595549  0.769890  0.020795  1
  N  N33  1  0.250000  0.444066  0.667857  1
  N  N34  1  0.402180  0.884291  0.656634  1
  N  N35  1  0.597820  0.115709  0.343366  1
  N  N36  1  0.095549  0.230110  0.979205  1
  N  N37  1  0.904451  0.769890  0.020795  1
