# generated using pymatgen
data_Y6IrO12
_symmetry_space_group_name_H-M   'P 1'
_cell_length_a   6.49616060
_cell_length_b   6.49615367
_cell_length_c   6.49615712
_cell_angle_alpha   98.64546524
_cell_angle_beta   98.64543530
_cell_angle_gamma   98.64543150
_symmetry_Int_Tables_number   1
_chemical_formula_structural   Y6IrO12
_chemical_formula_sum   'Y6 Ir1 O12'
_cell_volume   263.71737500
_cell_formula_units_Z   1
loop_
 _symmetry_equiv_pos_site_id
 _symmetry_equiv_pos_as_xyz
  1  'x, y, z'
loop_
 _atom_site_type_symbol
 _atom_site_label
 _atom_site_symmetry_multiplicity
 _atom_site_fract_x
 _atom_site_fract_y
 _atom_site_fract_z
 _atom_site_occupancy
  Y  Y0  1  0.611026  0.313870  0.143827  1
  Y  Y1  1  0.143826  0.611027  0.313870  1
  Y  Y2  1  0.686130  0.856174  0.388974  1
  Y  Y3  1  0.313870  0.143826  0.611027  1
  Y  Y4  1  0.856174  0.388974  0.686131  1
  Y  Y5  1  0.388974  0.686130  0.856175  1
  Ir  Ir6  1  0.000000  0.000000  0.000000  1
  O  O7  1  0.702193  0.929030  0.034652  1
  O  O8  1  0.965347  0.297807  0.070969  1
  O  O9  1  0.433121  0.591982  0.177008  1
  O  O10  1  0.070969  0.965348  0.297806  1
  O  O11  1  0.822991  0.566879  0.408018  1
  O  O12  1  0.591983  0.177009  0.433121  1
  O  O13  1  0.408018  0.822991  0.566878  1
  O  O14  1  0.177009  0.433121  0.591983  1
  O  O15  1  0.929031  0.034652  0.702193  1
  O  O16  1  0.566879  0.408017  0.822991  1
  O  O17  1  0.034653  0.702193  0.929030  1
  O  O18  1  0.297807  0.070969  0.965347  1
