# generated using pymatgen
data_AcScP7(IrRu5)2
_symmetry_space_group_name_H-M   'P 1'
_cell_length_a   9.47824274
_cell_length_b   9.52441223
_cell_length_c   3.95915200
_cell_angle_alpha   90.00000000
_cell_angle_beta   90.00000000
_cell_angle_gamma   120.14937428
_symmetry_Int_Tables_number   1
_chemical_formula_structural   AcScP7(IrRu5)2
_chemical_formula_sum   'Ac1 Sc1 P7 Ir2 Ru10'
_cell_volume   309.06024923
_cell_formula_units_Z   1
loop_
 _symmetry_equiv_pos_site_id
 _symmetry_equiv_pos_as_xyz
  1  'x, y, z'
loop_
 _atom_site_type_symbol
 _atom_site_label
 _atom_site_symmetry_multiplicity
 _atom_site_fract_x
 _atom_site_fract_y
 _atom_site_fract_z
 _atom_site_occupancy
  Ac  Ac0  1  0.331067  0.665535  0.000000  1
  Sc  Sc1  1  0.667909  0.333908  0.500000  1
  P  P2  1  0.611150  0.717675  0.500000  1
  P  P3  1  0.999949  0.000708  0.000000  1
  P  P4  1  0.277030  0.888694  0.500000  1
  P  P5  1  0.103815  0.390329  0.500000  1
  P  P6  1  0.885349  0.568224  0.000000  1
  P  P7  1  0.433466  0.313614  0.000000  1
  P  P8  1  0.686548  0.118146  0.000000  1
  Ir  Ir9  1  0.560936  0.960898  0.500000  1
  Ir  Ir10  1  0.399771  0.437314  0.500000  1
  Ru  Ru11  1  0.914919  0.119379  0.500000  1
  Ru  Ru12  1  0.206667  0.086599  0.500000  1
  Ru  Ru13  1  0.880954  0.797050  0.500000  1
  Ru  Ru14  1  0.726890  0.893383  0.000000  1
  Ru  Ru15  1  0.107203  0.836763  0.000000  1
  Ru  Ru16  1  0.166798  0.271715  0.000000  1
  Ru  Ru17  1  0.426405  0.074636  0.000000  1
  Ru  Ru18  1  0.926352  0.349992  0.000000  1
  Ru  Ru19  1  0.650005  0.574476  0.000000  1
  Ru  Ru20  1  0.036818  0.600961  0.500000  1
