# generated using pymatgen
data_Y4Al2Os5W
_symmetry_space_group_name_H-M   'P 1'
_cell_length_a   5.31721602
_cell_length_b   5.34801516
_cell_length_c   8.91838200
_cell_angle_alpha   90.00000000
_cell_angle_beta   90.00000000
_cell_angle_gamma   118.09727410
_symmetry_Int_Tables_number   1
_chemical_formula_structural   Y4Al2Os5W
_chemical_formula_sum   'Y4 Al2 Os5 W1'
_cell_volume   223.72014161
_cell_formula_units_Z   1
loop_
 _symmetry_equiv_pos_site_id
 _symmetry_equiv_pos_as_xyz
  1  'x, y, z'
loop_
 _atom_site_type_symbol
 _atom_site_label
 _atom_site_symmetry_multiplicity
 _atom_site_fract_x
 _atom_site_fract_y
 _atom_site_fract_z
 _atom_site_occupancy
  Y  Y0  1  0.326636  0.669735  0.433632  1
  Y  Y1  1  0.661221  0.329162  0.558096  1
  Y  Y2  1  0.661221  0.329162  0.941904  1
  Y  Y3  1  0.326636  0.669735  0.066368  1
  Al  Al4  1  0.184521  0.841308  0.750000  1
  Al  Al5  1  0.180058  0.342600  0.750000  1
  Os  Os6  1  0.982060  0.002081  0.505957  1
  Os  Os7  1  0.982060  0.002081  0.994043  1
  Os  Os8  1  0.827208  0.651591  0.250000  1
  Os  Os9  1  0.352237  0.173477  0.250000  1
  Os  Os10  1  0.674518  0.829358  0.750000  1
  W  W11  1  0.841625  0.159707  0.250000  1
