# generated using pymatgen
data_Ca4Nd3Co2Ni2Sn13
_symmetry_space_group_name_H-M   'P 1'
_cell_length_a   11.27522921
_cell_length_b   11.26569521
_cell_length_c   4.60614700
_cell_angle_alpha   90.00000000
_cell_angle_beta   90.00000000
_cell_angle_gamma   90.05305869
_symmetry_Int_Tables_number   1
_chemical_formula_structural   Ca4Nd3Co2Ni2Sn13
_chemical_formula_sum   'Ca4 Nd3 Co2 Ni2 Sn13'
_cell_volume   585.08772136
_cell_formula_units_Z   1
loop_
 _symmetry_equiv_pos_site_id
 _symmetry_equiv_pos_as_xyz
  1  'x, y, z'
loop_
 _atom_site_type_symbol
 _atom_site_label
 _atom_site_symmetry_multiplicity
 _atom_site_fract_x
 _atom_site_fract_y
 _atom_site_fract_z
 _atom_site_occupancy
  Ca  Ca0  1  0.838420  0.171580  0.000000  1
  Ca  Ca1  1  0.828937  0.838632  0.000000  1
  Ca  Ca2  1  0.161447  0.828184  0.000000  1
  Ca  Ca3  1  0.172054  0.161587  0.000000  1
  Nd  Nd4  1  0.500769  0.502824  0.500000  1
  Nd  Nd5  1  0.999054  0.500186  0.000000  1
  Nd  Nd6  1  0.500948  0.998983  0.000000  1
  Co  Co7  1  0.775007  0.616843  0.500000  1
  Co  Co8  1  0.382978  0.775168  0.500000  1
  Ni  Ni9  1  0.619165  0.223171  0.500000  1
  Ni  Ni10  1  0.223298  0.380411  0.500000  1
  Sn  Sn11  1  0.018629  0.283779  0.500000  1
  Sn  Sn12  1  0.977194  0.712706  0.500000  1
  Sn  Sn13  1  0.215593  0.614676  0.500000  1
  Sn  Sn14  1  0.573710  0.303774  0.000000  1
  Sn  Sn15  1  0.698110  0.576938  0.000000  1
  Sn  Sn16  1  0.784886  0.389032  0.500000  1
  Sn  Sn17  1  0.715422  0.018927  0.500000  1
  Sn  Sn18  1  0.999827  0.000092  0.500000  1
  Sn  Sn19  1  0.286588  0.977276  0.500000  1
  Sn  Sn20  1  0.425125  0.698823  0.000000  1
  Sn  Sn21  1  0.612900  0.783270  0.500000  1
  Sn  Sn22  1  0.302047  0.429032  0.000000  1
  Sn  Sn23  1  0.387892  0.214105  0.500000  1
