# generated using pymatgen
data_Y4AlOs6W
_symmetry_space_group_name_H-M   'P 1'
_cell_length_a   5.28785047
_cell_length_b   5.28784962
_cell_length_c   8.93170000
_cell_angle_alpha   90.00000000
_cell_angle_beta   90.00000000
_cell_angle_gamma   117.48548217
_symmetry_Int_Tables_number   1
_chemical_formula_structural   Y4AlOs6W
_chemical_formula_sum   'Y4 Al1 Os6 W1'
_cell_volume   221.55348233
_cell_formula_units_Z   1
loop_
 _symmetry_equiv_pos_site_id
 _symmetry_equiv_pos_as_xyz
  1  'x, y, z'
loop_
 _atom_site_type_symbol
 _atom_site_label
 _atom_site_symmetry_multiplicity
 _atom_site_fract_x
 _atom_site_fract_y
 _atom_site_fract_z
 _atom_site_occupancy
  Y  Y0  1  0.328821  0.671179  0.436737  1
  Y  Y1  1  0.666509  0.333491  0.562763  1
  Y  Y2  1  0.666509  0.333491  0.937237  1
  Y  Y3  1  0.328821  0.671179  0.063263  1
  Al  Al4  1  0.169217  0.830783  0.750000  1
  Os  Os5  1  0.991080  0.008920  0.504064  1
  Os  Os6  1  0.991080  0.008920  0.995936  1
  Os  Os7  1  0.825973  0.646968  0.250000  1
  Os  Os8  1  0.353032  0.174027  0.250000  1
  Os  Os9  1  0.179762  0.343290  0.750000  1
  Os  Os10  1  0.656710  0.820238  0.750000  1
  W  W11  1  0.842485  0.157515  0.250000  1
