# generated using pymatgen
data_Er4Co2PbO12
_symmetry_space_group_name_H-M   'P 1'
_cell_length_a   6.70602100
_cell_length_b   6.70602223
_cell_length_c   7.11972300
_cell_angle_alpha   74.56272459
_cell_angle_beta   74.56272169
_cell_angle_gamma   50.83452876
_symmetry_Int_Tables_number   1
_chemical_formula_structural   Er4Co2PbO12
_chemical_formula_sum   'Er4 Co2 Pb1 O12'
_cell_volume   237.21771143
_cell_formula_units_Z   1
loop_
 _symmetry_equiv_pos_site_id
 _symmetry_equiv_pos_as_xyz
  1  'x, y, z'
loop_
 _atom_site_type_symbol
 _atom_site_label
 _atom_site_symmetry_multiplicity
 _atom_site_fract_x
 _atom_site_fract_y
 _atom_site_fract_z
 _atom_site_occupancy
  Er  Er0  1  0.308679  0.308679  0.349346  1
  Er  Er1  1  0.691321  0.691321  0.650654  1
  Er  Er2  1  0.306674  0.306674  0.843325  1
  Er  Er3  1  0.693326  0.693326  0.156675  1
  Co  Co4  1  0.754179  0.245821  0.000000  1
  Co  Co5  1  0.245821  0.754179  0.000000  1
  Pb  Pb6  1  0.000000  0.000000  0.500000  1
  O  O7  1  0.901073  0.422930  0.917099  1
  O  O8  1  0.422930  0.901073  0.917099  1
  O  O9  1  0.098927  0.577070  0.082901  1
  O  O10  1  0.577070  0.098927  0.082901  1
  O  O11  1  0.095921  0.604588  0.572472  1
  O  O12  1  0.604588  0.095921  0.572472  1
  O  O13  1  0.904079  0.395412  0.427528  1
  O  O14  1  0.395412  0.904079  0.427528  1
  O  O15  1  0.000076  0.000076  0.824661  1
  O  O16  1  0.999924  0.999924  0.175339  1
  O  O17  1  0.499154  0.499154  0.821254  1
  O  O18  1  0.500846  0.500846  0.178746  1
