# generated using pymatgen
data_CeHo5(SiPd5)2
_symmetry_space_group_name_H-M   'P 1'
_cell_length_a   8.22413326
_cell_length_b   8.22413359
_cell_length_c   8.22413338
_cell_angle_alpha   127.66368113
_cell_angle_beta   125.49332427
_cell_angle_gamma   78.95187105
_symmetry_Int_Tables_number   1
_chemical_formula_structural   CeHo5(SiPd5)2
_chemical_formula_sum   'Ce1 Ho5 Si2 Pd10'
_cell_volume   346.83861876
_cell_formula_units_Z   1
loop_
 _symmetry_equiv_pos_site_id
 _symmetry_equiv_pos_as_xyz
  1  'x, y, z'
loop_
 _atom_site_type_symbol
 _atom_site_label
 _atom_site_symmetry_multiplicity
 _atom_site_fract_x
 _atom_site_fract_y
 _atom_site_fract_z
 _atom_site_occupancy
  Ce  Ce0  1  0.615475  0.750000  0.865475  1
  Ho  Ho1  1  0.224225  0.448323  0.775902  1
  Ho  Ho2  1  0.775393  0.549136  0.226257  1
  Ho  Ho3  1  0.827577  0.051677  0.775902  1
  Ho  Ho4  1  0.177121  0.950864  0.226257  1
  Ho  Ho5  1  0.389777  0.250000  0.139777  1
  Si  Si6  1  0.785205  0.250000  0.535205  1
  Si  Si7  1  0.214644  0.750000  0.464644  1
  Pd  Pd8  1  0.167089  0.399660  0.355927  1
  Pd  Pd9  1  0.830286  0.186451  0.229058  1
  Pd  Pd10  1  0.456267  0.100340  0.767430  1
  Pd  Pd11  1  0.542606  0.313549  0.643834  1
  Pd  Pd12  1  0.999041  0.501752  0.000793  1
  Pd  Pd13  1  0.999041  0.998248  0.497289  1
  Pd  Pd14  1  0.456267  0.688838  0.355927  1
  Pd  Pd15  1  0.542606  0.898772  0.229058  1
  Pd  Pd16  1  0.167089  0.811162  0.767430  1
  Pd  Pd17  1  0.830286  0.601228  0.643834  1
