# generated using pymatgen
data_Tb5HoBi2(AuO5)4
_symmetry_space_group_name_H-M   'P 1'
_cell_length_a   8.55405932
_cell_length_b   8.55193247
_cell_length_c   5.73846991
_cell_angle_alpha   88.82875882
_cell_angle_beta   91.19012319
_cell_angle_gamma   89.93331584
_symmetry_Int_Tables_number   1
_chemical_formula_structural   Tb5HoBi2(AuO5)4
_chemical_formula_sum   'Tb5 Ho1 Bi2 Au4 O20'
_cell_volume   419.61174688
_cell_formula_units_Z   1
loop_
 _symmetry_equiv_pos_site_id
 _symmetry_equiv_pos_as_xyz
  1  'x, y, z'
loop_
 _atom_site_type_symbol
 _atom_site_label
 _atom_site_symmetry_multiplicity
 _atom_site_fract_x
 _atom_site_fract_y
 _atom_site_fract_z
 _atom_site_occupancy
  Tb  Tb0  1  0.352854  0.655907  0.247068  1
  Tb  Tb1  1  0.844876  0.145971  0.747412  1
  Tb  Tb2  1  0.651867  0.651716  0.749884  1
  Tb  Tb3  1  0.655341  0.353569  0.252754  1
  Tb  Tb4  1  0.848819  0.848041  0.249600  1
  Ho  Ho5  1  0.145719  0.844105  0.752492  1
  Bi  Bi6  1  0.358067  0.358281  0.750404  1
  Bi  Bi7  1  0.142251  0.141237  0.250385  1
  Au  Au8  1  0.496255  0.999617  0.407895  1
  Au  Au9  1  0.499476  0.004044  0.907494  1
  Au  Au10  1  0.000129  0.495745  0.092090  1
  Au  Au11  1  0.004040  0.500642  0.592369  1
  O  O12  1  0.107318  0.289915  0.598979  1
  O  O13  1  0.911795  0.278778  0.112662  1
  O  O14  1  0.910295  0.717191  0.610687  1
  O  O15  1  0.715765  0.909072  0.890784  1
  O  O16  1  0.220160  0.590469  0.612374  1
  O  O17  1  0.403173  0.789603  0.893134  1
  O  O18  1  0.393030  0.210218  0.400722  1
  O  O19  1  0.783966  0.590623  0.109691  1
  O  O20  1  0.279147  0.911002  0.390993  1
  O  O21  1  0.588649  0.220744  0.887931  1
  O  O22  1  0.492859  0.499274  0.997469  1
  O  O23  1  0.498238  0.492649  0.502565  1
  O  O24  1  0.788678  0.406252  0.606043  1
  O  O25  1  0.093863  0.711596  0.102471  1
  O  O26  1  0.289184  0.107269  0.900502  1
  O  O27  1  0.591017  0.783340  0.390148  1
  O  O28  1  0.210790  0.392938  0.099278  1
  O  O29  1  0.008580  0.000233  0.001317  1
  O  O30  1  0.002144  0.006259  0.498704  1
  O  O31  1  0.711654  0.093704  0.393701  1
