# generated using pymatgen
data_Nd5GdTl4In2O18
_symmetry_space_group_name_H-M   'P 1'
_cell_length_a   6.72899748
_cell_length_b   6.72173548
_cell_length_c   12.54634800
_cell_angle_alpha   89.97867306
_cell_angle_beta   89.72328635
_cell_angle_gamma   119.96811523
_symmetry_Int_Tables_number   1
_chemical_formula_structural   Nd5GdTl4In2O18
_chemical_formula_sum   'Nd5 Gd1 Tl4 In2 O18'
_cell_volume   491.60000798
_cell_formula_units_Z   1
loop_
 _symmetry_equiv_pos_site_id
 _symmetry_equiv_pos_as_xyz
  1  'x, y, z'
loop_
 _atom_site_type_symbol
 _atom_site_label
 _atom_site_symmetry_multiplicity
 _atom_site_fract_x
 _atom_site_fract_y
 _atom_site_fract_z
 _atom_site_occupancy
  Nd  Nd0  1  0.992517  0.998174  0.269940  1
  Nd  Nd1  1  0.992240  0.994143  0.772114  1
  Nd  Nd2  1  0.341299  0.672417  0.235965  1
  Nd  Nd3  1  0.666593  0.331075  0.734821  1
  Nd  Nd4  1  0.340948  0.668839  0.733315  1
  Gd  Gd5  1  0.666702  0.335379  0.234243  1
  Tl  Tl6  1  0.334550  0.001155  0.001566  1
  Tl  Tl7  1  0.334280  0.331897  0.499451  1
  Tl  Tl8  1  0.999585  0.665548  0.499742  1
  Tl  Tl9  1  0.000835  0.335696  0.001843  1
  In  In10  1  0.665892  0.664180  0.002474  1
  In  In11  1  0.666794  0.002721  0.500117  1
  O  O12  1  0.314557  0.005704  0.174508  1
  O  O13  1  0.307977  0.308646  0.672818  1
  O  O14  1  0.002108  0.689921  0.673258  1
  O  O15  1  0.995825  0.313158  0.174874  1
  O  O16  1  0.692511  0.688064  0.175512  1
  O  O17  1  0.693055  0.998102  0.673464  1
  O  O18  1  0.639986  0.009624  0.329487  1
  O  O19  1  0.638746  0.636892  0.831433  1
  O  O20  1  0.000565  0.357183  0.830030  1
  O  O21  1  0.993518  0.636617  0.328610  1
  O  O22  1  0.363326  0.356034  0.328216  1
  O  O23  1  0.356523  0.999289  0.829659  1
  O  O24  1  0.982838  0.999621  0.466464  1
  O  O25  1  0.983160  0.983607  0.970357  1
  O  O26  1  0.349875  0.667738  0.033924  1
  O  O27  1  0.666811  0.319109  0.534067  1
  O  O28  1  0.349656  0.682084  0.528382  1
  O  O29  1  0.666726  0.347383  0.033740  1
