# generated using pymatgen
data_V2Re3PtBr26
_symmetry_space_group_name_H-M   'P 1'
_cell_length_a   11.75342800
_cell_length_b   10.00426616
_cell_length_c   10.75001901
_cell_angle_alpha   81.47074431
_cell_angle_beta   90.00000000
_cell_angle_gamma   90.00000000
_symmetry_Int_Tables_number   1
_chemical_formula_structural   V2Re3PtBr26
_chemical_formula_sum   'V2 Re3 Pt1 Br26'
_cell_volume   1250.05487805
_cell_formula_units_Z   1
loop_
 _symmetry_equiv_pos_site_id
 _symmetry_equiv_pos_as_xyz
  1  'x, y, z'
loop_
 _atom_site_type_symbol
 _atom_site_label
 _atom_site_symmetry_multiplicity
 _atom_site_fract_x
 _atom_site_fract_y
 _atom_site_fract_z
 _atom_site_occupancy
  V  V0  1  0.250000  0.263024  0.503665  1
  V  V1  1  0.750000  0.736731  0.495030  1
  Re  Re2  1  0.750000  0.176627  0.913793  1
  Re  Re3  1  0.250000  0.674827  0.850088  1
  Re  Re4  1  0.750000  0.309637  0.126006  1
  Pt  Pt5  1  0.250000  0.834341  0.104983  1
  Br  Br6  1  0.592607  0.812844  0.584867  1
  Br  Br7  1  0.092925  0.186552  0.414867  1
  Br  Br8  1  0.750000  0.436033  0.899026  1
  Br  Br9  1  0.250000  0.581795  0.091105  1
  Br  Br10  1  0.908535  0.146734  0.079807  1
  Br  Br11  1  0.394444  0.844303  0.926268  1
  Br  Br12  1  0.105556  0.844303  0.926268  1
  Br  Br13  1  0.591465  0.146734  0.079807  1
  Br  Br14  1  0.750000  0.194448  0.345850  1
  Br  Br15  1  0.250000  0.799256  0.637355  1
  Br  Br16  1  0.900201  0.465514  0.174511  1
  Br  Br17  1  0.403609  0.523049  0.812139  1
  Br  Br18  1  0.096391  0.523049  0.812139  1
  Br  Br19  1  0.599799  0.465514  0.174511  1
  Br  Br20  1  0.750000  0.928915  0.922028  1
  Br  Br21  1  0.250000  0.081965  0.094681  1
  Br  Br22  1  0.899477  0.201308  0.750036  1
  Br  Br23  1  0.398952  0.810468  0.267898  1
  Br  Br24  1  0.101048  0.810468  0.267898  1
  Br  Br25  1  0.600523  0.201308  0.750036  1
  Br  Br26  1  0.750000  0.808190  0.285836  1
  Br  Br27  1  0.250000  0.193245  0.713382  1
  Br  Br28  1  0.750000  0.507977  0.525175  1
  Br  Br29  1  0.250000  0.491446  0.471210  1
  Br  Br30  1  0.907393  0.812844  0.584867  1
  Br  Br31  1  0.407075  0.186552  0.414867  1
