# generated using pymatgen
data_Ce4Nd12Cd3AgRu4
_symmetry_space_group_name_H-M   'P 1'
_cell_length_a   9.85851797
_cell_length_b   9.85851780
_cell_length_c   9.85752902
_cell_angle_alpha   59.99667916
_cell_angle_beta   59.99668106
_cell_angle_gamma   59.99999936
_symmetry_Int_Tables_number   1
_chemical_formula_structural   Ce4Nd12Cd3AgRu4
_chemical_formula_sum   'Ce4 Nd12 Cd3 Ag1 Ru4'
_cell_volume   677.41456058
_cell_formula_units_Z   1
loop_
 _symmetry_equiv_pos_site_id
 _symmetry_equiv_pos_as_xyz
  1  'x, y, z'
loop_
 _atom_site_type_symbol
 _atom_site_label
 _atom_site_symmetry_multiplicity
 _atom_site_fract_x
 _atom_site_fract_y
 _atom_site_fract_z
 _atom_site_occupancy
  Ce  Ce0  1  0.342589  0.342589  0.972235  1
  Ce  Ce1  1  0.343359  0.971071  0.342213  1
  Ce  Ce2  1  0.971071  0.343359  0.342213  1
  Ce  Ce3  1  0.343359  0.343359  0.342213  1
  Nd  Nd4  1  0.560570  0.560570  0.942303  1
  Nd  Nd5  1  0.936556  0.560570  0.942303  1
  Nd  Nd6  1  0.560570  0.936556  0.942303  1
  Nd  Nd7  1  0.939467  0.939467  0.561133  1
  Nd  Nd8  1  0.559932  0.939467  0.561133  1
  Nd  Nd9  1  0.939467  0.559932  0.561133  1
  Nd  Nd10  1  0.190635  0.190635  0.809403  1
  Nd  Nd11  1  0.809327  0.190635  0.809403  1
  Nd  Nd12  1  0.190634  0.809328  0.809403  1
  Nd  Nd13  1  0.808829  0.808830  0.191276  1
  Nd  Nd14  1  0.191066  0.808829  0.191275  1
  Nd  Nd15  1  0.808829  0.191067  0.191276  1
  Cd  Cd16  1  0.579648  0.263593  0.577111  1
  Cd  Cd17  1  0.263593  0.579648  0.577111  1
  Cd  Cd18  1  0.579648  0.579648  0.577111  1
  Ag  Ag19  1  0.581115  0.581115  0.256655  1
  Ru  Ru20  1  0.146175  0.146175  0.561477  1
  Ru  Ru21  1  0.145913  0.561736  0.146439  1
  Ru  Ru22  1  0.561736  0.145913  0.146439  1
  Ru  Ru23  1  0.145913  0.145913  0.146439  1
