# generated using pymatgen
data_CeNdTh2(ReB2)6
_symmetry_space_group_name_H-M   'P 1'
_cell_length_a   6.34770677
_cell_length_b   6.32827762
_cell_length_c   7.60950254
_cell_angle_alpha   90.86879925
_cell_angle_beta   90.60433364
_cell_angle_gamma   114.90020819
_symmetry_Int_Tables_number   1
_chemical_formula_structural   CeNdTh2(ReB2)6
_chemical_formula_sum   'Ce1 Nd1 Th2 Re6 B12'
_cell_volume   277.17920843
_cell_formula_units_Z   1
loop_
 _symmetry_equiv_pos_site_id
 _symmetry_equiv_pos_as_xyz
  1  'x, y, z'
loop_
 _atom_site_type_symbol
 _atom_site_label
 _atom_site_symmetry_multiplicity
 _atom_site_fract_x
 _atom_site_fract_y
 _atom_site_fract_z
 _atom_site_occupancy
  Ce  Ce0  1  0.444157  0.098675  0.826904  1
  Nd  Nd1  1  0.096872  0.439820  0.324356  1
  Th  Th2  1  0.557430  0.907655  0.170940  1
  Th  Th3  1  0.906038  0.559873  0.673423  1
  Re  Re4  1  0.587074  0.411951  0.249347  1
  Re  Re5  1  0.412054  0.588942  0.751356  1
  Re  Re6  1  0.991929  0.806602  0.087141  1
  Re  Re7  1  0.194207  0.008256  0.414281  1
  Re  Re8  1  0.010315  0.192727  0.911877  1
  Re  Re9  1  0.803859  0.991065  0.586951  1
  B  B10  1  0.249221  0.153997  0.132406  1
  B  B11  1  0.846271  0.755178  0.365715  1
  B  B12  1  0.752328  0.846215  0.865563  1
  B  B13  1  0.153913  0.245289  0.633157  1
  B  B14  1  0.582671  0.160701  0.483602  1
  B  B15  1  0.838866  0.414270  0.019554  1
  B  B16  1  0.413840  0.840239  0.521085  1
  B  B17  1  0.159438  0.582328  0.981608  1
  B  B18  1  0.443447  0.349487  0.535453  1
  B  B19  1  0.650423  0.554579  0.965467  1
  B  B20  1  0.555676  0.649912  0.465950  1
  B  B21  1  0.349972  0.442239  0.033864  1
