# generated using pymatgen
data_ZnIr3F12
_symmetry_space_group_name_H-M   'P 1'
_cell_length_a   7.35221376
_cell_length_b   7.35221314
_cell_length_c   7.48402500
_cell_angle_alpha   60.58091879
_cell_angle_beta   60.58092150
_cell_angle_gamma   59.99999517
_symmetry_Int_Tables_number   1
_chemical_formula_structural   ZnIr3F12
_chemical_formula_sum   'Zn1 Ir3 F12'
_cell_volume   288.54563334
_cell_formula_units_Z   1
loop_
 _symmetry_equiv_pos_site_id
 _symmetry_equiv_pos_as_xyz
  1  'x, y, z'
loop_
 _atom_site_type_symbol
 _atom_site_label
 _atom_site_symmetry_multiplicity
 _atom_site_fract_x
 _atom_site_fract_y
 _atom_site_fract_z
 _atom_site_occupancy
  Zn  Zn0  1  0.625000  0.625000  0.125000  1
  Ir  Ir1  1  0.625000  0.125000  0.625000  1
  Ir  Ir2  1  0.625000  0.625000  0.625000  1
  Ir  Ir3  1  0.125000  0.625000  0.625000  1
  F  F4  1  0.696423  0.297710  0.309445  1
  F  F5  1  0.696423  0.696423  0.309445  1
  F  F6  1  0.297710  0.696423  0.309445  1
  F  F7  1  0.548995  0.952902  0.545202  1
  F  F8  1  0.952902  0.952902  0.545202  1
  F  F9  1  0.952902  0.548995  0.545202  1
  F  F10  1  0.701005  0.297098  0.704798  1
  F  F11  1  0.553577  0.952290  0.940555  1
  F  F12  1  0.952290  0.553577  0.940555  1
  F  F13  1  0.297098  0.701005  0.704798  1
  F  F14  1  0.553577  0.553577  0.940555  1
  F  F15  1  0.297098  0.297098  0.704798  1
