# generated using pymatgen
data_NdDy9(Sn3O)2
_symmetry_space_group_name_H-M   'P 1'
_cell_length_a   9.05761114
_cell_length_b   9.05762748
_cell_length_c   9.05763917
_cell_angle_alpha   125.90440193
_cell_angle_beta   125.90420465
_cell_angle_gamma   80.04537456
_symmetry_Int_Tables_number   1
_chemical_formula_structural   NdDy9(Sn3O)2
_chemical_formula_sum   'Nd1 Dy9 Sn6 O2'
_cell_volume   470.68290245
_cell_formula_units_Z   1
loop_
 _symmetry_equiv_pos_site_id
 _symmetry_equiv_pos_as_xyz
  1  'x, y, z'
loop_
 _atom_site_type_symbol
 _atom_site_label
 _atom_site_symmetry_multiplicity
 _atom_site_fract_x
 _atom_site_fract_y
 _atom_site_fract_z
 _atom_site_occupancy
  Nd  Nd0  1  0.502601  0.502607  0.999998  1
  Dy  Dy1  1  0.499677  0.301637  0.498309  1
  Dy  Dy2  1  0.803328  0.001368  0.501691  1
  Dy  Dy3  1  0.001369  0.499677  0.198040  1
  Dy  Dy4  1  0.301637  0.803328  0.801959  1
  Dy  Dy5  1  0.502387  0.700491  0.501590  1
  Dy  Dy6  1  0.198902  0.000798  0.498411  1
  Dy  Dy7  1  0.000798  0.502387  0.801897  1
  Dy  Dy8  1  0.700491  0.198901  0.198104  1
  Dy  Dy9  1  0.002428  0.002428  0.000000  1
  Sn  Sn10  1  0.141629  0.356225  0.495929  1
  Sn  Sn11  1  0.860297  0.645700  0.504072  1
  Sn  Sn12  1  0.645705  0.141630  0.785410  1
  Sn  Sn13  1  0.356221  0.860294  0.214591  1
  Sn  Sn14  1  0.753357  0.753357  0.000000  1
  Sn  Sn15  1  0.250091  0.250091  0.000000  1
  O  O16  1  0.750962  0.250961  0.500001  1
  O  O17  1  0.250962  0.750962  0.500000  1
