# generated using pymatgen
data_Hf2Rh6C
_symmetry_space_group_name_H-M   'P 1'
_cell_length_a   5.68700450
_cell_length_b   5.68700308
_cell_length_c   5.68759800
_cell_angle_alpha   59.99653947
_cell_angle_beta   59.99654770
_cell_angle_gamma   60.00691030
_symmetry_Int_Tables_number   1
_chemical_formula_structural   Hf2Rh6C
_chemical_formula_sum   'Hf2 Rh6 C1'
_cell_volume   130.07112984
_cell_formula_units_Z   1
loop_
 _symmetry_equiv_pos_site_id
 _symmetry_equiv_pos_as_xyz
  1  'x, y, z'
loop_
 _atom_site_type_symbol
 _atom_site_label
 _atom_site_symmetry_multiplicity
 _atom_site_fract_x
 _atom_site_fract_y
 _atom_site_fract_z
 _atom_site_occupancy
  Hf  Hf0  1  0.250000  0.250000  0.250000  1
  Hf  Hf1  1  0.750000  0.750000  0.750000  1
  Rh  Rh2  1  0.746109  0.253892  0.253892  1
  Rh  Rh3  1  0.253892  0.746109  0.253892  1
  Rh  Rh4  1  0.746091  0.746091  0.253910  1
  Rh  Rh5  1  0.253909  0.253909  0.746092  1
  Rh  Rh6  1  0.746108  0.253893  0.746108  1
  Rh  Rh7  1  0.253893  0.746108  0.746108  1
  C  C8  1  0.000000  0.000000  0.000000  1
