# generated using pymatgen
data_DyHo5(Sc2Pb3)2
_symmetry_space_group_name_H-M   'P 1'
_cell_length_a   8.88110000
_cell_length_b   8.88411462
_cell_length_c   6.35803100
_cell_angle_alpha   90.00000000
_cell_angle_beta   90.00000000
_cell_angle_gamma   119.98877579
_symmetry_Int_Tables_number   1
_chemical_formula_structural   DyHo5(Sc2Pb3)2
_chemical_formula_sum   'Dy1 Ho5 Sc4 Pb6'
_cell_volume   434.49351093
_cell_formula_units_Z   1
loop_
 _symmetry_equiv_pos_site_id
 _symmetry_equiv_pos_as_xyz
  1  'x, y, z'
loop_
 _atom_site_type_symbol
 _atom_site_label
 _atom_site_symmetry_multiplicity
 _atom_site_fract_x
 _atom_site_fract_y
 _atom_site_fract_z
 _atom_site_occupancy
  Dy  Dy0  1  0.238484  0.000000  0.250000  1
  Ho  Ho1  1  0.238510  0.238559  0.750000  1
  Ho  Ho2  1  0.999951  0.761441  0.750000  1
  Ho  Ho3  1  0.999945  0.238518  0.250000  1
  Ho  Ho4  1  0.761427  0.761482  0.250000  1
  Ho  Ho5  1  0.761553  0.000000  0.750000  1
  Sc  Sc6  1  0.333345  0.666658  0.999985  1
  Sc  Sc7  1  0.666687  0.333342  0.500015  1
  Sc  Sc8  1  0.666687  0.333342  0.999985  1
  Sc  Sc9  1  0.333345  0.666658  0.500015  1
  Pb  Pb10  1  0.601714  0.000000  0.250000  1
  Pb  Pb11  1  0.601584  0.601584  0.750000  1
  Pb  Pb12  1  0.000000  0.398416  0.750000  1
  Pb  Pb13  1  0.999874  0.601388  0.250000  1
  Pb  Pb14  1  0.398486  0.398612  0.250000  1
  Pb  Pb15  1  0.398410  0.000000  0.750000  1
