# generated using pymatgen
data_Hf17ScTi2(Re3P)2
_symmetry_space_group_name_H-M   'P 1'
_cell_length_a   8.61126018
_cell_length_b   8.61126078
_cell_length_c   8.54176300
_cell_angle_alpha   90.00000000
_cell_angle_beta   90.00000000
_cell_angle_gamma   119.97637895
_symmetry_Int_Tables_number   1
_chemical_formula_structural   Hf17ScTi2(Re3P)2
_chemical_formula_sum   'Hf17 Sc1 Ti2 Re6 P2'
_cell_volume   548.67468643
_cell_formula_units_Z   1
loop_
 _symmetry_equiv_pos_site_id
 _symmetry_equiv_pos_as_xyz
  1  'x, y, z'
loop_
 _atom_site_type_symbol
 _atom_site_label
 _atom_site_symmetry_multiplicity
 _atom_site_fract_x
 _atom_site_fract_y
 _atom_site_fract_z
 _atom_site_occupancy
  Hf  Hf0  1  0.196107  0.803893  0.449919  1
  Hf  Hf1  1  0.196226  0.392207  0.449856  1
  Hf  Hf2  1  0.607793  0.803774  0.449856  1
  Hf  Hf3  1  0.803570  0.196430  0.549850  1
  Hf  Hf4  1  0.803698  0.607738  0.549994  1
  Hf  Hf5  1  0.392262  0.196302  0.549994  1
  Hf  Hf6  1  0.803570  0.196430  0.950150  1
  Hf  Hf7  1  0.803698  0.607738  0.950006  1
  Hf  Hf8  1  0.392262  0.196302  0.950006  1
  Hf  Hf9  1  0.196107  0.803893  0.050081  1
  Hf  Hf10  1  0.196226  0.392207  0.050144  1
  Hf  Hf11  1  0.607793  0.803774  0.050144  1
  Hf  Hf12  1  0.540516  0.081102  0.250000  1
  Hf  Hf13  1  0.918898  0.459484  0.250000  1
  Hf  Hf14  1  0.459112  0.540888  0.750000  1
  Hf  Hf15  1  0.459246  0.918481  0.750000  1
  Hf  Hf16  1  0.081519  0.540754  0.750000  1
  Sc  Sc17  1  0.541255  0.458745  0.250000  1
  Ti  Ti18  1  0.000119  0.999881  0.498901  1
  Ti  Ti19  1  0.000119  0.999881  0.001099  1
  Re  Re20  1  0.888219  0.111781  0.250000  1
  Re  Re21  1  0.889423  0.776869  0.250000  1
  Re  Re22  1  0.223131  0.110577  0.250000  1
  Re  Re23  1  0.111607  0.888393  0.750000  1
  Re  Re24  1  0.111352  0.223146  0.750000  1
  Re  Re25  1  0.776854  0.888648  0.750000  1
  P  P26  1  0.332648  0.667352  0.250000  1
  P  P27  1  0.666669  0.333331  0.750000  1
