# generated using pymatgen
data_NdZn10Au
_symmetry_space_group_name_H-M   'P 1'
_cell_length_a   8.29142739
_cell_length_b   8.34083959
_cell_length_c   8.34078438
_cell_angle_alpha   100.15758984
_cell_angle_beta   99.87304650
_cell_angle_gamma   130.62813754
_symmetry_Int_Tables_number   1
_chemical_formula_structural   NdZn10Au
_chemical_formula_sum   'Nd2 Zn20 Au2'
_cell_volume   398.02163338
_cell_formula_units_Z   2
loop_
 _symmetry_equiv_pos_site_id
 _symmetry_equiv_pos_as_xyz
  1  'x, y, z'
loop_
 _atom_site_type_symbol
 _atom_site_label
 _atom_site_symmetry_multiplicity
 _atom_site_fract_x
 _atom_site_fract_y
 _atom_site_fract_z
 _atom_site_occupancy
  Nd  Nd0  1  0.253889  0.753889  0.507777  1
  Nd  Nd1  1  0.996111  0.996111  0.992223  1
  Zn  Zn2  1  0.419428  0.090644  0.909962  1
  Zn  Zn3  1  0.176273  0.504220  0.082015  1
  Zn  Zn4  1  0.499276  0.499276  0.998553  1
  Zn  Zn5  1  0.750724  0.250724  0.501447  1
  Zn  Zn6  1  0.625000  0.375000  0.750000  1
  Zn  Zn7  1  0.125000  0.375000  0.750000  1
  Zn  Zn8  1  0.181068  0.098165  0.672160  1
  Zn  Zn9  1  0.759465  0.930682  0.590038  1
  Zn  Zn10  1  0.344258  0.172206  0.417985  1
  Zn  Zn11  1  0.415055  0.504288  0.329108  1
  Zn  Zn12  1  0.914055  0.824822  0.329108  1
  Zn  Zn13  1  0.491091  0.573994  0.672160  1
  Zn  Zn14  1  0.073727  0.245780  0.417985  1
  Zn  Zn15  1  0.830572  0.659356  0.590038  1
  Zn  Zn16  1  0.068932  0.651835  0.827840  1
  Zn  Zn17  1  0.490535  0.819318  0.909962  1
  Zn  Zn18  1  0.905742  0.577794  0.082015  1
  Zn  Zn19  1  0.834945  0.245712  0.170892  1
  Zn  Zn20  1  0.335945  0.925178  0.170892  1
  Zn  Zn21  1  0.758909  0.176006  0.827840  1
  Au  Au22  1  0.625000  0.375000  0.250000  1
  Au  Au23  1  0.625000  0.875000  0.250000  1
