# generated using pymatgen
data_Ta4Cu3TcPt8
_symmetry_space_group_name_H-M   'P 1'
_cell_length_a   4.54752100
_cell_length_b   4.88251700
_cell_length_c   11.04510200
_cell_angle_alpha   90.00000000
_cell_angle_beta   90.00000000
_cell_angle_gamma   90.00000000
_symmetry_Int_Tables_number   1
_chemical_formula_structural   Ta4Cu3TcPt8
_chemical_formula_sum   'Ta4 Cu3 Tc1 Pt8'
_cell_volume   245.23824992
_cell_formula_units_Z   1
loop_
 _symmetry_equiv_pos_site_id
 _symmetry_equiv_pos_as_xyz
  1  'x, y, z'
loop_
 _atom_site_type_symbol
 _atom_site_label
 _atom_site_symmetry_multiplicity
 _atom_site_fract_x
 _atom_site_fract_y
 _atom_site_fract_z
 _atom_site_occupancy
  Ta  Ta0  1  0.500000  0.659644  0.253019  1
  Ta  Ta1  1  0.500000  0.659644  0.746981  1
  Ta  Ta2  1  0.000000  0.341321  0.000000  1
  Ta  Ta3  1  0.000000  0.339692  0.500000  1
  Cu  Cu4  1  0.000000  0.325058  0.248661  1
  Cu  Cu5  1  0.000000  0.325058  0.751339  1
  Cu  Cu6  1  0.500000  0.672891  0.000000  1
  Tc  Tc7  1  0.500000  0.676466  0.500000  1
  Pt  Pt8  1  0.500000  0.174739  0.372577  1
  Pt  Pt9  1  0.500000  0.180707  0.876986  1
  Pt  Pt10  1  0.500000  0.180707  0.123014  1
  Pt  Pt11  1  0.500000  0.174739  0.627423  1
  Pt  Pt12  1  0.000000  0.827536  0.375224  1
  Pt  Pt13  1  0.000000  0.817131  0.874857  1
  Pt  Pt14  1  0.000000  0.817131  0.125143  1
  Pt  Pt15  1  0.000000  0.827536  0.624776  1
