# generated using pymatgen
data_SmHo2Th(ReB6)2
_symmetry_space_group_name_H-M   'P 1'
_cell_length_a   3.73873500
_cell_length_b   9.23767196
_cell_length_c   11.66637355
_cell_angle_alpha   89.86971693
_cell_angle_beta   90.00000000
_cell_angle_gamma   90.00000000
_symmetry_Int_Tables_number   1
_chemical_formula_structural   SmHo2Th(ReB6)2
_chemical_formula_sum   'Sm2 Ho4 Th2 Re4 B24'
_cell_volume   402.92292224
_cell_formula_units_Z   2
loop_
 _symmetry_equiv_pos_site_id
 _symmetry_equiv_pos_as_xyz
  1  'x, y, z'
loop_
 _atom_site_type_symbol
 _atom_site_label
 _atom_site_symmetry_multiplicity
 _atom_site_fract_x
 _atom_site_fract_y
 _atom_site_fract_z
 _atom_site_occupancy
  Sm  Sm0  1  0.000000  0.324053  0.414514  1
  Sm  Sm1  1  0.000000  0.675947  0.585486  1
  Ho  Ho2  1  0.000000  0.943240  0.371564  1
  Ho  Ho3  1  0.000000  0.056760  0.628436  1
  Ho  Ho4  1  0.000000  0.443539  0.129950  1
  Ho  Ho5  1  0.000000  0.556461  0.870050  1
  Th  Th6  1  0.000000  0.821710  0.086248  1
  Th  Th7  1  0.000000  0.178290  0.913752  1
  Re  Re8  1  0.000000  0.639875  0.319575  1
  Re  Re9  1  0.000000  0.360125  0.680425  1
  Re  Re10  1  0.000000  0.138454  0.179577  1
  Re  Re11  1  0.000000  0.861546  0.820423  1
  B  B12  1  0.500000  0.554522  0.431793  1
  B  B13  1  0.500000  0.445478  0.568207  1
  B  B14  1  0.500000  0.055738  0.070379  1
  B  B15  1  0.500000  0.944262  0.929621  1
  B  B16  1  0.500000  0.749094  0.417715  1
  B  B17  1  0.500000  0.250906  0.582285  1
  B  B18  1  0.500000  0.249961  0.084440  1
  B  B19  1  0.500000  0.750039  0.915560  1
  B  B20  1  0.500000  0.790784  0.267184  1
  B  B21  1  0.500000  0.209216  0.732816  1
  B  B22  1  0.500000  0.291591  0.234484  1
  B  B23  1  0.500000  0.708409  0.765516  1
  B  B24  1  0.500000  0.630124  0.187092  1
  B  B25  1  0.500000  0.369876  0.812908  1
  B  B26  1  0.500000  0.130723  0.314698  1
  B  B27  1  0.500000  0.869277  0.685302  1
  B  B28  1  0.500000  0.985150  0.214408  1
  B  B29  1  0.500000  0.014850  0.785592  1
  B  B30  1  0.500000  0.484084  0.287645  1
  B  B31  1  0.500000  0.515916  0.712355  1
  B  B32  1  0.500000  0.600419  0.027796  1
  B  B33  1  0.500000  0.399581  0.972204  1
  B  B34  1  0.500000  0.099690  0.472396  1
  B  B35  1  0.500000  0.900310  0.527604  1
