# generated using pymatgen
data_SnRh2S5
_symmetry_space_group_name_H-M   'P 1'
_cell_length_a   3.60623900
_cell_length_b   7.34331811
_cell_length_c   12.46190602
_cell_angle_alpha   77.58289721
_cell_angle_beta   90.00000000
_cell_angle_gamma   90.00000000
_symmetry_Int_Tables_number   1
_chemical_formula_structural   SnRh2S5
_chemical_formula_sum   'Sn2 Rh4 S10'
_cell_volume   322.29358247
_cell_formula_units_Z   2
loop_
 _symmetry_equiv_pos_site_id
 _symmetry_equiv_pos_as_xyz
  1  'x, y, z'
loop_
 _atom_site_type_symbol
 _atom_site_label
 _atom_site_symmetry_multiplicity
 _atom_site_fract_x
 _atom_site_fract_y
 _atom_site_fract_z
 _atom_site_occupancy
  Sn  Sn0  1  0.500000  0.163021  0.663525  1
  Sn  Sn1  1  0.500000  0.836979  0.336475  1
  Rh  Rh2  1  0.000000  0.261260  0.146718  1
  Rh  Rh3  1  0.000000  0.738740  0.853282  1
  Rh  Rh4  1  0.500000  0.750011  0.141241  1
  Rh  Rh5  1  0.500000  0.249989  0.858759  1
  S  S6  1  0.000000  0.960261  0.094907  1
  S  S7  1  0.000000  0.039739  0.905093  1
  S  S8  1  0.000000  0.458128  0.785451  1
  S  S9  1  0.000000  0.541872  0.214549  1
  S  S10  1  0.500000  0.651505  0.974242  1
  S  S11  1  0.500000  0.348495  0.025758  1
  S  S12  1  0.500000  0.189281  0.276998  1
  S  S13  1  0.500000  0.810719  0.723002  1
  S  S14  1  0.000000  0.241994  0.533525  1
  S  S15  1  0.000000  0.758006  0.466475  1
