# generated using pymatgen
data_Ho8Er2Ga3CoBi2
_symmetry_space_group_name_H-M   'P 1'
_cell_length_a   8.55762770
_cell_length_b   8.72965445
_cell_length_c   8.01894264
_cell_angle_alpha   61.27966794
_cell_angle_beta   63.45772592
_cell_angle_gamma   55.26257615
_symmetry_Int_Tables_number   1
_chemical_formula_structural   Ho8Er2Ga3CoBi2
_chemical_formula_sum   'Ho8 Er2 Ga3 Co1 Bi2'
_cell_volume   419.09441647
_cell_formula_units_Z   1
loop_
 _symmetry_equiv_pos_site_id
 _symmetry_equiv_pos_as_xyz
  1  'x, y, z'
loop_
 _atom_site_type_symbol
 _atom_site_label
 _atom_site_symmetry_multiplicity
 _atom_site_fract_x
 _atom_site_fract_y
 _atom_site_fract_z
 _atom_site_occupancy
  Ho  Ho0  1  0.793775  0.483007  0.516993  1
  Ho  Ho1  1  0.452156  0.808325  0.191675  1
  Ho  Ho2  1  0.296859  0.981022  0.723666  1
  Ho  Ho3  1  0.001548  0.276334  0.018978  1
  Ho  Ho4  1  0.191675  0.547844  0.452156  1
  Ho  Ho5  1  0.516993  0.206225  0.793775  1
  Ho  Ho6  1  0.723666  0.998452  0.296859  1
  Ho  Ho7  1  0.018978  0.703141  0.001548  1
  Er  Er8  1  0.502903  0.497097  0.998428  1
  Er  Er9  1  0.998428  0.001572  0.502903  1
  Ga  Ga10  1  0.867067  0.132933  0.867067  1
  Ga  Ga11  1  0.643106  0.356894  0.356041  1
  Ga  Ga12  1  0.356041  0.643959  0.643106  1
  Co  Co13  1  0.122560  0.877440  0.122560  1
  Bi  Bi14  1  0.757121  0.742879  0.757121  1
  Bi  Bi15  1  0.257121  0.242879  0.257121  1
