# generated using pymatgen
data_La8Ho11Si16Au
_symmetry_space_group_name_H-M   'P 1'
_cell_length_a   7.48491721
_cell_length_b   7.84221162
_cell_length_c   14.90428600
_cell_angle_alpha   90.00000000
_cell_angle_beta   90.00000000
_cell_angle_gamma   90.18894322
_symmetry_Int_Tables_number   1
_chemical_formula_structural   La8Ho11Si16Au
_chemical_formula_sum   'La8 Ho11 Si16 Au1'
_cell_volume   874.85156470
_cell_formula_units_Z   1
loop_
 _symmetry_equiv_pos_site_id
 _symmetry_equiv_pos_as_xyz
  1  'x, y, z'
loop_
 _atom_site_type_symbol
 _atom_site_label
 _atom_site_symmetry_multiplicity
 _atom_site_fract_x
 _atom_site_fract_y
 _atom_site_fract_z
 _atom_site_occupancy
  La  La0  1  0.965311  0.824781  0.103708  1
  La  La1  1  0.482196  0.690912  0.396621  1
  La  La2  1  0.521026  0.324856  0.902370  1
  La  La3  1  0.022143  0.178365  0.598052  1
  La  La4  1  0.022143  0.178365  0.901948  1
  La  La5  1  0.521026  0.324856  0.597630  1
  La  La6  1  0.482196  0.690912  0.103379  1
  La  La7  1  0.965311  0.824781  0.396292  1
  Ho  Ho8  1  0.146597  0.503068  0.250000  1
  Ho  Ho9  1  0.849771  0.491646  0.750000  1
  Ho  Ho10  1  0.347566  0.008910  0.750000  1
  Ho  Ho11  1  0.682279  0.820433  0.875110  1
  Ho  Ho12  1  0.181352  0.675578  0.622398  1
  Ho  Ho13  1  0.814611  0.309868  0.126664  1
  Ho  Ho14  1  0.333799  0.171221  0.372929  1
  Ho  Ho15  1  0.333799  0.171221  0.127071  1
  Ho  Ho16  1  0.814611  0.309868  0.373336  1
  Ho  Ho17  1  0.181352  0.675578  0.877602  1
  Ho  Ho18  1  0.682279  0.820433  0.624890  1
  Si  Si19  1  0.773439  0.602316  0.250000  1
  Si  Si20  1  0.258367  0.879625  0.250000  1
  Si  Si21  1  0.725573  0.121757  0.750000  1
  Si  Si22  1  0.226781  0.379954  0.750000  1
  Si  Si23  1  0.035381  0.113387  0.250000  1
  Si  Si24  1  0.519321  0.407879  0.250000  1
  Si  Si25  1  0.476257  0.615629  0.750000  1
  Si  Si26  1  0.977364  0.880485  0.750000  1
  Si  Si27  1  0.856813  0.530713  0.964447  1
  Si  Si28  1  0.356822  0.968919  0.539717  1
  Si  Si29  1  0.646559  0.037678  0.029803  1
  Si  Si30  1  0.145381  0.470092  0.457051  1
  Si  Si31  1  0.145381  0.470092  0.042949  1
  Si  Si32  1  0.646559  0.037678  0.470197  1
  Si  Si33  1  0.356822  0.968919  0.960283  1
  Si  Si34  1  0.856813  0.530713  0.535553  1
  Au  Au35  1  0.646996  0.988510  0.250000  1
