# generated using pymatgen
data_Yb4BeFeRu6
_symmetry_space_group_name_H-M   'P 1'
_cell_length_a   5.13885501
_cell_length_b   5.16482666
_cell_length_c   8.71216800
_cell_angle_alpha   90.00000000
_cell_angle_beta   90.00000000
_cell_angle_gamma   119.84797300
_symmetry_Int_Tables_number   1
_chemical_formula_structural   Yb4BeFeRu6
_chemical_formula_sum   'Yb4 Be1 Fe1 Ru6'
_cell_volume   200.55904730
_cell_formula_units_Z   1
loop_
 _symmetry_equiv_pos_site_id
 _symmetry_equiv_pos_as_xyz
  1  'x, y, z'
loop_
 _atom_site_type_symbol
 _atom_site_label
 _atom_site_symmetry_multiplicity
 _atom_site_fract_x
 _atom_site_fract_y
 _atom_site_fract_z
 _atom_site_occupancy
  Yb  Yb0  1  0.666948  0.333894  0.563481  1
  Yb  Yb1  1  0.331443  0.662868  0.436548  1
  Yb  Yb2  1  0.331443  0.662868  0.063452  1
  Yb  Yb3  1  0.666948  0.333894  0.936519  1
  Be  Be4  1  0.165450  0.330897  0.750000  1
  Fe  Fe5  1  0.839419  0.678837  0.250000  1
  Ru  Ru6  1  0.994260  0.988520  0.503784  1
  Ru  Ru7  1  0.994260  0.988520  0.996216  1
  Ru  Ru8  1  0.181672  0.836533  0.750000  1
  Ru  Ru9  1  0.654868  0.836565  0.750000  1
  Ru  Ru10  1  0.826626  0.173307  0.250000  1
  Ru  Ru11  1  0.346662  0.173301  0.250000  1
