# generated using pymatgen
data_Ba6Lu(TcO6)2
_symmetry_space_group_name_H-M   'P 1'
_cell_length_a   9.16215574
_cell_length_b   9.16215448
_cell_length_c   7.43288692
_cell_angle_alpha   68.28335615
_cell_angle_beta   68.28336151
_cell_angle_gamma   36.94602877
_symmetry_Int_Tables_number   1
_chemical_formula_structural   Ba6Lu(TcO6)2
_chemical_formula_sum   'Ba6 Lu1 Tc2 O12'
_cell_volume   345.31950275
_cell_formula_units_Z   1
loop_
 _symmetry_equiv_pos_site_id
 _symmetry_equiv_pos_as_xyz
  1  'x, y, z'
loop_
 _atom_site_type_symbol
 _atom_site_label
 _atom_site_symmetry_multiplicity
 _atom_site_fract_x
 _atom_site_fract_y
 _atom_site_fract_z
 _atom_site_occupancy
  Ba  Ba0  1  0.883153  0.883153  0.707380  1
  Ba  Ba1  1  0.214316  0.214316  0.705846  1
  Ba  Ba2  1  0.548256  0.548256  0.710390  1
  Ba  Ba3  1  0.451744  0.451744  0.289610  1
  Ba  Ba4  1  0.785684  0.785684  0.294154  1
  Ba  Ba5  1  0.116847  0.116847  0.292620  1
  Lu  Lu6  1  0.000000  0.000000  0.000000  1
  Tc  Tc7  1  0.672193  0.672193  0.000256  1
  Tc  Tc8  1  0.327807  0.327807  0.999744  1
  O  O9  1  0.944601  0.944601  0.324464  1
  O  O10  1  0.281249  0.281249  0.303507  1
  O  O11  1  0.618289  0.618289  0.301588  1
  O  O12  1  0.381711  0.381711  0.698412  1
  O  O13  1  0.718751  0.718751  0.696493  1
  O  O14  1  0.055399  0.055399  0.675536  1
  O  O15  1  0.500000  0.000000  0.000000  1
  O  O16  1  0.826168  0.352848  0.999236  1
  O  O17  1  0.173832  0.647152  0.000764  1
  O  O18  1  0.000000  0.500000  0.000000  1
  O  O19  1  0.352848  0.826168  0.999236  1
  O  O20  1  0.647152  0.173832  0.000764  1
