# generated using pymatgen
data_Sm8Sc12Tl15Sn
_symmetry_space_group_name_H-M   'P 1'
_cell_length_a   7.75342483
_cell_length_b   8.04950845
_cell_length_c   15.26843700
_cell_angle_alpha   89.99306714
_cell_angle_beta   89.66210226
_cell_angle_gamma   90.05978423
_symmetry_Int_Tables_number   1
_chemical_formula_structural   Sm8Sc12Tl15Sn
_chemical_formula_sum   'Sm8 Sc12 Tl15 Sn1'
_cell_volume   952.90527347
_cell_formula_units_Z   1
loop_
 _symmetry_equiv_pos_site_id
 _symmetry_equiv_pos_as_xyz
  1  'x, y, z'
loop_
 _atom_site_type_symbol
 _atom_site_label
 _atom_site_symmetry_multiplicity
 _atom_site_fract_x
 _atom_site_fract_y
 _atom_site_fract_z
 _atom_site_occupancy
  Sm  Sm0  1  0.002063  0.181833  0.093721  1
  Sm  Sm1  1  0.997717  0.818528  0.906429  1
  Sm  Sm2  1  0.498491  0.680630  0.906548  1
  Sm  Sm3  1  0.999201  0.819538  0.594417  1
  Sm  Sm4  1  0.501503  0.318589  0.093922  1
  Sm  Sm5  1  0.001193  0.180111  0.405586  1
  Sm  Sm6  1  0.500471  0.318852  0.406458  1
  Sm  Sm7  1  0.497509  0.680560  0.594403  1
  Sc  Sc8  1  0.165250  0.497232  0.748994  1
  Sc  Sc9  1  0.836406  0.502766  0.249055  1
  Sc  Sc10  1  0.335525  0.998012  0.249936  1
  Sc  Sc11  1  0.664754  0.003255  0.750508  1
  Sc  Sc12  1  0.333070  0.162185  0.625048  1
  Sc  Sc13  1  0.666467  0.838557  0.374549  1
  Sc  Sc14  1  0.169322  0.663725  0.374509  1
  Sc  Sc15  1  0.667653  0.838286  0.124720  1
  Sc  Sc16  1  0.831552  0.337041  0.625875  1
  Sc  Sc17  1  0.330740  0.161420  0.874885  1
  Sc  Sc18  1  0.832242  0.338229  0.874901  1
  Sc  Sc19  1  0.169733  0.660553  0.125124  1
  Tl  Tl20  1  0.025540  0.126945  0.749988  1
  Tl  Tl21  1  0.974651  0.872501  0.248838  1
  Tl  Tl22  1  0.475777  0.626415  0.250213  1
  Tl  Tl23  1  0.525280  0.373069  0.750782  1
  Tl  Tl24  1  0.298645  0.859250  0.750601  1
  Tl  Tl25  1  0.701287  0.140131  0.249751  1
  Tl  Tl26  1  0.201154  0.359968  0.250439  1
  Tl  Tl27  1  0.799084  0.640540  0.750052  1
  Tl  Tl28  1  0.823047  0.542296  0.457419  1
  Tl  Tl29  1  0.323066  0.958794  0.458389  1
  Tl  Tl30  1  0.822755  0.541174  0.042306  1
  Tl  Tl31  1  0.677893  0.041956  0.541947  1
  Tl  Tl32  1  0.177468  0.458611  0.957508  1
  Tl  Tl33  1  0.676661  0.042445  0.957578  1
  Tl  Tl34  1  0.322954  0.957769  0.042437  1
  Sn  Sn35  1  0.173876  0.458232  0.542165  1
