# generated using pymatgen
data_Y7LuRe3B24Ru
_symmetry_space_group_name_H-M   'P 1'
_cell_length_a   3.66905000
_cell_length_b   9.16277178
_cell_length_c   11.55202901
_cell_angle_alpha   90.11255730
_cell_angle_beta   90.00000000
_cell_angle_gamma   90.00000000
_symmetry_Int_Tables_number   1
_chemical_formula_structural   Y7LuRe3B24Ru
_chemical_formula_sum   'Y7 Lu1 Re3 B24 Ru1'
_cell_volume   388.36307656
_cell_formula_units_Z   1
loop_
 _symmetry_equiv_pos_site_id
 _symmetry_equiv_pos_as_xyz
  1  'x, y, z'
loop_
 _atom_site_type_symbol
 _atom_site_label
 _atom_site_symmetry_multiplicity
 _atom_site_fract_x
 _atom_site_fract_y
 _atom_site_fract_z
 _atom_site_occupancy
  Y  Y0  1  0.000000  0.321968  0.414412  1
  Y  Y1  1  0.000000  0.677215  0.587952  1
  Y  Y2  1  0.000000  0.824043  0.083837  1
  Y  Y3  1  0.000000  0.177249  0.913737  1
  Y  Y4  1  0.000000  0.941714  0.369847  1
  Y  Y5  1  0.000000  0.056574  0.629676  1
  Y  Y6  1  0.000000  0.443323  0.129393  1
  Lu  Lu7  1  0.000000  0.557411  0.870313  1
  Re  Re8  1  0.000000  0.363532  0.679561  1
  Re  Re9  1  0.000000  0.138180  0.179140  1
  Re  Re10  1  0.000000  0.860249  0.821085  1
  B  B11  1  0.500000  0.553783  0.432570  1
  B  B12  1  0.500000  0.447601  0.567554  1
  B  B13  1  0.500000  0.052979  0.066618  1
  B  B14  1  0.500000  0.946015  0.932703  1
  B  B15  1  0.500000  0.747786  0.418188  1
  B  B16  1  0.500000  0.251718  0.581911  1
  B  B17  1  0.500000  0.249222  0.081265  1
  B  B18  1  0.500000  0.749557  0.918384  1
  B  B19  1  0.500000  0.790254  0.265147  1
  B  B20  1  0.500000  0.209266  0.734943  1
  B  B21  1  0.500000  0.291511  0.234830  1
  B  B22  1  0.500000  0.706875  0.766319  1
  B  B23  1  0.500000  0.631169  0.185553  1
  B  B24  1  0.500000  0.371388  0.814766  1
  B  B25  1  0.500000  0.131017  0.314612  1
  B  B26  1  0.500000  0.868169  0.686159  1
  B  B27  1  0.500000  0.982373  0.211525  1
  B  B28  1  0.500000  0.017132  0.788173  1
  B  B29  1  0.500000  0.483427  0.288231  1
  B  B30  1  0.500000  0.519126  0.713092  1
  B  B31  1  0.500000  0.600988  0.026875  1
  B  B32  1  0.500000  0.401294  0.971058  1
  B  B33  1  0.500000  0.101330  0.471517  1
  B  B34  1  0.500000  0.896645  0.528454  1
  Ru  Ru35  1  0.000000  0.637921  0.320600  1
