# generated using pymatgen
data_NaTiF5
_symmetry_space_group_name_H-M   'P 1'
_cell_length_a   3.90285229
_cell_length_b   5.56408568
_cell_length_c   5.67308306
_cell_angle_alpha   73.42395082
_cell_angle_beta   71.18349146
_cell_angle_gamma   69.25442462
_symmetry_Int_Tables_number   1
_chemical_formula_structural   NaTiF5
_chemical_formula_sum   'Na1 Ti1 F5'
_cell_volume   106.99565994
_cell_formula_units_Z   1
loop_
 _symmetry_equiv_pos_site_id
 _symmetry_equiv_pos_as_xyz
  1  'x, y, z'
loop_
 _atom_site_type_symbol
 _atom_site_label
 _atom_site_symmetry_multiplicity
 _atom_site_fract_x
 _atom_site_fract_y
 _atom_site_fract_z
 _atom_site_occupancy
  Na  Na0  1  0.684818  0.493138  0.701759  1
  Ti  Ti1  1  0.179984  0.987352  0.206010  1
  F  F2  1  0.403576  0.749178  0.992024  1
  F  F3  1  0.183124  0.711753  0.488969  1
  F  F4  1  0.174754  0.263932  0.925670  1
  F  F5  1  0.681878  0.983482  0.207079  1
  F  F6  1  0.958639  0.223962  0.422058  1
