# generated using pymatgen
data_Ga2Ni3Pt6W
_symmetry_space_group_name_H-M   'P 1'
_cell_length_a   3.90094700
_cell_length_b   3.90094700
_cell_length_c   11.27490000
_cell_angle_alpha   90.00000000
_cell_angle_beta   90.00000000
_cell_angle_gamma   90.00000000
_symmetry_Int_Tables_number   1
_chemical_formula_structural   Ga2Ni3Pt6W
_chemical_formula_sum   'Ga2 Ni3 Pt6 W1'
_cell_volume   171.57452229
_cell_formula_units_Z   1
loop_
 _symmetry_equiv_pos_site_id
 _symmetry_equiv_pos_as_xyz
  1  'x, y, z'
loop_
 _atom_site_type_symbol
 _atom_site_label
 _atom_site_symmetry_multiplicity
 _atom_site_fract_x
 _atom_site_fract_y
 _atom_site_fract_z
 _atom_site_occupancy
  Ga  Ga0  1  0.000000  0.000000  0.340150  1
  Ga  Ga1  1  0.000000  0.000000  0.659850  1
  Ni  Ni2  1  0.500000  0.500000  0.000000  1
  Ni  Ni3  1  0.500000  0.500000  0.332944  1
  Ni  Ni4  1  0.500000  0.500000  0.667056  1
  Pt  Pt5  1  0.500000  0.000000  0.164520  1
  Pt  Pt6  1  0.500000  0.000000  0.500000  1
  Pt  Pt7  1  0.500000  0.000000  0.835480  1
  Pt  Pt8  1  0.000000  0.500000  0.164520  1
  Pt  Pt9  1  0.000000  0.500000  0.500000  1
  Pt  Pt10  1  0.000000  0.500000  0.835480  1
  W  W11  1  0.000000  0.000000  0.000000  1
