# generated using pymatgen
data_Pr5Ho3Sc12Ga5Si11
_symmetry_space_group_name_H-M   'P 1'
_cell_length_a   7.24557654
_cell_length_b   7.48338752
_cell_length_c   14.37508196
_cell_angle_alpha   90.10237438
_cell_angle_beta   90.13572039
_cell_angle_gamma   90.14344748
_symmetry_Int_Tables_number   1
_chemical_formula_structural   Pr5Ho3Sc12Ga5Si11
_chemical_formula_sum   'Pr5 Ho3 Sc12 Ga5 Si11'
_cell_volume   779.43200721
_cell_formula_units_Z   1
loop_
 _symmetry_equiv_pos_site_id
 _symmetry_equiv_pos_as_xyz
  1  'x, y, z'
loop_
 _atom_site_type_symbol
 _atom_site_label
 _atom_site_symmetry_multiplicity
 _atom_site_fract_x
 _atom_site_fract_y
 _atom_site_fract_z
 _atom_site_occupancy
  Pr  Pr0  1  0.487456  0.673811  0.594943  1
  Pr  Pr1  1  0.987839  0.826206  0.596309  1
  Pr  Pr2  1  0.989360  0.830946  0.900287  1
  Pr  Pr3  1  0.511071  0.326795  0.099297  1
  Pr  Pr4  1  0.011080  0.171715  0.100574  1
  Ho  Ho5  1  0.011520  0.174415  0.398090  1
  Ho  Ho6  1  0.511359  0.325527  0.398374  1
  Ho  Ho7  1  0.491546  0.675064  0.896929  1
  Sc  Sc8  1  0.330405  0.173847  0.625524  1
  Sc  Sc9  1  0.670941  0.824104  0.375000  1
  Sc  Sc10  1  0.664402  0.002122  0.752012  1
  Sc  Sc11  1  0.170454  0.676239  0.374814  1
  Sc  Sc12  1  0.825986  0.325188  0.874315  1
  Sc  Sc13  1  0.829395  0.327372  0.625218  1
  Sc  Sc14  1  0.836161  0.500206  0.254060  1
  Sc  Sc15  1  0.337721  0.997944  0.254595  1
  Sc  Sc16  1  0.334086  0.175403  0.872289  1
  Sc  Sc17  1  0.169326  0.671792  0.130427  1
  Sc  Sc18  1  0.668714  0.826333  0.129240  1
  Sc  Sc19  1  0.163719  0.498314  0.751312  1
  Ga  Ga20  1  0.154998  0.452712  0.535274  1
  Ga  Ga21  1  0.842949  0.543751  0.038863  1
  Ga  Ga22  1  0.344734  0.950289  0.036972  1
  Ga  Ga23  1  0.160935  0.461281  0.959528  1
  Ga  Ga24  1  0.655487  0.047923  0.535418  1
  Si  Si25  1  0.290442  0.878213  0.750040  1
  Si  Si26  1  0.466672  0.619506  0.253729  1
  Si  Si27  1  0.034399  0.125200  0.749100  1
  Si  Si28  1  0.533893  0.381956  0.749849  1
  Si  Si29  1  0.966603  0.880675  0.253388  1
  Si  Si30  1  0.711325  0.123150  0.254644  1
  Si  Si31  1  0.343489  0.970203  0.457456  1
  Si  Si32  1  0.843779  0.530281  0.457234  1
  Si  Si33  1  0.785392  0.621162  0.750411  1
  Si  Si34  1  0.211943  0.376049  0.254718  1
  Si  Si35  1  0.650421  0.034307  0.959768  1
