# generated using pymatgen
data_CeNd7Eu2(Al2Ru3)2
_symmetry_space_group_name_H-M   'P 1'
_cell_length_a   8.62806105
_cell_length_b   8.59585723
_cell_length_c   8.49480166
_cell_angle_alpha   110.57994558
_cell_angle_beta   109.21402510
_cell_angle_gamma   109.45940914
_symmetry_Int_Tables_number   1
_chemical_formula_structural   CeNd7Eu2(Al2Ru3)2
_chemical_formula_sum   'Ce1 Nd7 Eu2 Al4 Ru6'
_cell_volume   479.84111290
_cell_formula_units_Z   1
loop_
 _symmetry_equiv_pos_site_id
 _symmetry_equiv_pos_as_xyz
  1  'x, y, z'
loop_
 _atom_site_type_symbol
 _atom_site_label
 _atom_site_symmetry_multiplicity
 _atom_site_fract_x
 _atom_site_fract_y
 _atom_site_fract_z
 _atom_site_occupancy
  Ce  Ce0  1  0.195162  0.943255  0.249178  1
  Nd  Nd1  1  0.782748  0.788649  0.786290  1
  Nd  Nd2  1  0.314470  0.563009  0.750349  1
  Nd  Nd3  1  0.754336  0.317933  0.566166  1
  Nd  Nd4  1  0.564512  0.749494  0.313129  1
  Nd  Nd5  1  0.718240  0.499084  0.000234  1
  Nd  Nd6  1  0.004463  0.722012  0.505850  1
  Nd  Nd7  1  0.503849  0.998949  0.716278  1
  Eu  Eu8  1  0.250786  0.188906  0.933786  1
  Eu  Eu9  1  0.938242  0.251720  0.190201  1
  Al  Al10  1  0.412180  0.413835  0.406390  1
  Al  Al11  1  0.090819  0.496376  0.008328  1
  Al  Al12  1  0.991989  0.083934  0.489641  1
  Al  Al13  1  0.504689  0.006938  0.093262  1
  Ru  Ru14  1  0.876400  0.127788  0.740724  1
  Ru  Ru15  1  0.734889  0.869370  0.117232  1
  Ru  Ru16  1  0.136539  0.762882  0.922524  1
  Ru  Ru17  1  0.255934  0.623765  0.381462  1
  Ru  Ru18  1  0.345325  0.215075  0.573545  1
  Ru  Ru19  1  0.624427  0.377025  0.255430  1
