# generated using pymatgen
data_LiTmB14
_symmetry_space_group_name_H-M   'P 1'
_cell_length_a   7.23407707
_cell_length_b   7.23407485
_cell_length_c   7.23407635
_cell_angle_alpha   132.13528826
_cell_angle_beta   110.91408401
_cell_angle_gamma   88.40404242
_symmetry_Int_Tables_number   1
_chemical_formula_structural   LiTmB14
_chemical_formula_sum   'Li2 Tm2 B28'
_cell_volume   249.70117489
_cell_formula_units_Z   2
loop_
 _symmetry_equiv_pos_site_id
 _symmetry_equiv_pos_as_xyz
  1  'x, y, z'
loop_
 _atom_site_type_symbol
 _atom_site_label
 _atom_site_symmetry_multiplicity
 _atom_site_fract_x
 _atom_site_fract_y
 _atom_site_fract_z
 _atom_site_occupancy
  Li  Li0  1  0.000000  0.500000  0.000000  1
  Li  Li1  1  0.000000  0.000000  0.500000  1
  Tm  Tm2  1  0.378572  0.750000  0.628572  1
  Tm  Tm3  1  0.621428  0.250000  0.371428  1
  B  B4  1  0.977681  0.350126  0.627556  1
  B  B5  1  0.626617  0.330149  0.796096  1
  B  B6  1  0.806494  0.833870  0.972622  1
  B  B7  1  0.638751  0.666130  0.972622  1
  B  B8  1  0.193506  0.166130  0.027378  1
  B  B9  1  0.779808  0.782065  0.681053  1
  B  B10  1  0.965947  0.669478  0.796096  1
  B  B11  1  0.022319  0.649874  0.372444  1
  B  B12  1  0.965947  0.169851  0.296469  1
  B  B13  1  0.034053  0.830149  0.703531  1
  B  B14  1  0.361249  0.333870  0.027378  1
  B  B15  1  0.084724  0.910885  0.173839  1
  B  B16  1  0.626617  0.830522  0.296469  1
  B  B17  1  0.398987  0.717935  0.997743  1
  B  B18  1  0.237046  0.410885  0.826161  1
  B  B19  1  0.220192  0.217935  0.318947  1
  B  B20  1  0.222569  0.850126  0.372444  1
  B  B21  1  0.915276  0.089115  0.826161  1
  B  B22  1  0.398987  0.401244  0.681053  1
  B  B23  1  0.220192  0.901244  0.002257  1
  B  B24  1  0.779808  0.098756  0.997743  1
  B  B25  1  0.601013  0.282065  0.002257  1
  B  B26  1  0.601013  0.598756  0.318947  1
  B  B27  1  0.034053  0.330522  0.203904  1
  B  B28  1  0.762954  0.589115  0.173839  1
  B  B29  1  0.777431  0.149874  0.627556  1
  B  B30  1  0.373383  0.169478  0.703531  1
  B  B31  1  0.373383  0.669851  0.203904  1
