# generated using pymatgen
data_Zr3Cr(Co4P3)2
_symmetry_space_group_name_H-M   'P 1'
_cell_length_a   3.63523000
_cell_length_b   10.32436300
_cell_length_c   11.95514700
_cell_angle_alpha   90.00000000
_cell_angle_beta   90.00000000
_cell_angle_gamma   90.00000000
_symmetry_Int_Tables_number   1
_chemical_formula_structural   Zr3Cr(Co4P3)2
_chemical_formula_sum   'Zr6 Cr2 Co16 P12'
_cell_volume   448.69381189
_cell_formula_units_Z   2
loop_
 _symmetry_equiv_pos_site_id
 _symmetry_equiv_pos_as_xyz
  1  'x, y, z'
loop_
 _atom_site_type_symbol
 _atom_site_label
 _atom_site_symmetry_multiplicity
 _atom_site_fract_x
 _atom_site_fract_y
 _atom_site_fract_z
 _atom_site_occupancy
  Zr  Zr0  1  0.000000  0.500000  0.527717  1
  Zr  Zr1  1  0.500000  0.000000  0.472283  1
  Zr  Zr2  1  0.500000  0.820965  0.207397  1
  Zr  Zr3  1  0.500000  0.179035  0.207397  1
  Zr  Zr4  1  0.000000  0.679035  0.792603  1
  Zr  Zr5  1  0.000000  0.320965  0.792603  1
  Cr  Cr6  1  0.500000  0.500000  0.160109  1
  Cr  Cr7  1  0.000000  0.000000  0.839891  1
  Co  Co8  1  0.500000  0.500000  0.702568  1
  Co  Co9  1  0.000000  0.000000  0.297432  1
  Co  Co10  1  0.000000  0.500000  0.987562  1
  Co  Co11  1  0.500000  0.000000  0.012438  1
  Co  Co12  1  0.500000  0.332396  0.991475  1
  Co  Co13  1  0.500000  0.667604  0.991475  1
  Co  Co14  1  0.000000  0.167604  0.008525  1
  Co  Co15  1  0.000000  0.832396  0.008525  1
  Co  Co16  1  0.500000  0.299303  0.432496  1
  Co  Co17  1  0.500000  0.700697  0.432496  1
  Co  Co18  1  0.000000  0.200697  0.567504  1
  Co  Co19  1  0.000000  0.799303  0.567504  1
  Co  Co20  1  0.500000  0.876940  0.707238  1
  Co  Co21  1  0.500000  0.123060  0.707238  1
  Co  Co22  1  0.000000  0.623060  0.292762  1
  Co  Co23  1  0.000000  0.376940  0.292762  1
  P  P24  1  0.500000  0.500000  0.878902  1
  P  P25  1  0.000000  0.000000  0.121098  1
  P  P26  1  0.500000  0.500000  0.351172  1
  P  P27  1  0.000000  0.000000  0.648828  1
  P  P28  1  0.500000  0.316410  0.617106  1
  P  P29  1  0.500000  0.683590  0.617106  1
  P  P30  1  0.000000  0.183590  0.382894  1
  P  P31  1  0.000000  0.816410  0.382894  1
  P  P32  1  0.500000  0.845063  0.889015  1
  P  P33  1  0.500000  0.154937  0.889015  1
  P  P34  1  0.000000  0.654937  0.110985  1
  P  P35  1  0.000000  0.345063  0.110985  1
