# generated using pymatgen
data_Tb6Y2CdIn7
_symmetry_space_group_name_H-M   'P 1'
_cell_length_a   6.51190626
_cell_length_b   6.51269569
_cell_length_c   10.78726000
_cell_angle_alpha   90.00000000
_cell_angle_beta   90.00000000
_cell_angle_gamma   110.15368684
_symmetry_Int_Tables_number   1
_chemical_formula_structural   Tb6Y2CdIn7
_chemical_formula_sum   'Tb6 Y2 Cd1 In7'
_cell_volume   429.47720731
_cell_formula_units_Z   1
loop_
 _symmetry_equiv_pos_site_id
 _symmetry_equiv_pos_as_xyz
  1  'x, y, z'
loop_
 _atom_site_type_symbol
 _atom_site_label
 _atom_site_symmetry_multiplicity
 _atom_site_fract_x
 _atom_site_fract_y
 _atom_site_fract_z
 _atom_site_occupancy
  Tb  Tb0  1  0.501300  0.501090  0.250000  1
  Tb  Tb1  1  0.498595  0.498732  0.750000  1
  Tb  Tb2  1  0.251713  0.749726  0.499119  1
  Tb  Tb3  1  0.251713  0.749726  0.000881  1
  Tb  Tb4  1  0.748223  0.250273  0.499141  1
  Tb  Tb5  1  0.748223  0.250273  0.000859  1
  Y  Y6  1  0.997531  0.997258  0.250000  1
  Y  Y7  1  0.002824  0.002942  0.750000  1
  Cd  Cd8  1  0.497870  0.000812  0.250000  1
  In  In9  1  0.249329  0.245922  0.003345  1
  In  In10  1  0.750597  0.754011  0.000949  1
  In  In11  1  0.249329  0.245922  0.496655  1
  In  In12  1  0.750597  0.754011  0.499051  1
  In  In13  1  0.999302  0.502193  0.750000  1
  In  In14  1  0.502105  0.999275  0.750000  1
  In  In15  1  0.000747  0.497833  0.250000  1
