# generated using pymatgen
data_Sr20Si11P
_symmetry_space_group_name_H-M   'P 1'
_cell_length_a   8.09217400
_cell_length_b   8.09217400
_cell_length_c   15.72318500
_cell_angle_alpha   90.00000000
_cell_angle_beta   90.00000000
_cell_angle_gamma   90.00000000
_symmetry_Int_Tables_number   1
_chemical_formula_structural   Sr20Si11P
_chemical_formula_sum   'Sr20 Si11 P1'
_cell_volume   1029.60572657
_cell_formula_units_Z   1
loop_
 _symmetry_equiv_pos_site_id
 _symmetry_equiv_pos_as_xyz
  1  'x, y, z'
loop_
 _atom_site_type_symbol
 _atom_site_label
 _atom_site_symmetry_multiplicity
 _atom_site_fract_x
 _atom_site_fract_y
 _atom_site_fract_z
 _atom_site_occupancy
  Sr  Sr0  1  0.310827  0.669183  0.108068  1
  Sr  Sr1  1  0.169183  0.189173  0.108068  1
  Sr  Sr2  1  0.500000  0.000000  0.734666  1
  Sr  Sr3  1  0.331366  0.688855  0.389702  1
  Sr  Sr4  1  0.671796  0.686609  0.891364  1
  Sr  Sr5  1  0.188855  0.168634  0.389702  1
  Sr  Sr6  1  0.668634  0.311145  0.389702  1
  Sr  Sr7  1  0.170858  0.812201  0.610448  1
  Sr  Sr8  1  0.328204  0.313391  0.891364  1
  Sr  Sr9  1  0.186609  0.828204  0.891364  1
  Sr  Sr10  1  0.500000  0.000000  0.231149  1
  Sr  Sr11  1  0.829142  0.187799  0.610448  1
  Sr  Sr12  1  0.312201  0.329142  0.610448  1
  Sr  Sr13  1  0.811145  0.831366  0.389702  1
  Sr  Sr14  1  0.813391  0.171796  0.891364  1
  Sr  Sr15  1  0.830817  0.810827  0.108068  1
  Sr  Sr16  1  0.000000  0.500000  0.272184  1
  Sr  Sr17  1  0.000000  0.500000  0.767561  1
  Sr  Sr18  1  0.689173  0.330817  0.108068  1
  Sr  Sr19  1  0.687799  0.670858  0.610448  1
  Si  Si20  1  0.107944  0.109051  0.752088  1
  Si  Si21  1  0.390949  0.607944  0.752088  1
  Si  Si22  1  0.609420  0.607634  0.247771  1
  Si  Si23  1  0.500000  0.000000  0.005527  1
  Si  Si24  1  0.107634  0.890580  0.247771  1
  Si  Si25  1  0.609051  0.392056  0.752088  1
  Si  Si26  1  0.892056  0.890949  0.752088  1
  Si  Si27  1  0.390580  0.392366  0.247771  1
  Si  Si28  1  0.892366  0.109420  0.247771  1
  Si  Si29  1  0.500000  0.000000  0.505622  1
  Si  Si30  1  0.000000  0.500000  0.494494  1
  P  P31  1  0.000000  0.500000  0.991036  1
