# generated using pymatgen
data_Tb2CoNiH8
_symmetry_space_group_name_H-M   'P 1'
_cell_length_a   3.61403445
_cell_length_b   4.75992300
_cell_length_c   6.07607893
_cell_angle_alpha   90.00000000
_cell_angle_beta   107.24131568
_cell_angle_gamma   90.00000000
_symmetry_Int_Tables_number   1
_chemical_formula_structural   Tb2CoNiH8
_chemical_formula_sum   'Tb2 Co1 Ni1 H8'
_cell_volume   99.82710972
_cell_formula_units_Z   1
loop_
 _symmetry_equiv_pos_site_id
 _symmetry_equiv_pos_as_xyz
  1  'x, y, z'
loop_
 _atom_site_type_symbol
 _atom_site_label
 _atom_site_symmetry_multiplicity
 _atom_site_fract_x
 _atom_site_fract_y
 _atom_site_fract_z
 _atom_site_occupancy
  Tb  Tb0  1  0.632891  0.250000  0.265237  1
  Tb  Tb1  1  0.368525  0.750001  0.737309  1
  Co  Co2  1  0.097419  0.750001  0.192512  1
  Ni  Ni3  1  0.898991  0.250000  0.804219  1
  H  H4  1  0.000915  0.996845  0.001215  1
  H  H5  1  0.000915  0.503156  0.001215  1
  H  H6  1  0.587442  0.750001  0.175086  1
  H  H7  1  0.192288  0.994582  0.384709  1
  H  H8  1  0.192288  0.505419  0.384709  1
  H  H9  1  0.807080  0.504100  0.613377  1
  H  H10  1  0.807080  0.995899  0.613377  1
  H  H11  1  0.414168  0.250000  0.827037  1
