# generated using pymatgen
data_Ba4PaS6
_symmetry_space_group_name_H-M   'P 1'
_cell_length_a   8.78773281
_cell_length_b   8.78773363
_cell_length_c   8.78773389
_cell_angle_alpha   89.61923071
_cell_angle_beta   89.61923075
_cell_angle_gamma   89.61923514
_symmetry_Int_Tables_number   1
_chemical_formula_structural   Ba4PaS6
_chemical_formula_sum   'Ba8 Pa2 S12'
_cell_volume   678.58144592
_cell_formula_units_Z   2
loop_
 _symmetry_equiv_pos_site_id
 _symmetry_equiv_pos_as_xyz
  1  'x, y, z'
loop_
 _atom_site_type_symbol
 _atom_site_label
 _atom_site_symmetry_multiplicity
 _atom_site_fract_x
 _atom_site_fract_y
 _atom_site_fract_z
 _atom_site_occupancy
  Ba  Ba0  1  0.876733  0.623267  0.250000  1
  Ba  Ba1  1  0.250000  0.876733  0.623267  1
  Ba  Ba2  1  0.623267  0.250000  0.876733  1
  Ba  Ba3  1  0.750000  0.123267  0.376733  1
  Ba  Ba4  1  0.376733  0.750000  0.123267  1
  Ba  Ba5  1  0.123267  0.376733  0.750000  1
  Ba  Ba6  1  0.250000  0.250000  0.250000  1
  Ba  Ba7  1  0.750000  0.750000  0.750000  1
  Pa  Pa8  1  0.500000  0.500000  0.500000  1
  Pa  Pa9  1  0.000000  0.000000  0.000000  1
  S  S10  1  0.203419  0.560601  0.423644  1
  S  S11  1  0.423644  0.203419  0.560601  1
  S  S12  1  0.560601  0.423644  0.203419  1
  S  S13  1  0.923644  0.060601  0.703419  1
  S  S14  1  0.703419  0.923644  0.060601  1
  S  S15  1  0.060601  0.703419  0.923644  1
  S  S16  1  0.796581  0.439399  0.576356  1
  S  S17  1  0.576356  0.796581  0.439399  1
  S  S18  1  0.439399  0.576356  0.796581  1
  S  S19  1  0.076356  0.939399  0.296581  1
  S  S20  1  0.296581  0.076356  0.939399  1
  S  S21  1  0.939399  0.296581  0.076356  1
