# generated using pymatgen
data_SmSb3F18
_symmetry_space_group_name_H-M   'P 1'
_cell_length_a   9.73042800
_cell_length_b   9.73042814
_cell_length_c   8.87579500
_cell_angle_alpha   90.00000000
_cell_angle_beta   90.00000000
_cell_angle_gamma   119.99999952
_symmetry_Int_Tables_number   1
_chemical_formula_structural   SmSb3F18
_chemical_formula_sum   'Sm2 Sb6 F36'
_cell_volume   727.78280408
_cell_formula_units_Z   2
loop_
 _symmetry_equiv_pos_site_id
 _symmetry_equiv_pos_as_xyz
  1  'x, y, z'
loop_
 _atom_site_type_symbol
 _atom_site_label
 _atom_site_symmetry_multiplicity
 _atom_site_fract_x
 _atom_site_fract_y
 _atom_site_fract_z
 _atom_site_occupancy
  Sm  Sm0  1  0.333333  0.666667  0.575192  1
  Sm  Sm1  1  0.666667  0.333333  0.424808  1
  Sb  Sb2  1  0.983060  0.348703  0.763754  1
  Sb  Sb3  1  0.365643  0.016940  0.763754  1
  Sb  Sb4  1  0.651297  0.634357  0.763754  1
  Sb  Sb5  1  0.016940  0.651297  0.236246  1
  Sb  Sb6  1  0.634357  0.983060  0.236246  1
  Sb  Sb7  1  0.348703  0.365643  0.236246  1
  F  F8  1  0.475242  0.864582  0.397555  1
  F  F9  1  0.389340  0.524758  0.397555  1
  F  F10  1  0.135418  0.610660  0.397555  1
  F  F11  1  0.524758  0.135418  0.602445  1
  F  F12  1  0.610660  0.475242  0.602445  1
  F  F13  1  0.864582  0.389340  0.602445  1
  F  F14  1  0.108900  0.318221  0.905746  1
  F  F15  1  0.209321  0.891100  0.905746  1
  F  F16  1  0.681779  0.790679  0.905746  1
  F  F17  1  0.891100  0.681779  0.094254  1
  F  F18  1  0.790679  0.108900  0.094254  1
  F  F19  1  0.318221  0.209321  0.094254  1
  F  F20  1  0.857845  0.382481  0.903368  1
  F  F21  1  0.524637  0.142155  0.903368  1
  F  F22  1  0.617519  0.475363  0.903368  1
  F  F23  1  0.142155  0.617519  0.096632  1
  F  F24  1  0.475363  0.857845  0.096632  1
  F  F25  1  0.382481  0.524637  0.096632  1
  F  F26  1  0.244979  0.869657  0.599949  1
  F  F27  1  0.624677  0.755021  0.599949  1
  F  F28  1  0.130343  0.375323  0.599949  1
  F  F29  1  0.755021  0.130343  0.400051  1
  F  F30  1  0.375323  0.244979  0.400051  1
  F  F31  1  0.869657  0.624677  0.400051  1
  F  F32  1  0.846716  0.130724  0.727338  1
  F  F33  1  0.284008  0.153284  0.727338  1
  F  F34  1  0.869276  0.715992  0.727338  1
  F  F35  1  0.153284  0.869276  0.272662  1
  F  F36  1  0.715992  0.846716  0.272662  1
  F  F37  1  0.130724  0.284008  0.272662  1
  F  F38  1  0.129783  0.581830  0.758281  1
  F  F39  1  0.452047  0.870217  0.758281  1
  F  F40  1  0.418170  0.547953  0.758281  1
  F  F41  1  0.870217  0.418170  0.241719  1
  F  F42  1  0.547953  0.129783  0.241719  1
  F  F43  1  0.581830  0.452047  0.241719  1
