# generated using pymatgen
data_Rb4LaPaO6
_symmetry_space_group_name_H-M   'P 1'
_cell_length_a   6.51866292
_cell_length_b   6.51866279
_cell_length_c   6.97467114
_cell_angle_alpha   99.13726701
_cell_angle_beta   99.13726716
_cell_angle_gamma   119.80305674
_symmetry_Int_Tables_number   1
_chemical_formula_structural   Rb4LaPaO6
_chemical_formula_sum   'Rb4 La1 Pa1 O6'
_cell_volume   243.94130796
_cell_formula_units_Z   1
loop_
 _symmetry_equiv_pos_site_id
 _symmetry_equiv_pos_as_xyz
  1  'x, y, z'
loop_
 _atom_site_type_symbol
 _atom_site_label
 _atom_site_symmetry_multiplicity
 _atom_site_fract_x
 _atom_site_fract_y
 _atom_site_fract_z
 _atom_site_occupancy
  Rb  Rb0  1  0.500272  0.499726  0.000000  1
  Rb  Rb1  1  0.000572  0.999427  0.499998  1
  Rb  Rb2  1  0.656342  0.343658  0.500000  1
  Rb  Rb3  1  0.341446  0.658554  0.500000  1
  La  La4  1  0.833002  0.166997  0.000000  1
  Pa  Pa5  1  0.167348  0.832651  0.000000  1
  O  O6  1  0.973296  0.591172  0.186724  1
  O  O7  1  0.536021  0.944641  0.187172  1
  O  O8  1  0.182851  0.155342  0.184172  1
  O  O9  1  0.844658  0.817149  0.815829  1
  O  O10  1  0.055359  0.463980  0.812829  1
  O  O11  1  0.408830  0.026706  0.813276  1
