# generated using pymatgen
data_PrNd3(Ho4Bi3)4
_symmetry_space_group_name_H-M   'P 1'
_cell_length_a   8.35377802
_cell_length_b   9.51069400
_cell_length_c   12.18117903
_cell_angle_alpha   90.00000000
_cell_angle_beta   90.00830711
_cell_angle_gamma   90.00000000
_symmetry_Int_Tables_number   1
_chemical_formula_structural   PrNd3(Ho4Bi3)4
_chemical_formula_sum   'Pr1 Nd3 Ho16 Bi12'
_cell_volume   967.79742309
_cell_formula_units_Z   1
loop_
 _symmetry_equiv_pos_site_id
 _symmetry_equiv_pos_as_xyz
  1  'x, y, z'
loop_
 _atom_site_type_symbol
 _atom_site_label
 _atom_site_symmetry_multiplicity
 _atom_site_fract_x
 _atom_site_fract_y
 _atom_site_fract_z
 _atom_site_occupancy
  Pr  Pr0  1  0.171564  0.750000  0.226093  1
  Nd  Nd1  1  0.328625  0.750000  0.726094  1
  Nd  Nd2  1  0.828629  0.250000  0.773966  1
  Nd  Nd3  1  0.671351  0.250000  0.274077  1
  Ho  Ho4  1  0.810533  0.563275  0.064551  1
  Ho  Ho5  1  0.689508  0.936739  0.564639  1
  Ho  Ho6  1  0.189509  0.063277  0.935398  1
  Ho  Ho7  1  0.310512  0.436612  0.435508  1
  Ho  Ho8  1  0.189509  0.436723  0.935398  1
  Ho  Ho9  1  0.310512  0.063388  0.435508  1
  Ho  Ho10  1  0.810533  0.936725  0.064551  1
  Ho  Ho11  1  0.689508  0.563261  0.564639  1
  Ho  Ho12  1  0.477144  0.750000  0.003672  1
  Ho  Ho13  1  0.022663  0.750000  0.503913  1
  Ho  Ho14  1  0.522989  0.250000  0.996093  1
  Ho  Ho15  1  0.977070  0.250000  0.496307  1
  Ho  Ho16  1  0.664829  0.750000  0.289331  1
  Ho  Ho17  1  0.835164  0.750000  0.789028  1
  Ho  Ho18  1  0.335282  0.250000  0.710761  1
  Ho  Ho19  1  0.164676  0.250000  0.210838  1
  Bi  Bi20  1  0.403166  0.750000  0.467376  1
  Bi  Bi21  1  0.096945  0.750000  0.966108  1
  Bi  Bi22  1  0.597147  0.250000  0.533001  1
  Bi  Bi23  1  0.902879  0.250000  0.032914  1
  Bi  Bi24  1  0.934453  0.506274  0.328339  1
  Bi  Bi25  1  0.564722  0.993069  0.827959  1
  Bi  Bi26  1  0.064733  0.006978  0.671995  1
  Bi  Bi27  1  0.435970  0.492505  0.171825  1
  Bi  Bi28  1  0.064733  0.493022  0.671995  1
  Bi  Bi29  1  0.435970  0.007495  0.171825  1
  Bi  Bi30  1  0.934453  0.993726  0.328339  1
  Bi  Bi31  1  0.564722  0.506931  0.827959  1
