# generated using pymatgen
data_Ho2BPtRh5
_symmetry_space_group_name_H-M   'P 1'
_cell_length_a   5.84189074
_cell_length_b   5.81711799
_cell_length_c   5.81711797
_cell_angle_alpha   60.28195363
_cell_angle_beta   59.85903209
_cell_angle_gamma   59.85902900
_symmetry_Int_Tables_number   1
_chemical_formula_structural   Ho2BPtRh5
_chemical_formula_sum   'Ho2 B1 Pt1 Rh5'
_cell_volume   139.77786574
_cell_formula_units_Z   1
loop_
 _symmetry_equiv_pos_site_id
 _symmetry_equiv_pos_as_xyz
  1  'x, y, z'
loop_
 _atom_site_type_symbol
 _atom_site_label
 _atom_site_symmetry_multiplicity
 _atom_site_fract_x
 _atom_site_fract_y
 _atom_site_fract_z
 _atom_site_occupancy
  Ho  Ho0  1  0.250177  0.249823  0.249823  1
  Ho  Ho1  1  0.750177  0.749823  0.749823  1
  B  B2  1  0.997327  0.002673  0.002673  1
  Pt  Pt3  1  0.258879  0.741122  0.741122  1
  Rh  Rh4  1  0.742457  0.257544  0.257544  1
  Rh  Rh5  1  0.256882  0.743119  0.256389  1
  Rh  Rh6  1  0.743611  0.743118  0.256390  1
  Rh  Rh7  1  0.743611  0.256390  0.743118  1
  Rh  Rh8  1  0.256882  0.256389  0.743119  1
