# generated using pymatgen
data_Gd5Y2Ho(ReC2)4
_symmetry_space_group_name_H-M   'P 1'
_cell_length_a   5.15779800
_cell_length_b   6.61263973
_cell_length_c   9.93623036
_cell_angle_alpha   90.06542894
_cell_angle_beta   90.00000000
_cell_angle_gamma   90.00000000
_symmetry_Int_Tables_number   1
_chemical_formula_structural   Gd5Y2Ho(ReC2)4
_chemical_formula_sum   'Gd5 Y2 Ho1 Re4 C8'
_cell_volume   338.89140931
_cell_formula_units_Z   1
loop_
 _symmetry_equiv_pos_site_id
 _symmetry_equiv_pos_as_xyz
  1  'x, y, z'
loop_
 _atom_site_type_symbol
 _atom_site_label
 _atom_site_symmetry_multiplicity
 _atom_site_fract_x
 _atom_site_fract_y
 _atom_site_fract_z
 _atom_site_occupancy
  Gd  Gd0  1  0.250000  0.467238  0.783443  1
  Gd  Gd1  1  0.750000  0.032973  0.284872  1
  Gd  Gd2  1  0.250000  0.967509  0.714423  1
  Gd  Gd3  1  0.750000  0.531767  0.217050  1
  Gd  Gd4  1  0.250000  0.819127  0.055026  1
  Y  Y5  1  0.750000  0.678935  0.555409  1
  Y  Y6  1  0.750000  0.180032  0.943701  1
  Ho  Ho7  1  0.250000  0.321929  0.444226  1
  Re  Re8  1  0.250000  0.277993  0.137260  1
  Re  Re9  1  0.750000  0.222088  0.635009  1
  Re  Re10  1  0.250000  0.777781  0.365141  1
  Re  Re11  1  0.750000  0.722245  0.862855  1
  C  C12  1  0.250000  0.180145  0.954139  1
  C  C13  1  0.750000  0.821487  0.045579  1
  C  C14  1  0.250000  0.676713  0.547317  1
  C  C15  1  0.750000  0.322545  0.452465  1
  C  C16  1  0.250000  0.045179  0.261067  1
  C  C17  1  0.750000  0.454964  0.758892  1
  C  C18  1  0.250000  0.543837  0.242460  1
  C  C19  1  0.750000  0.955512  0.739671  1
