# generated using pymatgen
data_Ho2Tm3(CoB3)2
_symmetry_space_group_name_H-M   'P 1'
_cell_length_a   5.39316550
_cell_length_b   5.39316438
_cell_length_c   8.25356923
_cell_angle_alpha   70.93036343
_cell_angle_beta   70.93035692
_cell_angle_gamma   59.99998081
_symmetry_Int_Tables_number   1
_chemical_formula_structural   Ho2Tm3(CoB3)2
_chemical_formula_sum   'Ho2 Tm3 Co2 B6'
_cell_volume   192.54002292
_cell_formula_units_Z   1
loop_
 _symmetry_equiv_pos_site_id
 _symmetry_equiv_pos_as_xyz
  1  'x, y, z'
loop_
 _atom_site_type_symbol
 _atom_site_label
 _atom_site_symmetry_multiplicity
 _atom_site_fract_x
 _atom_site_fract_y
 _atom_site_fract_z
 _atom_site_occupancy
  Ho  Ho0  1  0.252280  0.252280  0.243160  1
  Ho  Ho1  1  0.747720  0.747720  0.756840  1
  Tm  Tm2  1  0.000000  0.000000  0.000000  1
  Tm  Tm3  1  0.416839  0.416839  0.749481  1
  Tm  Tm4  1  0.583161  0.583161  0.250519  1
  Co  Co5  1  0.118934  0.118934  0.643197  1
  Co  Co6  1  0.881066  0.881066  0.356803  1
  B  B7  1  0.168771  0.831229  0.500000  1
  B  B8  1  0.831229  0.500000  0.500000  1
  B  B9  1  0.500000  0.168771  0.500000  1
  B  B10  1  0.168771  0.500000  0.500000  1
  B  B11  1  0.500000  0.831229  0.500000  1
  B  B12  1  0.831229  0.168771  0.500000  1
