# generated using pymatgen
data_DyThFe2I
_symmetry_space_group_name_H-M   'P 1'
_cell_length_a   3.98247500
_cell_length_b   3.98247567
_cell_length_c   17.54601400
_cell_angle_alpha   90.00000000
_cell_angle_beta   90.00000000
_cell_angle_gamma   120.00000278
_symmetry_Int_Tables_number   1
_chemical_formula_structural   DyThFe2I
_chemical_formula_sum   'Dy2 Th2 Fe4 I2'
_cell_volume   240.99902196
_cell_formula_units_Z   2
loop_
 _symmetry_equiv_pos_site_id
 _symmetry_equiv_pos_as_xyz
  1  'x, y, z'
loop_
 _atom_site_type_symbol
 _atom_site_label
 _atom_site_symmetry_multiplicity
 _atom_site_fract_x
 _atom_site_fract_y
 _atom_site_fract_z
 _atom_site_occupancy
  Dy  Dy0  1  0.000000  0.000000  0.392752  1
  Dy  Dy1  1  0.000000  0.000000  0.107248  1
  Th  Th2  1  0.000000  0.000000  0.599875  1
  Th  Th3  1  0.000000  0.000000  0.900125  1
  Fe  Fe4  1  0.666667  0.333333  0.002326  1
  Fe  Fe5  1  0.333333  0.666667  0.496621  1
  Fe  Fe6  1  0.666667  0.333333  0.497674  1
  Fe  Fe7  1  0.333333  0.666667  0.003379  1
  I  I8  1  0.666667  0.333333  0.250000  1
  I  I9  1  0.333333  0.666667  0.750000  1
