# generated using pymatgen
data_Er3Fe2P6Ir7
_symmetry_space_group_name_H-M   'P 1'
_cell_length_a   3.89893800
_cell_length_b   11.18043200
_cell_length_c   12.54548800
_cell_angle_alpha   90.00000000
_cell_angle_beta   90.00000000
_cell_angle_gamma   90.00000000
_symmetry_Int_Tables_number   1
_chemical_formula_structural   Er3Fe2P6Ir7
_chemical_formula_sum   'Er6 Fe4 P12 Ir14'
_cell_volume   546.88054407
_cell_formula_units_Z   2
loop_
 _symmetry_equiv_pos_site_id
 _symmetry_equiv_pos_as_xyz
  1  'x, y, z'
loop_
 _atom_site_type_symbol
 _atom_site_label
 _atom_site_symmetry_multiplicity
 _atom_site_fract_x
 _atom_site_fract_y
 _atom_site_fract_z
 _atom_site_occupancy
  Er  Er0  1  0.750000  0.250000  0.480307  1
  Er  Er1  1  0.250000  0.750000  0.519693  1
  Er  Er2  1  0.250000  0.930728  0.799194  1
  Er  Er3  1  0.250000  0.569272  0.799194  1
  Er  Er4  1  0.750000  0.069272  0.200806  1
  Er  Er5  1  0.750000  0.430728  0.200806  1
  Fe  Fe6  1  0.250000  0.250000  0.834629  1
  Fe  Fe7  1  0.750000  0.750000  0.165371  1
  Fe  Fe8  1  0.750000  0.250000  0.009847  1
  Fe  Fe9  1  0.250000  0.750000  0.990153  1
  P  P10  1  0.250000  0.250000  0.116529  1
  P  P11  1  0.750000  0.750000  0.883471  1
  P  P12  1  0.250000  0.250000  0.656147  1
  P  P13  1  0.750000  0.750000  0.343853  1
  P  P14  1  0.250000  0.435920  0.379708  1
  P  P15  1  0.250000  0.064080  0.379708  1
  P  P16  1  0.750000  0.564080  0.620292  1
  P  P17  1  0.750000  0.935920  0.620292  1
  P  P18  1  0.250000  0.899119  0.103425  1
  P  P19  1  0.250000  0.600881  0.103425  1
  P  P20  1  0.750000  0.100881  0.896575  1
  P  P21  1  0.750000  0.399119  0.896575  1
  Ir  Ir22  1  0.250000  0.250000  0.300034  1
  Ir  Ir23  1  0.750000  0.750000  0.699966  1
  Ir  Ir24  1  0.250000  0.413929  0.006770  1
  Ir  Ir25  1  0.250000  0.086071  0.006770  1
  Ir  Ir26  1  0.750000  0.586071  0.993230  1
  Ir  Ir27  1  0.750000  0.913929  0.993230  1
  Ir  Ir28  1  0.250000  0.454283  0.571283  1
  Ir  Ir29  1  0.250000  0.045717  0.571283  1
  Ir  Ir30  1  0.750000  0.545717  0.428717  1
  Ir  Ir31  1  0.750000  0.954283  0.428717  1
  Ir  Ir32  1  0.250000  0.876763  0.283824  1
  Ir  Ir33  1  0.250000  0.623237  0.283824  1
  Ir  Ir34  1  0.750000  0.123237  0.716176  1
  Ir  Ir35  1  0.750000  0.376763  0.716176  1
