# generated using pymatgen
data_Sm5Y3InPd24
_symmetry_space_group_name_H-M   'P 1'
_cell_length_a   8.47042655
_cell_length_b   8.47042655
_cell_length_c   8.46349050
_cell_angle_alpha   89.97204205
_cell_angle_beta   89.97204205
_cell_angle_gamma   89.91555214
_symmetry_Int_Tables_number   1
_chemical_formula_structural   Sm5Y3InPd24
_chemical_formula_sum   'Sm5 Y3 In1 Pd24'
_cell_volume   607.23877884
_cell_formula_units_Z   1
loop_
 _symmetry_equiv_pos_site_id
 _symmetry_equiv_pos_as_xyz
  1  'x, y, z'
loop_
 _atom_site_type_symbol
 _atom_site_label
 _atom_site_symmetry_multiplicity
 _atom_site_fract_x
 _atom_site_fract_y
 _atom_site_fract_z
 _atom_site_occupancy
  Sm  Sm0  1  0.748657  0.251236  0.748586  1
  Sm  Sm1  1  0.251325  0.251325  0.748936  1
  Sm  Sm2  1  0.251328  0.748717  0.251472  1
  Sm  Sm3  1  0.251236  0.748657  0.748586  1
  Sm  Sm4  1  0.748717  0.251328  0.251472  1
  Y  Y5  1  0.251364  0.251364  0.251230  1
  Y  Y6  1  0.748578  0.748578  0.748800  1
  Y  Y7  1  0.748574  0.748574  0.251176  1
  In  In8  1  0.000006  0.000006  0.999994  1
  Pd  Pd9  1  0.266566  0.499445  0.001096  1
  Pd  Pd10  1  0.733428  0.501386  0.999993  1
  Pd  Pd11  1  0.001312  0.266660  0.499310  1
  Pd  Pd12  1  0.499445  0.266566  0.001096  1
  Pd  Pd13  1  0.997564  0.733352  0.499869  1
  Pd  Pd14  1  0.501386  0.733428  0.999993  1
  Pd  Pd15  1  0.500148  0.000004  0.266535  1
  Pd  Pd16  1  0.266660  0.001312  0.499310  1
  Pd  Pd17  1  0.500698  0.998910  0.733450  1
  Pd  Pd18  1  0.733352  0.997564  0.499869  1
  Pd  Pd19  1  0.000004  0.500148  0.266535  1
  Pd  Pd20  1  0.998910  0.500698  0.733450  1
  Pd  Pd21  1  0.255050  0.498833  0.499059  1
  Pd  Pd22  1  0.744980  0.502169  0.499945  1
  Pd  Pd23  1  0.498833  0.255050  0.499059  1
  Pd  Pd24  1  0.502169  0.744980  0.499945  1
  Pd  Pd25  1  0.500061  0.500061  0.255033  1
  Pd  Pd26  1  0.500944  0.500944  0.744933  1
  Pd  Pd27  1  0.313100  0.001063  0.000798  1
  Pd  Pd28  1  0.687200  0.998136  0.999983  1
  Pd  Pd29  1  0.001063  0.313100  0.000798  1
  Pd  Pd30  1  0.998136  0.687200  0.999983  1
  Pd  Pd31  1  0.000011  0.000011  0.312964  1
  Pd  Pd32  1  0.999196  0.999196  0.686744  1
