# generated using pymatgen
data_Ce(PPt4)2
_symmetry_space_group_name_H-M   'P 1'
_cell_length_a   6.35748929
_cell_length_b   6.35748975
_cell_length_c   9.45371056
_cell_angle_alpha   54.41999749
_cell_angle_beta   54.41999444
_cell_angle_gamma   37.57003427
_symmetry_Int_Tables_number   1
_chemical_formula_structural   Ce(PPt4)2
_chemical_formula_sum   'Ce1 P2 Pt8'
_cell_volume   183.78520111
_cell_formula_units_Z   1
loop_
 _symmetry_equiv_pos_site_id
 _symmetry_equiv_pos_as_xyz
  1  'x, y, z'
loop_
 _atom_site_type_symbol
 _atom_site_label
 _atom_site_symmetry_multiplicity
 _atom_site_fract_x
 _atom_site_fract_y
 _atom_site_fract_z
 _atom_site_occupancy
  Ce  Ce0  1  0.500000  0.500000  0.500000  1
  P  P1  1  0.058113  0.058113  0.712286  1
  P  P2  1  0.941887  0.941887  0.287714  1
  Pt  Pt3  1  0.222154  0.222154  0.413858  1
  Pt  Pt4  1  0.821519  0.821519  0.845743  1
  Pt  Pt5  1  0.178481  0.178481  0.154257  1
  Pt  Pt6  1  0.166051  0.166051  0.848364  1
  Pt  Pt7  1  0.474350  0.474350  0.869191  1
  Pt  Pt8  1  0.525650  0.525650  0.130809  1
  Pt  Pt9  1  0.777846  0.777846  0.586142  1
  Pt  Pt10  1  0.833949  0.833949  0.151636  1
