# generated using pymatgen
data_K6Tc2O9
_symmetry_space_group_name_H-M   'P 1'
_cell_length_a   8.41934453
_cell_length_b   8.41961253
_cell_length_c   10.68613514
_cell_angle_alpha   112.02755844
_cell_angle_beta   112.02766324
_cell_angle_gamma   92.47380260
_symmetry_Int_Tables_number   1
_chemical_formula_structural   K6Tc2O9
_chemical_formula_sum   'K12 Tc4 O18'
_cell_volume   635.89014779
_cell_formula_units_Z   2
loop_
 _symmetry_equiv_pos_site_id
 _symmetry_equiv_pos_as_xyz
  1  'x, y, z'
loop_
 _atom_site_type_symbol
 _atom_site_label
 _atom_site_symmetry_multiplicity
 _atom_site_fract_x
 _atom_site_fract_y
 _atom_site_fract_z
 _atom_site_occupancy
  K  K0  1  0.726635  0.521591  0.021199  1
  K  K1  1  0.735767  0.033492  0.030704  1
  K  K2  1  0.135952  0.914892  0.230540  1
  K  K3  1  0.585108  0.364043  0.269460  1
  K  K4  1  0.466515  0.764232  0.469297  1
  K  K5  1  0.978405  0.773368  0.478803  1
  K  K6  1  0.021771  0.226805  0.521546  1
  K  K7  1  0.533519  0.235900  0.530902  1
  K  K8  1  0.414844  0.635877  0.730438  1
  K  K9  1  0.864126  0.085159  0.769565  1
  K  K10  1  0.264093  0.966480  0.969097  1
  K  K11  1  0.273186  0.478235  0.978454  1
  Tc  Tc12  1  0.620832  0.879163  0.249999  1
  Tc  Tc13  1  0.102633  0.397365  0.249991  1
  Tc  Tc14  1  0.897301  0.602702  0.750008  1
  Tc  Tc15  1  0.379256  0.120749  0.750001  1
  O  O16  1  0.519534  0.778893  0.035436  1
  O  O17  1  0.068521  0.206772  0.082606  1
  O  O18  1  0.125501  0.588951  0.212679  1
  O  O19  1  0.566954  0.661880  0.242476  1
  O  O20  1  0.470100  0.029897  0.249999  1
  O  O21  1  0.838118  0.933047  0.257522  1
  O  O22  1  0.911043  0.374498  0.287319  1
  O  O23  1  0.293231  0.431481  0.417397  1
  O  O24  1  0.721108  0.980468  0.464564  1
  O  O25  1  0.278816  0.019605  0.535414  1
  O  O26  1  0.706852  0.568879  0.582826  1
  O  O27  1  0.088811  0.625025  0.712695  1
  O  O28  1  0.161674  0.066695  0.742413  1
  O  O29  1  0.529996  0.970005  0.750000  1
  O  O30  1  0.433306  0.338325  0.757589  1
  O  O31  1  0.874975  0.411195  0.787308  1
  O  O32  1  0.931119  0.793145  0.917170  1
  O  O33  1  0.480394  0.221183  0.964586  1
