# generated using pymatgen
data_K2Te3RuO12
_symmetry_space_group_name_H-M   'P 1'
_cell_length_a   7.17812551
_cell_length_b   7.17812634
_cell_length_c   7.17744585
_cell_angle_alpha   61.34512908
_cell_angle_beta   61.34513109
_cell_angle_gamma   61.35374842
_symmetry_Int_Tables_number   1
_chemical_formula_structural   K2Te3RuO12
_chemical_formula_sum   'K2 Te3 Ru1 O12'
_cell_volume   269.42450420
_cell_formula_units_Z   1
loop_
 _symmetry_equiv_pos_site_id
 _symmetry_equiv_pos_as_xyz
  1  'x, y, z'
loop_
 _atom_site_type_symbol
 _atom_site_label
 _atom_site_symmetry_multiplicity
 _atom_site_fract_x
 _atom_site_fract_y
 _atom_site_fract_z
 _atom_site_occupancy
  K  K0  1  0.842109  0.890809  0.377242  1
  K  K1  1  0.109191  0.157891  0.622758  1
  Te  Te2  1  0.998256  0.502196  0.000100  1
  Te  Te3  1  0.497804  0.001744  0.999900  1
  Te  Te4  1  0.497858  0.502142  0.500000  1
  Ru  Ru5  1  0.497500  0.502500  0.000000  1
  O  O6  1  0.174751  0.178323  0.072912  1
  O  O7  1  0.576459  0.576476  0.672315  1
  O  O8  1  0.170379  0.577187  0.078404  1
  O  O9  1  0.572059  0.178485  0.676412  1
  O  O10  1  0.574398  0.174623  0.075595  1
  O  O11  1  0.175203  0.572869  0.676746  1
  O  O12  1  0.821677  0.825249  0.927088  1
  O  O13  1  0.423524  0.423541  0.327685  1
  O  O14  1  0.825377  0.425602  0.924405  1
  O  O15  1  0.427131  0.824797  0.323254  1
  O  O16  1  0.422813  0.829621  0.921596  1
  O  O17  1  0.821515  0.427941  0.323588  1
