# generated using pymatgen
data_Yb2DyPa(B4Os)4
_symmetry_space_group_name_H-M   'P 1'
_cell_length_a   3.56904800
_cell_length_b   5.96212014
_cell_length_c   11.52016601
_cell_angle_alpha   89.99001235
_cell_angle_beta   90.00000000
_cell_angle_gamma   90.00000000
_symmetry_Int_Tables_number   1
_chemical_formula_structural   Yb2DyPa(B4Os)4
_chemical_formula_sum   'Yb2 Dy1 Pa1 B16 Os4'
_cell_volume   245.13867978
_cell_formula_units_Z   1
loop_
 _symmetry_equiv_pos_site_id
 _symmetry_equiv_pos_as_xyz
  1  'x, y, z'
loop_
 _atom_site_type_symbol
 _atom_site_label
 _atom_site_symmetry_multiplicity
 _atom_site_fract_x
 _atom_site_fract_y
 _atom_site_fract_z
 _atom_site_occupancy
  Yb  Yb0  1  0.000000  0.627803  0.853674  1
  Yb  Yb1  1  0.000000  0.371251  0.148648  1
  Dy  Dy2  1  0.000000  0.871477  0.347047  1
  Pa  Pa3  1  0.000000  0.128806  0.652247  1
  B  B4  1  0.500000  0.472564  0.691108  1
  B  B5  1  0.500000  0.525042  0.307875  1
  B  B6  1  0.500000  0.976019  0.809752  1
  B  B7  1  0.500000  0.025433  0.190593  1
  B  B8  1  0.500000  0.288055  0.814817  1
  B  B9  1  0.500000  0.711226  0.184157  1
  B  B10  1  0.500000  0.789449  0.685835  1
  B  B11  1  0.500000  0.214855  0.312546  1
  B  B12  1  0.500000  0.362582  0.970024  1
  B  B13  1  0.500000  0.635994  0.029741  1
  B  B14  1  0.500000  0.865101  0.530794  1
  B  B15  1  0.500000  0.136632  0.468883  1
  B  B16  1  0.500000  0.388721  0.545994  1
  B  B17  1  0.500000  0.611781  0.451525  1
  B  B18  1  0.500000  0.885364  0.954473  1
  B  B19  1  0.500000  0.112876  0.046316  1
  Os  Os20  1  0.000000  0.138219  0.906394  1
  Os  Os21  1  0.000000  0.861132  0.092059  1
  Os  Os22  1  0.000000  0.642934  0.595668  1
  Os  Os23  1  0.000000  0.356685  0.409831  1
