# generated using pymatgen
data_TbHo7(Hf3Ge4)4
_symmetry_space_group_name_H-M   'P 1'
_cell_length_a   7.38085963
_cell_length_b   7.38041417
_cell_length_c   13.52706773
_cell_angle_alpha   89.98803611
_cell_angle_beta   89.98004483
_cell_angle_gamma   90.01518837
_symmetry_Int_Tables_number   1
_chemical_formula_structural   TbHo7(Hf3Ge4)4
_chemical_formula_sum   'Tb1 Ho7 Hf12 Ge16'
_cell_volume   736.87070908
_cell_formula_units_Z   1
loop_
 _symmetry_equiv_pos_site_id
 _symmetry_equiv_pos_as_xyz
  1  'x, y, z'
loop_
 _atom_site_type_symbol
 _atom_site_label
 _atom_site_symmetry_multiplicity
 _atom_site_fract_x
 _atom_site_fract_y
 _atom_site_fract_z
 _atom_site_occupancy
  Tb  Tb0  1  0.659838  0.002022  0.281893  1
  Ho  Ho1  1  0.998635  0.340498  0.218211  1
  Ho  Ho2  1  0.001617  0.659767  0.718347  1
  Ho  Ho3  1  0.159745  0.498631  0.468533  1
  Ho  Ho4  1  0.501382  0.840153  0.031435  1
  Ho  Ho5  1  0.840557  0.501470  0.968269  1
  Ho  Ho6  1  0.498499  0.159535  0.531754  1
  Ho  Ho7  1  0.340259  0.998382  0.781624  1
  Hf  Hf8  1  0.171707  0.171790  0.999825  1
  Hf  Hf9  1  0.828304  0.828278  0.500123  1
  Hf  Hf10  1  0.328387  0.671297  0.250022  1
  Hf  Hf11  1  0.671526  0.328555  0.749970  1
  Hf  Hf12  1  0.158050  0.996748  0.375729  1
  Hf  Hf13  1  0.842327  0.003403  0.875628  1
  Hf  Hf14  1  0.503255  0.657644  0.626158  1
  Hf  Hf15  1  0.342321  0.496711  0.874041  1
  Hf  Hf16  1  0.496243  0.342048  0.125504  1
  Hf  Hf17  1  0.657893  0.503466  0.374365  1
  Hf  Hf18  1  0.996670  0.157694  0.624499  1
  Hf  Hf19  1  0.003014  0.841895  0.123980  1
  Ge  Ge20  1  0.366920  0.300952  0.323313  1
  Ge  Ge21  1  0.632651  0.699941  0.823532  1
  Ge  Ge22  1  0.199740  0.867668  0.573385  1
  Ge  Ge23  1  0.132279  0.800239  0.926502  1
  Ge  Ge24  1  0.800590  0.132721  0.073220  1
  Ge  Ge25  1  0.868344  0.200387  0.427086  1
  Ge  Ge26  1  0.300184  0.367171  0.676437  1
  Ge  Ge27  1  0.699743  0.632005  0.176397  1
  Ge  Ge28  1  0.296581  0.035685  0.181075  1
  Ge  Ge29  1  0.702617  0.964177  0.681262  1
  Ge  Ge30  1  0.463398  0.796543  0.431884  1
  Ge  Ge31  1  0.202903  0.535857  0.068587  1
  Ge  Ge32  1  0.536017  0.202525  0.931293  1
  Ge  Ge33  1  0.797568  0.464110  0.568732  1
  Ge  Ge34  1  0.035869  0.297462  0.818700  1
  Ge  Ge35  1  0.964368  0.702571  0.318686  1
