# generated using pymatgen
data_Pr3Tm2Ga3P9Ir19
_symmetry_space_group_name_H-M   'P 1'
_cell_length_a   12.91449500
_cell_length_b   12.91449447
_cell_length_c   3.98649200
_cell_angle_alpha   90.00000000
_cell_angle_beta   90.00000000
_cell_angle_gamma   119.99999368
_symmetry_Int_Tables_number   1
_chemical_formula_structural   Pr3Tm2Ga3P9Ir19
_chemical_formula_sum   'Pr3 Tm2 Ga3 P9 Ir19'
_cell_volume   575.80627759
_cell_formula_units_Z   1
loop_
 _symmetry_equiv_pos_site_id
 _symmetry_equiv_pos_as_xyz
  1  'x, y, z'
loop_
 _atom_site_type_symbol
 _atom_site_label
 _atom_site_symmetry_multiplicity
 _atom_site_fract_x
 _atom_site_fract_y
 _atom_site_fract_z
 _atom_site_occupancy
  Pr  Pr0  1  0.183864  0.183864  0.000000  1
  Pr  Pr1  1  0.816136  0.000000  0.000000  1
  Pr  Pr2  1  0.000000  0.816136  0.000000  1
  Tm  Tm3  1  0.333333  0.666667  0.500000  1
  Tm  Tm4  1  0.666667  0.333333  0.500000  1
  Ga  Ga5  1  0.361236  0.361236  0.500000  1
  Ga  Ga6  1  0.638764  0.000000  0.500000  1
  Ga  Ga7  1  0.000000  0.638764  0.500000  1
  P  P8  1  0.307427  0.822457  0.000000  1
  P  P9  1  0.177543  0.484970  0.000000  1
  P  P10  1  0.515030  0.692573  0.000000  1
  P  P11  1  0.822457  0.307427  0.000000  1
  P  P12  1  0.484970  0.177543  0.000000  1
  P  P13  1  0.692573  0.515030  0.000000  1
  P  P14  1  0.817327  0.817327  0.500000  1
  P  P15  1  0.182673  0.000000  0.500000  1
  P  P16  1  0.000000  0.182673  0.500000  1
  Ir  Ir17  1  0.208464  0.825135  0.500000  1
  Ir  Ir18  1  0.174865  0.383329  0.500000  1
  Ir  Ir19  1  0.616671  0.791536  0.500000  1
  Ir  Ir20  1  0.825135  0.208464  0.500000  1
  Ir  Ir21  1  0.383329  0.174865  0.500000  1
  Ir  Ir22  1  0.791536  0.616671  0.500000  1
  Ir  Ir23  1  0.133716  0.635047  0.000000  1
  Ir  Ir24  1  0.364953  0.498669  0.000000  1
  Ir  Ir25  1  0.501331  0.866284  0.000000  1
  Ir  Ir26  1  0.635047  0.133716  0.000000  1
  Ir  Ir27  1  0.498669  0.364953  0.000000  1
  Ir  Ir28  1  0.866284  0.501331  0.000000  1
  Ir  Ir29  1  0.551355  0.551355  0.500000  1
  Ir  Ir30  1  0.448645  0.000000  0.500000  1
  Ir  Ir31  1  0.000000  0.448645  0.500000  1
  Ir  Ir32  1  0.711193  0.711193  0.000000  1
  Ir  Ir33  1  0.288807  0.000000  0.000000  1
  Ir  Ir34  1  0.000000  0.288807  0.000000  1
  Ir  Ir35  1  0.000000  0.000000  0.500000  1
