# generated using pymatgen
data_Er13Tm7(CoBi2)4
_symmetry_space_group_name_H-M   'P 1'
_cell_length_a   7.91465725
_cell_length_b   8.85571709
_cell_length_c   12.38868040
_cell_angle_alpha   89.98817831
_cell_angle_beta   90.02656748
_cell_angle_gamma   90.01140617
_symmetry_Int_Tables_number   1
_chemical_formula_structural   Er13Tm7(CoBi2)4
_chemical_formula_sum   'Er13 Tm7 Co4 Bi8'
_cell_volume   868.32205267
_cell_formula_units_Z   1
loop_
 _symmetry_equiv_pos_site_id
 _symmetry_equiv_pos_as_xyz
  1  'x, y, z'
loop_
 _atom_site_type_symbol
 _atom_site_label
 _atom_site_symmetry_multiplicity
 _atom_site_fract_x
 _atom_site_fract_y
 _atom_site_fract_z
 _atom_site_occupancy
  Er  Er0  1  0.654197  0.749847  0.699204  1
  Er  Er1  1  0.345820  0.250066  0.300826  1
  Er  Er2  1  0.153999  0.249963  0.801033  1
  Er  Er3  1  0.845919  0.750050  0.199171  1
  Er  Er4  1  0.120005  0.750167  0.814968  1
  Er  Er5  1  0.880108  0.249890  0.185135  1
  Er  Er6  1  0.620246  0.250256  0.685200  1
  Er  Er7  1  0.380428  0.749635  0.314656  1
  Er  Er8  1  0.554815  0.749973  0.997180  1
  Er  Er9  1  0.445148  0.249991  0.002809  1
  Er  Er10  1  0.054034  0.250335  0.502775  1
  Er  Er11  1  0.944768  0.749793  0.497210  1
  Er  Er12  1  0.326851  0.963692  0.564104  1
  Tm  Tm13  1  0.827986  0.463464  0.935827  1
  Tm  Tm14  1  0.172045  0.536543  0.064270  1
  Tm  Tm15  1  0.328059  0.536539  0.564127  1
  Tm  Tm16  1  0.172080  0.963420  0.064269  1
  Tm  Tm17  1  0.671969  0.463177  0.435590  1
  Tm  Tm18  1  0.827937  0.036517  0.935861  1
  Tm  Tm19  1  0.672094  0.036626  0.435674  1
  Co  Co20  1  0.937133  0.749999  0.993481  1
  Co  Co21  1  0.062945  0.249984  0.006652  1
  Co  Co22  1  0.437398  0.250227  0.506546  1
  Co  Co23  1  0.563654  0.749674  0.493189  1
  Bi  Bi24  1  0.933578  0.007554  0.673414  1
  Bi  Bi25  1  0.066164  0.992543  0.326894  1
  Bi  Bi26  1  0.434294  0.992678  0.826794  1
  Bi  Bi27  1  0.065949  0.507422  0.326708  1
  Bi  Bi28  1  0.565912  0.007483  0.173193  1
  Bi  Bi29  1  0.934267  0.492658  0.673401  1
  Bi  Bi30  1  0.566071  0.492445  0.173084  1
  Bi  Bi31  1  0.434127  0.507386  0.826758  1
