# generated using pymatgen
data_Sc2In7CoAg
_symmetry_space_group_name_H-M   'P 1'
_cell_length_a   4.46460400
_cell_length_b   4.52293200
_cell_length_c   11.74562500
_cell_angle_alpha   90.00000000
_cell_angle_beta   90.00000000
_cell_angle_gamma   90.00000000
_symmetry_Int_Tables_number   1
_chemical_formula_structural   Sc2In7CoAg
_chemical_formula_sum   'Sc2 In7 Co1 Ag1'
_cell_volume   237.18058370
_cell_formula_units_Z   1
loop_
 _symmetry_equiv_pos_site_id
 _symmetry_equiv_pos_as_xyz
  1  'x, y, z'
loop_
 _atom_site_type_symbol
 _atom_site_label
 _atom_site_symmetry_multiplicity
 _atom_site_fract_x
 _atom_site_fract_y
 _atom_site_fract_z
 _atom_site_occupancy
  Sc  Sc0  1  0.000000  0.000000  0.307710  1
  Sc  Sc1  1  0.000000  0.000000  0.692290  1
  In  In2  1  0.000000  0.500000  0.125458  1
  In  In3  1  0.000000  0.500000  0.874542  1
  In  In4  1  0.500000  0.000000  0.125714  1
  In  In5  1  0.500000  0.000000  0.874286  1
  In  In6  1  0.500000  0.500000  0.320693  1
  In  In7  1  0.500000  0.500000  0.679307  1
  In  In8  1  0.500000  0.000000  0.500000  1
  Co  Co9  1  0.000000  0.000000  0.000000  1
  Ag  Ag10  1  0.000000  0.500000  0.500000  1
