# generated using pymatgen
data_TbDy3(B6Os)2
_symmetry_space_group_name_H-M   'P 1'
_cell_length_a   3.66237900
_cell_length_b   9.16830300
_cell_length_c   11.54845204
_cell_angle_alpha   89.99535037
_cell_angle_beta   90.00000000
_cell_angle_gamma   90.00000000
_symmetry_Int_Tables_number   1
_chemical_formula_structural   TbDy3(B6Os)2
_chemical_formula_sum   'Tb2 Dy6 B24 Os4'
_cell_volume   387.77161599
_cell_formula_units_Z   2
loop_
 _symmetry_equiv_pos_site_id
 _symmetry_equiv_pos_as_xyz
  1  'x, y, z'
loop_
 _atom_site_type_symbol
 _atom_site_label
 _atom_site_symmetry_multiplicity
 _atom_site_fract_x
 _atom_site_fract_y
 _atom_site_fract_z
 _atom_site_occupancy
  Tb  Tb0  1  0.000000  0.322295  0.413935  1
  Tb  Tb1  1  0.000000  0.677705  0.586065  1
  Dy  Dy2  1  0.000000  0.822291  0.085862  1
  Dy  Dy3  1  0.000000  0.177709  0.914138  1
  Dy  Dy4  1  0.000000  0.943617  0.372471  1
  Dy  Dy5  1  0.000000  0.056383  0.627529  1
  Dy  Dy6  1  0.000000  0.443630  0.127058  1
  Dy  Dy7  1  0.000000  0.556370  0.872942  1
  B  B8  1  0.500000  0.554090  0.432654  1
  B  B9  1  0.500000  0.445910  0.567346  1
  B  B10  1  0.500000  0.053816  0.066845  1
  B  B11  1  0.500000  0.946184  0.933155  1
  B  B12  1  0.500000  0.747776  0.419232  1
  B  B13  1  0.500000  0.252224  0.580768  1
  B  B14  1  0.500000  0.247453  0.080139  1
  B  B15  1  0.500000  0.752547  0.919861  1
  B  B16  1  0.500000  0.790545  0.266086  1
  B  B17  1  0.500000  0.209455  0.733914  1
  B  B18  1  0.500000  0.290228  0.233165  1
  B  B19  1  0.500000  0.709772  0.766835  1
  B  B20  1  0.500000  0.631683  0.185185  1
  B  B21  1  0.500000  0.368317  0.814815  1
  B  B22  1  0.500000  0.131303  0.314225  1
  B  B23  1  0.500000  0.868697  0.685775  1
  B  B24  1  0.500000  0.983275  0.212534  1
  B  B25  1  0.500000  0.016725  0.787466  1
  B  B26  1  0.500000  0.483615  0.286790  1
  B  B27  1  0.500000  0.516385  0.713210  1
  B  B28  1  0.500000  0.608332  0.030008  1
  B  B29  1  0.500000  0.391668  0.969992  1
  B  B30  1  0.500000  0.107101  0.470255  1
  B  B31  1  0.500000  0.892899  0.529745  1
  Os  Os32  1  0.000000  0.637408  0.321095  1
  Os  Os33  1  0.000000  0.362592  0.678905  1
  Os  Os34  1  0.000000  0.136986  0.178231  1
  Os  Os35  1  0.000000  0.863014  0.821769  1
