# generated using pymatgen
data_Dy4HoSc(Si3Ru)8
_symmetry_space_group_name_H-M   'P 1'
_cell_length_a   10.09049782
_cell_length_b   10.09049813
_cell_length_c   8.11980025
_cell_angle_alpha   89.99400180
_cell_angle_beta   89.99400297
_cell_angle_gamma   132.57945242
_symmetry_Int_Tables_number   1
_chemical_formula_structural   Dy4HoSc(Si3Ru)8
_chemical_formula_sum   'Dy4 Ho1 Sc1 Si24 Ru8'
_cell_volume   608.76376623
_cell_formula_units_Z   1
loop_
 _symmetry_equiv_pos_site_id
 _symmetry_equiv_pos_as_xyz
  1  'x, y, z'
loop_
 _atom_site_type_symbol
 _atom_site_label
 _atom_site_symmetry_multiplicity
 _atom_site_fract_x
 _atom_site_fract_y
 _atom_site_fract_z
 _atom_site_occupancy
  Dy  Dy0  1  0.502465  0.002381  0.749817  1
  Dy  Dy1  1  0.997619  0.497535  0.250183  1
  Dy  Dy2  1  0.497535  0.997619  0.250183  1
  Dy  Dy3  1  0.002381  0.502465  0.749817  1
  Ho  Ho4  1  0.000000  0.000000  0.000000  1
  Sc  Sc5  1  0.500000  0.500000  0.500000  1
  Si  Si6  1  0.794538  0.205462  0.500000  1
  Si  Si7  1  0.294963  0.705037  0.000000  1
  Si  Si8  1  0.205462  0.794538  0.500000  1
  Si  Si9  1  0.705037  0.294963  0.000000  1
  Si  Si10  1  0.333904  0.333904  0.830636  1
  Si  Si11  1  0.666096  0.666096  0.169364  1
  Si  Si12  1  0.169970  0.169970  0.334497  1
  Si  Si13  1  0.830030  0.830030  0.665503  1
  Si  Si14  1  0.121815  0.887301  0.728004  1
  Si  Si15  1  0.112699  0.878185  0.271996  1
  Si  Si16  1  0.611130  0.378922  0.230217  1
  Si  Si17  1  0.621078  0.388870  0.769783  1
  Si  Si18  1  0.878185  0.112699  0.271996  1
  Si  Si19  1  0.887301  0.121815  0.728004  1
  Si  Si20  1  0.388870  0.621078  0.769783  1
  Si  Si21  1  0.378922  0.611130  0.230217  1
  Si  Si22  1  0.346171  0.114461  0.504728  1
  Si  Si23  1  0.885539  0.653829  0.495272  1
  Si  Si24  1  0.388527  0.154849  0.004970  1
  Si  Si25  1  0.845151  0.611473  0.995030  1
  Si  Si26  1  0.653829  0.885539  0.495272  1
  Si  Si27  1  0.114461  0.346171  0.504728  1
  Si  Si28  1  0.611473  0.845151  0.995030  1
  Si  Si29  1  0.154849  0.388527  0.004970  1
  Ru  Ru30  1  0.668117  0.331883  0.500000  1
  Ru  Ru31  1  0.168990  0.831010  0.000000  1
  Ru  Ru32  1  0.331883  0.668117  0.500000  1
  Ru  Ru33  1  0.831010  0.168990  0.000000  1
  Ru  Ru34  1  0.126001  0.126001  0.627775  1
  Ru  Ru35  1  0.873999  0.873999  0.372225  1
  Ru  Ru36  1  0.373135  0.373135  0.127036  1
  Ru  Ru37  1  0.626865  0.626865  0.872964  1
