# generated using pymatgen
data_Tb2Ta4C5
_symmetry_space_group_name_H-M   'P 1'
_cell_length_a   5.74242965
_cell_length_b   5.74243067
_cell_length_c   5.60924816
_cell_angle_alpha   81.93147765
_cell_angle_beta   81.93146543
_cell_angle_gamma   121.64045225
_symmetry_Int_Tables_number   1
_chemical_formula_structural   Tb2Ta4C5
_chemical_formula_sum   'Tb2 Ta4 C5'
_cell_volume   150.80706260
_cell_formula_units_Z   1
loop_
 _symmetry_equiv_pos_site_id
 _symmetry_equiv_pos_as_xyz
  1  'x, y, z'
loop_
 _atom_site_type_symbol
 _atom_site_label
 _atom_site_symmetry_multiplicity
 _atom_site_fract_x
 _atom_site_fract_y
 _atom_site_fract_z
 _atom_site_occupancy
  Tb  Tb0  1  0.763081  0.763081  0.759717  1
  Tb  Tb1  1  0.236919  0.236919  0.240283  1
  Ta  Ta2  1  0.102603  0.453565  0.739621  1
  Ta  Ta3  1  0.546435  0.897397  0.260379  1
  Ta  Ta4  1  0.897397  0.546435  0.260379  1
  Ta  Ta5  1  0.453565  0.102603  0.739621  1
  C  C6  1  0.500000  0.500000  0.500000  1
  C  C7  1  0.682525  0.317475  0.000000  1
  C  C8  1  0.317475  0.682525  0.000000  1
  C  C9  1  0.818240  0.181760  0.500000  1
  C  C10  1  0.181760  0.818240  0.500000  1
