# generated using pymatgen
data_GdNp3O10
_symmetry_space_group_name_H-M   'P 1'
_cell_length_a   5.69840536
_cell_length_b   5.69840562
_cell_length_c   8.09794649
_cell_angle_alpha   69.47097383
_cell_angle_beta   69.47096970
_cell_angle_gamma   71.04434229
_symmetry_Int_Tables_number   1
_chemical_formula_structural   GdNp3O10
_chemical_formula_sum   'Gd1 Np3 O10'
_cell_volume   224.42584049
_cell_formula_units_Z   1
loop_
 _symmetry_equiv_pos_site_id
 _symmetry_equiv_pos_as_xyz
  1  'x, y, z'
loop_
 _atom_site_type_symbol
 _atom_site_label
 _atom_site_symmetry_multiplicity
 _atom_site_fract_x
 _atom_site_fract_y
 _atom_site_fract_z
 _atom_site_occupancy
  Gd  Gd0  1  0.956076  0.043924  0.250000  1
  Np  Np1  1  0.497089  0.501780  0.000427  1
  Np  Np2  1  0.498220  0.502911  0.499573  1
  Np  Np3  1  0.037069  0.962931  0.750000  1
  O  O4  1  0.394277  0.605723  0.750000  1
  O  O5  1  0.260090  0.198971  0.636190  1
  O  O6  1  0.714528  0.751044  0.380115  1
  O  O7  1  0.248956  0.285472  0.119885  1
  O  O8  1  0.600348  0.399652  0.250000  1
  O  O9  1  0.801029  0.739910  0.863810  1
  O  O10  1  0.214843  0.814133  0.029363  1
  O  O11  1  0.800437  0.208829  0.542387  1
  O  O12  1  0.791171  0.199563  0.957613  1
  O  O13  1  0.185867  0.785157  0.470637  1
