# generated using pymatgen
data_Tb8Ho4InCo4Ru
_symmetry_space_group_name_H-M   'P 1'
_cell_length_a   8.32647438
_cell_length_b   8.32619380
_cell_length_c   8.32647524
_cell_angle_alpha   111.06225105
_cell_angle_beta   110.69474803
_cell_angle_gamma   106.69342357
_symmetry_Int_Tables_number   1
_chemical_formula_structural   Tb8Ho4InCo4Ru
_chemical_formula_sum   'Tb8 Ho4 In1 Co4 Ru1'
_cell_volume   443.58142831
_cell_formula_units_Z   1
loop_
 _symmetry_equiv_pos_site_id
 _symmetry_equiv_pos_as_xyz
  1  'x, y, z'
loop_
 _atom_site_type_symbol
 _atom_site_label
 _atom_site_symmetry_multiplicity
 _atom_site_fract_x
 _atom_site_fract_y
 _atom_site_fract_z
 _atom_site_occupancy
  Tb  Tb0  1  0.313924  0.619953  0.306027  1
  Tb  Tb1  1  0.686076  0.380047  0.693973  1
  Tb  Tb2  1  0.314000  0.007987  0.693988  1
  Tb  Tb3  1  0.686000  0.992013  0.306012  1
  Tb  Tb4  1  0.184731  0.285578  0.470290  1
  Tb  Tb5  1  0.815269  0.714422  0.529710  1
  Tb  Tb6  1  0.184711  0.714422  0.899153  1
  Tb  Tb7  1  0.815289  0.285578  0.100847  1
  Ho  Ho8  1  0.408154  0.216031  0.192124  1
  Ho  Ho9  1  0.591846  0.783969  0.807876  1
  Ho  Ho10  1  0.023906  0.216031  0.807877  1
  Ho  Ho11  1  0.976094  0.783969  0.192123  1
  In  In12  1  0.500000  0.500000  0.000000  1
  Co  Co13  1  0.111721  0.611704  0.499983  1
  Co  Co14  1  0.888279  0.388296  0.500017  1
  Co  Co15  1  0.376176  0.000000  0.376176  1
  Co  Co16  1  0.623824  0.000000  0.623824  1
  Ru  Ru17  1  0.000000  0.000000  0.000000  1
