# generated using pymatgen
data_Ti3Mo(PRu)4
_symmetry_space_group_name_H-M   'P 1'
_cell_length_a   3.77059000
_cell_length_b   6.20150553
_cell_length_c   7.10586326
_cell_angle_alpha   89.74551156
_cell_angle_beta   90.00000000
_cell_angle_gamma   90.00000000
_symmetry_Int_Tables_number   1
_chemical_formula_structural   Ti3Mo(PRu)4
_chemical_formula_sum   'Ti3 Mo1 P4 Ru4'
_cell_volume   166.15714004
_cell_formula_units_Z   1
loop_
 _symmetry_equiv_pos_site_id
 _symmetry_equiv_pos_as_xyz
  1  'x, y, z'
loop_
 _atom_site_type_symbol
 _atom_site_label
 _atom_site_symmetry_multiplicity
 _atom_site_fract_x
 _atom_site_fract_y
 _atom_site_fract_z
 _atom_site_occupancy
  Ti  Ti0  1  0.250000  0.025306  0.181630  1
  Ti  Ti1  1  0.250000  0.525581  0.323788  1
  Ti  Ti2  1  0.750000  0.972547  0.819256  1
  Mo  Mo3  1  0.750000  0.478085  0.670081  1
  P  P4  1  0.250000  0.764608  0.624314  1
  P  P5  1  0.250000  0.272147  0.873890  1
  P  P6  1  0.750000  0.236961  0.381447  1
  P  P7  1  0.750000  0.731696  0.123557  1
  Ru  Ru8  1  0.250000  0.145236  0.566391  1
  Ru  Ru9  1  0.250000  0.651904  0.941181  1
  Ru  Ru10  1  0.750000  0.850695  0.436156  1
  Ru  Ru11  1  0.750000  0.345235  0.058309  1
