# generated using pymatgen
data_Nd3Th5Zn8Ir3Rh5
_symmetry_space_group_name_H-M   'P 1'
_cell_length_a   3.95322400
_cell_length_b   7.52245463
_cell_length_c   16.59960756
_cell_angle_alpha   90.36190365
_cell_angle_beta   90.00000000
_cell_angle_gamma   90.00000000
_symmetry_Int_Tables_number   1
_chemical_formula_structural   Nd3Th5Zn8Ir3Rh5
_chemical_formula_sum   'Nd3 Th5 Zn8 Ir3 Rh5'
_cell_volume   493.62842234
_cell_formula_units_Z   1
loop_
 _symmetry_equiv_pos_site_id
 _symmetry_equiv_pos_as_xyz
  1  'x, y, z'
loop_
 _atom_site_type_symbol
 _atom_site_label
 _atom_site_symmetry_multiplicity
 _atom_site_fract_x
 _atom_site_fract_y
 _atom_site_fract_z
 _atom_site_occupancy
  Nd  Nd0  1  0.750000  0.445705  0.214693  1
  Nd  Nd1  1  0.250000  0.053319  0.713868  1
  Nd  Nd2  1  0.250000  0.554213  0.785651  1
  Th  Th3  1  0.250000  0.173841  0.938360  1
  Th  Th4  1  0.250000  0.671143  0.561523  1
  Th  Th5  1  0.750000  0.326107  0.439073  1
  Th  Th6  1  0.750000  0.946768  0.284468  1
  Th  Th7  1  0.750000  0.829277  0.060638  1
  Zn  Zn8  1  0.750000  0.007276  0.560816  1
  Zn  Zn9  1  0.250000  0.615562  0.345227  1
  Zn  Zn10  1  0.750000  0.381282  0.654518  1
  Zn  Zn11  1  0.250000  0.496169  0.061705  1
  Zn  Zn12  1  0.750000  0.506905  0.938814  1
  Zn  Zn13  1  0.250000  0.992607  0.441690  1
  Zn  Zn14  1  0.250000  0.122943  0.151954  1
  Zn  Zn15  1  0.750000  0.881311  0.845100  1
  Ir  Ir16  1  0.250000  0.232111  0.318160  1
  Ir  Ir17  1  0.250000  0.260648  0.561063  1
  Ir  Ir18  1  0.250000  0.760484  0.185002  1
  Rh  Rh19  1  0.750000  0.742580  0.438906  1
  Rh  Rh20  1  0.750000  0.247663  0.820586  1
  Rh  Rh21  1  0.750000  0.748817  0.679040  1
  Rh  Rh22  1  0.750000  0.243684  0.058427  1
  Rh  Rh23  1  0.250000  0.759584  0.940717  1
