# generated using pymatgen
data_LiCe6HfAs10
_symmetry_space_group_name_H-M   'P 1'
_cell_length_a   8.76702400
_cell_length_b   8.76702443
_cell_length_c   5.90178200
_cell_angle_alpha   90.00000000
_cell_angle_beta   90.00000000
_cell_angle_gamma   119.99999836
_symmetry_Int_Tables_number   1
_chemical_formula_structural   LiCe6HfAs10
_chemical_formula_sum   'Li1 Ce6 Hf1 As10'
_cell_volume   392.84227254
_cell_formula_units_Z   1
loop_
 _symmetry_equiv_pos_site_id
 _symmetry_equiv_pos_as_xyz
  1  'x, y, z'
loop_
 _atom_site_type_symbol
 _atom_site_label
 _atom_site_symmetry_multiplicity
 _atom_site_fract_x
 _atom_site_fract_y
 _atom_site_fract_z
 _atom_site_occupancy
  Li  Li0  1  0.000000  0.000000  0.000000  1
  Ce  Ce1  1  0.618453  0.000000  0.247296  1
  Ce  Ce2  1  0.381547  0.000000  0.752704  1
  Ce  Ce3  1  0.000000  0.618453  0.247296  1
  Ce  Ce4  1  0.000000  0.381547  0.752704  1
  Ce  Ce5  1  0.381547  0.381547  0.247296  1
  Ce  Ce6  1  0.618453  0.618453  0.752704  1
  Hf  Hf7  1  0.000000  0.000000  0.500000  1
  As  As8  1  0.260425  0.000000  0.249819  1
  As  As9  1  0.739575  0.000000  0.750181  1
  As  As10  1  0.000000  0.260425  0.249819  1
  As  As11  1  0.000000  0.739575  0.750181  1
  As  As12  1  0.739575  0.739575  0.249819  1
  As  As13  1  0.260425  0.260425  0.750181  1
  As  As14  1  0.333333  0.666667  0.000000  1
  As  As15  1  0.666667  0.333333  0.000000  1
  As  As16  1  0.666667  0.333333  0.500000  1
  As  As17  1  0.333333  0.666667  0.500000  1
