# generated using pymatgen
data_Ba5Sr(SnAu)6
_symmetry_space_group_name_H-M   'P 1'
_cell_length_a   5.02326300
_cell_length_b   8.50439204
_cell_length_c   24.88937207
_cell_angle_alpha   89.91305350
_cell_angle_beta   90.00000000
_cell_angle_gamma   90.00000000
_symmetry_Int_Tables_number   1
_chemical_formula_structural   Ba5Sr(SnAu)6
_chemical_formula_sum   'Ba10 Sr2 Sn12 Au12'
_cell_volume   1063.26771967
_cell_formula_units_Z   2
loop_
 _symmetry_equiv_pos_site_id
 _symmetry_equiv_pos_as_xyz
  1  'x, y, z'
loop_
 _atom_site_type_symbol
 _atom_site_label
 _atom_site_symmetry_multiplicity
 _atom_site_fract_x
 _atom_site_fract_y
 _atom_site_fract_z
 _atom_site_occupancy
  Ba  Ba0  1  0.250000  0.796367  0.502073  1
  Ba  Ba1  1  0.250000  0.793384  0.833346  1
  Ba  Ba2  1  0.250000  0.706338  0.333418  1
  Ba  Ba3  1  0.750000  0.206321  0.834033  1
  Ba  Ba4  1  0.750000  0.290874  0.998596  1
  Ba  Ba5  1  0.750000  0.293580  0.665810  1
  Ba  Ba6  1  0.750000  0.293077  0.333972  1
  Ba  Ba7  1  0.250000  0.705395  0.664998  1
  Ba  Ba8  1  0.250000  0.709545  0.003309  1
  Ba  Ba9  1  0.750000  0.204698  0.166828  1
  Sr  Sr10  1  0.750000  0.214006  0.497134  1
  Sr  Sr11  1  0.250000  0.788839  0.166227  1
  Sn  Sn12  1  0.250000  0.410095  0.560046  1
  Sn  Sn13  1  0.250000  0.083287  0.396993  1
  Sn  Sn14  1  0.250000  0.084431  0.065656  1
  Sn  Sn15  1  0.250000  0.416274  0.896022  1
  Sn  Sn16  1  0.750000  0.587956  0.105581  1
  Sn  Sn17  1  0.250000  0.417808  0.771345  1
  Sn  Sn18  1  0.750000  0.585816  0.227584  1
  Sn  Sn19  1  0.750000  0.582926  0.438399  1
  Sn  Sn20  1  0.750000  0.913771  0.937306  1
  Sn  Sn21  1  0.250000  0.080844  0.270337  1
  Sn  Sn22  1  0.750000  0.918856  0.602563  1
  Sn  Sn23  1  0.750000  0.918463  0.727495  1
  Au  Au24  1  0.250000  0.088288  0.591404  1
  Au  Au25  1  0.250000  0.086010  0.739120  1
  Au  Au26  1  0.750000  0.586526  0.906270  1
  Au  Au27  1  0.750000  0.915790  0.408693  1
  Au  Au28  1  0.750000  0.579717  0.563820  1
  Au  Au29  1  0.750000  0.586211  0.759767  1
  Au  Au30  1  0.250000  0.410716  0.436542  1
  Au  Au31  1  0.250000  0.415848  0.238746  1
  Au  Au32  1  0.750000  0.917264  0.068768  1
  Au  Au33  1  0.250000  0.415933  0.095636  1
  Au  Au34  1  0.250000  0.082036  0.933606  1
  Au  Au35  1  0.750000  0.912713  0.258558  1
