# generated using pymatgen
data_Ho12Os3Ru
_symmetry_space_group_name_H-M   'P 1'
_cell_length_a   6.30921500
_cell_length_b   7.35415317
_cell_length_c   9.02851300
_cell_angle_alpha   90.00000000
_cell_angle_beta   90.00000000
_cell_angle_gamma   89.93544074
_symmetry_Int_Tables_number   1
_chemical_formula_structural   Ho12Os3Ru
_chemical_formula_sum   'Ho12 Os3 Ru1'
_cell_volume   418.91310821
_cell_formula_units_Z   1
loop_
 _symmetry_equiv_pos_site_id
 _symmetry_equiv_pos_as_xyz
  1  'x, y, z'
loop_
 _atom_site_type_symbol
 _atom_site_label
 _atom_site_symmetry_multiplicity
 _atom_site_fract_x
 _atom_site_fract_y
 _atom_site_fract_z
 _atom_site_occupancy
  Ho  Ho0  1  0.329976  0.675727  0.064427  1
  Ho  Ho1  1  0.168880  0.175033  0.437331  1
  Ho  Ho2  1  0.667756  0.324538  0.562752  1
  Ho  Ho3  1  0.832947  0.825560  0.937984  1
  Ho  Ho4  1  0.667756  0.324538  0.937248  1
  Ho  Ho5  1  0.832947  0.825560  0.562016  1
  Ho  Ho6  1  0.329976  0.675727  0.435573  1
  Ho  Ho7  1  0.168880  0.175033  0.062669  1
  Ho  Ho8  1  0.868294  0.539599  0.250000  1
  Ho  Ho9  1  0.631474  0.039926  0.250000  1
  Ho  Ho10  1  0.133899  0.459619  0.750000  1
  Ho  Ho11  1  0.368306  0.958206  0.750000  1
  Os  Os12  1  0.038969  0.883350  0.250000  1
  Os  Os13  1  0.461288  0.383791  0.250000  1
  Os  Os14  1  0.961103  0.117144  0.750000  1
  Ru  Ru15  1  0.537546  0.616650  0.750000  1
