# generated using pymatgen
data_Y4HoCo19SiP11
_symmetry_space_group_name_H-M   'P 1'
_cell_length_a   12.02088610
_cell_length_b   12.02838064
_cell_length_c   3.68552900
_cell_angle_alpha   90.00000000
_cell_angle_beta   90.00000000
_cell_angle_gamma   120.02062436
_symmetry_Int_Tables_number   1
_chemical_formula_structural   Y4HoCo19SiP11
_chemical_formula_sum   'Y4 Ho1 Co19 Si1 P11'
_cell_volume   461.40661312
_cell_formula_units_Z   1
loop_
 _symmetry_equiv_pos_site_id
 _symmetry_equiv_pos_as_xyz
  1  'x, y, z'
loop_
 _atom_site_type_symbol
 _atom_site_label
 _atom_site_symmetry_multiplicity
 _atom_site_fract_x
 _atom_site_fract_y
 _atom_site_fract_z
 _atom_site_occupancy
  Y  Y0  1  0.332322  0.666176  0.500000  1
  Y  Y1  1  0.667678  0.333853  0.500000  1
  Y  Y2  1  0.811962  0.812263  0.000000  1
  Y  Y3  1  0.188038  0.000301  0.000000  1
  Ho  Ho4  1  0.000000  0.184936  0.000000  1
  Co  Co5  1  0.621641  0.821460  0.500000  1
  Co  Co6  1  0.178288  0.801210  0.500000  1
  Co  Co7  1  0.203497  0.377822  0.500000  1
  Co  Co8  1  0.378359  0.199820  0.500000  1
  Co  Co9  1  0.821712  0.622921  0.500000  1
  Co  Co10  1  0.796503  0.174325  0.500000  1
  Co  Co11  1  0.000000  0.557818  0.500000  1
  Co  Co12  1  0.448403  0.446219  0.500000  1
  Co  Co13  1  0.551597  0.997815  0.500000  1
  Co  Co14  1  0.516228  0.640814  0.000000  1
  Co  Co15  1  0.358501  0.874722  0.000000  1
  Co  Co16  1  0.126861  0.485750  0.000000  1
  Co  Co17  1  0.483772  0.124586  0.000000  1
  Co  Co18  1  0.641499  0.516221  0.000000  1
  Co  Co19  1  0.873139  0.358889  0.000000  1
  Co  Co20  1  0.000000  0.716327  0.000000  1
  Co  Co21  1  0.286049  0.284976  0.000000  1
  Co  Co22  1  0.713951  0.998927  0.000000  1
  Co  Co23  1  0.000000  0.000686  0.500000  1
  Si  Si24  1  0.000000  0.369185  0.500000  1
  P  P25  1  0.631036  0.631048  0.500000  1
  P  P26  1  0.368964  0.000013  0.500000  1
  P  P27  1  0.519735  0.833265  0.000000  1
  P  P28  1  0.164982  0.686296  0.000000  1
  P  P29  1  0.313186  0.479431  0.000000  1
  P  P30  1  0.480265  0.313531  0.000000  1
  P  P31  1  0.835018  0.521314  0.000000  1
  P  P32  1  0.686814  0.166246  0.000000  1
  P  P33  1  0.000000  0.819633  0.500000  1
  P  P34  1  0.181413  0.181303  0.500000  1
  P  P35  1  0.818587  0.999891  0.500000  1
