# generated using pymatgen
data_Th4MgAgPd4
_symmetry_space_group_name_H-M   'P 1'
_cell_length_a   7.86213000
_cell_length_b   7.86213000
_cell_length_c   3.85089200
_cell_angle_alpha   90.00000000
_cell_angle_beta   90.00000000
_cell_angle_gamma   90.00000000
_symmetry_Int_Tables_number   1
_chemical_formula_structural   Th4MgAgPd4
_chemical_formula_sum   'Th4 Mg1 Ag1 Pd4'
_cell_volume   238.03552660
_cell_formula_units_Z   1
loop_
 _symmetry_equiv_pos_site_id
 _symmetry_equiv_pos_as_xyz
  1  'x, y, z'
loop_
 _atom_site_type_symbol
 _atom_site_label
 _atom_site_symmetry_multiplicity
 _atom_site_fract_x
 _atom_site_fract_y
 _atom_site_fract_z
 _atom_site_occupancy
  Th  Th0  1  0.329610  0.177767  0.500001  1
  Th  Th1  1  0.822233  0.329610  0.500001  1
  Th  Th2  1  0.177767  0.670391  0.500001  1
  Th  Th3  1  0.670391  0.822233  0.500001  1
  Mg  Mg4  1  0.000000  0.000000  0.000000  1
  Ag  Ag5  1  0.500000  0.500000  0.000000  1
  Pd  Pd6  1  0.633426  0.124755  0.000000  1
  Pd  Pd7  1  0.124755  0.366573  0.000000  1
  Pd  Pd8  1  0.875247  0.633426  0.000000  1
  Pd  Pd9  1  0.366573  0.875247  0.000000  1
