# generated using pymatgen
data_Gd5HoC2Br11
_symmetry_space_group_name_H-M   'P 1'
_cell_length_a   9.02982136
_cell_length_b   10.25244377
_cell_length_c   14.30290600
_cell_angle_alpha   89.59685907
_cell_angle_beta   104.25252528
_cell_angle_gamma   109.71026054
_symmetry_Int_Tables_number   1
_chemical_formula_structural   Gd5HoC2Br11
_chemical_formula_sum   'Gd10 Ho2 C4 Br22'
_cell_volume   1203.98327348
_cell_formula_units_Z   2
loop_
 _symmetry_equiv_pos_site_id
 _symmetry_equiv_pos_as_xyz
  1  'x, y, z'
loop_
 _atom_site_type_symbol
 _atom_site_label
 _atom_site_symmetry_multiplicity
 _atom_site_fract_x
 _atom_site_fract_y
 _atom_site_fract_z
 _atom_site_occupancy
  Gd  Gd0  1  0.375167  0.467919  0.117516  1
  Gd  Gd1  1  0.624833  0.532081  0.882484  1
  Gd  Gd2  1  0.418696  0.789364  0.268133  1
  Gd  Gd3  1  0.581304  0.210636  0.731867  1
  Gd  Gd4  1  0.632708  0.575599  0.369625  1
  Gd  Gd5  1  0.367292  0.424401  0.630375  1
  Gd  Gd6  1  0.850305  0.647524  0.198937  1
  Gd  Gd7  1  0.149695  0.352476  0.801063  1
  Gd  Gd8  1  0.633045  0.856447  0.093031  1
  Gd  Gd9  1  0.366955  0.143553  0.906969  1
  Ho  Ho10  1  0.872745  0.961227  0.348707  1
  Ho  Ho11  1  0.127255  0.038773  0.651293  1
  C  C12  1  0.429212  0.343674  0.799186  1
  C  C13  1  0.570788  0.656326  0.200814  1
  C  C14  1  0.308546  0.226433  0.740891  1
  C  C15  1  0.691454  0.773567  0.259109  1
  Br  Br16  1  0.391119  0.314594  0.278246  1
  Br  Br17  1  0.608881  0.685406  0.721754  1
  Br  Br18  1  0.124754  0.562249  0.150504  1
  Br  Br19  1  0.875246  0.437751  0.849496  1
  Br  Br20  1  0.627832  0.378375  0.063222  1
  Br  Br21  1  0.372168  0.621625  0.936778  1
  Br  Br22  1  0.115772  0.200189  0.484416  1
  Br  Br23  1  0.884228  0.799811  0.515584  1
  Br  Br24  1  0.623997  0.034757  0.389040  1
  Br  Br25  1  0.376003  0.965243  0.610960  1
  Br  Br26  1  0.131880  0.873874  0.306741  1
  Br  Br27  1  0.868120  0.126126  0.693259  1
  Br  Br28  1  0.124587  0.528048  0.651872  1
  Br  Br29  1  0.875413  0.471952  0.348128  1
  Br  Br30  1  0.615175  0.369144  0.564445  1
  Br  Br31  1  0.384825  0.630856  0.435555  1
  Br  Br32  1  0.134160  0.218483  0.981158  1
  Br  Br33  1  0.865840  0.781517  0.018842  1
  Br  Br34  1  0.625963  0.048103  0.901696  1
  Br  Br35  1  0.374037  0.951897  0.098304  1
  Br  Br36  1  0.123682  0.889446  0.815897  1
  Br  Br37  1  0.876318  0.110554  0.184103  1
