# generated using pymatgen
data_Hf4Mo2IrPt
_symmetry_space_group_name_H-M   'P 1'
_cell_length_a   6.55124000
_cell_length_b   4.66721300
_cell_length_c   9.32611800
_cell_angle_alpha   90.00000000
_cell_angle_beta   90.00003332
_cell_angle_gamma   90.00000000
_symmetry_Int_Tables_number   1
_chemical_formula_structural   Hf4Mo2IrPt
_chemical_formula_sum   'Hf8 Mo4 Ir2 Pt2'
_cell_volume   285.15568701
_cell_formula_units_Z   2
loop_
 _symmetry_equiv_pos_site_id
 _symmetry_equiv_pos_as_xyz
  1  'x, y, z'
loop_
 _atom_site_type_symbol
 _atom_site_label
 _atom_site_symmetry_multiplicity
 _atom_site_fract_x
 _atom_site_fract_y
 _atom_site_fract_z
 _atom_site_occupancy
  Hf  Hf0  1  0.997969  0.750000  0.122386  1
  Hf  Hf1  1  0.502012  0.750000  0.122387  1
  Hf  Hf2  1  0.002020  0.250001  0.377609  1
  Hf  Hf3  1  0.497974  0.250001  0.377610  1
  Hf  Hf4  1  0.497923  0.750000  0.627559  1
  Hf  Hf5  1  0.002084  0.750000  0.627560  1
  Hf  Hf6  1  0.502091  0.250001  0.872444  1
  Hf  Hf7  1  0.997928  0.250001  0.872443  1
  Mo  Mo8  1  0.749994  0.250001  0.126252  1
  Mo  Mo9  1  0.249995  0.750000  0.373746  1
  Mo  Mo10  1  0.750006  0.250001  0.623923  1
  Mo  Mo11  1  0.250006  0.750000  0.876082  1
  Ir  Ir12  1  0.250006  0.250001  0.625228  1
  Ir  Ir13  1  0.750006  0.750000  0.874777  1
  Pt  Pt14  1  0.249993  0.250001  0.124647  1
  Pt  Pt15  1  0.749993  0.750000  0.375348  1
