# generated using pymatgen
data_HoMg3Ge5AsIr7
_symmetry_space_group_name_H-M   'P 1'
_cell_length_a   7.16210391
_cell_length_b   7.16210373
_cell_length_c   7.00988747
_cell_angle_alpha   108.96969805
_cell_angle_beta   108.96969624
_cell_angle_gamma   110.12672694
_symmetry_Int_Tables_number   1
_chemical_formula_structural   HoMg3Ge5AsIr7
_chemical_formula_sum   'Ho1 Mg3 Ge5 As1 Ir7'
_cell_volume   277.95516653
_cell_formula_units_Z   1
loop_
 _symmetry_equiv_pos_site_id
 _symmetry_equiv_pos_as_xyz
  1  'x, y, z'
loop_
 _atom_site_type_symbol
 _atom_site_label
 _atom_site_symmetry_multiplicity
 _atom_site_fract_x
 _atom_site_fract_y
 _atom_site_fract_z
 _atom_site_occupancy
  Ho  Ho0  1  0.001129  0.001129  0.500353  1
  Mg  Mg1  1  0.001687  0.499604  0.999948  1
  Mg  Mg2  1  0.499604  0.001687  0.999948  1
  Mg  Mg3  1  0.499908  0.499908  0.498371  1
  Ge  Ge4  1  0.315917  0.000163  0.307900  1
  Ge  Ge5  1  0.000163  0.315917  0.307900  1
  Ge  Ge6  1  0.311369  0.311369  0.007422  1
  Ge  Ge7  1  0.685015  0.000243  0.691134  1
  Ge  Ge8  1  0.000243  0.685015  0.691134  1
  As  As9  1  0.683552  0.683552  0.994902  1
  Ir  Ir10  1  0.748127  0.254145  0.501127  1
  Ir  Ir11  1  0.747203  0.494531  0.246298  1
  Ir  Ir12  1  0.504968  0.253819  0.753090  1
  Ir  Ir13  1  0.253819  0.504968  0.753090  1
  Ir  Ir14  1  0.254145  0.748127  0.501127  1
  Ir  Ir15  1  0.494531  0.747203  0.246298  1
  Ir  Ir16  1  0.998620  0.998620  0.999959  1
