# generated using pymatgen
data_Tb3SmTh6(Tl3C)2
_symmetry_space_group_name_H-M   'P 1'
_cell_length_a   9.40549900
_cell_length_b   9.40549969
_cell_length_c   6.41598000
_cell_angle_alpha   90.00000000
_cell_angle_beta   90.00000000
_cell_angle_gamma   120.00000812
_symmetry_Int_Tables_number   1
_chemical_formula_structural   Tb3SmTh6(Tl3C)2
_chemical_formula_sum   'Tb3 Sm1 Th6 Tl6 C2'
_cell_volume   491.53824289
_cell_formula_units_Z   1
loop_
 _symmetry_equiv_pos_site_id
 _symmetry_equiv_pos_as_xyz
  1  'x, y, z'
loop_
 _atom_site_type_symbol
 _atom_site_label
 _atom_site_symmetry_multiplicity
 _atom_site_fract_x
 _atom_site_fract_y
 _atom_site_fract_z
 _atom_site_occupancy
  Tb  Tb0  1  0.333333  0.666667  0.000000  1
  Tb  Tb1  1  0.333333  0.666667  0.500000  1
  Tb  Tb2  1  0.666667  0.333333  0.500000  1
  Sm  Sm3  1  0.666667  0.333333  0.000000  1
  Th  Th4  1  0.781884  0.781852  0.749834  1
  Th  Th5  1  0.218148  0.000032  0.749834  1
  Th  Th6  1  0.999968  0.218116  0.749834  1
  Th  Th7  1  0.218148  0.218116  0.250166  1
  Th  Th8  1  0.781884  0.000032  0.250166  1
  Th  Th9  1  0.999968  0.781852  0.250166  1
  Tl  Tl10  1  0.408476  0.410282  0.747808  1
  Tl  Tl11  1  0.589718  0.998194  0.747808  1
  Tl  Tl12  1  0.001806  0.591524  0.747808  1
  Tl  Tl13  1  0.589718  0.591524  0.252192  1
  Tl  Tl14  1  0.408476  0.998194  0.252192  1
  Tl  Tl15  1  0.001806  0.410282  0.252192  1
  C  C16  1  0.000000  0.000000  0.000000  1
  C  C17  1  0.000000  0.000000  0.500000  1
