# generated using pymatgen
data_Tb3Dy3OsRu
_symmetry_space_group_name_H-M   'P 1'
_cell_length_a   6.34731669
_cell_length_b   7.36382600
_cell_length_c   9.16933399
_cell_angle_alpha   90.00000000
_cell_angle_beta   90.05326689
_cell_angle_gamma   90.00000000
_symmetry_Int_Tables_number   1
_chemical_formula_structural   Tb3Dy3OsRu
_chemical_formula_sum   'Tb6 Dy6 Os2 Ru2'
_cell_volume   428.57939698
_cell_formula_units_Z   2
loop_
 _symmetry_equiv_pos_site_id
 _symmetry_equiv_pos_as_xyz
  1  'x, y, z'
loop_
 _atom_site_type_symbol
 _atom_site_label
 _atom_site_symmetry_multiplicity
 _atom_site_fract_x
 _atom_site_fract_y
 _atom_site_fract_z
 _atom_site_occupancy
  Tb  Tb0  1  0.331682  0.675614  0.063113  1
  Tb  Tb1  1  0.168318  0.175614  0.436887  1
  Tb  Tb2  1  0.867222  0.539980  0.250035  1
  Tb  Tb3  1  0.632778  0.039980  0.249965  1
  Tb  Tb4  1  0.131707  0.461852  0.749984  1
  Tb  Tb5  1  0.368293  0.961852  0.750016  1
  Dy  Dy6  1  0.671001  0.323867  0.564695  1
  Dy  Dy7  1  0.828999  0.823867  0.935305  1
  Dy  Dy8  1  0.671055  0.323729  0.935306  1
  Dy  Dy9  1  0.828945  0.823729  0.564694  1
  Dy  Dy10  1  0.331790  0.675456  0.436941  1
  Dy  Dy11  1  0.168210  0.175456  0.063059  1
  Os  Os12  1  0.959313  0.115482  0.750196  1
  Os  Os13  1  0.540687  0.615482  0.749804  1
  Ru  Ru14  1  0.038387  0.884019  0.250009  1
  Ru  Ru15  1  0.461613  0.384019  0.249991  1
