# generated using pymatgen
data_Tb7Tm(ZnRh)2
_symmetry_space_group_name_H-M   'P 1'
_cell_length_a   9.52286373
_cell_length_b   9.50780295
_cell_length_c   9.50780350
_cell_angle_alpha   59.92591053
_cell_angle_beta   59.83895997
_cell_angle_gamma   59.83896186
_symmetry_Int_Tables_number   1
_chemical_formula_structural   Tb7Tm(ZnRh)2
_chemical_formula_sum   'Tb14 Tm2 Zn4 Rh4'
_cell_volume   606.88855605
_cell_formula_units_Z   2
loop_
 _symmetry_equiv_pos_site_id
 _symmetry_equiv_pos_as_xyz
  1  'x, y, z'
loop_
 _atom_site_type_symbol
 _atom_site_label
 _atom_site_symmetry_multiplicity
 _atom_site_fract_x
 _atom_site_fract_y
 _atom_site_fract_z
 _atom_site_occupancy
  Tb  Tb0  1  0.190465  0.191473  0.809526  1
  Tb  Tb1  1  0.645420  0.063887  0.644948  1
  Tb  Tb2  1  0.062911  0.063968  0.437908  1
  Tb  Tb3  1  0.437146  0.435668  0.062203  1
  Tb  Tb4  1  0.647435  0.645825  0.645825  1
  Tb  Tb5  1  0.809076  0.190539  0.190539  1
  Tb  Tb6  1  0.190609  0.809334  0.809334  1
  Tb  Tb7  1  0.062652  0.645071  0.645071  1
  Tb  Tb8  1  0.438957  0.063136  0.063136  1
  Tb  Tb9  1  0.437146  0.062203  0.435668  1
  Tb  Tb10  1  0.062911  0.437908  0.063968  1
  Tb  Tb11  1  0.645420  0.644948  0.063887  1
  Tb  Tb12  1  0.190465  0.809526  0.191473  1
  Tb  Tb13  1  0.062067  0.436340  0.436340  1
  Tm  Tm14  1  0.808509  0.809688  0.191238  1
  Tm  Tm15  1  0.808509  0.191238  0.809688  1
  Zn  Zn16  1  0.420951  0.420851  0.420851  1
  Zn  Zn17  1  0.420999  0.420460  0.738665  1
  Zn  Zn18  1  0.420999  0.738665  0.420460  1
  Zn  Zn19  1  0.738769  0.420698  0.420698  1
  Rh  Rh20  1  0.855709  0.429223  0.855232  1
  Rh  Rh21  1  0.856376  0.858340  0.858340  1
  Rh  Rh22  1  0.855709  0.855232  0.429223  1
  Rh  Rh23  1  0.430790  0.855779  0.855779  1
