# generated using pymatgen
data_Sb14Mo4OsRu
_symmetry_space_group_name_H-M   'P 1'
_cell_length_a   8.30383049
_cell_length_b   8.29466648
_cell_length_c   8.30383153
_cell_angle_alpha   109.24571245
_cell_angle_beta   109.92890701
_cell_angle_gamma   109.28422757
_symmetry_Int_Tables_number   1
_chemical_formula_structural   Sb14Mo4OsRu
_chemical_formula_sum   'Sb14 Mo4 Os1 Ru1'
_cell_volume   440.02462733
_cell_formula_units_Z   1
loop_
 _symmetry_equiv_pos_site_id
 _symmetry_equiv_pos_as_xyz
  1  'x, y, z'
loop_
 _atom_site_type_symbol
 _atom_site_label
 _atom_site_symmetry_multiplicity
 _atom_site_fract_x
 _atom_site_fract_y
 _atom_site_fract_z
 _atom_site_occupancy
  Sb  Sb0  1  0.749192  0.250822  0.501630  1
  Sb  Sb1  1  0.501609  0.250760  0.749151  1
  Sb  Sb2  1  0.502118  0.750915  0.248797  1
  Sb  Sb3  1  0.251748  0.503422  0.751736  1
  Sb  Sb4  1  0.751686  0.503422  0.251674  1
  Sb  Sb5  1  0.248936  0.751055  0.502119  1
  Sb  Sb6  1  0.326981  0.326820  0.327193  1
  Sb  Sb7  1  0.000569  0.000325  0.326805  1
  Sb  Sb8  1  0.326741  0.000034  0.000587  1
  Sb  Sb9  1  0.999628  0.326820  0.999840  1
  Sb  Sb10  1  0.673519  0.000325  0.999755  1
  Sb  Sb11  1  0.999977  0.674796  0.999888  1
  Sb  Sb12  1  0.999447  0.000034  0.673293  1
  Sb  Sb13  1  0.674907  0.674796  0.674819  1
  Mo  Mo14  1  0.999642  0.654724  0.655082  1
  Mo  Mo15  1  0.659107  0.999330  0.659002  1
  Mo  Mo16  1  0.340328  0.999330  0.340224  1
  Mo  Mo17  1  0.654922  0.654431  0.999509  1
  Os  Os18  1  0.339210  0.338847  0.999636  1
  Ru  Ru19  1  0.999732  0.338992  0.339259  1
