# generated using pymatgen
data_DyYSc2(AlB6)2
_symmetry_space_group_name_H-M   'P 1'
_cell_length_a   3.51189600
_cell_length_b   9.06037300
_cell_length_c   11.41946700
_cell_angle_alpha   89.99885638
_cell_angle_beta   89.99996863
_cell_angle_gamma   90.00009321
_symmetry_Int_Tables_number   1
_chemical_formula_structural   DyYSc2(AlB6)2
_chemical_formula_sum   'Dy2 Y2 Sc4 Al4 B24'
_cell_volume   363.35702190
_cell_formula_units_Z   2
loop_
 _symmetry_equiv_pos_site_id
 _symmetry_equiv_pos_as_xyz
  1  'x, y, z'
loop_
 _atom_site_type_symbol
 _atom_site_label
 _atom_site_symmetry_multiplicity
 _atom_site_fract_x
 _atom_site_fract_y
 _atom_site_fract_z
 _atom_site_occupancy
  Dy  Dy0  1  0.000000  0.820671  0.085648  1
  Dy  Dy1  1  0.999999  0.179328  0.914352  1
  Y  Y2  1  0.000000  0.320992  0.414473  1
  Y  Y3  1  0.000000  0.679008  0.585527  1
  Sc  Sc4  1  0.000001  0.444515  0.127847  1
  Sc  Sc5  1  0.000001  0.555484  0.872154  1
  Sc  Sc6  1  0.000001  0.944547  0.372098  1
  Sc  Sc7  1  0.999999  0.055453  0.627902  1
  Al  Al8  1  0.000000  0.141968  0.181794  1
  Al  Al9  1  0.000000  0.858032  0.818206  1
  Al  Al10  1  0.000000  0.642158  0.317917  1
  Al  Al11  1  0.000000  0.357842  0.682083  1
  B  B12  1  0.500000  0.051761  0.064988  1
  B  B13  1  0.500000  0.948239  0.935012  1
  B  B14  1  0.500000  0.551840  0.434895  1
  B  B15  1  0.500000  0.448160  0.565105  1
  B  B16  1  0.499999  0.255448  0.080978  1
  B  B17  1  0.500000  0.744553  0.919022  1
  B  B18  1  0.500001  0.755517  0.418900  1
  B  B19  1  0.499999  0.244483  0.581100  1
  B  B20  1  0.499999  0.298219  0.236453  1
  B  B21  1  0.500000  0.701781  0.763547  1
  B  B22  1  0.500000  0.798279  0.263398  1
  B  B23  1  0.499999  0.201721  0.736602  1
  B  B24  1  0.500000  0.129087  0.318746  1
  B  B25  1  0.500000  0.870913  0.681253  1
  B  B26  1  0.500000  0.629202  0.181153  1
  B  B27  1  0.500001  0.370798  0.818847  1
  B  B28  1  0.500000  0.479634  0.285626  1
  B  B29  1  0.500000  0.520366  0.714374  1
  B  B30  1  0.500000  0.979557  0.214247  1
  B  B31  1  0.500000  0.020443  0.785753  1
  B  B32  1  0.500000  0.097333  0.473600  1
  B  B33  1  0.500000  0.902667  0.526400  1
  B  B34  1  0.500001  0.597518  0.026426  1
  B  B35  1  0.500000  0.402481  0.973574  1
