# generated using pymatgen
data_NaSr4Ho5Sn8
_symmetry_space_group_name_H-M   'P 1'
_cell_length_a   8.03444000
_cell_length_b   8.53917500
_cell_length_c   16.12337600
_cell_angle_alpha   90.00000000
_cell_angle_beta   90.00000000
_cell_angle_gamma   90.00000000
_symmetry_Int_Tables_number   1
_chemical_formula_structural   NaSr4Ho5Sn8
_chemical_formula_sum   'Na2 Sr8 Ho10 Sn16'
_cell_volume   1106.18434458
_cell_formula_units_Z   2
loop_
 _symmetry_equiv_pos_site_id
 _symmetry_equiv_pos_as_xyz
  1  'x, y, z'
loop_
 _atom_site_type_symbol
 _atom_site_label
 _atom_site_symmetry_multiplicity
 _atom_site_fract_x
 _atom_site_fract_y
 _atom_site_fract_z
 _atom_site_occupancy
  Na  Na0  1  0.162737  0.492198  0.250000  1
  Na  Na1  1  0.662737  0.007802  0.250000  1
  Sr  Sr2  1  0.502718  0.677700  0.592214  1
  Sr  Sr3  1  0.002718  0.822300  0.907786  1
  Sr  Sr4  1  0.494189  0.316771  0.095234  1
  Sr  Sr5  1  0.994189  0.183229  0.404766  1
  Sr  Sr6  1  0.494189  0.316771  0.404766  1
  Sr  Sr7  1  0.994189  0.183229  0.095234  1
  Sr  Sr8  1  0.502718  0.677700  0.907786  1
  Sr  Sr9  1  0.002718  0.822300  0.592214  1
  Ho  Ho10  1  0.675792  0.164275  0.622708  1
  Ho  Ho11  1  0.175792  0.335725  0.877292  1
  Ho  Ho12  1  0.326999  0.833354  0.123780  1
  Ho  Ho13  1  0.826999  0.666646  0.376220  1
  Ho  Ho14  1  0.326999  0.833354  0.376220  1
  Ho  Ho15  1  0.826999  0.666646  0.123780  1
  Ho  Ho16  1  0.675792  0.164275  0.877292  1
  Ho  Ho17  1  0.175792  0.335725  0.622708  1
  Ho  Ho18  1  0.839027  0.506114  0.750000  1
  Ho  Ho19  1  0.339027  0.993886  0.750000  1
  Sn  Sn20  1  0.663392  0.958690  0.461120  1
  Sn  Sn21  1  0.163392  0.541310  0.038880  1
  Sn  Sn22  1  0.337228  0.039171  0.954993  1
  Sn  Sn23  1  0.837228  0.460829  0.545007  1
  Sn  Sn24  1  0.337228  0.039171  0.545007  1
  Sn  Sn25  1  0.837228  0.460829  0.954993  1
  Sn  Sn26  1  0.663392  0.958690  0.038880  1
  Sn  Sn27  1  0.163392  0.541310  0.461120  1
  Sn  Sn28  1  0.474295  0.368895  0.750000  1
  Sn  Sn29  1  0.974295  0.131105  0.750000  1
  Sn  Sn30  1  0.527071  0.628848  0.250000  1
  Sn  Sn31  1  0.027071  0.871152  0.250000  1
  Sn  Sn32  1  0.713152  0.871024  0.750000  1
  Sn  Sn33  1  0.213152  0.628976  0.750000  1
  Sn  Sn34  1  0.283082  0.116072  0.250000  1
  Sn  Sn35  1  0.783082  0.383928  0.250000  1
