# generated using pymatgen
data_Sc3Sn3Pd2Ru
_symmetry_space_group_name_H-M   'P 1'
_cell_length_a   7.65656500
_cell_length_b   7.65656443
_cell_length_c   6.88921500
_cell_angle_alpha   90.00000000
_cell_angle_beta   90.00000000
_cell_angle_gamma   119.99998951
_symmetry_Int_Tables_number   1
_chemical_formula_structural   Sc3Sn3Pd2Ru
_chemical_formula_sum   'Sc6 Sn6 Pd4 Ru2'
_cell_volume   349.75854304
_cell_formula_units_Z   2
loop_
 _symmetry_equiv_pos_site_id
 _symmetry_equiv_pos_as_xyz
  1  'x, y, z'
loop_
 _atom_site_type_symbol
 _atom_site_label
 _atom_site_symmetry_multiplicity
 _atom_site_fract_x
 _atom_site_fract_y
 _atom_site_fract_z
 _atom_site_occupancy
  Sc  Sc0  1  0.388643  0.007025  0.250000  1
  Sc  Sc1  1  0.618381  0.611357  0.250000  1
  Sc  Sc2  1  0.992975  0.381619  0.250000  1
  Sc  Sc3  1  0.381619  0.992975  0.750000  1
  Sc  Sc4  1  0.611357  0.618381  0.750000  1
  Sc  Sc5  1  0.007025  0.388643  0.750000  1
  Sn  Sn6  1  0.721527  0.000000  0.000000  1
  Sn  Sn7  1  0.278473  0.278473  0.500000  1
  Sn  Sn8  1  0.000000  0.721527  0.500000  1
  Sn  Sn9  1  0.000000  0.721527  0.000000  1
  Sn  Sn10  1  0.278473  0.278473  0.000000  1
  Sn  Sn11  1  0.721527  0.000000  0.500000  1
  Pd  Pd12  1  0.333333  0.666667  0.013820  1
  Pd  Pd13  1  0.333333  0.666667  0.486180  1
  Pd  Pd14  1  0.666667  0.333333  0.986180  1
  Pd  Pd15  1  0.666667  0.333333  0.513820  1
  Ru  Ru16  1  0.000000  0.000000  0.250000  1
  Ru  Ru17  1  0.000000  0.000000  0.750000  1
