# generated using pymatgen
data_AcTb(Ni4B)2
_symmetry_space_group_name_H-M   'P 1'
_cell_length_a   5.07070500
_cell_length_b   5.06857071
_cell_length_c   7.04307400
_cell_angle_alpha   90.00000000
_cell_angle_beta   90.00000000
_cell_angle_gamma   120.01392374
_symmetry_Int_Tables_number   1
_chemical_formula_structural   AcTb(Ni4B)2
_chemical_formula_sum   'Ac1 Tb1 Ni8 B2'
_cell_volume   156.74214565
_cell_formula_units_Z   1
loop_
 _symmetry_equiv_pos_site_id
 _symmetry_equiv_pos_as_xyz
  1  'x, y, z'
loop_
 _atom_site_type_symbol
 _atom_site_label
 _atom_site_symmetry_multiplicity
 _atom_site_fract_x
 _atom_site_fract_y
 _atom_site_fract_z
 _atom_site_occupancy
  Ac  Ac0  1  0.000001  0.000000  0.000000  1
  Tb  Tb1  1  0.999967  0.000000  0.500000  1
  Ni  Ni2  1  0.332849  0.665981  0.000000  1
  Ni  Ni3  1  0.666870  0.334019  0.000000  1
  Ni  Ni4  1  0.500039  0.000000  0.298965  1
  Ni  Ni5  1  0.500025  0.499997  0.298398  1
  Ni  Ni6  1  0.000028  0.500003  0.298398  1
  Ni  Ni7  1  0.500039  0.000000  0.701035  1
  Ni  Ni8  1  0.500025  0.499997  0.701602  1
  Ni  Ni9  1  0.000028  0.500003  0.701602  1
  B  B10  1  0.333210  0.666495  0.500000  1
  B  B11  1  0.666715  0.333505  0.500000  1
