# generated using pymatgen
data_Zr16ZnCo4Rh3N4
_symmetry_space_group_name_H-M   'P 1'
_cell_length_a   8.70109328
_cell_length_b   8.71667696
_cell_length_c   8.71667700
_cell_angle_alpha   60.00000365
_cell_angle_beta   59.94074005
_cell_angle_gamma   59.94074264
_symmetry_Int_Tables_number   1
_chemical_formula_structural   Zr16ZnCo4Rh3N4
_chemical_formula_sum   'Zr16 Zn1 Co4 Rh3 N4'
_cell_volume   467.05837822
_cell_formula_units_Z   1
loop_
 _symmetry_equiv_pos_site_id
 _symmetry_equiv_pos_as_xyz
  1  'x, y, z'
loop_
 _atom_site_type_symbol
 _atom_site_label
 _atom_site_symmetry_multiplicity
 _atom_site_fract_x
 _atom_site_fract_y
 _atom_site_fract_z
 _atom_site_occupancy
  Zr  Zr0  1  0.085453  0.638182  0.638182  1
  Zr  Zr1  1  0.638826  0.077386  0.641894  1
  Zr  Zr2  1  0.638826  0.641894  0.077386  1
  Zr  Zr3  1  0.638826  0.641894  0.641894  1
  Zr  Zr4  1  0.815175  0.817045  0.183891  1
  Zr  Zr5  1  0.184022  0.185536  0.815221  1
  Zr  Zr6  1  0.815175  0.183891  0.817045  1
  Zr  Zr7  1  0.184022  0.815221  0.185536  1
  Zr  Zr8  1  0.184022  0.815221  0.815221  1
  Zr  Zr9  1  0.815175  0.183891  0.183891  1
  Zr  Zr10  1  0.434386  0.433936  0.065839  1
  Zr  Zr11  1  0.070022  0.062594  0.433692  1
  Zr  Zr12  1  0.434386  0.065839  0.433936  1
  Zr  Zr13  1  0.070022  0.433692  0.062594  1
  Zr  Zr14  1  0.070022  0.433692  0.433692  1
  Zr  Zr15  1  0.434386  0.065839  0.065839  1
  Zn  Zn16  1  0.734159  0.421947  0.421947  1
  Co  Co17  1  0.445452  0.851517  0.851517  1
  Co  Co18  1  0.852038  0.444884  0.851540  1
  Co  Co19  1  0.852038  0.851540  0.444884  1
  Co  Co20  1  0.852038  0.851540  0.851540  1
  Rh  Rh21  1  0.417444  0.751535  0.415511  1
  Rh  Rh22  1  0.417444  0.415511  0.751535  1
  Rh  Rh23  1  0.417444  0.415511  0.415511  1
  N  N24  1  0.623357  0.125547  0.125547  1
  N  N25  1  0.125281  0.622530  0.126095  1
  N  N26  1  0.125281  0.126095  0.622530  1
  N  N27  1  0.125281  0.126095  0.126095  1
