# generated using pymatgen
data_Rb2NaDyAs2
_symmetry_space_group_name_H-M   'P 1'
_cell_length_a   9.46304252
_cell_length_b   9.46304283
_cell_length_c   9.46304229
_cell_angle_alpha   135.16784187
_cell_angle_beta   135.11588883
_cell_angle_gamma   65.30986056
_symmetry_Int_Tables_number   1
_chemical_formula_structural   Rb2NaDyAs2
_chemical_formula_sum   'Rb4 Na2 Dy2 As4'
_cell_volume   415.44137051
_cell_formula_units_Z   2
loop_
 _symmetry_equiv_pos_site_id
 _symmetry_equiv_pos_as_xyz
  1  'x, y, z'
loop_
 _atom_site_type_symbol
 _atom_site_label
 _atom_site_symmetry_multiplicity
 _atom_site_fract_x
 _atom_site_fract_y
 _atom_site_fract_z
 _atom_site_occupancy
  Rb  Rb0  1  0.682858  0.396091  0.713233  1
  Rb  Rb1  1  0.817142  0.030375  0.213233  1
  Rb  Rb2  1  0.182858  0.969625  0.786767  1
  Rb  Rb3  1  0.317142  0.603909  0.286767  1
  Na  Na4  1  0.750000  0.000000  0.750000  1
  Na  Na5  1  0.250000  0.000000  0.250000  1
  Dy  Dy6  1  0.250000  0.500000  0.750000  1
  Dy  Dy7  1  0.750000  0.500000  0.250000  1
  As  As8  1  0.405769  0.182763  0.776994  1
  As  As9  1  0.594231  0.817237  0.223006  1
  As  As10  1  0.094231  0.371225  0.276994  1
  As  As11  1  0.905769  0.628775  0.723006  1
