# generated using pymatgen
data_Ho4TmLu3Pt4
_symmetry_space_group_name_H-M   'P 1'
_cell_length_a   4.74026600
_cell_length_b   7.08945049
_cell_length_c   8.65613522
_cell_angle_alpha   89.95000013
_cell_angle_beta   90.00000000
_cell_angle_gamma   90.00000000
_symmetry_Int_Tables_number   1
_chemical_formula_structural   Ho4TmLu3Pt4
_chemical_formula_sum   'Ho4 Tm1 Lu3 Pt4'
_cell_volume   290.89694030
_cell_formula_units_Z   1
loop_
 _symmetry_equiv_pos_site_id
 _symmetry_equiv_pos_as_xyz
  1  'x, y, z'
loop_
 _atom_site_type_symbol
 _atom_site_label
 _atom_site_symmetry_multiplicity
 _atom_site_fract_x
 _atom_site_fract_y
 _atom_site_fract_z
 _atom_site_occupancy
  Ho  Ho0  1  0.250000  0.990218  0.330503  1
  Ho  Ho1  1  0.250000  0.488784  0.168813  1
  Ho  Ho2  1  0.750000  0.011430  0.670529  1
  Ho  Ho3  1  0.750000  0.510488  0.830260  1
  Tm  Tm4  1  0.750000  0.643705  0.420992  1
  Lu  Lu5  1  0.250000  0.856913  0.921499  1
  Lu  Lu6  1  0.250000  0.356263  0.579115  1
  Lu  Lu7  1  0.750000  0.143059  0.078512  1
  Pt  Pt8  1  0.250000  0.254694  0.906639  1
  Pt  Pt9  1  0.250000  0.755790  0.594487  1
  Pt  Pt10  1  0.750000  0.745028  0.091696  1
  Pt  Pt11  1  0.750000  0.243627  0.406955  1
