# generated using pymatgen
data_Sc2Mn4FeCo5P6
_symmetry_space_group_name_H-M   'P 1'
_cell_length_a   3.53525500
_cell_length_b   10.22033400
_cell_length_c   11.89183700
_cell_angle_alpha   90.00000000
_cell_angle_beta   90.00000000
_cell_angle_gamma   90.00000000
_symmetry_Int_Tables_number   1
_chemical_formula_structural   Sc2Mn4FeCo5P6
_chemical_formula_sum   'Sc4 Mn8 Fe2 Co10 P12'
_cell_volume   429.66975249
_cell_formula_units_Z   2
loop_
 _symmetry_equiv_pos_site_id
 _symmetry_equiv_pos_as_xyz
  1  'x, y, z'
loop_
 _atom_site_type_symbol
 _atom_site_label
 _atom_site_symmetry_multiplicity
 _atom_site_fract_x
 _atom_site_fract_y
 _atom_site_fract_z
 _atom_site_occupancy
  Sc  Sc0  1  0.250000  0.581229  0.708694  1
  Sc  Sc1  1  0.250000  0.918771  0.208694  1
  Sc  Sc2  1  0.750000  0.417375  0.290919  1
  Sc  Sc3  1  0.750000  0.082625  0.790919  1
  Mn  Mn4  1  0.250000  0.715049  0.990870  1
  Mn  Mn5  1  0.250000  0.784951  0.490870  1
  Mn  Mn6  1  0.750000  0.286913  0.008691  1
  Mn  Mn7  1  0.750000  0.213087  0.508691  1
  Mn  Mn8  1  0.250000  0.407184  0.489953  1
  Mn  Mn9  1  0.250000  0.092816  0.989953  1
  Mn  Mn10  1  0.750000  0.592222  0.510327  1
  Mn  Mn11  1  0.750000  0.907778  0.010327  1
  Fe  Fe12  1  0.250000  0.220757  0.176063  1
  Fe  Fe13  1  0.250000  0.279244  0.676063  1
  Co  Co14  1  0.750000  0.777604  0.823066  1
  Co  Co15  1  0.750000  0.722396  0.323066  1
  Co  Co16  1  0.250000  0.882804  0.697115  1
  Co  Co17  1  0.250000  0.617196  0.197115  1
  Co  Co18  1  0.750000  0.115757  0.303391  1
  Co  Co19  1  0.750000  0.384243  0.803391  1
  Co  Co20  1  0.250000  0.464396  0.933429  1
  Co  Co21  1  0.250000  0.035604  0.433429  1
  Co  Co22  1  0.750000  0.535661  0.067524  1
  Co  Co23  1  0.750000  0.964339  0.567524  1
  P  P24  1  0.250000  0.418293  0.115013  1
  P  P25  1  0.250000  0.081707  0.615013  1
  P  P26  1  0.750000  0.580383  0.885812  1
  P  P27  1  0.750000  0.919617  0.385812  1
  P  P28  1  0.250000  0.264400  0.864153  1
  P  P29  1  0.250000  0.235600  0.364153  1
  P  P30  1  0.750000  0.735782  0.134338  1
  P  P31  1  0.750000  0.764218  0.634338  1
  P  P32  1  0.250000  0.594758  0.381544  1
  P  P33  1  0.250000  0.905242  0.881544  1
  P  P34  1  0.750000  0.403550  0.619099  1
  P  P35  1  0.750000  0.096450  0.119099  1
