# generated using pymatgen
data_Y2FeCo3(SiC)2
_symmetry_space_group_name_H-M   'P 1'
_cell_length_a   5.55822176
_cell_length_b   5.55822095
_cell_length_c   6.73872500
_cell_angle_alpha   89.99720027
_cell_angle_beta   90.00288165
_cell_angle_gamma   140.88465724
_symmetry_Int_Tables_number   1
_chemical_formula_structural   Y2FeCo3(SiC)2
_chemical_formula_sum   'Y2 Fe1 Co3 Si2 C2'
_cell_volume   131.34049376
_cell_formula_units_Z   1
loop_
 _symmetry_equiv_pos_site_id
 _symmetry_equiv_pos_as_xyz
  1  'x, y, z'
loop_
 _atom_site_type_symbol
 _atom_site_label
 _atom_site_symmetry_multiplicity
 _atom_site_fract_x
 _atom_site_fract_y
 _atom_site_fract_z
 _atom_site_occupancy
  Y  Y0  1  0.551263  0.448737  0.249439  1
  Y  Y1  1  0.448803  0.551198  0.750818  1
  Fe  Fe2  1  0.836311  0.163687  0.058851  1
  Co  Co3  1  0.165062  0.834939  0.941853  1
  Co  Co4  1  0.163910  0.836090  0.555471  1
  Co  Co5  1  0.835630  0.164370  0.443009  1
  Si  Si6  1  0.272501  0.727500  0.247768  1
  Si  Si7  1  0.728403  0.271597  0.751890  1
  C  C8  1  0.998462  0.001539  0.000583  1
  C  C9  1  0.999656  0.000343  0.500317  1
