# generated using pymatgen
data_Tb5Ho5Sn5Bi
_symmetry_space_group_name_H-M   'P 1'
_cell_length_a   9.00387345
_cell_length_b   9.00123874
_cell_length_c   6.52245800
_cell_angle_alpha   90.00000000
_cell_angle_beta   90.00000000
_cell_angle_gamma   119.89585796
_symmetry_Int_Tables_number   1
_chemical_formula_structural   Tb5Ho5Sn5Bi
_chemical_formula_sum   'Tb5 Ho5 Sn5 Bi1'
_cell_volume   458.27733656
_cell_formula_units_Z   1
loop_
 _symmetry_equiv_pos_site_id
 _symmetry_equiv_pos_as_xyz
  1  'x, y, z'
loop_
 _atom_site_type_symbol
 _atom_site_label
 _atom_site_symmetry_multiplicity
 _atom_site_fract_x
 _atom_site_fract_y
 _atom_site_fract_z
 _atom_site_occupancy
  Tb  Tb0  1  0.994832  0.757273  0.750000  1
  Tb  Tb1  1  0.000506  0.239513  0.250000  1
  Tb  Tb2  1  0.760577  0.760144  0.250000  1
  Tb  Tb3  1  0.764597  0.000190  0.750000  1
  Tb  Tb4  1  0.238171  0.000120  0.250000  1
  Ho  Ho5  1  0.237486  0.243175  0.750000  1
  Ho  Ho6  1  0.332438  0.662356  0.498348  1
  Ho  Ho7  1  0.669924  0.337460  0.001701  1
  Ho  Ho8  1  0.669924  0.337460  0.498299  1
  Ho  Ho9  1  0.332438  0.662356  0.001652  1
  Sn  Sn10  1  0.396154  0.394547  0.250000  1
  Sn  Sn11  1  0.001515  0.605432  0.250000  1
  Sn  Sn12  1  0.000017  0.396210  0.750000  1
  Sn  Sn13  1  0.602596  0.603117  0.750000  1
  Sn  Sn14  1  0.604755  0.000108  0.250000  1
  Bi  Bi15  1  0.394070  0.000537  0.750000  1
