# generated using pymatgen
data_Pa2Nb7Al5Mo
_symmetry_space_group_name_H-M   'P 1'
_cell_length_a   9.96942131
_cell_length_b   9.97974531
_cell_length_c   5.45749300
_cell_angle_alpha   90.00000000
_cell_angle_beta   90.00000000
_cell_angle_gamma   90.02864048
_symmetry_Int_Tables_number   1
_chemical_formula_structural   Pa2Nb7Al5Mo
_chemical_formula_sum   'Pa4 Nb14 Al10 Mo2'
_cell_volume   542.97838434
_cell_formula_units_Z   2
loop_
 _symmetry_equiv_pos_site_id
 _symmetry_equiv_pos_as_xyz
  1  'x, y, z'
loop_
 _atom_site_type_symbol
 _atom_site_label
 _atom_site_symmetry_multiplicity
 _atom_site_fract_x
 _atom_site_fract_y
 _atom_site_fract_z
 _atom_site_occupancy
  Pa  Pa0  1  0.391551  0.397521  0.000000  1
  Pa  Pa1  1  0.897331  0.108719  0.500000  1
  Pa  Pa2  1  0.103626  0.897246  0.500000  1
  Pa  Pa3  1  0.602698  0.603659  0.000000  1
  Nb  Nb4  1  0.036310  0.629013  0.500000  1
  Nb  Nb5  1  0.870847  0.535057  0.000000  1
  Nb  Nb6  1  0.364774  0.963221  0.500000  1
  Nb  Nb7  1  0.633469  0.037368  0.500000  1
  Nb  Nb8  1  0.462654  0.135470  0.000000  1
  Nb  Nb9  1  0.537489  0.865768  0.000000  1
  Nb  Nb10  1  0.182301  0.184220  0.250322  1
  Nb  Nb11  1  0.684247  0.317569  0.750616  1
  Nb  Nb12  1  0.315382  0.682298  0.749444  1
  Nb  Nb13  1  0.817135  0.815869  0.249776  1
  Nb  Nb14  1  0.315382  0.682298  0.250556  1
  Nb  Nb15  1  0.684247  0.317569  0.249384  1
  Nb  Nb16  1  0.182301  0.184220  0.749678  1
  Nb  Nb17  1  0.817135  0.815869  0.750224  1
  Al  Al18  1  0.999778  0.000278  0.000000  1
  Al  Al19  1  0.499994  0.499709  0.500000  1
  Al  Al20  1  0.268405  0.936105  0.000000  1
  Al  Al21  1  0.436063  0.232039  0.500000  1
  Al  Al22  1  0.563863  0.768830  0.500000  1
  Al  Al23  1  0.731610  0.064252  0.000000  1
  Al  Al24  1  0.227788  0.435036  0.500000  1
  Al  Al25  1  0.769609  0.561796  0.500000  1
  Al  Al26  1  0.939052  0.271564  0.000000  1
  Al  Al27  1  0.065180  0.729492  0.000000  1
  Mo  Mo28  1  0.135771  0.463568  0.000000  1
  Mo  Mo29  1  0.964007  0.364377  0.500000  1
