# generated using pymatgen
data_Pa2VGa3
_symmetry_space_group_name_H-M   'P 1'
_cell_length_a   5.49514977
_cell_length_b   5.49514994
_cell_length_c   5.49514987
_cell_angle_alpha   58.08215810
_cell_angle_beta   58.08216252
_cell_angle_gamma   58.08214891
_symmetry_Int_Tables_number   1
_chemical_formula_structural   Pa2VGa3
_chemical_formula_sum   'Pa2 V1 Ga3'
_cell_volume   112.17433674
_cell_formula_units_Z   1
loop_
 _symmetry_equiv_pos_site_id
 _symmetry_equiv_pos_as_xyz
  1  'x, y, z'
loop_
 _atom_site_type_symbol
 _atom_site_label
 _atom_site_symmetry_multiplicity
 _atom_site_fract_x
 _atom_site_fract_y
 _atom_site_fract_z
 _atom_site_occupancy
  Pa  Pa0  1  0.637688  0.637688  0.637688  1
  Pa  Pa1  1  0.362312  0.362312  0.362312  1
  V  V2  1  0.000000  0.000000  0.000000  1
  Ga  Ga3  1  0.000000  0.500000  0.000000  1
  Ga  Ga4  1  0.500000  0.000000  0.000000  1
  Ga  Ga5  1  0.000000  0.000000  0.500000  1
