# generated using pymatgen
data_Dy2ErCd3Ga2Hg
_symmetry_space_group_name_H-M   'P 1'
_cell_length_a   7.31701001
_cell_length_b   7.31762836
_cell_length_c   4.47530800
_cell_angle_alpha   90.00000000
_cell_angle_beta   90.00000000
_cell_angle_gamma   120.00281196
_symmetry_Int_Tables_number   1
_chemical_formula_structural   Dy2ErCd3Ga2Hg
_chemical_formula_sum   'Dy2 Er1 Cd3 Ga2 Hg1'
_cell_volume   207.51297325
_cell_formula_units_Z   1
loop_
 _symmetry_equiv_pos_site_id
 _symmetry_equiv_pos_as_xyz
  1  'x, y, z'
loop_
 _atom_site_type_symbol
 _atom_site_label
 _atom_site_symmetry_multiplicity
 _atom_site_fract_x
 _atom_site_fract_y
 _atom_site_fract_z
 _atom_site_occupancy
  Dy  Dy0  1  0.425727  0.425811  0.500000  1
  Dy  Dy1  1  0.574273  0.000085  0.500000  1
  Er  Er2  1  0.000000  0.574263  0.500000  1
  Cd  Cd3  1  0.745222  0.745135  0.000000  1
  Cd  Cd4  1  0.254778  0.999912  0.000000  1
  Cd  Cd5  1  0.000000  0.254981  0.000000  1
  Ga  Ga6  1  0.666841  0.333428  0.000000  1
  Ga  Ga7  1  0.333159  0.666588  0.000000  1
  Hg  Hg8  1  0.000000  0.999796  0.500000  1
