# generated using pymatgen
data_Sc10Al12Rh7
_symmetry_space_group_name_H-M   'P 1'
_cell_length_a   8.93780682
_cell_length_b   8.93780668
_cell_length_c   8.93780600
_cell_angle_alpha   60.00000253
_cell_angle_beta   60.00000304
_cell_angle_gamma   60.00000579
_symmetry_Int_Tables_number   1
_chemical_formula_structural   Sc10Al12Rh7
_chemical_formula_sum   'Sc10 Al12 Rh7'
_cell_volume   504.86804575
_cell_formula_units_Z   1
loop_
 _symmetry_equiv_pos_site_id
 _symmetry_equiv_pos_as_xyz
  1  'x, y, z'
loop_
 _atom_site_type_symbol
 _atom_site_label
 _atom_site_symmetry_multiplicity
 _atom_site_fract_x
 _atom_site_fract_y
 _atom_site_fract_z
 _atom_site_occupancy
  Sc  Sc0  1  0.697279  0.697279  0.302721  1
  Sc  Sc1  1  0.302721  0.697279  0.302721  1
  Sc  Sc2  1  0.697279  0.302721  0.302721  1
  Sc  Sc3  1  0.302721  0.302721  0.697279  1
  Sc  Sc4  1  0.697279  0.302721  0.697279  1
  Sc  Sc5  1  0.302721  0.697279  0.697279  1
  Sc  Sc6  1  0.881381  0.881381  0.355855  1
  Sc  Sc7  1  0.881381  0.355855  0.881381  1
  Sc  Sc8  1  0.355855  0.881381  0.881381  1
  Sc  Sc9  1  0.881381  0.881381  0.881381  1
  Al  Al10  1  0.121449  0.121449  0.635654  1
  Al  Al11  1  0.121449  0.635654  0.121449  1
  Al  Al12  1  0.635654  0.121449  0.121449  1
  Al  Al13  1  0.121449  0.121449  0.121449  1
  Al  Al14  1  0.665764  0.665764  0.002709  1
  Al  Al15  1  0.665764  0.002709  0.665764  1
  Al  Al16  1  0.002709  0.665764  0.665764  1
  Al  Al17  1  0.665764  0.665764  0.665764  1
  Al  Al18  1  0.332974  0.332974  0.001079  1
  Al  Al19  1  0.332974  0.001079  0.332974  1
  Al  Al20  1  0.001079  0.332974  0.332974  1
  Al  Al21  1  0.332974  0.332974  0.332974  1
  Rh  Rh22  1  0.000000  0.000000  0.000000  1
  Rh  Rh23  1  0.001317  0.001317  0.498683  1
  Rh  Rh24  1  0.498683  0.001317  0.498683  1
  Rh  Rh25  1  0.001317  0.498683  0.498683  1
  Rh  Rh26  1  0.498683  0.498683  0.001317  1
  Rh  Rh27  1  0.001317  0.498683  0.001317  1
  Rh  Rh28  1  0.498683  0.001317  0.001317  1
