# generated using pymatgen
data_Ho4ZrIrRh2
_symmetry_space_group_name_H-M   'P 1'
_cell_length_a   10.81779100
_cell_length_b   10.81779100
_cell_length_c   6.23253800
_cell_angle_alpha   90.00000000
_cell_angle_beta   90.00000000
_cell_angle_gamma   90.00000000
_symmetry_Int_Tables_number   1
_chemical_formula_structural   Ho4ZrIrRh2
_chemical_formula_sum   'Ho16 Zr4 Ir4 Rh8'
_cell_volume   729.36027965
_cell_formula_units_Z   4
loop_
 _symmetry_equiv_pos_site_id
 _symmetry_equiv_pos_as_xyz
  1  'x, y, z'
loop_
 _atom_site_type_symbol
 _atom_site_label
 _atom_site_symmetry_multiplicity
 _atom_site_fract_x
 _atom_site_fract_y
 _atom_site_fract_z
 _atom_site_occupancy
  Ho  Ho0  1  0.290087  0.088710  0.373116  1
  Ho  Ho1  1  0.290087  0.911290  0.873116  1
  Ho  Ho2  1  0.709913  0.088710  0.873116  1
  Ho  Ho3  1  0.709913  0.911290  0.373116  1
  Ho  Ho4  1  0.585849  0.788784  0.874484  1
  Ho  Ho5  1  0.585849  0.211216  0.374484  1
  Ho  Ho6  1  0.414151  0.788784  0.374484  1
  Ho  Ho7  1  0.414151  0.211216  0.874484  1
  Ho  Ho8  1  0.211216  0.414151  0.625516  1
  Ho  Ho9  1  0.211216  0.585849  0.125516  1
  Ho  Ho10  1  0.788784  0.414151  0.125516  1
  Ho  Ho11  1  0.788784  0.585849  0.625516  1
  Ho  Ho12  1  0.911290  0.709913  0.126884  1
  Ho  Ho13  1  0.911290  0.290087  0.626884  1
  Ho  Ho14  1  0.088710  0.709913  0.626884  1
  Ho  Ho15  1  0.088710  0.290087  0.126884  1
  Zr  Zr16  1  0.000000  0.000000  0.500000  1
  Zr  Zr17  1  0.000000  0.000000  0.000000  1
  Zr  Zr18  1  0.500000  0.500000  0.000000  1
  Zr  Zr19  1  0.500000  0.500000  0.500000  1
  Ir  Ir20  1  0.646903  0.353097  0.750000  1
  Ir  Ir21  1  0.646903  0.646903  0.250000  1
  Ir  Ir22  1  0.353097  0.353097  0.250000  1
  Ir  Ir23  1  0.353097  0.646903  0.750000  1
  Rh  Rh24  1  0.854230  0.145770  0.250000  1
  Rh  Rh25  1  0.854230  0.854230  0.750000  1
  Rh  Rh26  1  0.145770  0.145770  0.750000  1
  Rh  Rh27  1  0.145770  0.854230  0.250000  1
  Rh  Rh28  1  0.500000  0.000000  0.118327  1
  Rh  Rh29  1  0.500000  0.000000  0.618327  1
  Rh  Rh30  1  0.000000  0.500000  0.881673  1
  Rh  Rh31  1  0.000000  0.500000  0.381673  1
