# generated using pymatgen
data_YHo3Fe5Os3
_symmetry_space_group_name_H-M   'P 1'
_cell_length_a   5.25303913
_cell_length_b   5.23344482
_cell_length_c   9.03165621
_cell_angle_alpha   72.83235316
_cell_angle_beta   90.80885820
_cell_angle_gamma   120.24754387
_symmetry_Int_Tables_number   1
_chemical_formula_structural   YHo3Fe5Os3
_chemical_formula_sum   'Y1 Ho3 Fe5 Os3'
_cell_volume   202.19146557
_cell_formula_units_Z   1
loop_
 _symmetry_equiv_pos_site_id
 _symmetry_equiv_pos_as_xyz
  1  'x, y, z'
loop_
 _atom_site_type_symbol
 _atom_site_label
 _atom_site_symmetry_multiplicity
 _atom_site_fract_x
 _atom_site_fract_y
 _atom_site_fract_z
 _atom_site_occupancy
  Y  Y0  1  0.876056  0.750499  0.376422  1
  Ho  Ho1  1  0.375890  0.749942  0.873473  1
  Ho  Ho2  1  0.998869  0.999547  0.998650  1
  Ho  Ho3  1  0.498946  0.000084  0.501537  1
  Fe  Fe4  1  0.937453  0.874758  0.688273  1
  Fe  Fe5  1  0.183889  0.369740  0.443498  1
  Fe  Fe6  1  0.691263  0.380301  0.931688  1
  Fe  Fe7  1  0.937629  0.375546  0.186636  1
  Fe  Fe8  1  0.437004  0.374237  0.688317  1
  Os  Os9  1  0.437656  0.375853  0.186596  1
  Os  Os10  1  0.937632  0.374001  0.688332  1
  Os  Os11  1  0.437711  0.875493  0.186579  1
