# generated using pymatgen
data_Th2Mn3Al20Rh
_symmetry_space_group_name_H-M   'P 1'
_cell_length_a   6.83851368
_cell_length_b   6.84826375
_cell_length_c   9.11924153
_cell_angle_alpha   90.19669314
_cell_angle_beta   90.22197192
_cell_angle_gamma   97.21105757
_symmetry_Int_Tables_number   1
_chemical_formula_structural   Th2Mn3Al20Rh
_chemical_formula_sum   'Th2 Mn3 Al20 Rh1'
_cell_volume   423.68740809
_cell_formula_units_Z   1
loop_
 _symmetry_equiv_pos_site_id
 _symmetry_equiv_pos_as_xyz
  1  'x, y, z'
loop_
 _atom_site_type_symbol
 _atom_site_label
 _atom_site_symmetry_multiplicity
 _atom_site_fract_x
 _atom_site_fract_y
 _atom_site_fract_z
 _atom_site_occupancy
  Th  Th0  1  0.870398  0.122643  0.753037  1
  Th  Th1  1  0.129602  0.877357  0.246963  1
  Mn  Mn2  1  0.000000  0.500000  0.000000  1
  Mn  Mn3  1  0.500000  0.000000  0.000000  1
  Mn  Mn4  1  0.500000  0.000000  0.500000  1
  Al  Al5  1  0.518452  0.779542  0.750009  1
  Al  Al6  1  0.481548  0.220458  0.249991  1
  Al  Al7  1  0.590620  0.866403  0.249346  1
  Al  Al8  1  0.771599  0.772937  0.000354  1
  Al  Al9  1  0.164617  0.843326  0.601164  1
  Al  Al10  1  0.228401  0.227063  0.999646  1
  Al  Al11  1  0.136366  0.407477  0.245940  1
  Al  Al12  1  0.623165  0.375991  0.952734  1
  Al  Al13  1  0.838838  0.162206  0.099218  1
  Al  Al14  1  0.382205  0.626382  0.450074  1
  Al  Al15  1  0.161162  0.837794  0.900782  1
  Al  Al16  1  0.221990  0.479468  0.755962  1
  Al  Al17  1  0.376835  0.624009  0.047266  1
  Al  Al18  1  0.835383  0.156674  0.398836  1
  Al  Al19  1  0.617795  0.373618  0.549926  1
  Al  Al20  1  0.409380  0.133597  0.750654  1
  Al  Al21  1  0.778010  0.520532  0.244038  1
  Al  Al22  1  0.768469  0.776519  0.502133  1
  Al  Al23  1  0.231531  0.223481  0.497867  1
  Al  Al24  1  0.863634  0.592523  0.754060  1
  Rh  Rh25  1  0.000000  0.500000  0.500000  1
