# generated using pymatgen
data_Tb6Co15P12IrRh2
_symmetry_space_group_name_H-M   'P 1'
_cell_length_a   3.73673500
_cell_length_b   10.62597300
_cell_length_c   12.35959000
_cell_angle_alpha   90.00000000
_cell_angle_beta   90.00000000
_cell_angle_gamma   90.00000000
_symmetry_Int_Tables_number   1
_chemical_formula_structural   Tb6Co15P12IrRh2
_chemical_formula_sum   'Tb6 Co15 P12 Ir1 Rh2'
_cell_volume   490.75538325
_cell_formula_units_Z   1
loop_
 _symmetry_equiv_pos_site_id
 _symmetry_equiv_pos_as_xyz
  1  'x, y, z'
loop_
 _atom_site_type_symbol
 _atom_site_label
 _atom_site_symmetry_multiplicity
 _atom_site_fract_x
 _atom_site_fract_y
 _atom_site_fract_z
 _atom_site_occupancy
  Tb  Tb0  1  0.000000  0.500000  0.519341  1
  Tb  Tb1  1  0.500000  0.000000  0.475013  1
  Tb  Tb2  1  0.500000  0.818539  0.207242  1
  Tb  Tb3  1  0.500000  0.181461  0.207242  1
  Tb  Tb4  1  0.000000  0.687338  0.794525  1
  Tb  Tb5  1  0.000000  0.312662  0.794525  1
  Co  Co6  1  0.000000  0.000000  0.295420  1
  Co  Co7  1  0.000000  0.500000  0.989069  1
  Co  Co8  1  0.500000  0.000000  0.014564  1
  Co  Co9  1  0.500000  0.331277  0.994652  1
  Co  Co10  1  0.500000  0.668723  0.994652  1
  Co  Co11  1  0.000000  0.166483  0.008095  1
  Co  Co12  1  0.000000  0.833517  0.008095  1
  Co  Co13  1  0.500000  0.297051  0.428329  1
  Co  Co14  1  0.500000  0.702949  0.428329  1
  Co  Co15  1  0.000000  0.199184  0.568366  1
  Co  Co16  1  0.000000  0.800816  0.568366  1
  Co  Co17  1  0.500000  0.881157  0.708909  1
  Co  Co18  1  0.500000  0.118843  0.708909  1
  Co  Co19  1  0.000000  0.621325  0.290506  1
  Co  Co20  1  0.000000  0.378675  0.290506  1
  P  P21  1  0.500000  0.500000  0.891147  1
  P  P22  1  0.000000  0.000000  0.117500  1
  P  P23  1  0.500000  0.500000  0.348941  1
  P  P24  1  0.000000  0.000000  0.649116  1
  P  P25  1  0.500000  0.301025  0.612178  1
  P  P26  1  0.500000  0.698975  0.612178  1
  P  P27  1  0.000000  0.189506  0.383505  1
  P  P28  1  0.000000  0.810494  0.383505  1
  P  P29  1  0.500000  0.845826  0.896128  1
  P  P30  1  0.500000  0.154174  0.896128  1
  P  P31  1  0.000000  0.656420  0.105879  1
  P  P32  1  0.000000  0.343580  0.105879  1
  Ir  Ir33  1  0.500000  0.500000  0.703075  1
  Rh  Rh34  1  0.500000  0.500000  0.160050  1
  Rh  Rh35  1  0.000000  0.000000  0.840138  1
