# generated using pymatgen
data_NdTmFe3Co9P7
_symmetry_space_group_name_H-M   'P 1'
_cell_length_a   9.01134500
_cell_length_b   9.01134588
_cell_length_c   3.62146400
_cell_angle_alpha   90.00000000
_cell_angle_beta   90.00000000
_cell_angle_gamma   119.99999945
_symmetry_Int_Tables_number   1
_chemical_formula_structural   NdTmFe3Co9P7
_chemical_formula_sum   'Nd1 Tm1 Fe3 Co9 P7'
_cell_volume   254.67955538
_cell_formula_units_Z   1
loop_
 _symmetry_equiv_pos_site_id
 _symmetry_equiv_pos_as_xyz
  1  'x, y, z'
loop_
 _atom_site_type_symbol
 _atom_site_label
 _atom_site_symmetry_multiplicity
 _atom_site_fract_x
 _atom_site_fract_y
 _atom_site_fract_z
 _atom_site_occupancy
  Nd  Nd0  1  0.666667  0.333333  0.000000  1
  Tm  Tm1  1  0.333333  0.666667  0.500000  1
  Fe  Fe2  1  0.094506  0.878378  0.500000  1
  Fe  Fe3  1  0.783873  0.905494  0.500000  1
  Fe  Fe4  1  0.121622  0.216127  0.500000  1
  Co  Co5  1  0.062983  0.632159  0.000000  1
  Co  Co6  1  0.569176  0.937017  0.000000  1
  Co  Co7  1  0.367841  0.430824  0.000000  1
  Co  Co8  1  0.273200  0.115945  0.000000  1
  Co  Co9  1  0.842745  0.726800  0.000000  1
  Co  Co10  1  0.884055  0.157255  0.000000  1
  Co  Co11  1  0.431340  0.043842  0.500000  1
  Co  Co12  1  0.612501  0.568660  0.500000  1
  Co  Co13  1  0.956158  0.387499  0.500000  1
  P  P14  1  0.298637  0.886701  0.000000  1
  P  P15  1  0.588063  0.701363  0.000000  1
  P  P16  1  0.113299  0.411937  0.000000  1
  P  P17  1  0.396761  0.288961  0.500000  1
  P  P18  1  0.892200  0.603239  0.500000  1
  P  P19  1  0.711039  0.107800  0.500000  1
  P  P20  1  0.000000  0.000000  0.000000  1
