# generated using pymatgen
data_Lu4ScB4SbRh10
_symmetry_space_group_name_H-M   'P 1'
_cell_length_a   9.53480200
_cell_length_b   9.53480200
_cell_length_c   3.24482900
_cell_angle_alpha   90.00000000
_cell_angle_beta   90.00000000
_cell_angle_gamma   90.00000000
_symmetry_Int_Tables_number   1
_chemical_formula_structural   Lu4ScB4SbRh10
_chemical_formula_sum   'Lu4 Sc1 B4 Sb1 Rh10'
_cell_volume   294.99535156
_cell_formula_units_Z   1
loop_
 _symmetry_equiv_pos_site_id
 _symmetry_equiv_pos_as_xyz
  1  'x, y, z'
loop_
 _atom_site_type_symbol
 _atom_site_label
 _atom_site_symmetry_multiplicity
 _atom_site_fract_x
 _atom_site_fract_y
 _atom_site_fract_z
 _atom_site_occupancy
  Lu  Lu0  1  0.824970  0.326507  0.000000  1
  Lu  Lu1  1  0.326507  0.175030  0.000000  1
  Lu  Lu2  1  0.673493  0.824970  0.000000  1
  Lu  Lu3  1  0.175030  0.673493  0.000000  1
  Sc  Sc4  1  0.500000  0.500000  0.000000  1
  B  B5  1  0.619430  0.122031  0.000000  1
  B  B6  1  0.122031  0.380570  0.000000  1
  B  B7  1  0.877969  0.619430  0.000000  1
  B  B8  1  0.380570  0.877969  0.000000  1
  Sb  Sb9  1  0.000000  0.000000  0.000000  1
  Rh  Rh10  1  0.070709  0.222617  0.500000  1
  Rh  Rh11  1  0.222617  0.929291  0.500000  1
  Rh  Rh12  1  0.777383  0.070709  0.500000  1
  Rh  Rh13  1  0.929291  0.777383  0.500000  1
  Rh  Rh14  1  0.427191  0.724679  0.500000  1
  Rh  Rh15  1  0.572809  0.275321  0.500000  1
  Rh  Rh16  1  0.724679  0.572809  0.500000  1
  Rh  Rh17  1  0.275321  0.427191  0.500000  1
  Rh  Rh18  1  0.500000  0.000000  0.500000  1
  Rh  Rh19  1  0.000000  0.500000  0.500000  1
