# generated using pymatgen
data_Tb3Al12Os3Rh
_symmetry_space_group_name_H-M   'P 1'
_cell_length_a   8.83868300
_cell_length_b   8.82770295
_cell_length_c   9.59780900
_cell_angle_alpha   90.00000000
_cell_angle_beta   90.00000000
_cell_angle_gamma   120.04114995
_symmetry_Int_Tables_number   1
_chemical_formula_structural   Tb3Al12Os3Rh
_chemical_formula_sum   'Tb6 Al24 Os6 Rh2'
_cell_volume   648.27275848
_cell_formula_units_Z   2
loop_
 _symmetry_equiv_pos_site_id
 _symmetry_equiv_pos_as_xyz
  1  'x, y, z'
loop_
 _atom_site_type_symbol
 _atom_site_label
 _atom_site_symmetry_multiplicity
 _atom_site_fract_x
 _atom_site_fract_y
 _atom_site_fract_z
 _atom_site_occupancy
  Tb  Tb0  1  0.194055  0.388111  0.250000  1
  Tb  Tb1  1  0.805945  0.611889  0.750000  1
  Tb  Tb2  1  0.615390  0.803445  0.250000  1
  Tb  Tb3  1  0.384610  0.196555  0.750000  1
  Tb  Tb4  1  0.188056  0.803445  0.250000  1
  Tb  Tb5  1  0.811944  0.196555  0.750000  1
  Al  Al6  1  0.333191  0.666382  0.019151  1
  Al  Al7  1  0.666809  0.333618  0.980849  1
  Al  Al8  1  0.666809  0.333618  0.519151  1
  Al  Al9  1  0.333191  0.666382  0.480849  1
  Al  Al10  1  0.164009  0.328018  0.575947  1
  Al  Al11  1  0.835991  0.671982  0.424053  1
  Al  Al12  1  0.673581  0.835442  0.576736  1
  Al  Al13  1  0.835991  0.671982  0.075947  1
  Al  Al14  1  0.326419  0.164558  0.423264  1
  Al  Al15  1  0.164009  0.328018  0.924053  1
  Al  Al16  1  0.161862  0.835442  0.576736  1
  Al  Al17  1  0.326419  0.164558  0.076736  1
  Al  Al18  1  0.838138  0.164558  0.423264  1
  Al  Al19  1  0.673581  0.835442  0.923264  1
  Al  Al20  1  0.838138  0.164558  0.076736  1
  Al  Al21  1  0.161862  0.835442  0.923264  1
  Al  Al22  1  0.560228  0.120455  0.250000  1
  Al  Al23  1  0.439772  0.879545  0.750000  1
  Al  Al24  1  0.875397  0.437242  0.250000  1
  Al  Al25  1  0.124603  0.562758  0.750000  1
  Al  Al26  1  0.561844  0.437242  0.250000  1
  Al  Al27  1  0.438156  0.562758  0.750000  1
  Al  Al28  1  0.999267  0.998533  0.250000  1
  Al  Al29  1  0.000733  0.001467  0.750000  1
  Os  Os30  1  0.000000  0.500000  0.000000  1
  Os  Os31  1  0.500000  0.500000  0.000000  1
  Os  Os32  1  0.000000  0.500000  0.500000  1
  Os  Os33  1  0.500000  0.500000  0.500000  1
  Os  Os34  1  0.000000  0.000000  0.000000  1
  Os  Os35  1  0.000000  0.000000  0.500000  1
  Rh  Rh36  1  0.500000  0.000000  0.000000  1
  Rh  Rh37  1  0.500000  0.000000  0.500000  1
