# generated using pymatgen
data_ScTi2Tc2As3Ru
_symmetry_space_group_name_H-M   'P 1'
_cell_length_a   7.59797964
_cell_length_b   7.59797885
_cell_length_c   7.59797996
_cell_angle_alpha   127.89735649
_cell_angle_beta   122.53949770
_cell_angle_gamma   81.24963314
_symmetry_Int_Tables_number   1
_chemical_formula_structural   ScTi2Tc2As3Ru
_chemical_formula_sum   'Sc2 Ti4 Tc4 As6 Ru2'
_cell_volume   281.11929120
_cell_formula_units_Z   2
loop_
 _symmetry_equiv_pos_site_id
 _symmetry_equiv_pos_as_xyz
  1  'x, y, z'
loop_
 _atom_site_type_symbol
 _atom_site_label
 _atom_site_symmetry_multiplicity
 _atom_site_fract_x
 _atom_site_fract_y
 _atom_site_fract_z
 _atom_site_occupancy
  Sc  Sc0  1  0.469792  0.245058  0.275266  1
  Sc  Sc1  1  0.530208  0.805472  0.775266  1
  Ti  Ti2  1  0.748048  0.657645  0.409596  1
  Ti  Ti3  1  0.251952  0.661548  0.909596  1
  Ti  Ti4  1  0.051401  0.848481  0.297080  1
  Ti  Ti5  1  0.948599  0.245679  0.797080  1
  Tc  Tc6  1  0.664952  0.496835  0.912525  1
  Tc  Tc7  1  0.335048  0.247574  0.831884  1
  Tc  Tc8  1  0.915690  0.247574  0.412525  1
  Tc  Tc9  1  0.084310  0.496835  0.331884  1
  As  As10  1  0.844165  0.581264  0.755319  1
  As  As11  1  0.155835  0.911154  0.737100  1
  As  As12  1  0.674054  0.911154  0.255319  1
  As  As13  1  0.325946  0.581264  0.237100  1
  As  As14  1  0.280516  0.285108  0.504592  1
  As  As15  1  0.719484  0.224076  0.004592  1
  Ru  Ru16  1  0.000000  0.996839  0.996839  1
  Ru  Ru17  1  0.500000  0.996839  0.496839  1
