# generated using pymatgen
data_Ti10Si3P3O2
_symmetry_space_group_name_H-M   'P 1'
_cell_length_a   7.30955589
_cell_length_b   7.32462693
_cell_length_c   5.17734600
_cell_angle_alpha   90.00000000
_cell_angle_beta   90.00000000
_cell_angle_gamma   120.03379900
_symmetry_Int_Tables_number   1
_chemical_formula_structural   Ti10Si3P3O2
_chemical_formula_sum   'Ti10 Si3 P3 O2'
_cell_volume   239.97517037
_cell_formula_units_Z   1
loop_
 _symmetry_equiv_pos_site_id
 _symmetry_equiv_pos_as_xyz
  1  'x, y, z'
loop_
 _atom_site_type_symbol
 _atom_site_label
 _atom_site_symmetry_multiplicity
 _atom_site_fract_x
 _atom_site_fract_y
 _atom_site_fract_z
 _atom_site_occupancy
  Ti  Ti0  1  0.759716  0.759990  0.250000  1
  Ti  Ti1  1  0.758678  0.001101  0.750000  1
  Ti  Ti2  1  0.002153  0.237985  0.250000  1
  Ti  Ti3  1  0.001841  0.763878  0.750000  1
  Ti  Ti4  1  0.237505  0.237855  0.750000  1
  Ti  Ti5  1  0.241435  0.001163  0.250000  1
  Ti  Ti6  1  0.338913  0.672477  0.499325  1
  Ti  Ti7  1  0.658133  0.324567  0.000642  1
  Ti  Ti8  1  0.658133  0.324567  0.499358  1
  Ti  Ti9  1  0.338913  0.672477  0.000675  1
  Si  Si10  1  0.997986  0.589926  0.250000  1
  Si  Si11  1  0.000476  0.409437  0.750000  1
  Si  Si12  1  0.597070  0.594449  0.750000  1
  P  P13  1  0.601346  0.000763  0.250000  1
  P  P14  1  0.404504  0.406948  0.250000  1
  P  P15  1  0.398356  0.998082  0.750000  1
  O  O16  1  0.002421  0.002167  0.000481  1
  O  O17  1  0.002421  0.002167  0.499519  1
