# generated using pymatgen
data_YEr3(TcB4)4
_symmetry_space_group_name_H-M   'P 1'
_cell_length_a   5.95308423
_cell_length_b   11.52956445
_cell_length_c   3.58699400
_cell_angle_alpha   90.00000000
_cell_angle_beta   90.00000000
_cell_angle_gamma   89.96790978
_symmetry_Int_Tables_number   1
_chemical_formula_structural   YEr3(TcB4)4
_chemical_formula_sum   'Y1 Er3 Tc4 B16'
_cell_volume   246.19856157
_cell_formula_units_Z   1
loop_
 _symmetry_equiv_pos_site_id
 _symmetry_equiv_pos_as_xyz
  1  'x, y, z'
loop_
 _atom_site_type_symbol
 _atom_site_label
 _atom_site_symmetry_multiplicity
 _atom_site_fract_x
 _atom_site_fract_y
 _atom_site_fract_z
 _atom_site_occupancy
  Y  Y0  1  0.127169  0.850187  0.000000  1
  Er  Er1  1  0.872748  0.149782  0.000000  1
  Er  Er2  1  0.372780  0.350171  0.000000  1
  Er  Er3  1  0.627279  0.649642  0.000000  1
  Tc  Tc4  1  0.366020  0.088444  0.000000  1
  Tc  Tc5  1  0.865721  0.411950  0.000000  1
  Tc  Tc6  1  0.134328  0.587303  0.000000  1
  Tc  Tc7  1  0.634034  0.912314  0.000000  1
  B  B8  1  0.135449  0.031864  0.499999  1
  B  B9  1  0.613882  0.047735  0.499999  1
  B  B10  1  0.212049  0.185538  0.499999  1
  B  B11  1  0.523757  0.192946  0.499999  1
  B  B12  1  0.023708  0.307186  0.499999  1
  B  B13  1  0.712098  0.314642  0.499999  1
  B  B14  1  0.113759  0.452442  0.499999  1
  B  B15  1  0.635267  0.468599  0.499999  1
  B  B16  1  0.364825  0.531165  0.499999  1
  B  B17  1  0.886054  0.547233  0.499999  1
  B  B18  1  0.288214  0.684853  0.499999  1
  B  B19  1  0.975692  0.692224  0.499999  1
  B  B20  1  0.476927  0.807174  0.499999  1
  B  B21  1  0.786923  0.814481  0.499999  1
  B  B22  1  0.387088  0.953061  0.499999  1
  B  B23  1  0.864230  0.969073  0.499999  1
