# generated using pymatgen
data_Tb3Y13(TlPt)4
_symmetry_space_group_name_H-M   'P 1'
_cell_length_a   9.73346964
_cell_length_b   9.73552001
_cell_length_c   9.73552100
_cell_angle_alpha   60.00000003
_cell_angle_beta   59.99303148
_cell_angle_gamma   59.99303729
_symmetry_Int_Tables_number   1
_chemical_formula_structural   Tb3Y13(TlPt)4
_chemical_formula_sum   'Tb3 Y13 Tl4 Pt4'
_cell_volume   652.26683864
_cell_formula_units_Z   1
loop_
 _symmetry_equiv_pos_site_id
 _symmetry_equiv_pos_as_xyz
  1  'x, y, z'
loop_
 _atom_site_type_symbol
 _atom_site_label
 _atom_site_symmetry_multiplicity
 _atom_site_fract_x
 _atom_site_fract_y
 _atom_site_fract_z
 _atom_site_occupancy
  Tb  Tb0  1  0.351425  0.351631  0.351631  1
  Tb  Tb1  1  0.351425  0.351631  0.945314  1
  Tb  Tb2  1  0.351425  0.945314  0.351631  1
  Y  Y3  1  0.943574  0.352142  0.352142  1
  Y  Y4  1  0.811158  0.188978  0.188978  1
  Y  Y5  1  0.189345  0.810776  0.810776  1
  Y  Y6  1  0.189345  0.810776  0.189103  1
  Y  Y7  1  0.811158  0.188978  0.810886  1
  Y  Y8  1  0.189345  0.189103  0.810776  1
  Y  Y9  1  0.811158  0.810886  0.188978  1
  Y  Y10  1  0.940186  0.559825  0.559825  1
  Y  Y11  1  0.559347  0.940553  0.940553  1
  Y  Y12  1  0.559347  0.940553  0.559547  1
  Y  Y13  1  0.940186  0.559825  0.940166  1
  Y  Y14  1  0.559347  0.559547  0.940553  1
  Y  Y15  1  0.940186  0.940166  0.559825  1
  Tl  Tl16  1  0.586588  0.586112  0.586112  1
  Tl  Tl17  1  0.586588  0.586112  0.241188  1
  Tl  Tl18  1  0.586588  0.241188  0.586112  1
  Tl  Tl19  1  0.241481  0.586173  0.586173  1
  Pt  Pt20  1  0.143973  0.143448  0.143448  1
  Pt  Pt21  1  0.143973  0.143448  0.569130  1
  Pt  Pt22  1  0.143973  0.569130  0.143448  1
  Pt  Pt23  1  0.568881  0.143706  0.143706  1
