# generated using pymatgen
data_YbHoEr2(B6Ru)2
_symmetry_space_group_name_H-M   'P 1'
_cell_length_a   3.63737300
_cell_length_b   9.11338368
_cell_length_c   11.50389901
_cell_angle_alpha   89.82694524
_cell_angle_beta   90.00000000
_cell_angle_gamma   90.00000000
_symmetry_Int_Tables_number   1
_chemical_formula_structural   YbHoEr2(B6Ru)2
_chemical_formula_sum   'Yb2 Ho2 Er4 B24 Ru4'
_cell_volume   381.33842891
_cell_formula_units_Z   2
loop_
 _symmetry_equiv_pos_site_id
 _symmetry_equiv_pos_as_xyz
  1  'x, y, z'
loop_
 _atom_site_type_symbol
 _atom_site_label
 _atom_site_symmetry_multiplicity
 _atom_site_fract_x
 _atom_site_fract_y
 _atom_site_fract_z
 _atom_site_occupancy
  Yb  Yb0  1  0.000000  0.324992  0.414856  1
  Yb  Yb1  1  0.000000  0.675008  0.585144  1
  Ho  Ho2  1  0.000000  0.822433  0.086090  1
  Ho  Ho3  1  0.000000  0.177567  0.913910  1
  Er  Er4  1  0.000000  0.941890  0.369788  1
  Er  Er5  1  0.000000  0.058110  0.630212  1
  Er  Er6  1  0.000000  0.442747  0.130865  1
  Er  Er7  1  0.000000  0.557253  0.869135  1
  B  B8  1  0.500000  0.554310  0.432389  1
  B  B9  1  0.500000  0.445690  0.567611  1
  B  B10  1  0.500000  0.053800  0.066760  1
  B  B11  1  0.500000  0.946200  0.933240  1
  B  B12  1  0.500000  0.748223  0.417922  1
  B  B13  1  0.500000  0.251777  0.582078  1
  B  B14  1  0.500000  0.248627  0.081190  1
  B  B15  1  0.500000  0.751373  0.918810  1
  B  B16  1  0.500000  0.791369  0.264623  1
  B  B17  1  0.500000  0.208631  0.735377  1
  B  B18  1  0.500000  0.290226  0.234466  1
  B  B19  1  0.500000  0.709774  0.765534  1
  B  B20  1  0.500000  0.631381  0.184991  1
  B  B21  1  0.500000  0.368619  0.815009  1
  B  B22  1  0.500000  0.130719  0.314104  1
  B  B23  1  0.500000  0.869281  0.685896  1
  B  B24  1  0.500000  0.983152  0.211621  1
  B  B25  1  0.500000  0.016848  0.788379  1
  B  B26  1  0.500000  0.483901  0.288183  1
  B  B27  1  0.500000  0.516099  0.711817  1
  B  B28  1  0.500000  0.603267  0.028332  1
  B  B29  1  0.500000  0.396733  0.971668  1
  B  B30  1  0.500000  0.099366  0.472576  1
  B  B31  1  0.500000  0.900634  0.527424  1
  Ru  Ru32  1  0.000000  0.640120  0.318815  1
  Ru  Ru33  1  0.000000  0.359880  0.681185  1
  Ru  Ru34  1  0.000000  0.137180  0.178239  1
  Ru  Ru35  1  0.000000  0.862820  0.821761  1
