# generated using pymatgen
data_Yb15Tm5Pt16
_symmetry_space_group_name_H-M   'P 1'
_cell_length_a   7.45779523
_cell_length_b   7.53960244
_cell_length_c   14.51787105
_cell_angle_alpha   90.06993396
_cell_angle_beta   90.02334211
_cell_angle_gamma   90.01543674
_symmetry_Int_Tables_number   1
_chemical_formula_structural   Yb15Tm5Pt16
_chemical_formula_sum   'Yb15 Tm5 Pt16'
_cell_volume   816.32192370
_cell_formula_units_Z   1
loop_
 _symmetry_equiv_pos_site_id
 _symmetry_equiv_pos_as_xyz
  1  'x, y, z'
loop_
 _atom_site_type_symbol
 _atom_site_label
 _atom_site_symmetry_multiplicity
 _atom_site_fract_x
 _atom_site_fract_y
 _atom_site_fract_z
 _atom_site_occupancy
  Yb  Yb0  1  0.852127  0.666469  0.122066  1
  Yb  Yb1  1  0.647167  0.166853  0.878112  1
  Yb  Yb2  1  0.146687  0.333015  0.621561  1
  Yb  Yb3  1  0.490518  0.674999  0.595535  1
  Yb  Yb4  1  0.990367  0.823666  0.905677  1
  Yb  Yb5  1  0.510238  0.322470  0.093570  1
  Yb  Yb6  1  0.007604  0.178157  0.405552  1
  Yb  Yb7  1  0.509220  0.322127  0.404615  1
  Yb  Yb8  1  0.007744  0.180482  0.094046  1
  Yb  Yb9  1  0.490947  0.679368  0.904519  1
  Yb  Yb10  1  0.990910  0.819767  0.596177  1
  Yb  Yb11  1  0.808592  0.506095  0.750449  1
  Yb  Yb12  1  0.307917  0.992351  0.750150  1
  Yb  Yb13  1  0.189842  0.489766  0.248960  1
  Yb  Yb14  1  0.695034  0.008580  0.249028  1
  Tm  Tm15  1  0.648003  0.161986  0.623213  1
  Tm  Tm16  1  0.148563  0.336310  0.876235  1
  Tm  Tm17  1  0.352840  0.836120  0.123585  1
  Tm  Tm18  1  0.852884  0.664459  0.376787  1
  Tm  Tm19  1  0.352464  0.833743  0.377233  1
  Pt  Pt20  1  0.684496  0.958706  0.458937  1
  Pt  Pt21  1  0.190207  0.539855  0.039302  1
  Pt  Pt22  1  0.309748  0.040533  0.961038  1
  Pt  Pt23  1  0.811719  0.458178  0.538765  1
  Pt  Pt24  1  0.322933  0.030348  0.540971  1
  Pt  Pt25  1  0.827174  0.466842  0.957036  1
  Pt  Pt26  1  0.674043  0.966568  0.043444  1
  Pt  Pt27  1  0.178097  0.542262  0.456937  1
  Pt  Pt28  1  0.441924  0.378678  0.747043  1
  Pt  Pt29  1  0.941685  0.119591  0.751762  1
  Pt  Pt30  1  0.554203  0.623548  0.251919  1
  Pt  Pt31  1  0.061714  0.879277  0.253670  1
  Pt  Pt32  1  0.678519  0.863374  0.746930  1
  Pt  Pt33  1  0.178604  0.635760  0.753436  1
  Pt  Pt34  1  0.326463  0.133664  0.249254  1
  Pt  Pt35  1  0.818804  0.366036  0.252486  1
