# generated using pymatgen
data_Dy10Ga4Ru5Rh
_symmetry_space_group_name_H-M   'P 1'
_cell_length_a   8.31404754
_cell_length_b   8.31705082
_cell_length_c   8.31705100
_cell_angle_alpha   109.45142561
_cell_angle_beta   109.57032235
_cell_angle_gamma   109.40660091
_symmetry_Int_Tables_number   1
_chemical_formula_structural   Dy10Ga4Ru5Rh
_chemical_formula_sum   'Dy10 Ga4 Ru5 Rh1'
_cell_volume   442.63920611
_cell_formula_units_Z   1
loop_
 _symmetry_equiv_pos_site_id
 _symmetry_equiv_pos_as_xyz
  1  'x, y, z'
loop_
 _atom_site_type_symbol
 _atom_site_label
 _atom_site_symmetry_multiplicity
 _atom_site_fract_x
 _atom_site_fract_y
 _atom_site_fract_z
 _atom_site_occupancy
  Dy  Dy0  1  0.250000  0.680875  0.430875  1
  Dy  Dy1  1  0.750000  0.818491  0.068491  1
  Dy  Dy2  1  0.433195  0.250962  0.680545  1
  Dy  Dy3  1  0.682864  0.432254  0.252009  1
  Dy  Dy4  1  0.066805  0.747348  0.817767  1
  Dy  Dy5  1  0.817136  0.069146  0.749390  1
  Dy  Dy6  1  0.215610  0.217334  0.218249  1
  Dy  Dy7  1  0.500243  0.000245  0.284361  1
  Dy  Dy8  1  0.284390  0.502640  0.001723  1
  Dy  Dy9  1  0.999757  0.284119  0.500001  1
  Ga  Ga10  1  0.588296  0.588552  0.588385  1
  Ga  Ga11  1  0.500815  0.997894  0.910553  1
  Ga  Ga12  1  0.911704  0.500088  0.000255  1
  Ga  Ga13  1  0.999185  0.909738  0.497079  1
  Ru  Ru14  1  0.750000  0.374901  0.624901  1
  Ru  Ru15  1  0.873908  0.249735  0.124471  1
  Ru  Ru16  1  0.126237  0.877005  0.249696  1
  Ru  Ru17  1  0.626091  0.750562  0.375827  1
  Ru  Ru18  1  0.373763  0.623458  0.750769  1
  Rh  Rh19  1  0.250000  0.124652  0.874652  1
