# generated using pymatgen
data_Ta4Mn3Be2Fe3
_symmetry_space_group_name_H-M   'P 1'
_cell_length_a   4.76573800
_cell_length_b   4.76573698
_cell_length_c   7.74521400
_cell_angle_alpha   90.00000000
_cell_angle_beta   90.00000000
_cell_angle_gamma   120.00000707
_symmetry_Int_Tables_number   1
_chemical_formula_structural   Ta4Mn3Be2Fe3
_chemical_formula_sum   'Ta4 Mn3 Be2 Fe3'
_cell_volume   152.34361462
_cell_formula_units_Z   1
loop_
 _symmetry_equiv_pos_site_id
 _symmetry_equiv_pos_as_xyz
  1  'x, y, z'
loop_
 _atom_site_type_symbol
 _atom_site_label
 _atom_site_symmetry_multiplicity
 _atom_site_fract_x
 _atom_site_fract_y
 _atom_site_fract_z
 _atom_site_occupancy
  Ta  Ta0  1  0.333333  0.666667  0.436850  1
  Ta  Ta1  1  0.666667  0.333333  0.562279  1
  Ta  Ta2  1  0.666667  0.333333  0.937721  1
  Ta  Ta3  1  0.333333  0.666667  0.063150  1
  Mn  Mn4  1  0.165998  0.834002  0.750000  1
  Mn  Mn5  1  0.165998  0.331995  0.750000  1
  Mn  Mn6  1  0.668005  0.834002  0.750000  1
  Be  Be7  1  0.000000  0.000000  0.497248  1
  Be  Be8  1  0.000000  0.000000  0.002752  1
  Fe  Fe9  1  0.832867  0.167133  0.250000  1
  Fe  Fe10  1  0.832867  0.665735  0.250000  1
  Fe  Fe11  1  0.334265  0.167133  0.250000  1
