# generated using pymatgen
data_Tb8Ta10TiSi16W
_symmetry_space_group_name_H-M   'P 1'
_cell_length_a   7.04036866
_cell_length_b   7.03645562
_cell_length_c   13.02170023
_cell_angle_alpha   89.83549334
_cell_angle_beta   90.07061222
_cell_angle_gamma   89.97485355
_symmetry_Int_Tables_number   1
_chemical_formula_structural   Tb8Ta10TiSi16W
_chemical_formula_sum   'Tb8 Ta10 Ti1 Si16 W1'
_cell_volume   645.08194217
_cell_formula_units_Z   1
loop_
 _symmetry_equiv_pos_site_id
 _symmetry_equiv_pos_as_xyz
  1  'x, y, z'
loop_
 _atom_site_type_symbol
 _atom_site_label
 _atom_site_symmetry_multiplicity
 _atom_site_fract_x
 _atom_site_fract_y
 _atom_site_fract_z
 _atom_site_occupancy
  Tb  Tb0  1  0.342202  0.002013  0.468135  1
  Tb  Tb1  1  0.497569  0.841961  0.719340  1
  Tb  Tb2  1  0.501458  0.158624  0.217245  1
  Tb  Tb3  1  0.840795  0.496288  0.281878  1
  Tb  Tb4  1  0.159247  0.501815  0.782429  1
  Tb  Tb5  1  0.659380  0.997161  0.967999  1
  Tb  Tb6  1  0.003221  0.339895  0.532763  1
  Tb  Tb7  1  0.996906  0.660416  0.030366  1
  Ta  Ta8  1  0.328235  0.329324  0.999004  1
  Ta  Ta9  1  0.171075  0.828192  0.249336  1
  Ta  Ta10  1  0.828519  0.171498  0.750660  1
  Ta  Ta11  1  0.671436  0.671029  0.499588  1
  Ta  Ta12  1  0.490867  0.655443  0.123806  1
  Ta  Ta13  1  0.506105  0.345441  0.625056  1
  Ta  Ta14  1  0.653795  0.492053  0.875828  1
  Ta  Ta15  1  0.346730  0.506923  0.375992  1
  Ta  Ta16  1  0.844831  0.991541  0.374523  1
  Ta  Ta17  1  0.006374  0.153154  0.126117  1
  Ti  Ti18  1  0.992455  0.844727  0.625636  1
  Si  Si19  1  0.201531  0.129619  0.684662  1
  Si  Si20  1  0.366776  0.706956  0.931264  1
  Si  Si21  1  0.633329  0.296136  0.433218  1
  Si  Si22  1  0.703270  0.367703  0.067059  1
  Si  Si23  1  0.297732  0.634328  0.567764  1
  Si  Si24  1  0.796746  0.866158  0.182331  1
  Si  Si25  1  0.133365  0.202359  0.317409  1
  Si  Si26  1  0.870749  0.800759  0.816988  1
  Si  Si27  1  0.292395  0.956538  0.062041  1
  Si  Si28  1  0.544304  0.794091  0.313804  1
  Si  Si29  1  0.452807  0.206103  0.814375  1
  Si  Si30  1  0.794652  0.547290  0.685504  1
  Si  Si31  1  0.206139  0.454576  0.185592  1
  Si  Si32  1  0.709036  0.043891  0.565044  1
  Si  Si33  1  0.956621  0.291116  0.935884  1
  Si  Si34  1  0.045014  0.706479  0.436560  1
  W  W35  1  0.154329  0.008400  0.874798  1
