# generated using pymatgen
data_LiLa4WC8
_symmetry_space_group_name_H-M   'P 1'
_cell_length_a   7.00128738
_cell_length_b   7.00128694
_cell_length_c   7.00128500
_cell_angle_alpha   134.12197314
_cell_angle_beta   108.24036807
_cell_angle_gamma   89.47330434
_symmetry_Int_Tables_number   1
_chemical_formula_structural   LiLa4WC8
_chemical_formula_sum   'Li1 La4 W1 C8'
_cell_volume   222.74857960
_cell_formula_units_Z   1
loop_
 _symmetry_equiv_pos_site_id
 _symmetry_equiv_pos_as_xyz
  1  'x, y, z'
loop_
 _atom_site_type_symbol
 _atom_site_label
 _atom_site_symmetry_multiplicity
 _atom_site_fract_x
 _atom_site_fract_y
 _atom_site_fract_z
 _atom_site_occupancy
  Li  Li0  1  0.000000  0.250000  0.250000  1
  La  La1  1  0.200376  0.345484  0.845976  1
  La  La2  1  0.799624  0.645600  0.145108  1
  La  La3  1  0.499507  0.854400  0.654024  1
  La  La4  1  0.500493  0.154516  0.354892  1
  W  W5  1  0.000000  0.750000  0.750000  1
  C  C6  1  0.786678  0.127584  0.668954  1
  C  C7  1  0.213322  0.882274  0.340906  1
  C  C8  1  0.458631  0.617726  0.831046  1
  C  C9  1  0.541369  0.372416  0.159094  1
  C  C10  1  0.892886  0.024796  0.759246  1
  C  C11  1  0.107114  0.866359  0.131909  1
  C  C12  1  0.265550  0.633641  0.740754  1
  C  C13  1  0.734450  0.475204  0.368091  1
