# generated using pymatgen
data_Lu10In8CoAg3
_symmetry_space_group_name_H-M   'P 1'
_cell_length_a   3.52770600
_cell_length_b   8.12074205
_cell_length_c   18.16255082
_cell_angle_alpha   89.92827481
_cell_angle_beta   90.00000000
_cell_angle_gamma   90.00000000
_symmetry_Int_Tables_number   1
_chemical_formula_structural   Lu10In8CoAg3
_chemical_formula_sum   'Lu10 In8 Co1 Ag3'
_cell_volume   520.31290968
_cell_formula_units_Z   1
loop_
 _symmetry_equiv_pos_site_id
 _symmetry_equiv_pos_as_xyz
  1  'x, y, z'
loop_
 _atom_site_type_symbol
 _atom_site_label
 _atom_site_symmetry_multiplicity
 _atom_site_fract_x
 _atom_site_fract_y
 _atom_site_fract_z
 _atom_site_occupancy
  Lu  Lu0  1  0.000000  0.503680  0.497604  1
  Lu  Lu1  1  0.000000  0.999865  0.001748  1
  Lu  Lu2  1  0.000000  0.708601  0.273338  1
  Lu  Lu3  1  0.000000  0.266539  0.715843  1
  Lu  Lu4  1  0.000000  0.767094  0.786362  1
  Lu  Lu5  1  0.000000  0.271451  0.216412  1
  Lu  Lu6  1  0.000000  0.611518  0.089626  1
  Lu  Lu7  1  0.000000  0.375032  0.924977  1
  Lu  Lu8  1  0.000000  0.876502  0.575576  1
  Lu  Lu9  1  0.000000  0.122511  0.420662  1
  In  In10  1  0.500000  0.705763  0.937268  1
  In  In11  1  0.500000  0.292651  0.070531  1
  In  In12  1  0.500000  0.791507  0.428209  1
  In  In13  1  0.500000  0.212577  0.566371  1
  In  In14  1  0.500000  0.585767  0.648702  1
  In  In15  1  0.500000  0.417885  0.349025  1
  In  In16  1  0.500000  0.917206  0.149111  1
  In  In17  1  0.500000  0.085335  0.852199  1
  Co  Co18  1  0.500000  0.521796  0.194725  1
  Ag  Ag19  1  0.500000  0.474240  0.805700  1
  Ag  Ag20  1  0.500000  0.971980  0.695668  1
  Ag  Ag21  1  0.500000  0.020503  0.300343  1
