# generated using pymatgen
data_Nb3Zn3PtRh5
_symmetry_space_group_name_H-M   'P 1'
_cell_length_a   4.03729100
_cell_length_b   7.43519100
_cell_length_c   12.10283700
_cell_angle_alpha   90.00000000
_cell_angle_beta   90.00000000
_cell_angle_gamma   90.00000000
_symmetry_Int_Tables_number   1
_chemical_formula_structural   Nb3Zn3PtRh5
_chemical_formula_sum   'Nb6 Zn6 Pt2 Rh10'
_cell_volume   363.30332061
_cell_formula_units_Z   2
loop_
 _symmetry_equiv_pos_site_id
 _symmetry_equiv_pos_as_xyz
  1  'x, y, z'
loop_
 _atom_site_type_symbol
 _atom_site_label
 _atom_site_symmetry_multiplicity
 _atom_site_fract_x
 _atom_site_fract_y
 _atom_site_fract_z
 _atom_site_occupancy
  Nb  Nb0  1  0.000000  0.499999  0.000000  1
  Nb  Nb1  1  0.500007  0.000000  0.171134  1
  Nb  Nb2  1  0.000000  0.499999  0.334472  1
  Nb  Nb3  1  0.499999  0.000000  0.500000  1
  Nb  Nb4  1  0.000000  0.499999  0.665528  1
  Nb  Nb5  1  0.499992  0.000000  0.828866  1
  Zn  Zn6  1  0.000000  0.000000  0.000000  1
  Zn  Zn7  1  0.500004  0.499999  0.168399  1
  Zn  Zn8  1  0.000000  0.000000  0.334722  1
  Zn  Zn9  1  0.499999  0.499999  0.500000  1
  Zn  Zn10  1  0.000000  0.000000  0.665278  1
  Zn  Zn11  1  0.499994  0.499999  0.831601  1
  Pt  Pt12  1  0.499999  0.248841  0.000000  1
  Pt  Pt13  1  0.499999  0.751159  0.000000  1
  Rh  Rh14  1  0.000000  0.249697  0.166347  1
  Rh  Rh15  1  0.000000  0.750304  0.166347  1
  Rh  Rh16  1  0.500009  0.250332  0.333082  1
  Rh  Rh17  1  0.500009  0.749668  0.333082  1
  Rh  Rh18  1  0.000000  0.250667  0.500000  1
  Rh  Rh19  1  0.000000  0.749333  0.500000  1
  Rh  Rh20  1  0.499992  0.250332  0.666917  1
  Rh  Rh21  1  0.499992  0.749668  0.666917  1
  Rh  Rh22  1  0.000000  0.249697  0.833653  1
  Rh  Rh23  1  0.000000  0.750304  0.833653  1
