# generated using pymatgen
data_Tb2Tm3(FeB3)2
_symmetry_space_group_name_H-M   'P 1'
_cell_length_a   5.39604567
_cell_length_b   5.39604537
_cell_length_c   8.21105059
_cell_angle_alpha   70.81713322
_cell_angle_beta   70.81712984
_cell_angle_gamma   59.99999740
_symmetry_Int_Tables_number   1
_chemical_formula_structural   Tb2Tm3(FeB3)2
_chemical_formula_sum   'Tb2 Tm3 Fe2 B6'
_cell_volume   191.57039420
_cell_formula_units_Z   1
loop_
 _symmetry_equiv_pos_site_id
 _symmetry_equiv_pos_as_xyz
  1  'x, y, z'
loop_
 _atom_site_type_symbol
 _atom_site_label
 _atom_site_symmetry_multiplicity
 _atom_site_fract_x
 _atom_site_fract_y
 _atom_site_fract_z
 _atom_site_occupancy
  Tb  Tb0  1  0.999477  0.999477  0.001570  1
  Tb  Tb1  1  0.747547  0.747547  0.757360  1
  Tm  Tm2  1  0.250905  0.250905  0.247285  1
  Tm  Tm3  1  0.582687  0.582687  0.251941  1
  Tm  Tm4  1  0.417465  0.417465  0.747605  1
  Fe  Fe5  1  0.882653  0.882653  0.352040  1
  Fe  Fe6  1  0.117342  0.117342  0.647974  1
  B  B7  1  0.499677  0.168969  0.499037  1
  B  B8  1  0.832317  0.499677  0.499037  1
  B  B9  1  0.168969  0.832317  0.499037  1
  B  B10  1  0.168969  0.499677  0.499037  1
  B  B11  1  0.832317  0.168969  0.499037  1
  B  B12  1  0.499677  0.832317  0.499037  1
