# generated using pymatgen
data_Er4Al18Ir4PdPt
_symmetry_space_group_name_H-M   'P 1'
_cell_length_a   7.56840182
_cell_length_b   7.56840284
_cell_length_c   9.43922503
_cell_angle_alpha   89.94920733
_cell_angle_beta   89.94920851
_cell_angle_gamma   119.60463651
_symmetry_Int_Tables_number   1
_chemical_formula_structural   Er4Al18Ir4PdPt
_chemical_formula_sum   'Er4 Al18 Ir4 Pd1 Pt1'
_cell_volume   470.10099853
_cell_formula_units_Z   1
loop_
 _symmetry_equiv_pos_site_id
 _symmetry_equiv_pos_as_xyz
  1  'x, y, z'
loop_
 _atom_site_type_symbol
 _atom_site_label
 _atom_site_symmetry_multiplicity
 _atom_site_fract_x
 _atom_site_fract_y
 _atom_site_fract_z
 _atom_site_occupancy
  Er  Er0  1  0.996173  0.671272  0.249350  1
  Er  Er1  1  0.004812  0.329314  0.750685  1
  Er  Er2  1  0.670686  0.995188  0.249315  1
  Er  Er3  1  0.328728  0.003827  0.750650  1
  Al  Al4  1  0.129337  0.128769  0.248327  1
  Al  Al5  1  0.871231  0.870663  0.751673  1
  Al  Al6  1  0.002900  0.334415  0.075685  1
  Al  Al7  1  0.003224  0.668990  0.924326  1
  Al  Al8  1  0.999112  0.661066  0.576687  1
  Al  Al9  1  0.338934  0.000888  0.423313  1
  Al  Al10  1  0.001013  0.338644  0.423089  1
  Al  Al11  1  0.661356  0.998987  0.576911  1
  Al  Al12  1  0.665585  0.997100  0.924315  1
  Al  Al13  1  0.331010  0.996776  0.075674  1
  Al  Al14  1  0.336247  0.336122  0.556116  1
  Al  Al15  1  0.663878  0.663753  0.443884  1
  Al  Al16  1  0.666639  0.669984  0.054592  1
  Al  Al17  1  0.330016  0.333361  0.945408  1
  Al  Al18  1  0.339298  0.548727  0.249699  1
  Al  Al19  1  0.660977  0.452886  0.748023  1
  Al  Al20  1  0.547114  0.339023  0.251977  1
  Al  Al21  1  0.451273  0.660702  0.750301  1
  Ir  Ir22  1  0.327925  0.672075  0.000000  1
  Ir  Ir23  1  0.327887  0.672113  0.500000  1
  Ir  Ir24  1  0.672414  0.327586  0.500000  1
  Ir  Ir25  1  0.999871  0.000129  0.000000  1
  Pd  Pd26  1  0.000089  0.999911  0.500000  1
  Pt  Pt27  1  0.672270  0.327730  0.000000  1
