# generated using pymatgen
data_Tb18Tm2Ir11Au
_symmetry_space_group_name_H-M   'P 1'
_cell_length_a   11.00916969
_cell_length_b   11.00917016
_cell_length_c   6.37390900
_cell_angle_alpha   89.96825855
_cell_angle_beta   89.96825855
_cell_angle_gamma   89.61426299
_symmetry_Int_Tables_number   1
_chemical_formula_structural   Tb18Tm2Ir11Au
_chemical_formula_sum   'Tb18 Tm2 Ir11 Au1'
_cell_volume   772.51164400
_cell_formula_units_Z   1
loop_
 _symmetry_equiv_pos_site_id
 _symmetry_equiv_pos_as_xyz
  1  'x, y, z'
loop_
 _atom_site_type_symbol
 _atom_site_label
 _atom_site_symmetry_multiplicity
 _atom_site_fract_x
 _atom_site_fract_y
 _atom_site_fract_z
 _atom_site_occupancy
  Tb  Tb0  1  0.290247  0.088141  0.376868  1
  Tb  Tb1  1  0.292965  0.910871  0.876431  1
  Tb  Tb2  1  0.703733  0.084638  0.865598  1
  Tb  Tb3  1  0.705088  0.904368  0.380451  1
  Tb  Tb4  1  0.587795  0.790060  0.879406  1
  Tb  Tb5  1  0.579264  0.210856  0.378810  1
  Tb  Tb6  1  0.410825  0.790225  0.378163  1
  Tb  Tb7  1  0.410081  0.208954  0.878239  1
  Tb  Tb8  1  0.209940  0.412205  0.620594  1
  Tb  Tb9  1  0.209775  0.589175  0.121837  1
  Tb  Tb10  1  0.789144  0.420736  0.121190  1
  Tb  Tb11  1  0.791046  0.589919  0.621761  1
  Tb  Tb12  1  0.911859  0.709753  0.123132  1
  Tb  Tb13  1  0.915362  0.296267  0.634402  1
  Tb  Tb14  1  0.089129  0.707035  0.623569  1
  Tb  Tb15  1  0.095632  0.294912  0.119549  1
  Tb  Tb16  1  0.003337  0.995734  0.501188  1
  Tb  Tb17  1  0.004266  0.996663  0.998812  1
  Tm  Tm18  1  0.499078  0.499262  0.998869  1
  Tm  Tm19  1  0.500738  0.500922  0.501131  1
  Ir  Ir20  1  0.846446  0.847882  0.749514  1
  Ir  Ir21  1  0.152118  0.153554  0.750486  1
  Ir  Ir22  1  0.155553  0.844447  0.250000  1
  Ir  Ir23  1  0.653267  0.346733  0.750000  1
  Ir  Ir24  1  0.651925  0.650430  0.248640  1
  Ir  Ir25  1  0.349570  0.348075  0.251360  1
  Ir  Ir26  1  0.348294  0.651706  0.750000  1
  Ir  Ir27  1  0.500663  0.000041  0.124684  1
  Ir  Ir28  1  0.499622  0.000356  0.620772  1
  Ir  Ir29  1  0.999644  0.500378  0.879228  1
  Ir  Ir30  1  0.999959  0.499337  0.375316  1
  Au  Au31  1  0.843630  0.156370  0.250000  1
