# generated using pymatgen
data_ThTa4(NbSn3)2
_symmetry_space_group_name_H-M   'P 1'
_cell_length_a   5.82606625
_cell_length_b   5.82435988
_cell_length_c   9.61925600
_cell_angle_alpha   90.00000000
_cell_angle_beta   90.00000000
_cell_angle_gamma   119.99030696
_symmetry_Int_Tables_number   1
_chemical_formula_structural   ThTa4(NbSn3)2
_chemical_formula_sum   'Th1 Ta4 Nb2 Sn6'
_cell_volume   282.70803109
_cell_formula_units_Z   1
loop_
 _symmetry_equiv_pos_site_id
 _symmetry_equiv_pos_as_xyz
  1  'x, y, z'
loop_
 _atom_site_type_symbol
 _atom_site_label
 _atom_site_symmetry_multiplicity
 _atom_site_fract_x
 _atom_site_fract_y
 _atom_site_fract_z
 _atom_site_occupancy
  Th  Th0  1  0.000000  0.000000  0.998877  1
  Ta  Ta1  1  0.000000  0.500000  0.752361  1
  Ta  Ta2  1  0.500000  0.500000  0.751326  1
  Ta  Ta3  1  0.500000  0.000000  0.751326  1
  Ta  Ta4  1  0.000000  0.500000  0.249378  1
  Nb  Nb5  1  0.500000  0.500000  0.248976  1
  Nb  Nb6  1  0.500000  0.000000  0.248976  1
  Sn  Sn7  1  0.666879  0.333439  0.500180  1
  Sn  Sn8  1  0.333121  0.666561  0.500180  1
  Sn  Sn9  1  0.665603  0.332801  0.000267  1
  Sn  Sn10  1  0.334397  0.667199  0.000267  1
  Sn  Sn11  1  0.000000  0.000000  0.653478  1
  Sn  Sn12  1  0.000000  0.000000  0.344404  1
