# generated using pymatgen
data_Ta3Nb11Si3As5
_symmetry_space_group_name_H-M   'P 1'
_cell_length_a   3.52539100
_cell_length_b   7.94406103
_cell_length_c   14.18826667
_cell_angle_alpha   103.97266253
_cell_angle_beta   90.00000000
_cell_angle_gamma   102.81997952
_symmetry_Int_Tables_number   1
_chemical_formula_structural   Ta3Nb11Si3As5
_chemical_formula_sum   'Ta3 Nb11 Si3 As5'
_cell_volume   375.38276966
_cell_formula_units_Z   1
loop_
 _symmetry_equiv_pos_site_id
 _symmetry_equiv_pos_as_xyz
  1  'x, y, z'
loop_
 _atom_site_type_symbol
 _atom_site_label
 _atom_site_symmetry_multiplicity
 _atom_site_fract_x
 _atom_site_fract_y
 _atom_site_fract_z
 _atom_site_occupancy
  Ta  Ta0  1  0.999949  0.999899  0.999217  1
  Ta  Ta1  1  0.498409  0.996818  0.501094  1
  Ta  Ta2  1  0.427579  0.855161  0.825470  1
  Nb  Nb3  1  0.570950  0.141899  0.169226  1
  Nb  Nb4  1  0.196290  0.392580  0.308059  1
  Nb  Nb5  1  0.803554  0.607108  0.691306  1
  Nb  Nb6  1  0.212826  0.425650  0.799964  1
  Nb  Nb7  1  0.787442  0.574882  0.199110  1
  Nb  Nb8  1  0.332967  0.665934  0.029036  1
  Nb  Nb9  1  0.667433  0.334866  0.970028  1
  Nb  Nb10  1  0.998029  0.996058  0.661175  1
  Nb  Nb11  1  0.999976  0.999954  0.339294  1
  Nb  Nb12  1  0.180530  0.361060  0.547615  1
  Nb  Nb13  1  0.823983  0.647967  0.457695  1
  Si  Si14  1  0.174184  0.348365  0.107958  1
  Si  Si15  1  0.826349  0.652700  0.891059  1
  Si  Si16  1  0.370879  0.741759  0.600506  1
  As  As17  1  0.629936  0.259871  0.402370  1
  As  As18  1  0.371313  0.742623  0.333657  1
  As  As19  1  0.627427  0.254855  0.666876  1
  As  As20  1  0.063145  0.126289  0.847163  1
  As  As21  1  0.936850  0.873699  0.152120  1
