# generated using pymatgen
data_Zn8Pd4PtRh3
_symmetry_space_group_name_H-M   'P 1'
_cell_length_a   6.07435000
_cell_length_b   6.08143300
_cell_length_c   6.13796000
_cell_angle_alpha   89.99990622
_cell_angle_beta   90.00009384
_cell_angle_gamma   89.99984917
_symmetry_Int_Tables_number   1
_chemical_formula_structural   Zn8Pd4PtRh3
_chemical_formula_sum   'Zn8 Pd4 Pt1 Rh3'
_cell_volume   226.74086148
_cell_formula_units_Z   1
loop_
 _symmetry_equiv_pos_site_id
 _symmetry_equiv_pos_as_xyz
  1  'x, y, z'
loop_
 _atom_site_type_symbol
 _atom_site_label
 _atom_site_symmetry_multiplicity
 _atom_site_fract_x
 _atom_site_fract_y
 _atom_site_fract_z
 _atom_site_occupancy
  Zn  Zn0  1  0.997693  0.997713  0.251584  1
  Zn  Zn1  1  0.997693  0.502295  0.251585  1
  Zn  Zn2  1  0.502281  0.997710  0.252129  1
  Zn  Zn3  1  0.502281  0.502283  0.252130  1
  Zn  Zn4  1  0.502338  0.997697  0.747870  1
  Zn  Zn5  1  0.502338  0.502310  0.747871  1
  Zn  Zn6  1  0.997666  0.997688  0.748413  1
  Zn  Zn7  1  0.997666  0.502305  0.748414  1
  Pd  Pd8  1  0.749792  0.249999  0.000041  1
  Pd  Pd9  1  0.249794  0.750001  0.500006  1
  Pd  Pd10  1  0.750217  0.250001  0.499990  1
  Pd  Pd11  1  0.250208  0.750000  0.999970  1
  Pt  Pt12  1  0.250185  0.249998  0.999990  1
  Rh  Rh13  1  0.749841  0.750001  0.000008  1
  Rh  Rh14  1  0.750166  0.750000  0.499979  1
  Rh  Rh15  1  0.249842  0.250001  0.500014  1
