# generated using pymatgen
data_Lu2Th2ReB12W
_symmetry_space_group_name_H-M   'P 1'
_cell_length_a   3.73465800
_cell_length_b   9.23133946
_cell_length_c   11.69413484
_cell_angle_alpha   89.93565304
_cell_angle_beta   90.00000000
_cell_angle_gamma   90.00000000
_symmetry_Int_Tables_number   1
_chemical_formula_structural   Lu2Th2ReB12W
_chemical_formula_sum   'Lu4 Th4 Re2 B24 W2'
_cell_volume   403.16551948
_cell_formula_units_Z   2
loop_
 _symmetry_equiv_pos_site_id
 _symmetry_equiv_pos_as_xyz
  1  'x, y, z'
loop_
 _atom_site_type_symbol
 _atom_site_label
 _atom_site_symmetry_multiplicity
 _atom_site_fract_x
 _atom_site_fract_y
 _atom_site_fract_z
 _atom_site_occupancy
  Lu  Lu0  1  0.000000  0.945308  0.371994  1
  Lu  Lu1  1  0.000000  0.054692  0.628006  1
  Lu  Lu2  1  0.000000  0.444106  0.127690  1
  Lu  Lu3  1  0.000000  0.555894  0.872310  1
  Th  Th4  1  0.000000  0.321003  0.413994  1
  Th  Th5  1  0.000000  0.678997  0.586006  1
  Th  Th6  1  0.000000  0.822408  0.085170  1
  Th  Th7  1  0.000000  0.177592  0.914830  1
  Re  Re8  1  0.000000  0.139653  0.180500  1
  Re  Re9  1  0.000000  0.860347  0.819500  1
  B  B10  1  0.500000  0.554539  0.431082  1
  B  B11  1  0.500000  0.445461  0.568918  1
  B  B12  1  0.500000  0.056803  0.070792  1
  B  B13  1  0.500000  0.943197  0.929208  1
  B  B14  1  0.500000  0.753337  0.417548  1
  B  B15  1  0.500000  0.246663  0.582452  1
  B  B16  1  0.500000  0.250884  0.084113  1
  B  B17  1  0.500000  0.749116  0.915887  1
  B  B18  1  0.500000  0.794922  0.265138  1
  B  B19  1  0.500000  0.205078  0.734862  1
  B  B20  1  0.500000  0.291448  0.233434  1
  B  B21  1  0.500000  0.708552  0.766566  1
  B  B22  1  0.500000  0.629907  0.183260  1
  B  B23  1  0.500000  0.370093  0.816740  1
  B  B24  1  0.500000  0.129288  0.313549  1
  B  B25  1  0.500000  0.870712  0.686451  1
  B  B26  1  0.500000  0.984910  0.214187  1
  B  B27  1  0.500000  0.015090  0.785813  1
  B  B28  1  0.500000  0.481851  0.284349  1
  B  B29  1  0.500000  0.518149  0.715651  1
  B  B30  1  0.500000  0.598638  0.026612  1
  B  B31  1  0.500000  0.401362  0.973388  1
  B  B32  1  0.500000  0.097897  0.472840  1
  B  B33  1  0.500000  0.902103  0.527160  1
  W  W34  1  0.000000  0.640166  0.318451  1
  W  W35  1  0.000000  0.359834  0.681549  1
