# generated using pymatgen
data_La6YbSeBr12
_symmetry_space_group_name_H-M   'P 1'
_cell_length_a   9.56793612
_cell_length_b   9.56653065
_cell_length_c   9.57490062
_cell_angle_alpha   107.07241212
_cell_angle_beta   107.23475369
_cell_angle_gamma   106.70612493
_symmetry_Int_Tables_number   1
_chemical_formula_structural   La6YbSeBr12
_chemical_formula_sum   'La6 Yb1 Se1 Br12'
_cell_volume   729.78127932
_cell_formula_units_Z   1
loop_
 _symmetry_equiv_pos_site_id
 _symmetry_equiv_pos_as_xyz
  1  'x, y, z'
loop_
 _atom_site_type_symbol
 _atom_site_label
 _atom_site_symmetry_multiplicity
 _atom_site_fract_x
 _atom_site_fract_y
 _atom_site_fract_z
 _atom_site_occupancy
  La  La0  1  0.323064  0.109742  0.027289  1
  La  La1  1  0.025214  0.322554  0.110722  1
  La  La2  1  0.112442  0.027372  0.323392  1
  La  La3  1  0.887558  0.972628  0.676609  1
  La  La4  1  0.974786  0.677447  0.889279  1
  La  La5  1  0.676937  0.890258  0.972712  1
  Yb  Yb6  1  0.500000  0.500000  0.500000  1
  Se  Se7  1  0.000000  0.000000  0.000000  1
  Br  Br8  1  0.680234  0.224944  0.071483  1
  Br  Br9  1  0.378639  0.462729  0.169074  1
  Br  Br10  1  0.072689  0.682041  0.223582  1
  Br  Br11  1  0.778162  0.929644  0.318658  1
  Br  Br12  1  0.466372  0.170353  0.382753  1
  Br  Br13  1  0.170993  0.381737  0.465501  1
  Br  Br14  1  0.829007  0.618264  0.534499  1
  Br  Br15  1  0.533628  0.829648  0.617247  1
  Br  Br16  1  0.221839  0.070357  0.681342  1
  Br  Br17  1  0.927311  0.317959  0.776419  1
  Br  Br18  1  0.621362  0.537271  0.830926  1
  Br  Br19  1  0.319767  0.775056  0.928517  1
