# generated using pymatgen
data_YbDy3Ga17GeIr6
_symmetry_space_group_name_H-M   'P 1'
_cell_length_a   7.60343960
_cell_length_b   7.58500663
_cell_length_c   9.50400053
_cell_angle_alpha   90.05398754
_cell_angle_beta   89.85387039
_cell_angle_gamma   119.87694304
_symmetry_Int_Tables_number   1
_chemical_formula_structural   YbDy3Ga17GeIr6
_chemical_formula_sum   'Yb1 Dy3 Ga17 Ge1 Ir6'
_cell_volume   475.26835385
_cell_formula_units_Z   1
loop_
 _symmetry_equiv_pos_site_id
 _symmetry_equiv_pos_as_xyz
  1  'x, y, z'
loop_
 _atom_site_type_symbol
 _atom_site_label
 _atom_site_symmetry_multiplicity
 _atom_site_fract_x
 _atom_site_fract_y
 _atom_site_fract_z
 _atom_site_occupancy
  Yb  Yb0  1  0.997332  0.666802  0.249133  1
  Dy  Dy1  1  0.002282  0.331845  0.753860  1
  Dy  Dy2  1  0.672367  0.000464  0.248768  1
  Dy  Dy3  1  0.329918  0.001671  0.749669  1
  Ga  Ga4  1  0.131691  0.124695  0.250825  1
  Ga  Ga5  1  0.872055  0.873703  0.749860  1
  Ga  Ga6  1  0.998493  0.670348  0.919240  1
  Ga  Ga7  1  0.000225  0.665575  0.578504  1
  Ga  Ga8  1  0.333038  0.996849  0.419184  1
  Ga  Ga9  1  0.000669  0.336917  0.420976  1
  Ga  Ga10  1  0.665191  0.000352  0.580817  1
  Ga  Ga11  1  0.658705  0.994731  0.917132  1
  Ga  Ga12  1  0.331702  0.996297  0.081188  1
  Ga  Ga13  1  0.332085  0.331373  0.564416  1
  Ga  Ga14  1  0.670982  0.668837  0.436350  1
  Ga  Ga15  1  0.669933  0.668921  0.065572  1
  Ga  Ga16  1  0.336482  0.332018  0.934003  1
  Ga  Ga17  1  0.345461  0.550175  0.251366  1
  Ga  Ga18  1  0.662187  0.453235  0.749184  1
  Ga  Ga19  1  0.548679  0.340077  0.249397  1
  Ga  Ga20  1  0.451204  0.658013  0.749678  1
  Ge  Ge21  1  0.997665  0.336523  0.083080  1
  Ir  Ir22  1  0.672985  0.327106  0.998938  1
  Ir  Ir23  1  0.321195  0.664097  0.999415  1
  Ir  Ir24  1  0.328888  0.671159  0.500548  1
  Ir  Ir25  1  0.670607  0.327174  0.499405  1
  Ir  Ir26  1  0.998421  0.008977  0.999593  1
  Ir  Ir27  1  0.999559  0.002065  0.499901  1
