# generated using pymatgen
data_La5Pr3(ZnRh)8
_symmetry_space_group_name_H-M   'P 1'
_cell_length_a   4.06681500
_cell_length_b   7.41540259
_cell_length_c   16.69316970
_cell_angle_alpha   89.77798400
_cell_angle_beta   90.00000000
_cell_angle_gamma   90.00000000
_symmetry_Int_Tables_number   1
_chemical_formula_structural   La5Pr3(ZnRh)8
_chemical_formula_sum   'La5 Pr3 Zn8 Rh8'
_cell_volume   503.41331573
_cell_formula_units_Z   1
loop_
 _symmetry_equiv_pos_site_id
 _symmetry_equiv_pos_as_xyz
  1  'x, y, z'
loop_
 _atom_site_type_symbol
 _atom_site_label
 _atom_site_symmetry_multiplicity
 _atom_site_fract_x
 _atom_site_fract_y
 _atom_site_fract_z
 _atom_site_occupancy
  La  La0  1  0.750000  0.446863  0.217202  1
  La  La1  1  0.750000  0.948217  0.284299  1
  La  La2  1  0.750000  0.826826  0.060245  1
  La  La3  1  0.250000  0.051133  0.715965  1
  La  La4  1  0.250000  0.169950  0.939640  1
  Pr  Pr5  1  0.250000  0.551607  0.783587  1
  Pr  Pr6  1  0.750000  0.331567  0.441181  1
  Pr  Pr7  1  0.250000  0.671871  0.559564  1
  Zn  Zn8  1  0.250000  0.002314  0.441986  1
  Zn  Zn9  1  0.750000  0.503673  0.938752  1
  Zn  Zn10  1  0.750000  0.002555  0.558143  1
  Zn  Zn11  1  0.250000  0.620210  0.351209  1
  Zn  Zn12  1  0.750000  0.383873  0.651182  1
  Zn  Zn13  1  0.750000  0.873265  0.850284  1
  Zn  Zn14  1  0.250000  0.493819  0.059698  1
  Zn  Zn15  1  0.250000  0.122344  0.149301  1
  Rh  Rh16  1  0.250000  0.248178  0.567704  1
  Rh  Rh17  1  0.750000  0.253194  0.063538  1
  Rh  Rh18  1  0.250000  0.240523  0.311157  1
  Rh  Rh19  1  0.750000  0.255448  0.814667  1
  Rh  Rh20  1  0.250000  0.744907  0.936767  1
  Rh  Rh21  1  0.750000  0.763869  0.686471  1
  Rh  Rh22  1  0.750000  0.758574  0.432066  1
  Rh  Rh23  1  0.250000  0.735221  0.185396  1
