# generated using pymatgen
data_Pa2Co7Ni5As7
_symmetry_space_group_name_H-M   'P 1'
_cell_length_a   3.81546000
_cell_length_b   9.29593312
_cell_length_c   9.36214156
_cell_angle_alpha   119.79275799
_cell_angle_beta   90.00000000
_cell_angle_gamma   90.00000000
_symmetry_Int_Tables_number   1
_chemical_formula_structural   Pa2Co7Ni5As7
_chemical_formula_sum   'Pa2 Co7 Ni5 As7'
_cell_volume   288.17008099
_cell_formula_units_Z   1
loop_
 _symmetry_equiv_pos_site_id
 _symmetry_equiv_pos_as_xyz
  1  'x, y, z'
loop_
 _atom_site_type_symbol
 _atom_site_label
 _atom_site_symmetry_multiplicity
 _atom_site_fract_x
 _atom_site_fract_y
 _atom_site_fract_z
 _atom_site_occupancy
  Pa  Pa0  1  0.000000  0.670273  0.336616  1
  Pa  Pa1  1  0.500000  0.324982  0.665255  1
  Co  Co2  1  0.000000  0.068629  0.619524  1
  Co  Co3  1  0.000000  0.871213  0.150736  1
  Co  Co4  1  0.000000  0.279685  0.128731  1
  Co  Co5  1  0.000000  0.848862  0.721813  1
  Co  Co6  1  0.500000  0.942994  0.378649  1
  Co  Co7  1  0.500000  0.434378  0.054958  1
  Co  Co8  1  0.500000  0.621599  0.564541  1
  Ni  Ni9  1  0.000000  0.555122  0.938309  1
  Ni  Ni10  1  0.000000  0.382326  0.443098  1
  Ni  Ni11  1  0.500000  0.790532  0.904682  1
  Ni  Ni12  1  0.500000  0.112727  0.207895  1
  Ni  Ni13  1  0.500000  0.096708  0.885395  1
  As  As14  1  0.000000  0.999767  0.999391  1
  As  As15  1  0.500000  0.706802  0.107850  1
  As  As16  1  0.500000  0.400784  0.292105  1
  As  As17  1  0.500000  0.897344  0.602357  1
  As  As18  1  0.000000  0.598544  0.711144  1
  As  As19  1  0.000000  0.110396  0.397003  1
  As  As20  1  0.000000  0.286336  0.889951  1
