# generated using pymatgen
data_Nd4Ho2Ga3Si
_symmetry_space_group_name_H-M   'P 1'
_cell_length_a   7.71552032
_cell_length_b   7.71552032
_cell_length_c   4.52074800
_cell_angle_alpha   90.00000000
_cell_angle_beta   90.00000000
_cell_angle_gamma   89.48039805
_symmetry_Int_Tables_number   1
_chemical_formula_structural   Nd4Ho2Ga3Si
_chemical_formula_sum   'Nd4 Ho2 Ga3 Si1'
_cell_volume   269.10568860
_cell_formula_units_Z   1
loop_
 _symmetry_equiv_pos_site_id
 _symmetry_equiv_pos_as_xyz
  1  'x, y, z'
loop_
 _atom_site_type_symbol
 _atom_site_label
 _atom_site_symmetry_multiplicity
 _atom_site_fract_x
 _atom_site_fract_y
 _atom_site_fract_z
 _atom_site_occupancy
  Nd  Nd0  1  0.672928  0.175864  0.500000  1
  Nd  Nd1  1  0.324136  0.827072  0.500000  1
  Nd  Nd2  1  0.180700  0.319300  0.500000  1
  Nd  Nd3  1  0.823089  0.676911  0.500000  1
  Ho  Ho4  1  0.003340  0.999756  0.000000  1
  Ho  Ho5  1  0.500244  0.496660  0.000000  1
  Ga  Ga6  1  0.118554  0.618969  0.000000  1
  Ga  Ga7  1  0.881031  0.381446  0.000000  1
  Ga  Ga8  1  0.615706  0.884294  0.000000  1
  Si  Si9  1  0.380273  0.119727  0.000000  1
