# generated using pymatgen
data_Hf3ZrMn2(Si2Ir)2
_symmetry_space_group_name_H-M   'P 1'
_cell_length_a   3.87952100
_cell_length_b   6.47993225
_cell_length_c   7.51718262
_cell_angle_alpha   89.90445042
_cell_angle_beta   90.00000000
_cell_angle_gamma   90.00000000
_symmetry_Int_Tables_number   1
_chemical_formula_structural   Hf3ZrMn2(Si2Ir)2
_chemical_formula_sum   'Hf3 Zr1 Mn2 Si4 Ir2'
_cell_volume   188.97444090
_cell_formula_units_Z   1
loop_
 _symmetry_equiv_pos_site_id
 _symmetry_equiv_pos_as_xyz
  1  'x, y, z'
loop_
 _atom_site_type_symbol
 _atom_site_label
 _atom_site_symmetry_multiplicity
 _atom_site_fract_x
 _atom_site_fract_y
 _atom_site_fract_z
 _atom_site_occupancy
  Hf  Hf0  1  0.250000  0.475045  0.180008  1
  Hf  Hf1  1  0.750000  0.020726  0.679728  1
  Hf  Hf2  1  0.750000  0.520135  0.820796  1
  Zr  Zr3  1  0.250000  0.974954  0.319870  1
  Mn  Mn4  1  0.750000  0.651540  0.438288  1
  Mn  Mn5  1  0.750000  0.153402  0.061244  1
  Si  Si6  1  0.250000  0.725687  0.624719  1
  Si  Si7  1  0.250000  0.225966  0.876032  1
  Si  Si8  1  0.750000  0.273055  0.377096  1
  Si  Si9  1  0.750000  0.771698  0.122604  1
  Ir  Ir10  1  0.250000  0.354675  0.561635  1
  Ir  Ir11  1  0.250000  0.853117  0.937980  1
