# generated using pymatgen
data_FeSb6Au
_symmetry_space_group_name_H-M   'P 1'
_cell_length_a   8.12503702
_cell_length_b   8.12503725
_cell_length_c   9.48025321
_cell_angle_alpha   55.17251896
_cell_angle_beta   55.17251931
_cell_angle_gamma   70.24324803
_symmetry_Int_Tables_number   1
_chemical_formula_structural   FeSb6Au
_chemical_formula_sum   'Fe2 Sb12 Au2'
_cell_volume   421.65551449
_cell_formula_units_Z   2
loop_
 _symmetry_equiv_pos_site_id
 _symmetry_equiv_pos_as_xyz
  1  'x, y, z'
loop_
 _atom_site_type_symbol
 _atom_site_label
 _atom_site_symmetry_multiplicity
 _atom_site_fract_x
 _atom_site_fract_y
 _atom_site_fract_z
 _atom_site_occupancy
  Fe  Fe0  1  0.500000  0.000000  0.500000  1
  Fe  Fe1  1  0.000000  0.500000  0.500000  1
  Sb  Sb2  1  0.676013  0.676013  0.484038  1
  Sb  Sb3  1  0.323987  0.323987  0.515962  1
  Sb  Sb4  1  0.641915  0.641915  0.209374  1
  Sb  Sb5  1  0.358085  0.358085  0.790626  1
  Sb  Sb6  1  0.172845  0.860385  0.640825  1
  Sb  Sb7  1  0.827155  0.139615  0.359175  1
  Sb  Sb8  1  0.860385  0.172845  0.640825  1
  Sb  Sb9  1  0.139615  0.827155  0.359175  1
  Sb  Sb10  1  0.813588  0.494096  0.828411  1
  Sb  Sb11  1  0.186412  0.505904  0.171589  1
  Sb  Sb12  1  0.505904  0.186412  0.171589  1
  Sb  Sb13  1  0.494096  0.813588  0.828411  1
  Au  Au14  1  0.000000  0.500000  0.000000  1
  Au  Au15  1  0.500000  0.000000  0.000000  1
