# generated using pymatgen
data_Sm7Np(Pt2Pb)4
_symmetry_space_group_name_H-M   'P 1'
_cell_length_a   8.03738400
_cell_length_b   8.03738536
_cell_length_c   7.36989900
_cell_angle_alpha   90.00000000
_cell_angle_beta   90.00000000
_cell_angle_gamma   89.53092187
_symmetry_Int_Tables_number   1
_chemical_formula_structural   Sm7Np(Pt2Pb)4
_chemical_formula_sum   'Sm7 Np1 Pt8 Pb4'
_cell_volume   476.07622187
_cell_formula_units_Z   1
loop_
 _symmetry_equiv_pos_site_id
 _symmetry_equiv_pos_as_xyz
  1  'x, y, z'
loop_
 _atom_site_type_symbol
 _atom_site_label
 _atom_site_symmetry_multiplicity
 _atom_site_fract_x
 _atom_site_fract_y
 _atom_site_fract_z
 _atom_site_occupancy
  Sm  Sm0  1  0.674304  0.663020  0.000000  1
  Sm  Sm1  1  0.326218  0.333885  0.500000  1
  Sm  Sm2  1  0.833038  0.166962  0.500000  1
  Sm  Sm3  1  0.666115  0.673782  0.500000  1
  Sm  Sm4  1  0.336980  0.325696  0.000000  1
  Sm  Sm5  1  0.170730  0.829270  0.500000  1
  Sm  Sm6  1  0.825516  0.174484  0.000000  1
  Np  Np7  1  0.166795  0.833205  0.000000  1
  Pt  Pt8  1  0.876958  0.871989  0.755708  1
  Pt  Pt9  1  0.128011  0.123042  0.755708  1
  Pt  Pt10  1  0.624037  0.375963  0.740700  1
  Pt  Pt11  1  0.624037  0.375963  0.259300  1
  Pt  Pt12  1  0.367741  0.632259  0.236286  1
  Pt  Pt13  1  0.128011  0.123042  0.244292  1
  Pt  Pt14  1  0.876958  0.871989  0.244292  1
  Pt  Pt15  1  0.367741  0.632259  0.763714  1
  Pb  Pb16  1  0.501755  0.998349  0.750985  1
  Pb  Pb17  1  0.501755  0.998349  0.249015  1
  Pb  Pb18  1  0.001651  0.498245  0.750985  1
  Pb  Pb19  1  0.001651  0.498245  0.249015  1
