# generated using pymatgen
data_Sc10Ag3Ru
_symmetry_space_group_name_H-M   'P 1'
_cell_length_a   8.82984800
_cell_length_b   8.82984691
_cell_length_c   9.08419200
_cell_angle_alpha   90.00000000
_cell_angle_beta   90.00000000
_cell_angle_gamma   119.99999659
_symmetry_Int_Tables_number   1
_chemical_formula_structural   Sc10Ag3Ru
_chemical_formula_sum   'Sc20 Ag6 Ru2'
_cell_volume   613.37116116
_cell_formula_units_Z   2
loop_
 _symmetry_equiv_pos_site_id
 _symmetry_equiv_pos_as_xyz
  1  'x, y, z'
loop_
 _atom_site_type_symbol
 _atom_site_label
 _atom_site_symmetry_multiplicity
 _atom_site_fract_x
 _atom_site_fract_y
 _atom_site_fract_z
 _atom_site_occupancy
  Sc  Sc0  1  0.000000  0.000000  0.500000  1
  Sc  Sc1  1  0.000000  0.000000  0.000000  1
  Sc  Sc2  1  0.208690  0.791310  0.444336  1
  Sc  Sc3  1  0.208690  0.417380  0.444336  1
  Sc  Sc4  1  0.582620  0.791310  0.444336  1
  Sc  Sc5  1  0.791310  0.208690  0.555664  1
  Sc  Sc6  1  0.791310  0.582620  0.555664  1
  Sc  Sc7  1  0.417380  0.208690  0.555664  1
  Sc  Sc8  1  0.791310  0.208690  0.944336  1
  Sc  Sc9  1  0.791310  0.582620  0.944336  1
  Sc  Sc10  1  0.417380  0.208690  0.944336  1
  Sc  Sc11  1  0.208690  0.791310  0.055664  1
  Sc  Sc12  1  0.208690  0.417380  0.055664  1
  Sc  Sc13  1  0.582620  0.791310  0.055664  1
  Sc  Sc14  1  0.540826  0.459174  0.250000  1
  Sc  Sc15  1  0.540826  0.081651  0.250000  1
  Sc  Sc16  1  0.918349  0.459174  0.250000  1
  Sc  Sc17  1  0.459174  0.540826  0.750000  1
  Sc  Sc18  1  0.459174  0.918349  0.750000  1
  Sc  Sc19  1  0.081651  0.540826  0.750000  1
  Ag  Ag20  1  0.884255  0.115745  0.250000  1
  Ag  Ag21  1  0.884255  0.768512  0.250000  1
  Ag  Ag22  1  0.231488  0.115745  0.250000  1
  Ag  Ag23  1  0.115745  0.884255  0.750000  1
  Ag  Ag24  1  0.115745  0.231488  0.750000  1
  Ag  Ag25  1  0.768512  0.884255  0.750000  1
  Ru  Ru26  1  0.333333  0.666667  0.250000  1
  Ru  Ru27  1  0.666667  0.333333  0.750000  1
