# generated using pymatgen
data_BaIn6Ag3Au
_symmetry_space_group_name_H-M   'P 1'
_cell_length_a   8.19324300
_cell_length_b   8.19324412
_cell_length_c   4.66727600
_cell_angle_alpha   90.00000000
_cell_angle_beta   90.00000000
_cell_angle_gamma   120.00000761
_symmetry_Int_Tables_number   1
_chemical_formula_structural   BaIn6Ag3Au
_chemical_formula_sum   'Ba1 In6 Ag3 Au1'
_cell_volume   271.33499667
_cell_formula_units_Z   1
loop_
 _symmetry_equiv_pos_site_id
 _symmetry_equiv_pos_as_xyz
  1  'x, y, z'
loop_
 _atom_site_type_symbol
 _atom_site_label
 _atom_site_symmetry_multiplicity
 _atom_site_fract_x
 _atom_site_fract_y
 _atom_site_fract_z
 _atom_site_occupancy
  Ba  Ba0  1  0.000000  0.000000  0.000000  1
  In  In1  1  0.929903  0.464951  0.000000  1
  In  In2  1  0.199075  0.800925  0.500000  1
  In  In3  1  0.535049  0.070097  0.000000  1
  In  In4  1  0.535049  0.464951  0.000000  1
  In  In5  1  0.199075  0.398150  0.500000  1
  In  In6  1  0.601850  0.800925  0.500000  1
  Ag  Ag7  1  0.418905  0.209452  0.500000  1
  Ag  Ag8  1  0.790548  0.209452  0.500000  1
  Ag  Ag9  1  0.790548  0.581095  0.500000  1
  Au  Au10  1  0.333333  0.666667  0.000000  1
