# generated using pymatgen
data_Ho3In3Cu2Ru
_symmetry_space_group_name_H-M   'P 1'
_cell_length_a   7.54230600
_cell_length_b   7.54230548
_cell_length_c   3.90193400
_cell_angle_alpha   90.00000000
_cell_angle_beta   90.00000000
_cell_angle_gamma   120.00000228
_symmetry_Int_Tables_number   1
_chemical_formula_structural   Ho3In3Cu2Ru
_chemical_formula_sum   'Ho3 In3 Cu2 Ru1'
_cell_volume   192.22895611
_cell_formula_units_Z   1
loop_
 _symmetry_equiv_pos_site_id
 _symmetry_equiv_pos_as_xyz
  1  'x, y, z'
loop_
 _atom_site_type_symbol
 _atom_site_label
 _atom_site_symmetry_multiplicity
 _atom_site_fract_x
 _atom_site_fract_y
 _atom_site_fract_z
 _atom_site_occupancy
  Ho  Ho0  1  0.022139  0.599855  0.500000  1
  Ho  Ho1  1  0.400145  0.422283  0.500000  1
  Ho  Ho2  1  0.577717  0.977861  0.500000  1
  In  In3  1  0.748654  0.742872  0.000000  1
  In  In4  1  0.994218  0.251346  0.000000  1
  In  In5  1  0.257128  0.005782  0.000000  1
  Cu  Cu6  1  0.000000  0.000000  0.500000  1
  Cu  Cu7  1  0.666667  0.333333  0.000000  1
  Ru  Ru8  1  0.333333  0.666667  0.000000  1
