# generated using pymatgen
data_ErScP7Ru11Pt
_symmetry_space_group_name_H-M   'P 1'
_cell_length_a   9.32063104
_cell_length_b   9.44309550
_cell_length_c   3.93331700
_cell_angle_alpha   90.00000000
_cell_angle_beta   90.00000000
_cell_angle_gamma   119.17886255
_symmetry_Int_Tables_number   1
_chemical_formula_structural   ErScP7Ru11Pt
_chemical_formula_sum   'Er1 Sc1 P7 Ru11 Pt1'
_cell_volume   302.26205415
_cell_formula_units_Z   1
loop_
 _symmetry_equiv_pos_site_id
 _symmetry_equiv_pos_as_xyz
  1  'x, y, z'
loop_
 _atom_site_type_symbol
 _atom_site_label
 _atom_site_symmetry_multiplicity
 _atom_site_fract_x
 _atom_site_fract_y
 _atom_site_fract_z
 _atom_site_occupancy
  Er  Er0  1  0.328560  0.658128  0.000000  1
  Sc  Sc1  1  0.671625  0.337731  0.500000  1
  P  P2  1  0.598324  0.705510  0.500000  1
  P  P3  1  0.997965  0.000901  0.000000  1
  P  P4  1  0.269767  0.875479  0.500000  1
  P  P5  1  0.118869  0.401070  0.500000  1
  P  P6  1  0.885920  0.577430  0.000000  1
  P  P7  1  0.431333  0.310889  0.000000  1
  P  P8  1  0.703199  0.129404  0.000000  1
  Ru  Ru9  1  0.392526  0.438053  0.500000  1
  Ru  Ru10  1  0.909987  0.128084  0.500000  1
  Ru  Ru11  1  0.210084  0.085685  0.500000  1
  Ru  Ru12  1  0.876902  0.795820  0.500000  1
  Ru  Ru13  1  0.723294  0.894351  0.000000  1
  Ru  Ru14  1  0.111937  0.838568  0.000000  1
  Ru  Ru15  1  0.164103  0.269942  0.000000  1
  Ru  Ru16  1  0.435290  0.072270  0.000000  1
  Ru  Ru17  1  0.935816  0.364573  0.000000  1
  Ru  Ru18  1  0.642642  0.574458  0.000000  1
  Ru  Ru19  1  0.049328  0.606649  0.500000  1
  Pt  Pt20  1  0.542530  0.935007  0.500000  1
