# generated using pymatgen
data_Hf3Zr4Tl2BBr18
_symmetry_space_group_name_H-M   'P 1'
_cell_length_a   11.08273023
_cell_length_b   11.08203589
_cell_length_c   11.06808800
_cell_angle_alpha   55.75179765
_cell_angle_beta   55.66402172
_cell_angle_gamma   55.71102109
_symmetry_Int_Tables_number   1
_chemical_formula_structural   Hf3Zr4Tl2BBr18
_chemical_formula_sum   'Hf3 Zr4 Tl2 B1 Br18'
_cell_volume   865.54116134
_cell_formula_units_Z   1
loop_
 _symmetry_equiv_pos_site_id
 _symmetry_equiv_pos_as_xyz
  1  'x, y, z'
loop_
 _atom_site_type_symbol
 _atom_site_label
 _atom_site_symmetry_multiplicity
 _atom_site_fract_x
 _atom_site_fract_y
 _atom_site_fract_z
 _atom_site_occupancy
  Hf  Hf0  1  0.903167  0.801532  0.154641  1
  Hf  Hf1  1  0.802282  0.154847  0.902099  1
  Hf  Hf2  1  0.499954  0.500054  0.499922  1
  Zr  Zr3  1  0.156508  0.902077  0.800165  1
  Zr  Zr4  1  0.845490  0.098182  0.199369  1
  Zr  Zr5  1  0.098348  0.198040  0.845569  1
  Zr  Zr6  1  0.198899  0.845994  0.097232  1
  Tl  Tl7  1  0.774628  0.775024  0.775324  1
  Tl  Tl8  1  0.223721  0.224781  0.224760  1
  B  B9  1  0.997302  0.999516  0.000487  1
  Br  Br10  1  0.226319  0.470206  0.641675  1
  Br  Br11  1  0.774358  0.532040  0.357071  1
  Br  Br12  1  0.347728  0.052691  0.934859  1
  Br  Br13  1  0.657291  0.947663  0.064680  1
  Br  Br14  1  0.934861  0.347486  0.052604  1
  Br  Br15  1  0.711995  0.875682  0.412626  1
  Br  Br16  1  0.358117  0.773708  0.530599  1
  Br  Br17  1  0.586305  0.288765  0.118017  1
  Br  Br18  1  0.290029  0.122503  0.583394  1
  Br  Br19  1  0.117838  0.586519  0.289143  1
  Br  Br20  1  0.943772  0.067361  0.656175  1
  Br  Br21  1  0.416398  0.710243  0.877751  1
  Br  Br22  1  0.875936  0.412225  0.712125  1
  Br  Br23  1  0.062351  0.654119  0.950946  1
  Br  Br24  1  0.470366  0.641050  0.226191  1
  Br  Br25  1  0.641607  0.226185  0.469819  1
  Br  Br26  1  0.531770  0.356895  0.774859  1
  Br  Br27  1  0.052661  0.934609  0.347898  1
