# generated using pymatgen
data_TbNd4U(Ni3Sb4)2
_symmetry_space_group_name_H-M   'P 1'
_cell_length_a   8.29440271
_cell_length_b   8.28837224
_cell_length_c   8.28890924
_cell_angle_alpha   109.57176855
_cell_angle_beta   109.26112134
_cell_angle_gamma   109.60041900
_symmetry_Int_Tables_number   1
_chemical_formula_structural   TbNd4U(Ni3Sb4)2
_chemical_formula_sum   'Tb1 Nd4 U1 Ni6 Sb8'
_cell_volume   438.55190381
_cell_formula_units_Z   1
loop_
 _symmetry_equiv_pos_site_id
 _symmetry_equiv_pos_as_xyz
  1  'x, y, z'
loop_
 _atom_site_type_symbol
 _atom_site_label
 _atom_site_symmetry_multiplicity
 _atom_site_fract_x
 _atom_site_fract_y
 _atom_site_fract_z
 _atom_site_occupancy
  Tb  Tb0  1  0.874874  0.249074  0.122940  1
  Nd  Nd1  1  0.626774  0.752551  0.377480  1
  Nd  Nd2  1  0.246992  0.124465  0.873390  1
  Nd  Nd3  1  0.749962  0.373268  0.625800  1
  Nd  Nd4  1  0.125959  0.875910  0.250302  1
  U  U5  1  0.374103  0.624001  0.749747  1
  Ni  Ni6  1  0.376721  0.278276  0.636136  1
  Ni  Ni7  1  0.142873  0.740130  0.863654  1
  Ni  Ni8  1  0.254871  0.619075  0.396396  1
  Ni  Ni9  1  0.726435  0.863025  0.102055  1
  Ni  Ni10  1  0.627610  0.373780  0.247804  1
  Ni  Ni11  1  0.874305  0.127088  0.754258  1
  Sb  Sb12  1  0.655019  0.500858  0.001533  1
  Sb  Sb13  1  0.498379  0.998892  0.658103  1
  Sb  Sb14  1  0.997948  0.649521  0.496349  1
  Sb  Sb15  1  0.843315  0.844763  0.845080  1
  Sb  Sb16  1  0.502444  0.002605  0.152982  1
  Sb  Sb17  1  0.155911  0.500297  0.003791  1
  Sb  Sb18  1  0.999226  0.157460  0.497674  1
  Sb  Sb19  1  0.346278  0.344962  0.344524  1
