# generated using pymatgen
data_DyTm4In4IrPt
_symmetry_space_group_name_H-M   'P 1'
_cell_length_a   3.58951200
_cell_length_b   8.10224595
_cell_length_c   18.12317810
_cell_angle_alpha   90.08334533
_cell_angle_beta   90.00000000
_cell_angle_gamma   90.00000000
_symmetry_Int_Tables_number   1
_chemical_formula_structural   DyTm4In4IrPt
_chemical_formula_sum   'Dy2 Tm8 In8 Ir2 Pt2'
_cell_volume   527.07780796
_cell_formula_units_Z   2
loop_
 _symmetry_equiv_pos_site_id
 _symmetry_equiv_pos_as_xyz
  1  'x, y, z'
loop_
 _atom_site_type_symbol
 _atom_site_label
 _atom_site_symmetry_multiplicity
 _atom_site_fract_x
 _atom_site_fract_y
 _atom_site_fract_z
 _atom_site_occupancy
  Dy  Dy0  1  0.000000  0.000000  0.000000  1
  Dy  Dy1  1  0.000000  0.500000  0.500000  1
  Tm  Tm2  1  0.000000  0.114941  0.411332  1
  Tm  Tm3  1  0.000000  0.885059  0.588668  1
  Tm  Tm4  1  0.000000  0.383389  0.912713  1
  Tm  Tm5  1  0.000000  0.616611  0.087287  1
  Tm  Tm6  1  0.000000  0.236369  0.221738  1
  Tm  Tm7  1  0.000000  0.763631  0.778262  1
  Tm  Tm8  1  0.000000  0.248743  0.719800  1
  Tm  Tm9  1  0.000000  0.751257  0.280200  1
  In  In10  1  0.500000  0.422131  0.350353  1
  In  In11  1  0.500000  0.577869  0.649647  1
  In  In12  1  0.500000  0.074756  0.849967  1
  In  In13  1  0.500000  0.925244  0.150033  1
  In  In14  1  0.500000  0.293806  0.067329  1
  In  In15  1  0.500000  0.706194  0.932671  1
  In  In16  1  0.500000  0.204874  0.567980  1
  In  In17  1  0.500000  0.795126  0.432020  1
  Ir  Ir18  1  0.500000  0.023223  0.303726  1
  Ir  Ir19  1  0.500000  0.976777  0.696274  1
  Pt  Pt20  1  0.500000  0.476161  0.803386  1
  Pt  Pt21  1  0.500000  0.523839  0.196614  1
