# generated using pymatgen
data_Er4VRe(TcB8)2
_symmetry_space_group_name_H-M   'P 1'
_cell_length_a   3.55937200
_cell_length_b   5.95130531
_cell_length_c   11.49965102
_cell_angle_alpha   89.84090968
_cell_angle_beta   90.00000000
_cell_angle_gamma   90.00000000
_symmetry_Int_Tables_number   1
_chemical_formula_structural   Er4VRe(TcB8)2
_chemical_formula_sum   'Er4 V1 Re1 Tc2 B16'
_cell_volume   243.59512781
_cell_formula_units_Z   1
loop_
 _symmetry_equiv_pos_site_id
 _symmetry_equiv_pos_as_xyz
  1  'x, y, z'
loop_
 _atom_site_type_symbol
 _atom_site_label
 _atom_site_symmetry_multiplicity
 _atom_site_fract_x
 _atom_site_fract_y
 _atom_site_fract_z
 _atom_site_occupancy
  Er  Er0  1  0.500000  0.873801  0.150075  1
  Er  Er1  1  0.500000  0.127161  0.850266  1
  Er  Er2  1  0.500000  0.371698  0.348634  1
  Er  Er3  1  0.500000  0.627907  0.649716  1
  V  V4  1  0.500000  0.370865  0.082608  1
  Re  Re5  1  0.500000  0.628299  0.916108  1
  Tc  Tc6  1  0.500000  0.865352  0.413354  1
  Tc  Tc7  1  0.500000  0.134633  0.587937  1
  B  B8  1  0.000000  0.521526  0.192995  1
  B  B9  1  0.000000  0.477885  0.806941  1
  B  B10  1  0.000000  0.022892  0.306982  1
  B  B11  1  0.000000  0.977239  0.692940  1
  B  B12  1  0.000000  0.613959  0.047867  1
  B  B13  1  0.000000  0.385966  0.952751  1
  B  B14  1  0.000000  0.113797  0.452238  1
  B  B15  1  0.000000  0.886714  0.547716  1
  B  B16  1  0.000000  0.635224  0.468986  1
  B  B17  1  0.000000  0.364736  0.530908  1
  B  B18  1  0.000000  0.134423  0.032355  1
  B  B19  1  0.000000  0.865632  0.968212  1
  B  B20  1  0.000000  0.712848  0.314572  1
  B  B21  1  0.000000  0.287053  0.685751  1
  B  B22  1  0.000000  0.212608  0.185030  1
  B  B23  1  0.000000  0.787782  0.815055  1
