# generated using pymatgen
data_LaPr9(US10)2
_symmetry_space_group_name_H-M   'P 1'
_cell_length_a   7.60702523
_cell_length_b   8.28660700
_cell_length_c   12.05021600
_cell_angle_alpha   90.00000000
_cell_angle_beta   90.09397626
_cell_angle_gamma   90.00000000
_symmetry_Int_Tables_number   1
_chemical_formula_structural   LaPr9(US10)2
_chemical_formula_sum   'La1 Pr9 U2 S20'
_cell_volume   759.60155801
_cell_formula_units_Z   1
loop_
 _symmetry_equiv_pos_site_id
 _symmetry_equiv_pos_as_xyz
  1  'x, y, z'
loop_
 _atom_site_type_symbol
 _atom_site_label
 _atom_site_symmetry_multiplicity
 _atom_site_fract_x
 _atom_site_fract_y
 _atom_site_fract_z
 _atom_site_occupancy
  La  La0  1  0.074969  0.750000  0.489631  1
  Pr  Pr1  1  0.529211  0.501029  0.324261  1
  Pr  Pr2  1  0.971255  0.998695  0.823409  1
  Pr  Pr3  1  0.477932  0.998957  0.676675  1
  Pr  Pr4  1  0.022128  0.500715  0.176453  1
  Pr  Pr5  1  0.477932  0.501043  0.676675  1
  Pr  Pr6  1  0.022128  0.999285  0.176453  1
  Pr  Pr7  1  0.529211  0.998971  0.324261  1
  Pr  Pr8  1  0.971255  0.501305  0.823409  1
  Pr  Pr9  1  0.424328  0.750000  0.990515  1
  U  U10  1  0.944805  0.250000  0.505757  1
  U  U11  1  0.554458  0.250000  0.005724  1
  S  S12  1  0.836118  0.978281  0.595985  1
  S  S13  1  0.662260  0.522166  0.096512  1
  S  S14  1  0.164867  0.445503  0.404319  1
  S  S15  1  0.336425  0.052529  0.904069  1
  S  S16  1  0.164867  0.054497  0.404319  1
  S  S17  1  0.336425  0.447471  0.904069  1
  S  S18  1  0.836118  0.521719  0.595985  1
  S  S19  1  0.662260  0.977834  0.096512  1
  S  S20  1  0.825018  0.750000  0.303924  1
  S  S21  1  0.673506  0.750000  0.805466  1
  S  S22  1  0.163635  0.250000  0.683931  1
  S  S23  1  0.336238  0.250000  0.183679  1
  S  S24  1  0.465876  0.750000  0.499922  1
  S  S25  1  0.036997  0.750000  0.999725  1
  S  S26  1  0.551819  0.250000  0.500281  1
  S  S27  1  0.947206  0.250000  0.999843  1
  S  S28  1  0.198296  0.750000  0.722220  1
  S  S29  1  0.302496  0.750000  0.221211  1
  S  S30  1  0.812092  0.250000  0.292545  1
  S  S31  1  0.687870  0.250000  0.792265  1
