# generated using pymatgen
data_Ho16In4PdPtRh2
_symmetry_space_group_name_H-M   'P 1'
_cell_length_a   9.65190020
_cell_length_b   9.67214492
_cell_length_c   9.65189987
_cell_angle_alpha   59.92455105
_cell_angle_beta   59.97007782
_cell_angle_gamma   59.92454874
_symmetry_Int_Tables_number   1
_chemical_formula_structural   Ho16In4PdPtRh2
_chemical_formula_sum   'Ho16 In4 Pd1 Pt1 Rh2'
_cell_volume   636.26659434
_cell_formula_units_Z   1
loop_
 _symmetry_equiv_pos_site_id
 _symmetry_equiv_pos_as_xyz
  1  'x, y, z'
loop_
 _atom_site_type_symbol
 _atom_site_label
 _atom_site_symmetry_multiplicity
 _atom_site_fract_x
 _atom_site_fract_y
 _atom_site_fract_z
 _atom_site_occupancy
  Ho  Ho0  1  0.188381  0.187479  0.813046  1
  Ho  Ho1  1  0.606230  0.599961  0.194079  1
  Ho  Ho2  1  0.440379  0.060394  0.440379  1
  Ho  Ho3  1  0.440060  0.439637  0.057213  1
  Ho  Ho4  1  0.813338  0.185567  0.813338  1
  Ho  Ho5  1  0.188365  0.811079  0.188365  1
  Ho  Ho6  1  0.439895  0.064408  0.055916  1
  Ho  Ho7  1  0.186247  0.811604  0.814617  1
  Ho  Ho8  1  0.060645  0.439290  0.060645  1
  Ho  Ho9  1  0.814617  0.811604  0.186247  1
  Ho  Ho10  1  0.194079  0.599961  0.606230  1
  Ho  Ho11  1  0.057213  0.439637  0.440060  1
  Ho  Ho12  1  0.055916  0.064408  0.439895  1
  Ho  Ho13  1  0.813046  0.187479  0.188381  1
  Ho  Ho14  1  0.602410  0.198891  0.602410  1
  Ho  Ho15  1  0.601382  0.595916  0.601382  1
  In  In16  1  0.833271  0.833553  0.833271  1
  In  In17  1  0.832882  0.833459  0.500365  1
  In  In18  1  0.500365  0.833459  0.832882  1
  In  In19  1  0.833020  0.500597  0.833020  1
  Pd  Pd20  1  0.392582  0.820821  0.392582  1
  Pt  Pt21  1  0.392571  0.394348  0.392571  1
  Rh  Rh22  1  0.821750  0.393227  0.391352  1
  Rh  Rh23  1  0.391352  0.393227  0.821750  1
