# generated using pymatgen
data_Cs6CrFeSe6
_symmetry_space_group_name_H-M   'P 1'
_cell_length_a   10.87895522
_cell_length_b   10.87895512
_cell_length_c   14.03333000
_cell_angle_alpha   90.00000000
_cell_angle_beta   90.00000000
_cell_angle_gamma   138.78070494
_symmetry_Int_Tables_number   1
_chemical_formula_structural   Cs6CrFeSe6
_chemical_formula_sum   'Cs12 Cr2 Fe2 Se12'
_cell_volume   1094.41700969
_cell_formula_units_Z   2
loop_
 _symmetry_equiv_pos_site_id
 _symmetry_equiv_pos_as_xyz
  1  'x, y, z'
loop_
 _atom_site_type_symbol
 _atom_site_label
 _atom_site_symmetry_multiplicity
 _atom_site_fract_x
 _atom_site_fract_y
 _atom_site_fract_z
 _atom_site_occupancy
  Cs  Cs0  1  0.875557  0.871929  0.687997  1
  Cs  Cs1  1  0.128071  0.124443  0.312003  1
  Cs  Cs2  1  0.628071  0.624443  0.187997  1
  Cs  Cs3  1  0.375557  0.371929  0.812003  1
  Cs  Cs4  1  0.175595  0.532718  0.125714  1
  Cs  Cs5  1  0.467282  0.824405  0.874286  1
  Cs  Cs6  1  0.967282  0.324405  0.625714  1
  Cs  Cs7  1  0.675595  0.032718  0.374286  1
  Cs  Cs8  1  0.828884  0.477537  0.877175  1
  Cs  Cs9  1  0.522463  0.171116  0.122825  1
  Cs  Cs10  1  0.022463  0.671116  0.377175  1
  Cs  Cs11  1  0.328884  0.977537  0.622825  1
  Cr  Cr12  1  0.927554  0.072446  0.000000  1
  Cr  Cr13  1  0.427554  0.572446  0.500000  1
  Fe  Fe14  1  0.076834  0.923166  0.000000  1
  Fe  Fe15  1  0.576834  0.423166  0.500000  1
  Se  Se16  1  0.280599  0.286028  0.560054  1
  Se  Se17  1  0.713972  0.719401  0.439946  1
  Se  Se18  1  0.213972  0.219401  0.060054  1
  Se  Se19  1  0.780599  0.786028  0.939946  1
  Se  Se20  1  0.735803  0.019871  0.117455  1
  Se  Se21  1  0.980129  0.264197  0.882545  1
  Se  Se22  1  0.480129  0.764197  0.617455  1
  Se  Se23  1  0.235803  0.519871  0.382545  1
  Se  Se24  1  0.275033  0.987776  0.877648  1
  Se  Se25  1  0.012224  0.724967  0.122352  1
  Se  Se26  1  0.512224  0.224967  0.377648  1
  Se  Se27  1  0.775033  0.487776  0.622352  1
