# generated using pymatgen
data_Ca3(TmSn2)2
_symmetry_space_group_name_H-M   'P 1'
_cell_length_a   7.83485821
_cell_length_b   8.42894303
_cell_length_c   15.98894312
_cell_angle_alpha   90.01579597
_cell_angle_beta   90.02964082
_cell_angle_gamma   90.14200374
_symmetry_Int_Tables_number   1
_chemical_formula_structural   Ca3(TmSn2)2
_chemical_formula_sum   'Ca12 Tm8 Sn16'
_cell_volume   1055.89955857
_cell_formula_units_Z   4
loop_
 _symmetry_equiv_pos_site_id
 _symmetry_equiv_pos_as_xyz
  1  'x, y, z'
loop_
 _atom_site_type_symbol
 _atom_site_label
 _atom_site_symmetry_multiplicity
 _atom_site_fract_x
 _atom_site_fract_y
 _atom_site_fract_z
 _atom_site_occupancy
  Ca  Ca0  1  0.176444  0.333413  0.620620  1
  Ca  Ca1  1  0.501111  0.686754  0.593042  1
  Ca  Ca2  1  0.001545  0.815203  0.909336  1
  Ca  Ca3  1  0.495679  0.312646  0.091966  1
  Ca  Ca4  1  0.998608  0.188295  0.407247  1
  Ca  Ca5  1  0.496882  0.312642  0.408138  1
  Ca  Ca6  1  0.996919  0.187271  0.092203  1
  Ca  Ca7  1  0.500966  0.686941  0.907778  1
  Ca  Ca8  1  0.003303  0.813906  0.591410  1
  Ca  Ca9  1  0.333943  0.990838  0.749487  1
  Ca  Ca10  1  0.164828  0.488920  0.249545  1
  Ca  Ca11  1  0.666229  0.009925  0.250371  1
  Tm  Tm12  1  0.672516  0.164039  0.622555  1
  Tm  Tm13  1  0.172810  0.333225  0.878712  1
  Tm  Tm14  1  0.327118  0.833546  0.121786  1
  Tm  Tm15  1  0.828704  0.664159  0.377663  1
  Tm  Tm16  1  0.327144  0.834067  0.377229  1
  Tm  Tm17  1  0.827107  0.664989  0.121282  1
  Tm  Tm18  1  0.671642  0.164467  0.878683  1
  Tm  Tm19  1  0.837274  0.508970  0.748823  1
  Sn  Sn20  1  0.675123  0.961098  0.459630  1
  Sn  Sn21  1  0.170319  0.536925  0.040097  1
  Sn  Sn22  1  0.328621  0.037223  0.959759  1
  Sn  Sn23  1  0.824419  0.466278  0.543042  1
  Sn  Sn24  1  0.335866  0.034134  0.539686  1
  Sn  Sn25  1  0.827518  0.465663  0.955644  1
  Sn  Sn26  1  0.671397  0.962605  0.040668  1
  Sn  Sn27  1  0.168599  0.539608  0.457292  1
  Sn  Sn28  1  0.476236  0.379824  0.753655  1
  Sn  Sn29  1  0.966795  0.129100  0.751536  1
  Sn  Sn30  1  0.529976  0.629165  0.249418  1
  Sn  Sn31  1  0.029863  0.870145  0.248445  1
  Sn  Sn32  1  0.719652  0.866851  0.751526  1
  Sn  Sn33  1  0.210437  0.627637  0.753288  1
  Sn  Sn34  1  0.283218  0.125488  0.249276  1
  Sn  Sn35  1  0.781191  0.374042  0.249167  1
