# generated using pymatgen
data_Nd5Y8Th3Cd2(HgIr2)2
_symmetry_space_group_name_H-M   'P 1'
_cell_length_a   9.82194571
_cell_length_b   9.80740819
_cell_length_c   9.81472074
_cell_angle_alpha   60.01948279
_cell_angle_beta   60.03386835
_cell_angle_gamma   60.03832158
_symmetry_Int_Tables_number   1
_chemical_formula_structural   Nd5Y8Th3Cd2(HgIr2)2
_chemical_formula_sum   'Nd5 Y8 Th3 Cd2 Hg2 Ir4'
_cell_volume   668.98353442
_cell_formula_units_Z   1
loop_
 _symmetry_equiv_pos_site_id
 _symmetry_equiv_pos_as_xyz
  1  'x, y, z'
loop_
 _atom_site_type_symbol
 _atom_site_label
 _atom_site_symmetry_multiplicity
 _atom_site_fract_x
 _atom_site_fract_y
 _atom_site_fract_z
 _atom_site_occupancy
  Nd  Nd0  1  0.558830  0.940276  0.939678  1
  Nd  Nd1  1  0.563341  0.938315  0.562293  1
  Nd  Nd2  1  0.941881  0.558393  0.936942  1
  Nd  Nd3  1  0.563494  0.561531  0.938614  1
  Nd  Nd4  1  0.941939  0.935923  0.559510  1
  Y  Y5  1  0.943694  0.352742  0.352543  1
  Y  Y6  1  0.812527  0.188430  0.188427  1
  Y  Y7  1  0.185207  0.814128  0.814920  1
  Y  Y8  1  0.184500  0.813021  0.189381  1
  Y  Y9  1  0.812659  0.186825  0.811766  1
  Y  Y10  1  0.184619  0.188497  0.813321  1
  Y  Y11  1  0.811655  0.811248  0.187761  1
  Y  Y12  1  0.943436  0.557546  0.558375  1
  Th  Th13  1  0.346872  0.347809  0.348502  1
  Th  Th14  1  0.346432  0.351456  0.954265  1
  Th  Th15  1  0.348074  0.951455  0.352008  1
  Cd  Cd16  1  0.579907  0.261255  0.579425  1
  Cd  Cd17  1  0.256888  0.578630  0.579452  1
  Hg  Hg18  1  0.588959  0.580758  0.582692  1
  Hg  Hg19  1  0.584009  0.582810  0.248676  1
  Ir  Ir20  1  0.146059  0.141544  0.142656  1
  Ir  Ir21  1  0.143283  0.142875  0.571051  1
  Ir  Ir22  1  0.143377  0.570794  0.143822  1
  Ir  Ir23  1  0.568354  0.143740  0.143922  1
