# generated using pymatgen
data_Hf10Zn2SnSb5
_symmetry_space_group_name_H-M   'P 1'
_cell_length_a   8.60015800
_cell_length_b   8.60404129
_cell_length_c   5.77728900
_cell_angle_alpha   90.00000000
_cell_angle_beta   90.00000000
_cell_angle_gamma   119.98507115
_symmetry_Int_Tables_number   1
_chemical_formula_structural   Hf10Zn2SnSb5
_chemical_formula_sum   'Hf10 Zn2 Sn1 Sb5'
_cell_volume   370.27888985
_cell_formula_units_Z   1
loop_
 _symmetry_equiv_pos_site_id
 _symmetry_equiv_pos_as_xyz
  1  'x, y, z'
loop_
 _atom_site_type_symbol
 _atom_site_label
 _atom_site_symmetry_multiplicity
 _atom_site_fract_x
 _atom_site_fract_y
 _atom_site_fract_z
 _atom_site_occupancy
  Hf  Hf0  1  0.730479  0.730494  0.250000  1
  Hf  Hf1  1  0.730906  0.000000  0.750000  1
  Hf  Hf2  1  0.999984  0.269506  0.250000  1
  Hf  Hf3  1  0.000004  0.730178  0.750000  1
  Hf  Hf4  1  0.269826  0.269822  0.750000  1
  Hf  Hf5  1  0.269137  0.000000  0.250000  1
  Hf  Hf6  1  0.333215  0.666297  0.500436  1
  Hf  Hf7  1  0.666920  0.333703  0.999564  1
  Hf  Hf8  1  0.666920  0.333703  0.500436  1
  Hf  Hf9  1  0.333215  0.666297  0.999564  1
  Zn  Zn10  1  0.000360  0.000000  0.999734  1
  Zn  Zn11  1  0.000360  0.000000  0.500266  1
  Sn  Sn12  1  0.384797  0.000000  0.750000  1
  Sb  Sb13  1  0.385683  0.385555  0.250000  1
  Sb  Sb14  1  0.000127  0.614445  0.250000  1
  Sb  Sb15  1  0.000219  0.385917  0.750000  1
  Sb  Sb16  1  0.614302  0.614083  0.750000  1
  Sb  Sb17  1  0.613548  0.000000  0.250000  1
