# generated using pymatgen
data_Ca3Er(Si4Tc3)2
_symmetry_space_group_name_H-M   'P 1'
_cell_length_a   6.80470935
_cell_length_b   6.68901724
_cell_length_c   6.78417121
_cell_angle_alpha   70.51118625
_cell_angle_beta   90.03096531
_cell_angle_gamma   89.82431629
_symmetry_Int_Tables_number   1
_chemical_formula_structural   Ca3Er(Si4Tc3)2
_chemical_formula_sum   'Ca3 Er1 Si8 Tc6'
_cell_volume   291.10028046
_cell_formula_units_Z   1
loop_
 _symmetry_equiv_pos_site_id
 _symmetry_equiv_pos_as_xyz
  1  'x, y, z'
loop_
 _atom_site_type_symbol
 _atom_site_label
 _atom_site_symmetry_multiplicity
 _atom_site_fract_x
 _atom_site_fract_y
 _atom_site_fract_z
 _atom_site_occupancy
  Ca  Ca0  1  0.664663  0.444299  0.184215  1
  Ca  Ca1  1  0.166756  0.056906  0.812827  1
  Ca  Ca2  1  0.334531  0.555882  0.815051  1
  Er  Er3  1  0.832633  0.941765  0.192864  1
  Si  Si4  1  0.451605  0.119302  0.102269  1
  Si  Si5  1  0.952812  0.380604  0.895974  1
  Si  Si6  1  0.547871  0.880565  0.897537  1
  Si  Si7  1  0.046717  0.620614  0.102143  1
  Si  Si8  1  0.861625  0.134881  0.507425  1
  Si  Si9  1  0.361081  0.368169  0.491400  1
  Si  Si10  1  0.140417  0.866595  0.494044  1
  Si  Si11  1  0.637580  0.629744  0.509761  1
  Tc  Tc12  1  0.503354  0.000398  0.496320  1
  Tc  Tc13  1  0.998944  0.502570  0.497801  1
  Tc  Tc14  1  0.155107  0.242344  0.243275  1
  Tc  Tc15  1  0.660058  0.252718  0.758550  1
  Tc  Tc16  1  0.842714  0.757988  0.755919  1
  Tc  Tc17  1  0.341532  0.744655  0.242624  1
