# generated using pymatgen
data_Li4Nd2YTmSi6
_symmetry_space_group_name_H-M   'P 1'
_cell_length_a   9.32616848
_cell_length_b   9.32616894
_cell_length_c   6.80900700
_cell_angle_alpha   90.00000000
_cell_angle_beta   90.00000000
_cell_angle_gamma   153.32326392
_symmetry_Int_Tables_number   1
_chemical_formula_structural   Li4Nd2YTmSi6
_chemical_formula_sum   'Li4 Nd2 Y1 Tm1 Si6'
_cell_volume   265.88529125
_cell_formula_units_Z   1
loop_
 _symmetry_equiv_pos_site_id
 _symmetry_equiv_pos_as_xyz
  1  'x, y, z'
loop_
 _atom_site_type_symbol
 _atom_site_label
 _atom_site_symmetry_multiplicity
 _atom_site_fract_x
 _atom_site_fract_y
 _atom_site_fract_z
 _atom_site_occupancy
  Li  Li0  1  0.190792  0.809208  0.059433  1
  Li  Li1  1  0.190792  0.809208  0.440567  1
  Li  Li2  1  0.808786  0.191214  0.939713  1
  Li  Li3  1  0.808786  0.191214  0.560287  1
  Nd  Nd4  1  0.554478  0.445522  0.250000  1
  Nd  Nd5  1  0.446056  0.553944  0.750000  1
  Y  Y6  1  0.344532  0.655468  0.250000  1
  Tm  Tm7  1  0.655236  0.344764  0.750000  1
  Si  Si8  1  0.723337  0.276663  0.250000  1
  Si  Si9  1  0.275670  0.724330  0.750000  1
  Si  Si10  1  0.059921  0.940079  0.924679  1
  Si  Si11  1  0.940847  0.059153  0.074833  1
  Si  Si12  1  0.940847  0.059153  0.425167  1
  Si  Si13  1  0.059921  0.940079  0.575321  1
