# generated using pymatgen
data_Tm3Sc3Ge2Os
_symmetry_space_group_name_H-M   'P 1'
_cell_length_a   7.39506800
_cell_length_b   7.39506822
_cell_length_c   4.24618500
_cell_angle_alpha   90.00000000
_cell_angle_beta   90.00000000
_cell_angle_gamma   119.99999903
_symmetry_Int_Tables_number   1
_chemical_formula_structural   Tm3Sc3Ge2Os
_chemical_formula_sum   'Tm3 Sc3 Ge2 Os1'
_cell_volume   201.10084899
_cell_formula_units_Z   1
loop_
 _symmetry_equiv_pos_site_id
 _symmetry_equiv_pos_as_xyz
  1  'x, y, z'
loop_
 _atom_site_type_symbol
 _atom_site_label
 _atom_site_symmetry_multiplicity
 _atom_site_fract_x
 _atom_site_fract_y
 _atom_site_fract_z
 _atom_site_occupancy
  Tm  Tm0  1  0.412311  0.000000  0.000000  1
  Tm  Tm1  1  0.000000  0.412312  0.000000  1
  Tm  Tm2  1  0.587689  0.587690  0.000000  1
  Sc  Sc3  1  0.759555  0.000000  0.500000  1
  Sc  Sc4  1  0.240444  0.240444  0.500000  1
  Sc  Sc5  1  0.000000  0.759555  0.500000  1
  Ge  Ge6  1  0.666666  0.333333  0.500000  1
  Ge  Ge7  1  0.333333  0.666667  0.500000  1
  Os  Os8  1  0.000000  0.000000  0.000000  1
