# generated using pymatgen
data_K5Zr4F21
_symmetry_space_group_name_H-M   'P 1'
_cell_length_a   11.16467900
_cell_length_b   7.82489631
_cell_length_c   11.45800100
_cell_angle_alpha   81.75543726
_cell_angle_beta   90.00000000
_cell_angle_gamma   90.00000000
_symmetry_Int_Tables_number   1
_chemical_formula_structural   K5Zr4F21
_chemical_formula_sum   'K10 Zr8 F42'
_cell_volume   990.65377602
_cell_formula_units_Z   2
loop_
 _symmetry_equiv_pos_site_id
 _symmetry_equiv_pos_as_xyz
  1  'x, y, z'
loop_
 _atom_site_type_symbol
 _atom_site_label
 _atom_site_symmetry_multiplicity
 _atom_site_fract_x
 _atom_site_fract_y
 _atom_site_fract_z
 _atom_site_occupancy
  K  K0  1  0.522509  0.679720  0.106529  1
  K  K1  1  0.022509  0.320280  0.893471  1
  K  K2  1  0.489911  0.969746  0.736084  1
  K  K3  1  0.989911  0.030254  0.263916  1
  K  K4  1  0.826795  0.834228  0.900908  1
  K  K5  1  0.326795  0.165772  0.099092  1
  K  K6  1  0.640953  0.799661  0.458586  1
  K  K7  1  0.140953  0.200339  0.541414  1
  K  K8  1  0.974730  0.714223  0.608122  1
  K  K9  1  0.474730  0.285777  0.391878  1
  Zr  Zr10  1  0.837877  0.538474  0.273981  1
  Zr  Zr11  1  0.337877  0.461526  0.726019  1
  Zr  Zr12  1  0.694123  0.161206  0.095631  1
  Zr  Zr13  1  0.194123  0.838794  0.904369  1
  Zr  Zr14  1  0.661619  0.503377  0.773027  1
  Zr  Zr15  1  0.161619  0.496623  0.226973  1
  Zr  Zr16  1  0.802538  0.208652  0.592400  1
  Zr  Zr17  1  0.302538  0.791348  0.407600  1
  F  F18  1  0.901826  0.052604  0.714906  1
  F  F19  1  0.401826  0.947396  0.285094  1
  F  F20  1  0.938100  0.378247  0.592351  1
  F  F21  1  0.438100  0.621753  0.407649  1
  F  F22  1  0.882765  0.042515  0.494411  1
  F  F23  1  0.382765  0.957485  0.505589  1
  F  F24  1  0.838437  0.519520  0.812476  1
  F  F25  1  0.338437  0.480480  0.187524  1
  F  F26  1  0.639728  0.103940  0.558181  1
  F  F27  1  0.139728  0.896060  0.441819  1
  F  F28  1  0.660221  0.577480  0.298151  1
  F  F29  1  0.160221  0.422520  0.701849  1
  F  F30  1  0.695347  0.454886  0.596629  1
  F  F31  1  0.195347  0.545114  0.403371  1
  F  F32  1  0.789669  0.672324  0.116840  1
  F  F33  1  0.597416  0.665689  0.883673  1
  F  F34  1  0.868417  0.704948  0.388787  1
  F  F35  1  0.368417  0.295052  0.611213  1
  F  F36  1  0.997317  0.386153  0.323953  1
  F  F37  1  0.497317  0.613847  0.676047  1
  F  F38  1  0.106115  0.003079  0.990914  1
  F  F39  1  0.606115  0.996921  0.009086  1
  F  F40  1  0.210524  0.003549  0.754622  1
  F  F41  1  0.710524  0.996451  0.245378  1
  F  F42  1  0.003044  0.659996  0.197828  1
  F  F43  1  0.503044  0.340004  0.802172  1
  F  F44  1  0.353767  0.908152  0.968425  1
  F  F45  1  0.853767  0.091848  0.031575  1
  F  F46  1  0.221864  0.769528  0.238324  1
  F  F47  1  0.721864  0.230472  0.761676  1
  F  F48  1  0.050513  0.726750  0.838371  1
  F  F49  1  0.550513  0.273250  0.161629  1
  F  F50  1  0.310451  0.673495  0.822807  1
  F  F51  1  0.810451  0.326505  0.177193  1
  F  F52  1  0.284749  0.661479  0.587693  1
  F  F53  1  0.784749  0.338521  0.412307  1
  F  F54  1  0.211821  0.254317  0.313367  1
  F  F55  1  0.711821  0.745683  0.686633  1
  F  F56  1  0.179849  0.636962  0.043091  1
  F  F57  1  0.679849  0.363038  0.956909  1
  F  F58  1  0.289669  0.327676  0.883160  1
  F  F59  1  0.097416  0.334311  0.116327  1
