# generated using pymatgen
data_Tb8Hf8ZrSi16W3
_symmetry_space_group_name_H-M   'P 1'
_cell_length_a   7.20610297
_cell_length_b   7.20610422
_cell_length_c   13.19433215
_cell_angle_alpha   90.12640482
_cell_angle_beta   90.12640122
_cell_angle_gamma   90.10527289
_symmetry_Int_Tables_number   1
_chemical_formula_structural   Tb8Hf8ZrSi16W3
_chemical_formula_sum   'Tb8 Hf8 Zr1 Si16 W3'
_cell_volume   685.14984626
_cell_formula_units_Z   1
loop_
 _symmetry_equiv_pos_site_id
 _symmetry_equiv_pos_as_xyz
  1  'x, y, z'
loop_
 _atom_site_type_symbol
 _atom_site_label
 _atom_site_symmetry_multiplicity
 _atom_site_fract_x
 _atom_site_fract_y
 _atom_site_fract_z
 _atom_site_occupancy
  Tb  Tb0  1  0.999249  0.344216  0.215434  1
  Tb  Tb1  1  0.003500  0.656605  0.714817  1
  Tb  Tb2  1  0.154966  0.499765  0.463985  1
  Tb  Tb3  1  0.500235  0.845034  0.036015  1
  Tb  Tb4  1  0.846073  0.502004  0.967781  1
  Tb  Tb5  1  0.497996  0.153927  0.532219  1
  Tb  Tb6  1  0.343395  0.996500  0.785183  1
  Tb  Tb7  1  0.655784  0.000751  0.284566  1
  Hf  Hf8  1  0.147178  0.992731  0.373497  1
  Hf  Hf9  1  0.854570  0.004798  0.876644  1
  Hf  Hf10  1  0.505948  0.649631  0.621319  1
  Hf  Hf11  1  0.350369  0.494052  0.878681  1
  Hf  Hf12  1  0.492546  0.352053  0.125600  1
  Hf  Hf13  1  0.647947  0.507454  0.374400  1
  Hf  Hf14  1  0.995202  0.145430  0.623356  1
  Hf  Hf15  1  0.007269  0.852822  0.126503  1
  Zr  Zr16  1  0.675375  0.324625  0.750000  1
  Si  Si17  1  0.361043  0.298104  0.316415  1
  Si  Si18  1  0.637597  0.706159  0.817244  1
  Si  Si19  1  0.203077  0.861584  0.565596  1
  Si  Si20  1  0.138416  0.796923  0.934404  1
  Si  Si21  1  0.797574  0.138211  0.067013  1
  Si  Si22  1  0.861789  0.202426  0.432987  1
  Si  Si23  1  0.293841  0.362403  0.682756  1
  Si  Si24  1  0.701896  0.638957  0.183585  1
  Si  Si25  1  0.295840  0.050421  0.184091  1
  Si  Si26  1  0.705044  0.946753  0.681935  1
  Si  Si27  1  0.449276  0.795234  0.432254  1
  Si  Si28  1  0.204766  0.550724  0.067746  1
  Si  Si29  1  0.546539  0.202715  0.936791  1
  Si  Si30  1  0.797285  0.453461  0.563209  1
  Si  Si31  1  0.053247  0.294956  0.818065  1
  Si  Si32  1  0.949579  0.704160  0.315909  1
  W  W33  1  0.176926  0.175281  0.001560  1
  W  W34  1  0.824719  0.823074  0.498440  1
  W  W35  1  0.323944  0.676056  0.250000  1
