# generated using pymatgen
data_Y5Er3(CCl6)2
_symmetry_space_group_name_H-M   'P 1'
_cell_length_a   3.75610000
_cell_length_b   12.50113983
_cell_length_c   12.94518800
_cell_angle_alpha   89.97910499
_cell_angle_beta   90.00000000
_cell_angle_gamma   90.00000000
_symmetry_Int_Tables_number   1
_chemical_formula_structural   Y5Er3(CCl6)2
_chemical_formula_sum   'Y5 Er3 C2 Cl12'
_cell_volume   607.84814016
_cell_formula_units_Z   1
loop_
 _symmetry_equiv_pos_site_id
 _symmetry_equiv_pos_as_xyz
  1  'x, y, z'
loop_
 _atom_site_type_symbol
 _atom_site_label
 _atom_site_symmetry_multiplicity
 _atom_site_fract_x
 _atom_site_fract_y
 _atom_site_fract_z
 _atom_site_occupancy
  Y  Y0  1  0.000000  0.103312  0.082082  1
  Y  Y1  1  0.500000  0.124568  0.853067  1
  Y  Y2  1  0.500000  0.874803  0.146438  1
  Y  Y3  1  0.500000  0.624880  0.646602  1
  Y  Y4  1  0.500000  0.375524  0.353781  1
  Er  Er5  1  0.000000  0.897264  0.918413  1
  Er  Er6  1  0.000000  0.602431  0.418865  1
  Er  Er7  1  0.000000  0.397888  0.581471  1
  C  C8  1  0.500000  0.998357  0.998656  1
  C  C9  1  0.500000  0.500186  0.500188  1
  Cl  Cl10  1  0.500000  0.270511  0.680684  1
  Cl  Cl11  1  0.500000  0.729309  0.319122  1
  Cl  Cl12  1  0.500000  0.769809  0.818577  1
  Cl  Cl13  1  0.500000  0.232332  0.182886  1
  Cl  Cl14  1  0.000000  0.259704  0.930938  1
  Cl  Cl15  1  0.000000  0.740811  0.066422  1
  Cl  Cl16  1  0.000000  0.482774  0.242226  1
  Cl  Cl17  1  0.000000  0.517701  0.758148  1
  Cl  Cl18  1  0.000000  0.979863  0.259605  1
  Cl  Cl19  1  0.000000  0.017586  0.741414  1
  Cl  Cl20  1  0.000000  0.241589  0.434040  1
  Cl  Cl21  1  0.000000  0.758797  0.566374  1
