# generated using pymatgen
data_Y12Th4Mg3InIr4
_symmetry_space_group_name_H-M   'P 1'
_cell_length_a   9.83029627
_cell_length_b   9.83029680
_cell_length_c   9.83029754
_cell_angle_alpha   59.96906309
_cell_angle_beta   59.96906317
_cell_angle_gamma   59.96906242
_symmetry_Int_Tables_number   1
_chemical_formula_structural   Y12Th4Mg3InIr4
_chemical_formula_sum   'Y12 Th4 Mg3 In1 Ir4'
_cell_volume   671.24352996
_cell_formula_units_Z   1
loop_
 _symmetry_equiv_pos_site_id
 _symmetry_equiv_pos_as_xyz
  1  'x, y, z'
loop_
 _atom_site_type_symbol
 _atom_site_label
 _atom_site_symmetry_multiplicity
 _atom_site_fract_x
 _atom_site_fract_y
 _atom_site_fract_z
 _atom_site_occupancy
  Y  Y0  1  0.061713  0.438274  0.438274  1
  Y  Y1  1  0.437180  0.061168  0.061168  1
  Y  Y2  1  0.438274  0.061713  0.438274  1
  Y  Y3  1  0.061168  0.437180  0.061168  1
  Y  Y4  1  0.438274  0.438274  0.061713  1
  Y  Y5  1  0.061168  0.061168  0.437180  1
  Y  Y6  1  0.187096  0.814909  0.814909  1
  Y  Y7  1  0.813786  0.185998  0.185998  1
  Y  Y8  1  0.814909  0.187096  0.814909  1
  Y  Y9  1  0.185998  0.813786  0.185998  1
  Y  Y10  1  0.814909  0.814909  0.187096  1
  Y  Y11  1  0.185998  0.185998  0.813786  1
  Th  Th12  1  0.596406  0.596406  0.596406  1
  Th  Th13  1  0.599169  0.599169  0.205163  1
  Th  Th14  1  0.599169  0.205163  0.599169  1
  Th  Th15  1  0.205163  0.599169  0.599169  1
  Mg  Mg16  1  0.829531  0.829531  0.510066  1
  Mg  Mg17  1  0.829531  0.510066  0.829531  1
  Mg  Mg18  1  0.510066  0.829531  0.829531  1
  In  In19  1  0.833268  0.833268  0.833268  1
  Ir  Ir20  1  0.393358  0.393358  0.393358  1
  Ir  Ir21  1  0.392180  0.392180  0.819503  1
  Ir  Ir22  1  0.392180  0.819503  0.392180  1
  Ir  Ir23  1  0.819503  0.392180  0.392180  1
