# generated using pymatgen
data_TbY2Th11Ru6
_symmetry_space_group_name_H-M   'P 1'
_cell_length_a   9.82394157
_cell_length_b   9.90609807
_cell_length_c   6.41930910
_cell_angle_alpha   90.10815147
_cell_angle_beta   89.98091547
_cell_angle_gamma   120.34251887
_symmetry_Int_Tables_number   1
_chemical_formula_structural   TbY2Th11Ru6
_chemical_formula_sum   'Tb1 Y2 Th11 Ru6'
_cell_volume   539.13448586
_cell_formula_units_Z   1
loop_
 _symmetry_equiv_pos_site_id
 _symmetry_equiv_pos_as_xyz
  1  'x, y, z'
loop_
 _atom_site_type_symbol
 _atom_site_label
 _atom_site_symmetry_multiplicity
 _atom_site_fract_x
 _atom_site_fract_y
 _atom_site_fract_z
 _atom_site_occupancy
  Tb  Tb0  1  0.460344  0.536176  0.295577  1
  Y  Y1  1  0.073719  0.535811  0.299659  1
  Y  Y2  1  0.926130  0.462396  0.798808  1
  Th  Th3  1  0.249288  0.126077  0.510726  1
  Th  Th4  1  0.542483  0.083138  0.797042  1
  Th  Th5  1  0.748111  0.873782  0.012188  1
  Th  Th6  1  0.665941  0.333302  0.277853  1
  Th  Th7  1  0.125182  0.870955  0.008816  1
  Th  Th8  1  0.459604  0.917807  0.297591  1
  Th  Th9  1  0.539497  0.463578  0.798014  1
  Th  Th10  1  0.876643  0.128431  0.511458  1
  Th  Th11  1  0.123873  0.251088  0.013147  1
  Th  Th12  1  0.874405  0.749105  0.508572  1
  Th  Th13  1  0.334297  0.666103  0.774196  1
  Ru  Ru14  1  0.811445  0.631934  0.047464  1
  Ru  Ru15  1  0.813400  0.180330  0.047300  1
  Ru  Ru16  1  0.631941  0.816728  0.545870  1
  Ru  Ru17  1  0.370410  0.187658  0.041638  1
  Ru  Ru18  1  0.184068  0.364674  0.553818  1
  Ru  Ru19  1  0.189223  0.820929  0.544257  1
