# generated using pymatgen
data_Sm2Er8Ru10C19
_symmetry_space_group_name_H-M   'P 1'
_cell_length_a   8.18681099
_cell_length_b   8.18681102
_cell_length_c   10.06457507
_cell_angle_alpha   70.94491913
_cell_angle_beta   70.94491907
_cell_angle_gamma   52.93481714
_symmetry_Int_Tables_number   1
_chemical_formula_structural   Sm2Er8Ru10C19
_chemical_formula_sum   'Sm2 Er8 Ru10 C19'
_cell_volume   501.19700920
_cell_formula_units_Z   1
loop_
 _symmetry_equiv_pos_site_id
 _symmetry_equiv_pos_as_xyz
  1  'x, y, z'
loop_
 _atom_site_type_symbol
 _atom_site_label
 _atom_site_symmetry_multiplicity
 _atom_site_fract_x
 _atom_site_fract_y
 _atom_site_fract_z
 _atom_site_occupancy
  Sm  Sm0  1  0.000709  0.000709  0.010573  1
  Sm  Sm1  1  0.478108  0.478108  0.010652  1
  Er  Er2  1  0.322470  0.322470  0.387502  1
  Er  Er3  1  0.510125  0.510125  0.636433  1
  Er  Er4  1  0.015963  0.015963  0.619499  1
  Er  Er5  1  0.821522  0.821522  0.399400  1
  Er  Er6  1  0.626052  0.626052  0.261903  1
  Er  Er7  1  0.751110  0.751110  0.760600  1
  Er  Er8  1  0.143060  0.143060  0.234884  1
  Er  Er9  1  0.255202  0.255202  0.785879  1
  Ru  Ru10  1  0.461568  0.893880  0.010620  1
  Ru  Ru11  1  0.219514  0.725933  0.417270  1
  Ru  Ru12  1  0.725933  0.219514  0.417270  1
  Ru  Ru13  1  0.418800  0.935868  0.602687  1
  Ru  Ru14  1  0.022238  0.595944  0.157710  1
  Ru  Ru15  1  0.595944  0.022238  0.157710  1
  Ru  Ru16  1  0.669364  0.096245  0.863501  1
  Ru  Ru17  1  0.096245  0.669364  0.863501  1
  Ru  Ru18  1  0.935868  0.418800  0.602687  1
  Ru  Ru19  1  0.893880  0.461568  0.010620  1
  C  C20  1  0.788307  0.788307  0.010027  1
  C  C21  1  0.391606  0.187223  0.010283  1
  C  C22  1  0.187223  0.391606  0.010283  1
  C  C23  1  0.354723  0.860551  0.444590  1
  C  C24  1  0.860551  0.354723  0.444590  1
  C  C25  1  0.085034  0.564262  0.577112  1
  C  C26  1  0.564262  0.085034  0.577112  1
  C  C27  1  0.459080  0.953967  0.368656  1
  C  C28  1  0.953967  0.459080  0.368656  1
  C  C29  1  0.636470  0.134646  0.652506  1
  C  C30  1  0.182027  0.686692  0.221090  1
  C  C31  1  0.288069  0.791812  0.800135  1
  C  C32  1  0.791812  0.288069  0.800135  1
  C  C33  1  0.285977  0.784472  0.178838  1
  C  C34  1  0.686692  0.182027  0.221090  1
  C  C35  1  0.784472  0.285977  0.178838  1
  C  C36  1  0.370109  0.868748  0.842507  1
  C  C37  1  0.868748  0.370109  0.842507  1
  C  C38  1  0.134646  0.636470  0.652506  1
