# generated using pymatgen
data_Hf6ZnP5Ru6
_symmetry_space_group_name_H-M   'P 1'
_cell_length_a   7.49003669
_cell_length_b   7.50959882
_cell_length_c   7.49003659
_cell_angle_alpha   128.48764723
_cell_angle_beta   119.70305537
_cell_angle_gamma   83.15607859
_symmetry_Int_Tables_number   1
_chemical_formula_structural   Hf6ZnP5Ru6
_chemical_formula_sum   'Hf6 Zn1 P5 Ru6'
_cell_volume   275.11949411
_cell_formula_units_Z   1
loop_
 _symmetry_equiv_pos_site_id
 _symmetry_equiv_pos_as_xyz
  1  'x, y, z'
loop_
 _atom_site_type_symbol
 _atom_site_label
 _atom_site_symmetry_multiplicity
 _atom_site_fract_x
 _atom_site_fract_y
 _atom_site_fract_z
 _atom_site_occupancy
  Hf  Hf0  1  0.461965  0.686083  0.724118  1
  Hf  Hf1  1  0.526355  0.251595  0.225240  1
  Hf  Hf2  1  0.747200  0.833203  0.586003  1
  Hf  Hf3  1  0.248845  0.827337  0.078491  1
  Hf  Hf4  1  0.056637  0.258800  0.702162  1
  Hf  Hf5  1  0.958002  0.670285  0.212283  1
  Zn  Zn6  1  0.271352  0.258927  0.487577  1
  P  P7  1  0.732780  0.238510  0.005730  1
  P  P8  1  0.329985  0.586053  0.251085  1
  P  P9  1  0.670852  0.921559  0.259889  1
  P  P10  1  0.161671  0.921559  0.750708  1
  P  P11  1  0.834968  0.586053  0.756068  1
  Ru  Ru12  1  0.511204  0.501979  0.014686  1
  Ru  Ru13  1  0.987294  0.501979  0.490776  1
  Ru  Ru14  1  0.087400  0.254103  0.089530  1
  Ru  Ru15  1  0.876415  0.003735  0.131234  1
  Ru  Ru16  1  0.372502  0.003735  0.627321  1
  Ru  Ru17  1  0.664573  0.254103  0.666703  1
