# generated using pymatgen
data_Th2Al3Ga(PtAu)2
_symmetry_space_group_name_H-M   'P 1'
_cell_length_a   4.36877000
_cell_length_b   4.36877000
_cell_length_c   10.44777600
_cell_angle_alpha   90.00000000
_cell_angle_beta   90.00000000
_cell_angle_gamma   90.00000000
_symmetry_Int_Tables_number   1
_chemical_formula_structural   Th2Al3Ga(PtAu)2
_chemical_formula_sum   'Th2 Al3 Ga1 Pt2 Au2'
_cell_volume   199.40783362
_cell_formula_units_Z   1
loop_
 _symmetry_equiv_pos_site_id
 _symmetry_equiv_pos_as_xyz
  1  'x, y, z'
loop_
 _atom_site_type_symbol
 _atom_site_label
 _atom_site_symmetry_multiplicity
 _atom_site_fract_x
 _atom_site_fract_y
 _atom_site_fract_z
 _atom_site_occupancy
  Th  Th0  1  0.000000  0.500000  0.252554  1
  Th  Th1  1  0.500000  0.000000  0.746388  1
  Al  Al2  1  0.000000  0.000000  0.499782  1
  Al  Al3  1  0.500000  0.500000  0.499782  1
  Al  Al4  1  0.500000  0.000000  0.137136  1
  Ga  Ga5  1  0.000000  0.500000  0.861299  1
  Pt  Pt6  1  0.000000  0.500000  0.624307  1
  Pt  Pt7  1  0.500000  0.000000  0.372130  1
  Au  Au8  1  0.000000  0.000000  0.003311  1
  Au  Au9  1  0.500000  0.500000  0.003311  1
