# generated using pymatgen
data_U4H15
_symmetry_space_group_name_H-M   'P 1'
_cell_length_a   7.51153678
_cell_length_b   7.51153632
_cell_length_c   7.51153700
_cell_angle_alpha   109.47121709
_cell_angle_beta   109.47121584
_cell_angle_gamma   109.47122286
_symmetry_Int_Tables_number   1
_chemical_formula_structural   U4H15
_chemical_formula_sum   'U8 H30'
_cell_volume   326.26051849
_cell_formula_units_Z   2
loop_
 _symmetry_equiv_pos_site_id
 _symmetry_equiv_pos_as_xyz
  1  'x, y, z'
loop_
 _atom_site_type_symbol
 _atom_site_label
 _atom_site_symmetry_multiplicity
 _atom_site_fract_x
 _atom_site_fract_y
 _atom_site_fract_z
 _atom_site_occupancy
  U  U0  1  0.915976  0.915976  0.915976  1
  U  U1  1  0.500000  0.000000  0.084024  1
  U  U2  1  0.000000  0.084024  0.500000  1
  U  U3  1  0.084024  0.500000  0.000000  1
  U  U4  1  0.000000  0.584024  0.500000  1
  U  U5  1  0.584024  0.500000  0.000000  1
  U  U6  1  0.500000  0.000000  0.584024  1
  U  U7  1  0.415976  0.415976  0.415976  1
  H  H8  1  0.652260  0.968624  0.371872  1
  H  H9  1  0.219612  0.316365  0.847740  1
  H  H10  1  0.183635  0.403248  0.531376  1
  H  H11  1  0.096752  0.280388  0.128128  1
  H  H12  1  0.280388  0.128128  0.096752  1
  H  H13  1  0.128128  0.096752  0.280388  1
  H  H14  1  0.468624  0.152260  0.871872  1
  H  H15  1  0.719612  0.347740  0.816365  1
  H  H16  1  0.625000  0.375000  0.250000  1
  H  H17  1  0.250000  0.625000  0.375000  1
  H  H18  1  0.750000  0.875000  0.125000  1
  H  H19  1  0.125000  0.750000  0.875000  1
  H  H20  1  0.375000  0.250000  0.625000  1
  H  H21  1  0.875000  0.125000  0.750000  1
  H  H22  1  0.780388  0.596752  0.628128  1
  H  H23  1  0.316365  0.847740  0.219612  1
  H  H24  1  0.371872  0.652260  0.968624  1
  H  H25  1  0.968624  0.371872  0.652260  1
  H  H26  1  0.531376  0.183635  0.403248  1
  H  H27  1  0.403248  0.531376  0.183635  1
  H  H28  1  0.847740  0.219612  0.316365  1
  H  H29  1  0.903248  0.683635  0.031376  1
  H  H30  1  0.816365  0.719612  0.347740  1
  H  H31  1  0.152260  0.871872  0.468624  1
  H  H32  1  0.683635  0.031376  0.903248  1
  H  H33  1  0.347740  0.816365  0.719612  1
  H  H34  1  0.871872  0.468624  0.152260  1
  H  H35  1  0.628128  0.780388  0.596752  1
  H  H36  1  0.596752  0.628128  0.780388  1
  H  H37  1  0.031376  0.903248  0.683635  1
