# generated using pymatgen
data_La2Ga4GeIr2Rh
_symmetry_space_group_name_H-M   'P 1'
_cell_length_a   8.72477590
_cell_length_b   8.71588690
_cell_length_c   8.71199810
_cell_angle_alpha   140.60744693
_cell_angle_beta   107.74056824
_cell_angle_gamma   85.56281834
_symmetry_Int_Tables_number   1
_chemical_formula_structural   La2Ga4GeIr2Rh
_chemical_formula_sum   'La4 Ga8 Ge2 Ir4 Rh2'
_cell_volume   386.50297224
_cell_formula_units_Z   2
loop_
 _symmetry_equiv_pos_site_id
 _symmetry_equiv_pos_as_xyz
  1  'x, y, z'
loop_
 _atom_site_type_symbol
 _atom_site_label
 _atom_site_symmetry_multiplicity
 _atom_site_fract_x
 _atom_site_fract_y
 _atom_site_fract_z
 _atom_site_occupancy
  La  La0  1  0.364717  0.133569  0.230783  1
  La  La1  1  0.637928  0.865344  0.772487  1
  La  La2  1  0.092725  0.365754  0.726889  1
  La  La3  1  0.902437  0.633546  0.269181  1
  Ga  Ga4  1  0.000895  0.251339  0.250587  1
  Ga  Ga5  1  0.000980  0.750366  0.749547  1
  Ga  Ga6  1  0.715236  0.965338  0.250584  1
  Ga  Ga7  1  0.286256  0.535056  0.249133  1
  Ga  Ga8  1  0.285604  0.036458  0.751134  1
  Ga  Ga9  1  0.715345  0.464867  0.749951  1
  Ga  Ga10  1  0.567423  0.404621  0.162826  1
  Ga  Ga11  1  0.241375  0.904292  0.336976  1
  Ge  Ge12  1  0.754668  0.093610  0.661872  1
  Ge  Ge13  1  0.432040  0.592992  0.838316  1
  Ir  Ir14  1  0.957868  0.856552  0.101941  1
  Ir  Ir15  1  0.500593  0.751045  0.250247  1
  Ir  Ir16  1  0.754529  0.356027  0.397990  1
  Ir  Ir17  1  0.249473  0.643986  0.604337  1
  Rh  Rh18  1  0.039315  0.144729  0.895630  1
  Rh  Rh19  1  0.500589  0.250512  0.749589  1
