# generated using pymatgen
data_La13Pr3MgCo4Hg3
_symmetry_space_group_name_H-M   'P 1'
_cell_length_a   9.92429310
_cell_length_b   9.96267853
_cell_length_c   10.02024608
_cell_angle_alpha   59.77805223
_cell_angle_beta   59.62824407
_cell_angle_gamma   60.06261424
_symmetry_Int_Tables_number   1
_chemical_formula_structural   La13Pr3MgCo4Hg3
_chemical_formula_sum   'La13 Pr3 Mg1 Co4 Hg3'
_cell_volume   697.71416915
_cell_formula_units_Z   1
loop_
 _symmetry_equiv_pos_site_id
 _symmetry_equiv_pos_as_xyz
  1  'x, y, z'
loop_
 _atom_site_type_symbol
 _atom_site_label
 _atom_site_symmetry_multiplicity
 _atom_site_fract_x
 _atom_site_fract_y
 _atom_site_fract_z
 _atom_site_occupancy
  La  La0  1  0.951832  0.350492  0.349077  1
  La  La1  1  0.807784  0.193270  0.807865  1
  La  La2  1  0.186097  0.813896  0.185797  1
  La  La3  1  0.343711  0.344722  0.965520  1
  La  La4  1  0.347084  0.963380  0.346046  1
  La  La5  1  0.945203  0.939929  0.556192  1
  La  La6  1  0.944403  0.563692  0.560363  1
  La  La7  1  0.343315  0.342480  0.345495  1
  La  La8  1  0.804946  0.807690  0.191885  1
  La  La9  1  0.809363  0.190979  0.189327  1
  La  La10  1  0.557723  0.940989  0.940862  1
  La  La11  1  0.943486  0.558402  0.934785  1
  La  La12  1  0.185020  0.813933  0.811490  1
  Pr  Pr13  1  0.561351  0.939636  0.563006  1
  Pr  Pr14  1  0.189537  0.188613  0.808766  1
  Pr  Pr15  1  0.558027  0.561942  0.941888  1
  Mg  Mg16  1  0.294501  0.567055  0.568814  1
  Co  Co17  1  0.139820  0.582953  0.143133  1
  Co  Co18  1  0.576857  0.143945  0.139795  1
  Co  Co19  1  0.134167  0.138456  0.580375  1
  Co  Co20  1  0.135034  0.136883  0.148643  1
  Hg  Hg21  1  0.579603  0.585244  0.586908  1
  Hg  Hg22  1  0.580191  0.248370  0.584988  1
  Hg  Hg23  1  0.580949  0.583055  0.248983  1
