# generated using pymatgen
data_Pr2Tm2Al15(GaIr2)3
_symmetry_space_group_name_H-M   'P 1'
_cell_length_a   7.56063447
_cell_length_b   7.56049612
_cell_length_c   9.59416500
_cell_angle_alpha   90.00000000
_cell_angle_beta   90.00000000
_cell_angle_gamma   119.32249964
_symmetry_Int_Tables_number   1
_chemical_formula_structural   Pr2Tm2Al15(GaIr2)3
_chemical_formula_sum   'Pr2 Tm2 Al15 Ga3 Ir6'
_cell_volume   478.15748191
_cell_formula_units_Z   1
loop_
 _symmetry_equiv_pos_site_id
 _symmetry_equiv_pos_as_xyz
  1  'x, y, z'
loop_
 _atom_site_type_symbol
 _atom_site_label
 _atom_site_symmetry_multiplicity
 _atom_site_fract_x
 _atom_site_fract_y
 _atom_site_fract_z
 _atom_site_occupancy
  Pr  Pr0  1  0.997742  0.674671  0.250000  1
  Pr  Pr1  1  0.669997  0.990573  0.250000  1
  Tm  Tm2  1  0.004897  0.323160  0.750000  1
  Tm  Tm3  1  0.322570  0.003134  0.750000  1
  Al  Al4  1  0.004282  0.335504  0.066713  1
  Al  Al5  1  0.999753  0.663027  0.921272  1
  Al  Al6  1  0.999753  0.663027  0.578728  1
  Al  Al7  1  0.336502  0.006512  0.432782  1
  Al  Al8  1  0.004282  0.335504  0.433287  1
  Al  Al9  1  0.663232  0.000480  0.578635  1
  Al  Al10  1  0.663232  0.000480  0.921365  1
  Al  Al11  1  0.336502  0.006512  0.067218  1
  Al  Al12  1  0.333541  0.333731  0.563106  1
  Al  Al13  1  0.665471  0.665015  0.459879  1
  Al  Al14  1  0.665471  0.665015  0.040121  1
  Al  Al15  1  0.333541  0.333731  0.936894  1
  Al  Al16  1  0.661812  0.446965  0.750000  1
  Al  Al17  1  0.546990  0.339104  0.250000  1
  Al  Al18  1  0.447622  0.661768  0.750000  1
  Ga  Ga19  1  0.134957  0.135548  0.250000  1
  Ga  Ga20  1  0.865607  0.865344  0.750000  1
  Ga  Ga21  1  0.337686  0.542127  0.250000  1
  Ir  Ir22  1  0.671101  0.329334  0.997820  1
  Ir  Ir23  1  0.328680  0.672397  0.995503  1
  Ir  Ir24  1  0.328680  0.672397  0.504497  1
  Ir  Ir25  1  0.671101  0.329334  0.502180  1
  Ir  Ir26  1  0.002499  0.002804  0.995802  1
  Ir  Ir27  1  0.002499  0.002804  0.504198  1
