# generated using pymatgen
data_Sc12AlGaNi4
_symmetry_space_group_name_H-M   'P 1'
_cell_length_a   7.74570976
_cell_length_b   7.74570970
_cell_length_c   7.74570944
_cell_angle_alpha   110.70874497
_cell_angle_beta   110.88041233
_cell_angle_gamma   106.85578649
_symmetry_Int_Tables_number   1
_chemical_formula_structural   Sc12AlGaNi4
_chemical_formula_sum   'Sc12 Al1 Ga1 Ni4'
_cell_volume   357.17856637
_cell_formula_units_Z   1
loop_
 _symmetry_equiv_pos_site_id
 _symmetry_equiv_pos_as_xyz
  1  'x, y, z'
loop_
 _atom_site_type_symbol
 _atom_site_label
 _atom_site_symmetry_multiplicity
 _atom_site_fract_x
 _atom_site_fract_y
 _atom_site_fract_z
 _atom_site_occupancy
  Sc  Sc0  1  0.441504  0.238537  0.202966  1
  Sc  Sc1  1  0.558496  0.761463  0.797034  1
  Sc  Sc2  1  0.035571  0.238537  0.797034  1
  Sc  Sc3  1  0.964429  0.761463  0.202966  1
  Sc  Sc4  1  0.184148  0.281684  0.465833  1
  Sc  Sc5  1  0.815852  0.718316  0.534167  1
  Sc  Sc6  1  0.184148  0.718316  0.902463  1
  Sc  Sc7  1  0.815852  0.281684  0.097537  1
  Sc  Sc8  1  0.324477  0.619890  0.295413  1
  Sc  Sc9  1  0.675523  0.380110  0.704587  1
  Sc  Sc10  1  0.324477  0.029064  0.704587  1
  Sc  Sc11  1  0.675523  0.970936  0.295413  1
  Al  Al12  1  0.000000  0.000000  0.000000  1
  Ga  Ga13  1  0.500000  0.500000  0.000000  1
  Ni  Ni14  1  0.347444  0.000000  0.347444  1
  Ni  Ni15  1  0.652556  0.000000  0.652556  1
  Ni  Ni16  1  0.127547  0.627547  0.500000  1
  Ni  Ni17  1  0.872453  0.372453  0.500000  1
