# generated using pymatgen
data_Er2Ni7P4
_symmetry_space_group_name_H-M   'P 1'
_cell_length_a   3.68038100
_cell_length_b   9.12935600
_cell_length_c   10.23127600
_cell_angle_alpha   90.00000000
_cell_angle_beta   90.00000000
_cell_angle_gamma   90.00000000
_symmetry_Int_Tables_number   1
_chemical_formula_structural   Er2Ni7P4
_chemical_formula_sum   'Er4 Ni14 P8'
_cell_volume   343.76584354
_cell_formula_units_Z   2
loop_
 _symmetry_equiv_pos_site_id
 _symmetry_equiv_pos_as_xyz
  1  'x, y, z'
loop_
 _atom_site_type_symbol
 _atom_site_label
 _atom_site_symmetry_multiplicity
 _atom_site_fract_x
 _atom_site_fract_y
 _atom_site_fract_z
 _atom_site_occupancy
  Er  Er0  1  0.000000  0.058277  0.395529  1
  Er  Er1  1  0.500000  0.941723  0.895529  1
  Er  Er2  1  0.000000  0.436381  0.178442  1
  Er  Er3  1  0.500000  0.563619  0.678442  1
  Ni  Ni4  1  0.000000  0.055999  0.699883  1
  Ni  Ni5  1  0.500000  0.944001  0.199883  1
  Ni  Ni6  1  0.000000  0.725580  0.510728  1
  Ni  Ni7  1  0.500000  0.274420  0.010728  1
  Ni  Ni8  1  0.000000  0.096671  0.094121  1
  Ni  Ni9  1  0.500000  0.903329  0.594121  1
  Ni  Ni10  1  0.000000  0.746287  0.273644  1
  Ni  Ni11  1  0.500000  0.253713  0.773644  1
  Ni  Ni12  1  0.000000  0.306940  0.602839  1
  Ni  Ni13  1  0.500000  0.693060  0.102839  1
  Ni  Ni14  1  0.000000  0.685997  0.911077  1
  Ni  Ni15  1  0.500000  0.314003  0.411077  1
  Ni  Ni16  1  0.000000  0.417235  0.868617  1
  Ni  Ni17  1  0.500000  0.582765  0.368617  1
  P  P18  1  0.000000  0.178991  0.889844  1
  P  P19  1  0.500000  0.821009  0.389844  1
  P  P20  1  0.000000  0.845502  0.083147  1
  P  P21  1  0.500000  0.154498  0.583147  1
  P  P22  1  0.000000  0.808718  0.715180  1
  P  P23  1  0.500000  0.191282  0.215180  1
  P  P24  1  0.000000  0.480881  0.461048  1
  P  P25  1  0.500000  0.519119  0.961048  1
