# generated using pymatgen
data_Th3Ga23Pd9Au
_symmetry_space_group_name_H-M   'P 1'
_cell_length_a   8.58507835
_cell_length_b   8.55708678
_cell_length_c   8.58507737
_cell_angle_alpha   88.88474379
_cell_angle_beta   89.10107182
_cell_angle_gamma   88.88475139
_symmetry_Int_Tables_number   1
_chemical_formula_structural   Th3Ga23Pd9Au
_chemical_formula_sum   'Th3 Ga23 Pd9 Au1'
_cell_volume   630.37490492
_cell_formula_units_Z   1
loop_
 _symmetry_equiv_pos_site_id
 _symmetry_equiv_pos_as_xyz
  1  'x, y, z'
loop_
 _atom_site_type_symbol
 _atom_site_label
 _atom_site_symmetry_multiplicity
 _atom_site_fract_x
 _atom_site_fract_y
 _atom_site_fract_z
 _atom_site_occupancy
  Th  Th0  1  0.997736  0.500000  0.002264  1
  Th  Th1  1  0.500911  0.998793  0.999644  1
  Th  Th2  1  0.000356  0.001207  0.499089  1
  Ga  Ga3  1  0.987194  0.645226  0.645556  1
  Ga  Ga4  1  0.643629  0.641540  0.989189  1
  Ga  Ga5  1  0.645740  0.985707  0.642367  1
  Ga  Ga6  1  0.010811  0.358460  0.356371  1
  Ga  Ga7  1  0.354444  0.354774  0.012806  1
  Ga  Ga8  1  0.357633  0.014293  0.354260  1
  Ga  Ga9  1  0.260349  0.500000  0.739651  1
  Ga  Ga10  1  0.499043  0.260816  0.735103  1
  Ga  Ga11  1  0.501852  0.734399  0.262178  1
  Ga  Ga12  1  0.264897  0.739184  0.500957  1
  Ga  Ga13  1  0.737822  0.265601  0.498148  1
  Ga  Ga14  1  0.839915  0.141103  0.836810  1
  Ga  Ga15  1  0.143087  0.837706  0.836888  1
  Ga  Ga16  1  0.837085  0.835158  0.144796  1
  Ga  Ga17  1  0.163190  0.858897  0.160085  1
  Ga  Ga18  1  0.855204  0.164842  0.162915  1
  Ga  Ga19  1  0.163112  0.162294  0.856913  1
  Ga  Ga20  1  0.729969  0.489317  0.730663  1
  Ga  Ga21  1  0.488302  0.730642  0.732974  1
  Ga  Ga22  1  0.732824  0.725788  0.479835  1
  Ga  Ga23  1  0.269337  0.510683  0.270031  1
  Ga  Ga24  1  0.520165  0.274212  0.267176  1
  Ga  Ga25  1  0.267026  0.269358  0.511698  1
  Pd  Pd26  1  0.840288  0.839634  0.841616  1
  Pd  Pd27  1  0.158384  0.160366  0.159712  1
  Pd  Pd28  1  0.659668  0.327935  0.988644  1
  Pd  Pd29  1  0.999609  0.336863  0.665565  1
  Pd  Pd30  1  0.336668  0.000000  0.663332  1
  Pd  Pd31  1  0.334435  0.663137  0.000391  1
  Pd  Pd32  1  0.011356  0.672065  0.340332  1
  Pd  Pd33  1  0.664125  0.000000  0.335875  1
  Pd  Pd34  1  0.486847  0.500000  0.513153  1
  Au  Au35  1  0.736985  0.500000  0.263015  1
