# generated using pymatgen
data_LiHo16In3Ir3Rh
_symmetry_space_group_name_H-M   'P 1'
_cell_length_a   9.63873820
_cell_length_b   9.63873742
_cell_length_c   9.62214607
_cell_angle_alpha   59.77475978
_cell_angle_beta   59.77476151
_cell_angle_gamma   59.85127601
_symmetry_Int_Tables_number   1
_chemical_formula_structural   LiHo16In3Ir3Rh
_chemical_formula_sum   'Li1 Ho16 In3 Ir3 Rh1'
_cell_volume   629.24987195
_cell_formula_units_Z   1
loop_
 _symmetry_equiv_pos_site_id
 _symmetry_equiv_pos_as_xyz
  1  'x, y, z'
loop_
 _atom_site_type_symbol
 _atom_site_label
 _atom_site_symmetry_multiplicity
 _atom_site_fract_x
 _atom_site_fract_y
 _atom_site_fract_z
 _atom_site_occupancy
  Li  Li0  1  0.821936  0.821936  0.821933  1
  Ho  Ho1  1  0.188408  0.188408  0.811262  1
  Ho  Ho2  1  0.599473  0.599473  0.202743  1
  Ho  Ho3  1  0.441467  0.059090  0.441252  1
  Ho  Ho4  1  0.441258  0.441258  0.059420  1
  Ho  Ho5  1  0.813220  0.186993  0.811961  1
  Ho  Ho6  1  0.188959  0.811156  0.188964  1
  Ho  Ho7  1  0.436667  0.062497  0.063047  1
  Ho  Ho8  1  0.186993  0.813220  0.811961  1
  Ho  Ho9  1  0.062497  0.436667  0.063047  1
  Ho  Ho10  1  0.812017  0.812017  0.187463  1
  Ho  Ho11  1  0.202401  0.599793  0.599215  1
  Ho  Ho12  1  0.059090  0.441467  0.441252  1
  Ho  Ho13  1  0.062547  0.062547  0.436794  1
  Ho  Ho14  1  0.811156  0.188959  0.188964  1
  Ho  Ho15  1  0.599793  0.202401  0.599215  1
  Ho  Ho16  1  0.600081  0.600081  0.599460  1
  In  In17  1  0.833068  0.833068  0.503416  1
  In  In18  1  0.503480  0.833068  0.833022  1
  In  In19  1  0.833068  0.503480  0.833022  1
  Ir  Ir20  1  0.392466  0.824892  0.392516  1
  Ir  Ir21  1  0.392646  0.392646  0.392662  1
  Ir  Ir22  1  0.824892  0.392466  0.392516  1
  Rh  Rh23  1  0.392418  0.392418  0.824899  1
