# generated using pymatgen
data_Ho2SiNi16H3
_symmetry_space_group_name_H-M   'P 1'
_cell_length_a   6.24635330
_cell_length_b   6.26993756
_cell_length_c   6.24635407
_cell_angle_alpha   83.70200601
_cell_angle_beta   82.97504012
_cell_angle_gamma   83.70199297
_symmetry_Int_Tables_number   1
_chemical_formula_structural   Ho2SiNi16H3
_chemical_formula_sum   'Ho2 Si1 Ni16 H3'
_cell_volume   240.17973776
_cell_formula_units_Z   1
loop_
 _symmetry_equiv_pos_site_id
 _symmetry_equiv_pos_as_xyz
  1  'x, y, z'
loop_
 _atom_site_type_symbol
 _atom_site_label
 _atom_site_symmetry_multiplicity
 _atom_site_fract_x
 _atom_site_fract_y
 _atom_site_fract_z
 _atom_site_occupancy
  Ho  Ho0  1  0.655083  0.661525  0.655083  1
  Ho  Ho1  1  0.344917  0.338475  0.344917  1
  Si  Si2  1  0.000000  0.500000  0.000000  1
  Ni  Ni3  1  0.000000  0.000000  0.500000  1
  Ni  Ni4  1  0.500000  0.000000  0.000000  1
  Ni  Ni5  1  0.288462  0.707888  0.998689  1
  Ni  Ni6  1  0.710579  0.000000  0.289421  1
  Ni  Ni7  1  0.001311  0.292112  0.711538  1
  Ni  Ni8  1  0.289421  0.000000  0.710579  1
  Ni  Ni9  1  0.998689  0.707888  0.288462  1
  Ni  Ni10  1  0.711538  0.292112  0.001311  1
  Ni  Ni11  1  0.345659  0.345622  0.855693  1
  Ni  Ni12  1  0.346387  0.849148  0.346387  1
  Ni  Ni13  1  0.855693  0.345622  0.345659  1
  Ni  Ni14  1  0.654341  0.654378  0.144307  1
  Ni  Ni15  1  0.653613  0.150852  0.653613  1
  Ni  Ni16  1  0.144307  0.654378  0.654341  1
  Ni  Ni17  1  0.899386  0.899885  0.899386  1
  Ni  Ni18  1  0.100614  0.100115  0.100614  1
  H  H19  1  0.500000  0.500000  0.000000  1
  H  H20  1  0.500000  0.000000  0.500000  1
  H  H21  1  0.000000  0.500000  0.500000  1
