# generated using pymatgen
data_Zr2Ti(VSi2)2
_symmetry_space_group_name_H-M   'P 1'
_cell_length_a   6.70059700
_cell_length_b   6.70059700
_cell_length_c   12.39131700
_cell_angle_alpha   90.00000000
_cell_angle_beta   90.00000000
_cell_angle_gamma   90.00000000
_symmetry_Int_Tables_number   1
_chemical_formula_structural   Zr2Ti(VSi2)2
_chemical_formula_sum   'Zr8 Ti4 V8 Si16'
_cell_volume   556.34535260
_cell_formula_units_Z   4
loop_
 _symmetry_equiv_pos_site_id
 _symmetry_equiv_pos_as_xyz
  1  'x, y, z'
loop_
 _atom_site_type_symbol
 _atom_site_label
 _atom_site_symmetry_multiplicity
 _atom_site_fract_x
 _atom_site_fract_y
 _atom_site_fract_z
 _atom_site_occupancy
  Zr  Zr0  1  0.001693  0.661265  0.030181  1
  Zr  Zr1  1  0.998307  0.338735  0.530181  1
  Zr  Zr2  1  0.661265  0.001693  0.969819  1
  Zr  Zr3  1  0.161265  0.498307  0.780181  1
  Zr  Zr4  1  0.838735  0.501693  0.280181  1
  Zr  Zr5  1  0.498307  0.161265  0.219819  1
  Zr  Zr6  1  0.501693  0.838735  0.719819  1
  Zr  Zr7  1  0.338735  0.998307  0.469819  1
  Ti  Ti8  1  0.666375  0.666375  0.500000  1
  Ti  Ti9  1  0.833625  0.166375  0.750000  1
  Ti  Ti10  1  0.166375  0.833625  0.250000  1
  Ti  Ti11  1  0.333625  0.333625  0.000000  1
  V  V12  1  0.340916  0.505720  0.377206  1
  V  V13  1  0.840916  0.994280  0.372794  1
  V  V14  1  0.005720  0.159084  0.127206  1
  V  V15  1  0.994280  0.840916  0.627206  1
  V  V16  1  0.659084  0.494280  0.877206  1
  V  V17  1  0.505720  0.340916  0.622794  1
  V  V18  1  0.494280  0.659084  0.122794  1
  V  V19  1  0.159084  0.005720  0.872794  1
  Si  Si20  1  0.041546  0.709417  0.437458  1
  Si  Si21  1  0.958454  0.290583  0.937458  1
  Si  Si22  1  0.709417  0.041546  0.562542  1
  Si  Si23  1  0.209417  0.458454  0.187458  1
  Si  Si24  1  0.790583  0.541546  0.687458  1
  Si  Si25  1  0.458454  0.209417  0.812542  1
  Si  Si26  1  0.541546  0.790583  0.312542  1
  Si  Si27  1  0.290583  0.958454  0.062542  1
  Si  Si28  1  0.873479  0.792923  0.822162  1
  Si  Si29  1  0.126521  0.207077  0.322162  1
  Si  Si30  1  0.792923  0.873479  0.177838  1
  Si  Si31  1  0.292923  0.626521  0.572162  1
  Si  Si32  1  0.707077  0.373479  0.072162  1
  Si  Si33  1  0.626521  0.292923  0.427838  1
  Si  Si34  1  0.373479  0.707077  0.927838  1
  Si  Si35  1  0.207077  0.126521  0.677838  1
