# generated using pymatgen
data_Dy3Y7GaSb5
_symmetry_space_group_name_H-M   'P 1'
_cell_length_a   6.38740101
_cell_length_b   8.95371207
_cell_length_c   8.92198867
_cell_angle_alpha   120.10841298
_cell_angle_beta   90.00444332
_cell_angle_gamma   90.00089459
_symmetry_Int_Tables_number   1
_chemical_formula_structural   Dy3Y7GaSb5
_chemical_formula_sum   'Dy3 Y7 Ga1 Sb5'
_cell_volume   441.41198993
_cell_formula_units_Z   1
loop_
 _symmetry_equiv_pos_site_id
 _symmetry_equiv_pos_as_xyz
  1  'x, y, z'
loop_
 _atom_site_type_symbol
 _atom_site_label
 _atom_site_symmetry_multiplicity
 _atom_site_fract_x
 _atom_site_fract_y
 _atom_site_fract_z
 _atom_site_occupancy
  Dy  Dy0  1  0.501199  0.339734  0.674708  1
  Dy  Dy1  1  0.501140  0.665061  0.325389  1
  Dy  Dy2  1  0.998838  0.665063  0.325374  1
  Y  Y3  1  0.998905  0.339477  0.674406  1
  Y  Y4  1  0.749970  0.250220  0.000050  1
  Y  Y5  1  0.749952  0.752462  0.762912  1
  Y  Y6  1  0.749990  0.989499  0.237101  1
  Y  Y7  1  0.249999  0.755016  0.000065  1
  Y  Y8  1  0.250005  0.245874  0.245276  1
  Y  Y9  1  0.250017  0.000535  0.754699  1
  Ga  Ga10  1  0.749847  0.606982  0.000112  1
  Sb  Sb11  1  0.749884  0.387693  0.389569  1
  Sb  Sb12  1  0.749900  0.997970  0.610345  1
  Sb  Sb13  1  0.250123  0.390493  0.000042  1
  Sb  Sb14  1  0.250116  0.611182  0.608367  1
  Sb  Sb15  1  0.250119  0.002739  0.391585  1
