# generated using pymatgen
data_Y12GaCo6
_symmetry_space_group_name_H-M   'P 1'
_cell_length_a   8.34987134
_cell_length_b   8.34987115
_cell_length_c   8.34987200
_cell_angle_alpha   109.47122512
_cell_angle_beta   109.47122466
_cell_angle_gamma   109.47121707
_symmetry_Int_Tables_number   1
_chemical_formula_structural   Y12GaCo6
_chemical_formula_sum   'Y12 Ga1 Co6'
_cell_volume   448.14386796
_cell_formula_units_Z   1
loop_
 _symmetry_equiv_pos_site_id
 _symmetry_equiv_pos_as_xyz
  1  'x, y, z'
loop_
 _atom_site_type_symbol
 _atom_site_label
 _atom_site_symmetry_multiplicity
 _atom_site_fract_x
 _atom_site_fract_y
 _atom_site_fract_z
 _atom_site_occupancy
  Y  Y0  1  0.806719  0.700227  0.506946  1
  Y  Y1  1  0.193281  0.299773  0.493054  1
  Y  Y2  1  0.193281  0.700227  0.893508  1
  Y  Y3  1  0.806719  0.299773  0.106492  1
  Y  Y4  1  0.700227  0.506946  0.806719  1
  Y  Y5  1  0.299773  0.493054  0.193281  1
  Y  Y6  1  0.700227  0.893508  0.193281  1
  Y  Y7  1  0.299773  0.106492  0.806719  1
  Y  Y8  1  0.506946  0.806719  0.700227  1
  Y  Y9  1  0.493054  0.193281  0.299773  1
  Y  Y10  1  0.106492  0.806719  0.299773  1
  Y  Y11  1  0.893508  0.193281  0.700227  1
  Ga  Ga12  1  0.000000  0.000000  0.000000  1
  Co  Co13  1  0.887004  0.387004  0.500000  1
  Co  Co14  1  0.112996  0.612996  0.500000  1
  Co  Co15  1  0.387004  0.500000  0.887004  1
  Co  Co16  1  0.612996  0.500000  0.112996  1
  Co  Co17  1  0.500000  0.887004  0.387004  1
  Co  Co18  1  0.500000  0.112996  0.612996  1
