# generated using pymatgen
data_TbDy2In3GaCu2
_symmetry_space_group_name_H-M   'P 1'
_cell_length_a   7.27293413
_cell_length_b   7.27841189
_cell_length_c   4.28391400
_cell_angle_alpha   90.00000000
_cell_angle_beta   90.00000000
_cell_angle_gamma   119.99749582
_symmetry_Int_Tables_number   1
_chemical_formula_structural   TbDy2In3GaCu2
_chemical_formula_sum   'Tb1 Dy2 In3 Ga1 Cu2'
_cell_volume   196.39418154
_cell_formula_units_Z   1
loop_
 _symmetry_equiv_pos_site_id
 _symmetry_equiv_pos_as_xyz
  1  'x, y, z'
loop_
 _atom_site_type_symbol
 _atom_site_label
 _atom_site_symmetry_multiplicity
 _atom_site_fract_x
 _atom_site_fract_y
 _atom_site_fract_z
 _atom_site_occupancy
  Tb  Tb0  1  0.587868  0.002438  0.500000  1
  Dy  Dy1  1  0.996935  0.586184  0.500000  1
  Dy  Dy2  1  0.413371  0.411390  0.500000  1
  In  In3  1  0.755667  0.743981  0.000000  1
  In  In4  1  0.988316  0.243823  0.000000  1
  In  In5  1  0.256070  0.013066  0.000000  1
  Ga  Ga6  1  0.332308  0.666271  0.000000  1
  Cu  Cu7  1  0.000240  0.998257  0.500000  1
  Cu  Cu8  1  0.669227  0.334589  0.000000  1
