# generated using pymatgen
data_HfZr19Si15Te
_symmetry_space_group_name_H-M   'P 1'
_cell_length_a   7.21263542
_cell_length_b   7.18593922
_cell_length_c   13.09036800
_cell_angle_alpha   89.94194626
_cell_angle_beta   89.73111705
_cell_angle_gamma   90.20369120
_symmetry_Int_Tables_number   1
_chemical_formula_structural   HfZr19Si15Te
_chemical_formula_sum   'Hf1 Zr19 Si15 Te1'
_cell_volume   678.45589245
_cell_formula_units_Z   1
loop_
 _symmetry_equiv_pos_site_id
 _symmetry_equiv_pos_as_xyz
  1  'x, y, z'
loop_
 _atom_site_type_symbol
 _atom_site_label
 _atom_site_symmetry_multiplicity
 _atom_site_fract_x
 _atom_site_fract_y
 _atom_site_fract_z
 _atom_site_occupancy
  Hf  Hf0  1  0.998216  0.145459  0.622601  1
  Zr  Zr1  1  0.675926  0.324250  0.748958  1
  Zr  Zr2  1  0.326281  0.675643  0.251151  1
  Zr  Zr3  1  0.824493  0.824920  0.500746  1
  Zr  Zr4  1  0.179857  0.174914  0.998525  1
  Zr  Zr5  1  0.499280  0.150327  0.535055  1
  Zr  Zr6  1  0.494575  0.843185  0.031141  1
  Zr  Zr7  1  0.648967  0.998279  0.290507  1
  Zr  Zr8  1  0.344906  0.993690  0.780793  1
  Zr  Zr9  1  0.851033  0.508404  0.961947  1
  Zr  Zr10  1  0.151862  0.498198  0.466470  1
  Zr  Zr11  1  0.999711  0.651795  0.714653  1
  Zr  Zr12  1  0.014307  0.359310  0.223562  1
  Zr  Zr13  1  0.491211  0.359373  0.125109  1
  Zr  Zr14  1  0.500914  0.644971  0.626689  1
  Zr  Zr15  1  0.850712  0.001148  0.874366  1
  Zr  Zr16  1  0.148143  0.000174  0.378334  1
  Zr  Zr17  1  0.648032  0.501668  0.374109  1
  Zr  Zr18  1  0.350823  0.500461  0.870842  1
  Zr  Zr19  1  0.011380  0.842031  0.126136  1
  Si  Si20  1  0.205115  0.855794  0.574311  1
  Si  Si21  1  0.644387  0.704428  0.821323  1
  Si  Si22  1  0.358370  0.295264  0.324524  1
  Si  Si23  1  0.856004  0.205856  0.428067  1
  Si  Si24  1  0.142751  0.795262  0.925561  1
  Si  Si25  1  0.703989  0.647796  0.178420  1
  Si  Si26  1  0.292536  0.353191  0.674843  1
  Si  Si27  1  0.535043  0.196971  0.927306  1
  Si  Si28  1  0.448006  0.798422  0.439322  1
  Si  Si29  1  0.699141  0.949906  0.686565  1
  Si  Si30  1  0.302580  0.051667  0.188556  1
  Si  Si31  1  0.801173  0.448599  0.562560  1
  Si  Si32  1  0.200268  0.550072  0.060545  1
  Si  Si33  1  0.949648  0.702103  0.315425  1
  Si  Si34  1  0.049975  0.299395  0.810351  1
  Te  Te35  1  0.800388  0.147076  0.080631  1
