# generated using pymatgen
data_SiMo12Pd2Pt5N4
_symmetry_space_group_name_H-M   'P 1'
_cell_length_a   6.88349657
_cell_length_b   6.87777280
_cell_length_c   6.88415008
_cell_angle_alpha   90.11006481
_cell_angle_beta   90.05053471
_cell_angle_gamma   90.06823574
_symmetry_Int_Tables_number   1
_chemical_formula_structural   SiMo12Pd2Pt5N4
_chemical_formula_sum   'Si1 Mo12 Pd2 Pt5 N4'
_cell_volume   325.91622107
_cell_formula_units_Z   1
loop_
 _symmetry_equiv_pos_site_id
 _symmetry_equiv_pos_as_xyz
  1  'x, y, z'
loop_
 _atom_site_type_symbol
 _atom_site_label
 _atom_site_symmetry_multiplicity
 _atom_site_fract_x
 _atom_site_fract_y
 _atom_site_fract_z
 _atom_site_occupancy
  Si  Si0  1  0.187593  0.185343  0.184358  1
  Mo  Mo1  1  0.618565  0.705900  0.951430  1
  Mo  Mo2  1  0.465281  0.871727  0.305384  1
  Mo  Mo3  1  0.710111  0.950163  0.617585  1
  Mo  Mo4  1  0.544717  0.373369  0.204277  1
  Mo  Mo5  1  0.374329  0.204937  0.544205  1
  Mo  Mo6  1  0.202316  0.543742  0.373307  1
  Mo  Mo7  1  0.870883  0.305780  0.465235  1
  Mo  Mo8  1  0.041634  0.120094  0.793147  1
  Mo  Mo9  1  0.306294  0.465071  0.869372  1
  Mo  Mo10  1  0.119844  0.790675  0.044894  1
  Mo  Mo11  1  0.793107  0.043038  0.119469  1
  Mo  Mo12  1  0.949297  0.618651  0.708769  1
  Pd  Pd13  1  0.305604  0.819279  0.686634  1
  Pd  Pd14  1  0.415200  0.069051  0.957249  1
  Pt  Pt15  1  0.817734  0.685057  0.306001  1
  Pt  Pt16  1  0.683953  0.306091  0.817684  1
  Pt  Pt17  1  0.558132  0.562224  0.560291  1
  Pt  Pt18  1  0.071054  0.958676  0.415328  1
  Pt  Pt19  1  0.959020  0.414865  0.069441  1
  N  N20  1  0.376397  0.629262  0.127898  1
  N  N21  1  0.871480  0.871838  0.872044  1
  N  N22  1  0.127899  0.377073  0.629512  1
  N  N23  1  0.629556  0.128095  0.376485  1
