# generated using pymatgen
data_Tb6Dy2Hf9Si16Mo3
_symmetry_space_group_name_H-M   'P 1'
_cell_length_a   7.20939920
_cell_length_b   7.20892970
_cell_length_c   13.18308201
_cell_angle_alpha   90.11349395
_cell_angle_beta   90.11207334
_cell_angle_gamma   90.06364200
_symmetry_Int_Tables_number   1
_chemical_formula_structural   Tb6Dy2Hf9Si16Mo3
_chemical_formula_sum   'Tb6 Dy2 Hf9 Si16 Mo3'
_cell_volume   685.14874303
_cell_formula_units_Z   1
loop_
 _symmetry_equiv_pos_site_id
 _symmetry_equiv_pos_as_xyz
  1  'x, y, z'
loop_
 _atom_site_type_symbol
 _atom_site_label
 _atom_site_symmetry_multiplicity
 _atom_site_fract_x
 _atom_site_fract_y
 _atom_site_fract_z
 _atom_site_occupancy
  Tb  Tb0  1  0.155076  0.500185  0.464015  1
  Tb  Tb1  1  0.499831  0.844862  0.035977  1
  Tb  Tb2  1  0.846185  0.501423  0.967680  1
  Tb  Tb3  1  0.498612  0.153857  0.532312  1
  Tb  Tb4  1  0.343069  0.996671  0.785420  1
  Tb  Tb5  1  0.655883  0.000401  0.284810  1
  Dy  Dy6  1  0.999836  0.344278  0.215144  1
  Dy  Dy7  1  0.003089  0.656817  0.714472  1
  Hf  Hf8  1  0.675538  0.324647  0.749987  1
  Hf  Hf9  1  0.146691  0.992725  0.373551  1
  Hf  Hf10  1  0.854772  0.004901  0.876638  1
  Hf  Hf11  1  0.506146  0.649528  0.621579  1
  Hf  Hf12  1  0.350406  0.493925  0.878408  1
  Hf  Hf13  1  0.492526  0.352644  0.125504  1
  Hf  Hf14  1  0.647414  0.507435  0.374485  1
  Hf  Hf15  1  0.995083  0.145193  0.623333  1
  Hf  Hf16  1  0.007256  0.853322  0.126438  1
  Si  Si17  1  0.361330  0.296826  0.316790  1
  Si  Si18  1  0.637634  0.705521  0.817387  1
  Si  Si19  1  0.204209  0.861916  0.566203  1
  Si  Si20  1  0.137883  0.795510  0.933878  1
  Si  Si21  1  0.796299  0.137844  0.067441  1
  Si  Si22  1  0.862380  0.203914  0.432646  1
  Si  Si23  1  0.294287  0.362721  0.682548  1
  Si  Si24  1  0.703364  0.638288  0.183152  1
  Si  Si25  1  0.295368  0.051322  0.184339  1
  Si  Si26  1  0.705218  0.947452  0.682575  1
  Si  Si27  1  0.448406  0.795029  0.432653  1
  Si  Si28  1  0.204785  0.551413  0.067458  1
  Si  Si29  1  0.547989  0.203387  0.936127  1
  Si  Si30  1  0.796758  0.452242  0.563975  1
  Si  Si31  1  0.052358  0.295152  0.817326  1
  Si  Si32  1  0.948863  0.704276  0.315618  1
  Mo  Mo33  1  0.176436  0.175452  0.001372  1
  Mo  Mo34  1  0.824664  0.823467  0.498756  1
  Mo  Mo35  1  0.324360  0.675452  0.250002  1
