# generated using pymatgen
data_CaCeRh2O7
_symmetry_space_group_name_H-M   'P 1'
_cell_length_a   7.28435801
_cell_length_b   7.28435732
_cell_length_c   7.28435813
_cell_angle_alpha   120.69056972
_cell_angle_beta   119.32820986
_cell_angle_gamma   89.98778320
_symmetry_Int_Tables_number   1
_chemical_formula_structural   CaCeRh2O7
_chemical_formula_sum   'Ca2 Ce2 Rh4 O14'
_cell_volume   273.22498897
_cell_formula_units_Z   2
loop_
 _symmetry_equiv_pos_site_id
 _symmetry_equiv_pos_as_xyz
  1  'x, y, z'
loop_
 _atom_site_type_symbol
 _atom_site_label
 _atom_site_symmetry_multiplicity
 _atom_site_fract_x
 _atom_site_fract_y
 _atom_site_fract_z
 _atom_site_occupancy
  Ca  Ca0  1  0.500000  0.500000  0.500000  1
  Ca  Ca1  1  0.500000  0.000000  0.000000  1
  Ce  Ce2  1  0.500000  0.500000  0.000000  1
  Ce  Ce3  1  0.000000  0.500000  0.500000  1
  Rh  Rh4  1  0.000000  0.000000  0.500000  1
  Rh  Rh5  1  0.000000  0.500000  0.000000  1
  Rh  Rh6  1  0.000000  0.000000  0.000000  1
  Rh  Rh7  1  0.500000  0.000000  0.500000  1
  O  O8  1  0.366148  0.616148  0.750000  1
  O  O9  1  0.633852  0.383852  0.250000  1
  O  O10  1  0.327239  0.077239  0.250000  1
  O  O11  1  0.912170  0.662170  0.250000  1
  O  O12  1  0.332617  0.663859  0.242397  1
  O  O13  1  0.921462  0.090220  0.257603  1
  O  O14  1  0.332617  0.090220  0.668759  1
  O  O15  1  0.921462  0.663859  0.831241  1
  O  O16  1  0.672761  0.922761  0.750000  1
  O  O17  1  0.087830  0.337830  0.750000  1
  O  O18  1  0.667383  0.336141  0.757603  1
  O  O19  1  0.078538  0.909780  0.742397  1
  O  O20  1  0.667383  0.909780  0.331241  1
  O  O21  1  0.078538  0.336141  0.168759  1
