# generated using pymatgen
data_Hf6Ga6NiPd2Rh3
_symmetry_space_group_name_H-M   'P 1'
_cell_length_a   7.22565700
_cell_length_b   7.22565580
_cell_length_c   6.71593800
_cell_angle_alpha   90.00000000
_cell_angle_beta   90.00000000
_cell_angle_gamma   119.99999177
_symmetry_Int_Tables_number   1
_chemical_formula_structural   Hf6Ga6NiPd2Rh3
_chemical_formula_sum   'Hf6 Ga6 Ni1 Pd2 Rh3'
_cell_volume   303.66305538
_cell_formula_units_Z   1
loop_
 _symmetry_equiv_pos_site_id
 _symmetry_equiv_pos_as_xyz
  1  'x, y, z'
loop_
 _atom_site_type_symbol
 _atom_site_label
 _atom_site_symmetry_multiplicity
 _atom_site_fract_x
 _atom_site_fract_y
 _atom_site_fract_z
 _atom_site_occupancy
  Hf  Hf0  1  0.598972  0.599456  0.253217  1
  Hf  Hf1  1  0.010566  0.395893  0.747017  1
  Hf  Hf2  1  0.400544  0.999515  0.253217  1
  Hf  Hf3  1  0.000485  0.401028  0.253217  1
  Hf  Hf4  1  0.385326  0.989434  0.747017  1
  Hf  Hf5  1  0.604107  0.614674  0.747017  1
  Ga  Ga6  1  0.268836  0.265552  0.508674  1
  Ga  Ga7  1  0.734448  0.003284  0.508674  1
  Ga  Ga8  1  0.996716  0.731164  0.508674  1
  Ga  Ga9  1  0.735130  0.001157  0.991661  1
  Ga  Ga10  1  0.266026  0.264870  0.991661  1
  Ga  Ga11  1  0.998843  0.733974  0.991661  1
  Ni  Ni12  1  0.000000  0.000000  0.748941  1
  Pd  Pd13  1  0.000000  0.000000  0.251552  1
  Pd  Pd14  1  0.666667  0.333333  0.990308  1
  Rh  Rh15  1  0.333333  0.666667  0.494478  1
  Rh  Rh16  1  0.333333  0.666667  0.005853  1
  Rh  Rh17  1  0.666667  0.333333  0.507161  1
