# generated using pymatgen
data_Ho4Mg3ScIr4
_symmetry_space_group_name_H-M   'P 1'
_cell_length_a   4.14080400
_cell_length_b   7.06376890
_cell_length_c   8.54988551
_cell_angle_alpha   89.31700378
_cell_angle_beta   90.00000000
_cell_angle_gamma   90.00000000
_symmetry_Int_Tables_number   1
_chemical_formula_structural   Ho4Mg3ScIr4
_chemical_formula_sum   'Ho4 Mg3 Sc1 Ir4'
_cell_volume   250.06366866
_cell_formula_units_Z   1
loop_
 _symmetry_equiv_pos_site_id
 _symmetry_equiv_pos_as_xyz
  1  'x, y, z'
loop_
 _atom_site_type_symbol
 _atom_site_label
 _atom_site_symmetry_multiplicity
 _atom_site_fract_x
 _atom_site_fract_y
 _atom_site_fract_z
 _atom_site_occupancy
  Ho  Ho0  1  0.250000  0.541601  0.170394  1
  Ho  Ho1  1  0.750000  0.467223  0.828333  1
  Ho  Ho2  1  0.250000  0.033183  0.321808  1
  Ho  Ho3  1  0.750000  0.954701  0.676368  1
  Mg  Mg4  1  0.250000  0.134887  0.940792  1
  Mg  Mg5  1  0.750000  0.863250  0.059953  1
  Mg  Mg6  1  0.250000  0.641542  0.562159  1
  Sc  Sc7  1  0.750000  0.368562  0.441457  1
  Ir  Ir8  1  0.750000  0.744283  0.372375  1
  Ir  Ir9  1  0.250000  0.250095  0.619939  1
  Ir  Ir10  1  0.750000  0.248664  0.135588  1
  Ir  Ir11  1  0.250000  0.752007  0.870833  1
