# generated using pymatgen
data_La2Y3HoCoI10
_symmetry_space_group_name_H-M   'P 1'
_cell_length_a   7.79955465
_cell_length_b   9.82288573
_cell_length_c   9.76064625
_cell_angle_alpha   106.80398637
_cell_angle_beta   95.81501431
_cell_angle_gamma   105.60657616
_symmetry_Int_Tables_number   1
_chemical_formula_structural   La2Y3HoCoI10
_chemical_formula_sum   'La2 Y3 Ho1 Co1 I10'
_cell_volume   676.34659279
_cell_formula_units_Z   1
loop_
 _symmetry_equiv_pos_site_id
 _symmetry_equiv_pos_as_xyz
  1  'x, y, z'
loop_
 _atom_site_type_symbol
 _atom_site_label
 _atom_site_symmetry_multiplicity
 _atom_site_fract_x
 _atom_site_fract_y
 _atom_site_fract_z
 _atom_site_occupancy
  La  La0  1  0.886362  0.957565  0.229800  1
  La  La1  1  0.113568  0.041994  0.770003  1
  Y  Y2  1  0.971317  0.283960  0.085682  1
  Y  Y3  1  0.653836  0.875099  0.837396  1
  Y  Y4  1  0.346209  0.124486  0.162568  1
  Ho  Ho5  1  0.028136  0.718307  0.914656  1
  Co  Co6  1  0.999891  0.999390  0.999800  1
  I  I7  1  0.652491  0.552096  0.730787  1
  I  I8  1  0.349388  0.447927  0.269850  1
  I  I9  1  0.729554  0.909865  0.540951  1
  I  I10  1  0.270309  0.090069  0.459079  1
  I  I11  1  0.082289  0.379542  0.823353  1
  I  I12  1  0.918029  0.620919  0.175835  1
  I  I13  1  0.443952  0.816030  0.089054  1
  I  I14  1  0.555311  0.183474  0.910393  1
  I  I15  1  0.226197  0.736099  0.657953  1
  I  I16  1  0.773162  0.263176  0.342842  1
