# generated using pymatgen
data_Ce2NdGa4Pt7
_symmetry_space_group_name_H-M   'P 1'
_cell_length_a   8.34935987
_cell_length_b   8.34936051
_cell_length_c   9.46795200
_cell_angle_alpha   56.32550976
_cell_angle_beta   56.32550684
_cell_angle_gamma   28.99975558
_symmetry_Int_Tables_number   1
_chemical_formula_structural   Ce2NdGa4Pt7
_chemical_formula_sum   'Ce2 Nd1 Ga4 Pt7'
_cell_volume   262.30935685
_cell_formula_units_Z   1
loop_
 _symmetry_equiv_pos_site_id
 _symmetry_equiv_pos_as_xyz
  1  'x, y, z'
loop_
 _atom_site_type_symbol
 _atom_site_label
 _atom_site_symmetry_multiplicity
 _atom_site_fract_x
 _atom_site_fract_y
 _atom_site_fract_z
 _atom_site_occupancy
  Ce  Ce0  1  0.827647  0.827647  0.681634  1
  Ce  Ce1  1  0.172353  0.172353  0.318366  1
  Nd  Nd2  1  0.500000  0.500000  0.000000  1
  Ga  Ga3  1  0.631819  0.631819  0.598061  1
  Ga  Ga4  1  0.181737  0.181737  0.967069  1
  Ga  Ga5  1  0.818263  0.818263  0.032931  1
  Ga  Ga6  1  0.368181  0.368181  0.401939  1
  Pt  Pt7  1  0.808737  0.808737  0.307385  1
  Pt  Pt8  1  0.625511  0.625511  0.144233  1
  Pt  Pt9  1  0.500000  0.500000  0.500000  1
  Pt  Pt10  1  0.191263  0.191263  0.692615  1
  Pt  Pt11  1  0.986884  0.986884  0.292356  1
  Pt  Pt12  1  0.013116  0.013116  0.707644  1
  Pt  Pt13  1  0.374489  0.374489  0.855767  1
