# generated using pymatgen
data_CePr8Lu11Si16
_symmetry_space_group_name_H-M   'P 1'
_cell_length_a   7.41575300
_cell_length_b   7.73490500
_cell_length_c   14.68428500
_cell_angle_alpha   90.00000000
_cell_angle_beta   90.00000000
_cell_angle_gamma   90.05825205
_symmetry_Int_Tables_number   1
_chemical_formula_structural   CePr8Lu11Si16
_chemical_formula_sum   'Ce1 Pr8 Lu11 Si16'
_cell_volume   842.29228063
_cell_formula_units_Z   1
loop_
 _symmetry_equiv_pos_site_id
 _symmetry_equiv_pos_as_xyz
  1  'x, y, z'
loop_
 _atom_site_type_symbol
 _atom_site_label
 _atom_site_symmetry_multiplicity
 _atom_site_fract_x
 _atom_site_fract_y
 _atom_site_fract_z
 _atom_site_occupancy
  Ce  Ce0  1  0.657938  0.988939  0.750000  1
  Pr  Pr1  1  0.016717  0.175330  0.401964  1
  Pr  Pr2  1  0.516764  0.325443  0.401830  1
  Pr  Pr3  1  0.482262  0.680186  0.901280  1
  Pr  Pr4  1  0.482262  0.680186  0.598720  1
  Pr  Pr5  1  0.979827  0.822408  0.597921  1
  Pr  Pr6  1  0.979827  0.822408  0.902079  1
  Pr  Pr7  1  0.516764  0.325443  0.098170  1
  Pr  Pr8  1  0.016717  0.175330  0.098036  1
  Lu  Lu9  1  0.328195  0.176565  0.623655  1
  Lu  Lu10  1  0.674946  0.822238  0.375612  1
  Lu  Lu11  1  0.174903  0.677360  0.376668  1
  Lu  Lu12  1  0.826089  0.320347  0.876506  1
  Lu  Lu13  1  0.826089  0.320347  0.623494  1
  Lu  Lu14  1  0.842399  0.492674  0.250000  1
  Lu  Lu15  1  0.342449  0.007199  0.250000  1
  Lu  Lu16  1  0.328195  0.176565  0.876345  1
  Lu  Lu17  1  0.174903  0.677360  0.123332  1
  Lu  Lu18  1  0.674946  0.822238  0.124388  1
  Lu  Lu19  1  0.157252  0.509407  0.750000  1
  Si  Si20  1  0.270665  0.880372  0.750000  1
  Si  Si21  1  0.469024  0.618666  0.250000  1
  Si  Si22  1  0.036889  0.122453  0.750000  1
  Si  Si23  1  0.532077  0.382587  0.750000  1
  Si  Si24  1  0.150238  0.466391  0.539797  1
  Si  Si25  1  0.969931  0.881482  0.250000  1
  Si  Si26  1  0.720466  0.121093  0.250000  1
  Si  Si27  1  0.850828  0.532651  0.039789  1
  Si  Si28  1  0.350537  0.967933  0.040857  1
  Si  Si29  1  0.150238  0.466391  0.960203  1
  Si  Si30  1  0.650224  0.035311  0.536201  1
  Si  Si31  1  0.350537  0.967933  0.459143  1
  Si  Si32  1  0.850828  0.532651  0.460211  1
  Si  Si33  1  0.777985  0.610793  0.750000  1
  Si  Si34  1  0.219863  0.380009  0.250000  1
  Si  Si35  1  0.650224  0.035311  0.963799  1
