# generated using pymatgen
data_Hf4CoCu2Si4Ir
_symmetry_space_group_name_H-M   'P 1'
_cell_length_a   3.83608000
_cell_length_b   6.47609397
_cell_length_c   7.35567118
_cell_angle_alpha   89.36628011
_cell_angle_beta   90.00000000
_cell_angle_gamma   90.00000000
_symmetry_Int_Tables_number   1
_chemical_formula_structural   Hf4CoCu2Si4Ir
_chemical_formula_sum   'Hf4 Co1 Cu2 Si4 Ir1'
_cell_volume   182.72439761
_cell_formula_units_Z   1
loop_
 _symmetry_equiv_pos_site_id
 _symmetry_equiv_pos_as_xyz
  1  'x, y, z'
loop_
 _atom_site_type_symbol
 _atom_site_label
 _atom_site_symmetry_multiplicity
 _atom_site_fract_x
 _atom_site_fract_y
 _atom_site_fract_z
 _atom_site_occupancy
  Hf  Hf0  1  0.250000  0.022233  0.317445  1
  Hf  Hf1  1  0.250000  0.520849  0.185821  1
  Hf  Hf2  1  0.750000  0.983875  0.677728  1
  Hf  Hf3  1  0.750000  0.470501  0.816896  1
  Co  Co4  1  0.750000  0.363703  0.443495  1
  Cu  Cu5  1  0.250000  0.646804  0.562557  1
  Cu  Cu6  1  0.750000  0.849186  0.062421  1
  Si  Si7  1  0.250000  0.271579  0.606609  1
  Si  Si8  1  0.250000  0.765162  0.877376  1
  Si  Si9  1  0.750000  0.725919  0.380787  1
  Si  Si10  1  0.750000  0.240205  0.130555  1
  Ir  Ir11  1  0.250000  0.139984  0.938307  1
