# generated using pymatgen
data_Er15TmCdIn3Rh4
_symmetry_space_group_name_H-M   'P 1'
_cell_length_a   9.56844390
_cell_length_b   9.56674318
_cell_length_c   9.56645200
_cell_angle_alpha   60.00101374
_cell_angle_beta   60.00689302
_cell_angle_gamma   59.99558601
_symmetry_Int_Tables_number   1
_chemical_formula_structural   Er15TmCdIn3Rh4
_chemical_formula_sum   'Er15 Tm1 Cd1 In3 Rh4'
_cell_volume   619.23113484
_cell_formula_units_Z   1
loop_
 _symmetry_equiv_pos_site_id
 _symmetry_equiv_pos_as_xyz
  1  'x, y, z'
loop_
 _atom_site_type_symbol
 _atom_site_label
 _atom_site_symmetry_multiplicity
 _atom_site_fract_x
 _atom_site_fract_y
 _atom_site_fract_z
 _atom_site_occupancy
  Er  Er0  1  0.436781  0.060624  0.065060  1
  Er  Er1  1  0.436781  0.060624  0.437536  1
  Er  Er2  1  0.063433  0.435453  0.063377  1
  Er  Er3  1  0.647555  0.051569  0.650438  1
  Er  Er4  1  0.189086  0.812052  0.810520  1
  Er  Er5  1  0.062658  0.059444  0.438950  1
  Er  Er6  1  0.810792  0.190554  0.189653  1
  Er  Er7  1  0.811301  0.810647  0.189026  1
  Er  Er8  1  0.651038  0.649863  0.045559  1
  Er  Er9  1  0.651038  0.649863  0.653540  1
  Er  Er10  1  0.063433  0.435453  0.437737  1
  Er  Er11  1  0.049776  0.647585  0.651320  1
  Er  Er12  1  0.810792  0.190554  0.809002  1
  Er  Er13  1  0.436767  0.434177  0.064528  1
  Er  Er14  1  0.189086  0.812052  0.188343  1
  Tm  Tm15  1  0.190626  0.190663  0.809356  1
  Cd  Cd16  1  0.417935  0.747724  0.417170  1
  In  In17  1  0.416939  0.419723  0.747989  1
  In  In18  1  0.747968  0.420306  0.415863  1
  In  In19  1  0.416939  0.419723  0.415349  1
  Rh  Rh20  1  0.859638  0.424676  0.857843  1
  Rh  Rh21  1  0.857188  0.858317  0.428160  1
  Rh  Rh22  1  0.425267  0.860038  0.857348  1
  Rh  Rh23  1  0.857188  0.858317  0.856336  1
