# generated using pymatgen
data_Nb4GeB4PRu10
_symmetry_space_group_name_H-M   'P 1'
_cell_length_a   9.33558100
_cell_length_b   9.33558100
_cell_length_c   2.94792500
_cell_angle_alpha   90.00000000
_cell_angle_beta   90.00000000
_cell_angle_gamma   90.00000000
_symmetry_Int_Tables_number   1
_chemical_formula_structural   Nb4GeB4PRu10
_chemical_formula_sum   'Nb4 Ge1 B4 P1 Ru10'
_cell_volume   256.92072157
_cell_formula_units_Z   1
loop_
 _symmetry_equiv_pos_site_id
 _symmetry_equiv_pos_as_xyz
  1  'x, y, z'
loop_
 _atom_site_type_symbol
 _atom_site_label
 _atom_site_symmetry_multiplicity
 _atom_site_fract_x
 _atom_site_fract_y
 _atom_site_fract_z
 _atom_site_occupancy
  Nb  Nb0  1  0.822208  0.676616  0.000000  1
  Nb  Nb1  1  0.177792  0.323384  0.000000  1
  Nb  Nb2  1  0.323384  0.822208  0.000000  1
  Nb  Nb3  1  0.676616  0.177792  0.000000  1
  Ge  Ge4  1  0.500000  0.500000  0.000000  1
  B  B5  1  0.625055  0.876979  0.000000  1
  B  B6  1  0.374945  0.123021  0.000000  1
  B  B7  1  0.123021  0.625055  0.000000  1
  B  B8  1  0.876979  0.374945  0.000000  1
  P  P9  1  0.000000  0.000000  0.000000  1
  Ru  Ru10  1  0.569386  0.715745  0.500000  1
  Ru  Ru11  1  0.430614  0.284255  0.500000  1
  Ru  Ru12  1  0.063518  0.792185  0.500000  1
  Ru  Ru13  1  0.936482  0.207815  0.500000  1
  Ru  Ru14  1  0.284255  0.569386  0.500000  1
  Ru  Ru15  1  0.715745  0.430614  0.500000  1
  Ru  Ru16  1  0.207815  0.063518  0.500000  1
  Ru  Ru17  1  0.792185  0.936482  0.500000  1
  Ru  Ru18  1  0.500000  0.000000  0.500000  1
  Ru  Ru19  1  0.000000  0.500000  0.500000  1
