# generated using pymatgen
data_DyEr3Ga12Tc
_symmetry_space_group_name_H-M   'P 1'
_cell_length_a   7.46586407
_cell_length_b   7.46586295
_cell_length_c   7.44521400
_cell_angle_alpha   109.41520354
_cell_angle_beta   109.41520050
_cell_angle_gamma   109.52717801
_symmetry_Int_Tables_number   1
_chemical_formula_structural   DyEr3Ga12Tc
_chemical_formula_sum   'Dy1 Er3 Ga12 Tc1'
_cell_volume   319.67979155
_cell_formula_units_Z   1
loop_
 _symmetry_equiv_pos_site_id
 _symmetry_equiv_pos_as_xyz
  1  'x, y, z'
loop_
 _atom_site_type_symbol
 _atom_site_label
 _atom_site_symmetry_multiplicity
 _atom_site_fract_x
 _atom_site_fract_y
 _atom_site_fract_z
 _atom_site_occupancy
  Dy  Dy0  1  0.000000  0.000000  0.500000  1
  Er  Er1  1  0.000000  0.500000  0.000000  1
  Er  Er2  1  0.500000  0.000000  0.000000  1
  Er  Er3  1  0.500000  0.500000  0.500000  1
  Ga  Ga4  1  0.749616  0.250384  0.500000  1
  Ga  Ga5  1  0.749616  0.499233  0.249616  1
  Ga  Ga6  1  0.500767  0.250384  0.750384  1
  Ga  Ga7  1  0.250384  0.500767  0.750384  1
  Ga  Ga8  1  0.250384  0.749616  0.500000  1
  Ga  Ga9  1  0.499233  0.749616  0.249616  1
  Ga  Ga10  1  0.708276  0.708276  0.999467  1
  Ga  Ga11  1  0.291724  0.000000  0.291191  1
  Ga  Ga12  1  0.000000  0.291724  0.291191  1
  Ga  Ga13  1  0.291724  0.291724  0.000533  1
  Ga  Ga14  1  0.708276  0.000000  0.708809  1
  Ga  Ga15  1  0.000000  0.708276  0.708809  1
  Tc  Tc16  1  0.000000  0.000000  0.000000  1
