# generated using pymatgen
data_Eu3Tc4(NiP3)2
_symmetry_space_group_name_H-M   'P 1'
_cell_length_a   8.57941011
_cell_length_b   8.57940943
_cell_length_c   8.57941000
_cell_angle_alpha   153.04496289
_cell_angle_beta   93.98984840
_cell_angle_gamma   92.23841521
_symmetry_Int_Tables_number   1
_chemical_formula_structural   Eu3Tc4(NiP3)2
_chemical_formula_sum   'Eu3 Tc4 Ni2 P6'
_cell_volume   278.33338844
_cell_formula_units_Z   1
loop_
 _symmetry_equiv_pos_site_id
 _symmetry_equiv_pos_as_xyz
  1  'x, y, z'
loop_
 _atom_site_type_symbol
 _atom_site_label
 _atom_site_symmetry_multiplicity
 _atom_site_fract_x
 _atom_site_fract_y
 _atom_site_fract_z
 _atom_site_occupancy
  Eu  Eu0  1  0.336897  0.336897  0.000000  1
  Eu  Eu1  1  0.666168  0.666168  0.000000  1
  Eu  Eu2  1  0.997021  0.997021  0.000000  1
  Tc  Tc3  1  0.573610  0.828493  0.745116  1
  Tc  Tc4  1  0.248753  0.504728  0.744025  1
  Tc  Tc5  1  0.760703  0.504728  0.255975  1
  Tc  Tc6  1  0.083377  0.828493  0.254884  1
  Ni  Ni7  1  0.405980  0.166729  0.239252  1
  Ni  Ni8  1  0.927475  0.166729  0.760748  1
  P  P9  1  0.302106  0.666990  0.635115  1
  P  P10  1  0.679351  0.328955  0.350395  1
  P  P11  1  0.978560  0.328955  0.649605  1
  P  P12  1  0.353549  0.004061  0.349488  1
  P  P13  1  0.031875  0.666990  0.364885  1
  P  P14  1  0.654573  0.004061  0.650512  1
