# generated using pymatgen
data_Ta4ReOs2W
_symmetry_space_group_name_H-M   'P 1'
_cell_length_a   6.41096300
_cell_length_b   4.52319500
_cell_length_c   9.07897900
_cell_angle_alpha   90.00000000
_cell_angle_beta   90.00003418
_cell_angle_gamma   90.00000000
_symmetry_Int_Tables_number   1
_chemical_formula_structural   Ta4ReOs2W
_chemical_formula_sum   'Ta8 Re2 Os4 W2'
_cell_volume   263.27255795
_cell_formula_units_Z   2
loop_
 _symmetry_equiv_pos_site_id
 _symmetry_equiv_pos_as_xyz
  1  'x, y, z'
loop_
 _atom_site_type_symbol
 _atom_site_label
 _atom_site_symmetry_multiplicity
 _atom_site_fract_x
 _atom_site_fract_y
 _atom_site_fract_z
 _atom_site_occupancy
  Ta  Ta0  1  0.999331  0.750001  0.125139  1
  Ta  Ta1  1  0.500714  0.750001  0.125139  1
  Ta  Ta2  1  0.000725  0.250000  0.374871  1
  Ta  Ta3  1  0.499326  0.250000  0.374869  1
  Ta  Ta4  1  0.500796  0.750001  0.624649  1
  Ta  Ta5  1  0.999167  0.750001  0.624643  1
  Ta  Ta6  1  0.499168  0.250000  0.875359  1
  Ta  Ta7  1  0.000795  0.250000  0.875352  1
  Re  Re8  1  0.749982  0.250000  0.625885  1
  Re  Re9  1  0.249982  0.750001  0.874115  1
  Os  Os10  1  0.250013  0.250000  0.123529  1
  Os  Os11  1  0.750009  0.750001  0.376474  1
  Os  Os12  1  0.249986  0.250000  0.626495  1
  Os  Os13  1  0.749980  0.750001  0.873494  1
  W  W14  1  0.750014  0.250000  0.124011  1
  W  W15  1  0.250013  0.750001  0.375974  1
