# generated using pymatgen
data_Y4Al4Pd3Rh
_symmetry_space_group_name_H-M   'P 1'
_cell_length_a   4.44253300
_cell_length_b   6.88240470
_cell_length_c   7.79902180
_cell_angle_alpha   89.94818637
_cell_angle_beta   90.00000000
_cell_angle_gamma   90.00000000
_symmetry_Int_Tables_number   1
_chemical_formula_structural   Y4Al4Pd3Rh
_chemical_formula_sum   'Y4 Al4 Pd3 Rh1'
_cell_volume   238.45741176
_cell_formula_units_Z   1
loop_
 _symmetry_equiv_pos_site_id
 _symmetry_equiv_pos_as_xyz
  1  'x, y, z'
loop_
 _atom_site_type_symbol
 _atom_site_label
 _atom_site_symmetry_multiplicity
 _atom_site_fract_x
 _atom_site_fract_y
 _atom_site_fract_z
 _atom_site_occupancy
  Y  Y0  1  0.250000  0.035726  0.322642  1
  Y  Y1  1  0.250000  0.532011  0.180337  1
  Y  Y2  1  0.750000  0.974017  0.679814  1
  Y  Y3  1  0.750000  0.465033  0.817266  1
  Al  Al4  1  0.250000  0.146532  0.935987  1
  Al  Al5  1  0.250000  0.639719  0.562479  1
  Al  Al6  1  0.750000  0.854811  0.061148  1
  Al  Al7  1  0.750000  0.354435  0.440286  1
  Pd  Pd8  1  0.250000  0.774603  0.881304  1
  Pd  Pd9  1  0.750000  0.726562  0.380463  1
  Pd  Pd10  1  0.750000  0.226062  0.120017  1
  Rh  Rh11  1  0.250000  0.270489  0.618256  1
