# generated using pymatgen
data_Sc3TiMn2(Co5B2)2
_symmetry_space_group_name_H-M   'P 1'
_cell_length_a   8.67799649
_cell_length_b   8.67799616
_cell_length_c   2.94386800
_cell_angle_alpha   90.00000000
_cell_angle_beta   90.00000000
_cell_angle_gamma   90.59128639
_symmetry_Int_Tables_number   1
_chemical_formula_structural   Sc3TiMn2(Co5B2)2
_chemical_formula_sum   'Sc3 Ti1 Mn2 Co10 B4'
_cell_volume   221.68388795
_cell_formula_units_Z   1
loop_
 _symmetry_equiv_pos_site_id
 _symmetry_equiv_pos_as_xyz
  1  'x, y, z'
loop_
 _atom_site_type_symbol
 _atom_site_label
 _atom_site_symmetry_multiplicity
 _atom_site_fract_x
 _atom_site_fract_y
 _atom_site_fract_z
 _atom_site_occupancy
  Sc  Sc0  1  0.824149  0.324149  0.000000  1
  Sc  Sc1  1  0.322333  0.175914  0.000000  1
  Sc  Sc2  1  0.675914  0.822333  0.000000  1
  Ti  Ti3  1  0.175151  0.675151  0.000000  1
  Mn  Mn4  1  0.999070  0.003393  0.000000  1
  Mn  Mn5  1  0.503393  0.499070  0.000000  1
  Co  Co6  1  0.496506  0.996506  0.500000  1
  Co  Co7  1  0.005980  0.505980  0.500000  1
  Co  Co8  1  0.068743  0.224965  0.500000  1
  Co  Co9  1  0.215563  0.920873  0.500000  1
  Co  Co10  1  0.777836  0.067842  0.500000  1
  Co  Co11  1  0.941066  0.779536  0.500000  1
  Co  Co12  1  0.420873  0.715563  0.500000  1
  Co  Co13  1  0.567842  0.277836  0.500000  1
  Co  Co14  1  0.724965  0.568743  0.500000  1
  Co  Co15  1  0.279536  0.441066  0.500000  1
  B  B16  1  0.617945  0.117945  0.000000  1
  B  B17  1  0.122813  0.384395  0.000000  1
  B  B18  1  0.884395  0.622813  0.000000  1
  B  B19  1  0.375928  0.875928  0.000000  1
