# generated using pymatgen
data_Pr3Nd9Os3Pd
_symmetry_space_group_name_H-M   'P 1'
_cell_length_a   6.56998232
_cell_length_b   7.51745160
_cell_length_c   9.78314200
_cell_angle_alpha   90.00000000
_cell_angle_beta   90.00000000
_cell_angle_gamma   90.28310628
_symmetry_Int_Tables_number   1
_chemical_formula_structural   Pr3Nd9Os3Pd
_chemical_formula_sum   'Pr3 Nd9 Os3 Pd1'
_cell_volume   483.17882961
_cell_formula_units_Z   1
loop_
 _symmetry_equiv_pos_site_id
 _symmetry_equiv_pos_as_xyz
  1  'x, y, z'
loop_
 _atom_site_type_symbol
 _atom_site_label
 _atom_site_symmetry_multiplicity
 _atom_site_fract_x
 _atom_site_fract_y
 _atom_site_fract_z
 _atom_site_occupancy
  Pr  Pr0  1  0.855217  0.530185  0.250000  1
  Pr  Pr1  1  0.632068  0.043828  0.250000  1
  Pr  Pr2  1  0.138533  0.464252  0.750000  1
  Nd  Nd3  1  0.338782  0.670433  0.062147  1
  Nd  Nd4  1  0.168565  0.183710  0.438618  1
  Nd  Nd5  1  0.672334  0.322073  0.567188  1
  Nd  Nd6  1  0.825957  0.825068  0.929688  1
  Nd  Nd7  1  0.672334  0.322073  0.932812  1
  Nd  Nd8  1  0.825957  0.825068  0.570312  1
  Nd  Nd9  1  0.338782  0.670433  0.437853  1
  Nd  Nd10  1  0.168565  0.183710  0.061382  1
  Nd  Nd11  1  0.356118  0.961030  0.750000  1
  Os  Os12  1  0.439826  0.383464  0.250000  1
  Os  Os13  1  0.947584  0.114423  0.750000  1
  Os  Os14  1  0.554287  0.615584  0.750000  1
  Pd  Pd15  1  0.065090  0.884667  0.250000  1
