# generated using pymatgen
data_Ta24Si5As3
_symmetry_space_group_name_H-M   'P 1'
_cell_length_a   10.24732015
_cell_length_b   10.27648906
_cell_length_c   5.22161311
_cell_angle_alpha   89.98813162
_cell_angle_beta   89.98023853
_cell_angle_gamma   89.99783270
_symmetry_Int_Tables_number   1
_chemical_formula_structural   Ta24Si5As3
_chemical_formula_sum   'Ta24 Si5 As3'
_cell_volume   549.86961687
_cell_formula_units_Z   1
loop_
 _symmetry_equiv_pos_site_id
 _symmetry_equiv_pos_as_xyz
  1  'x, y, z'
loop_
 _atom_site_type_symbol
 _atom_site_label
 _atom_site_symmetry_multiplicity
 _atom_site_fract_x
 _atom_site_fract_y
 _atom_site_fract_z
 _atom_site_occupancy
  Ta  Ta0  1  0.517719  0.645833  0.273953  1
  Ta  Ta1  1  0.403099  0.088223  0.026323  1
  Ta  Ta2  1  0.710374  0.809797  0.513218  1
  Ta  Ta3  1  0.898267  0.583211  0.468339  1
  Ta  Ta4  1  0.853512  0.019974  0.773075  1
  Ta  Ta5  1  0.017457  0.149160  0.226577  1
  Ta  Ta6  1  0.784187  0.686192  0.988436  1
  Ta  Ta7  1  0.287581  0.190561  0.514965  1
  Ta  Ta8  1  0.687114  0.215769  0.011458  1
  Ta  Ta9  1  0.417167  0.898735  0.532426  1
  Ta  Ta10  1  0.812472  0.289520  0.488314  1
  Ta  Ta11  1  0.353404  0.517591  0.726334  1
  Ta  Ta12  1  0.646122  0.482419  0.726019  1
  Ta  Ta13  1  0.147151  0.986021  0.774656  1
  Ta  Ta14  1  0.213442  0.313259  0.986638  1
  Ta  Ta15  1  0.913992  0.400784  0.971694  1
  Ta  Ta16  1  0.313341  0.784319  0.011228  1
  Ta  Ta17  1  0.596809  0.911922  0.025892  1
  Ta  Ta18  1  0.087966  0.597113  0.973502  1
  Ta  Ta19  1  0.099425  0.414503  0.469940  1
  Ta  Ta20  1  0.983516  0.851420  0.225302  1
  Ta  Ta21  1  0.190258  0.710162  0.486773  1
  Ta  Ta22  1  0.481975  0.353841  0.273304  1
  Ta  Ta23  1  0.583131  0.101635  0.532229  1
  Si  Si24  1  0.470942  0.296634  0.779311  1
  Si  Si25  1  0.295913  0.528053  0.221074  1
  Si  Si26  1  0.028771  0.206413  0.722443  1
  Si  Si27  1  0.703980  0.470307  0.219824  1
  Si  Si28  1  0.528605  0.703134  0.779571  1
  As  As29  1  0.972132  0.793240  0.722698  1
  As  As30  1  0.207242  0.972300  0.277380  1
  As  As31  1  0.792934  0.027958  0.277103  1
