# generated using pymatgen
data_DyTm7Re2(RuC4)2
_symmetry_space_group_name_H-M   'P 1'
_cell_length_a   5.03798100
_cell_length_b   6.49308216
_cell_length_c   9.71448300
_cell_angle_alpha   89.59506628
_cell_angle_beta   90.00000000
_cell_angle_gamma   90.00000000
_symmetry_Int_Tables_number   1
_chemical_formula_structural   DyTm7Re2(RuC4)2
_chemical_formula_sum   'Dy1 Tm7 Re2 Ru2 C8'
_cell_volume   317.77247009
_cell_formula_units_Z   1
loop_
 _symmetry_equiv_pos_site_id
 _symmetry_equiv_pos_as_xyz
  1  'x, y, z'
loop_
 _atom_site_type_symbol
 _atom_site_label
 _atom_site_symmetry_multiplicity
 _atom_site_fract_x
 _atom_site_fract_y
 _atom_site_fract_z
 _atom_site_occupancy
  Dy  Dy0  1  0.250000  0.031300  0.286298  1
  Tm  Tm1  1  0.250000  0.673165  0.556502  1
  Tm  Tm2  1  0.750000  0.327853  0.444150  1
  Tm  Tm3  1  0.750000  0.821007  0.057294  1
  Tm  Tm4  1  0.250000  0.178078  0.942221  1
  Tm  Tm5  1  0.250000  0.531567  0.217759  1
  Tm  Tm6  1  0.750000  0.467982  0.781887  1
  Tm  Tm7  1  0.750000  0.968356  0.715108  1
  Re  Re8  1  0.250000  0.717716  0.867594  1
  Re  Re9  1  0.750000  0.282228  0.131521  1
  Ru  Ru10  1  0.750000  0.780347  0.367646  1
  Ru  Ru11  1  0.250000  0.219444  0.632725  1
  C  C12  1  0.250000  0.452682  0.761144  1
  C  C13  1  0.750000  0.546873  0.238884  1
  C  C14  1  0.750000  0.048386  0.256335  1
  C  C15  1  0.250000  0.951543  0.742760  1
  C  C16  1  0.250000  0.823713  0.054118  1
  C  C17  1  0.750000  0.174854  0.944857  1
  C  C18  1  0.750000  0.672128  0.554466  1
  C  C19  1  0.250000  0.330778  0.446731  1
