# generated using pymatgen
data_Ta4Tc3B4Ru
_symmetry_space_group_name_H-M   'P 1'
_cell_length_a   3.15913000
_cell_length_b   9.06374617
_cell_length_c   15.70508303
_cell_angle_alpha   89.94180466
_cell_angle_beta   90.00000000
_cell_angle_gamma   90.00000000
_symmetry_Int_Tables_number   1
_chemical_formula_structural   Ta4Tc3B4Ru
_chemical_formula_sum   'Ta12 Tc9 B12 Ru3'
_cell_volume   449.69208633
_cell_formula_units_Z   3
loop_
 _symmetry_equiv_pos_site_id
 _symmetry_equiv_pos_as_xyz
  1  'x, y, z'
loop_
 _atom_site_type_symbol
 _atom_site_label
 _atom_site_symmetry_multiplicity
 _atom_site_fract_x
 _atom_site_fract_y
 _atom_site_fract_z
 _atom_site_occupancy
  Ta  Ta0  1  0.000000  0.805257  0.493871  1
  Ta  Ta1  1  0.000000  0.194187  0.506622  1
  Ta  Ta2  1  0.000000  0.305235  0.006515  1
  Ta  Ta3  1  0.000000  0.694181  0.992974  1
  Ta  Ta4  1  0.000000  0.515213  0.595410  1
  Ta  Ta5  1  0.000000  0.484928  0.404202  1
  Ta  Ta6  1  0.000000  0.015530  0.904362  1
  Ta  Ta7  1  0.000000  0.985092  0.095734  1
  Ta  Ta8  1  0.000000  0.682352  0.205871  1
  Ta  Ta9  1  0.000000  0.320537  0.793448  1
  Ta  Ta10  1  0.000000  0.182211  0.294269  1
  Ta  Ta11  1  0.000000  0.816330  0.705701  1
  Tc  Tc12  1  0.500000  0.717686  0.356997  1
  Tc  Tc13  1  0.500000  0.281255  0.642339  1
  Tc  Tc14  1  0.500000  0.217466  0.143181  1
  Tc  Tc15  1  0.500000  0.783400  0.857941  1
  Tc  Tc16  1  0.500000  0.519041  0.096935  1
  Tc  Tc17  1  0.500000  0.481303  0.905583  1
  Tc  Tc18  1  0.500000  0.018792  0.403321  1
  Tc  Tc19  1  0.500000  0.981667  0.595621  1
  Tc  Tc20  1  0.500000  0.568140  0.732352  1
  B  B21  1  0.500000  0.604706  0.494265  1
  B  B22  1  0.500000  0.395246  0.505121  1
  B  B23  1  0.500000  0.104527  0.005242  1
  B  B24  1  0.500000  0.895618  0.995064  1
  B  B25  1  0.000000  0.609090  0.832525  1
  B  B26  1  0.000000  0.389523  0.166092  1
  B  B27  1  0.000000  0.109968  0.666356  1
  B  B28  1  0.000000  0.889634  0.334020  1
  B  B29  1  0.500000  0.716231  0.601893  1
  B  B30  1  0.500000  0.282769  0.398791  1
  B  B31  1  0.500000  0.217612  0.898668  1
  B  B32  1  0.500000  0.783105  0.100992  1
  Ru  Ru33  1  0.500000  0.431968  0.267795  1
  Ru  Ru34  1  0.500000  0.068566  0.767628  1
  Ru  Ru35  1  0.500000  0.931633  0.232302  1
