# generated using pymatgen
data_Pu4Ru3
_symmetry_space_group_name_H-M   'P 1'
_cell_length_a   7.85075487
_cell_length_b   7.85075541
_cell_length_c   5.87965100
_cell_angle_alpha   76.05104781
_cell_angle_beta   76.05104683
_cell_angle_gamma   116.67629485
_symmetry_Int_Tables_number   1
_chemical_formula_structural   Pu4Ru3
_chemical_formula_sum   'Pu8 Ru6'
_cell_volume   287.64872820
_cell_formula_units_Z   2
loop_
 _symmetry_equiv_pos_site_id
 _symmetry_equiv_pos_as_xyz
  1  'x, y, z'
loop_
 _atom_site_type_symbol
 _atom_site_label
 _atom_site_symmetry_multiplicity
 _atom_site_fract_x
 _atom_site_fract_y
 _atom_site_fract_z
 _atom_site_occupancy
  Pu  Pu0  1  0.884198  0.619997  0.147865  1
  Pu  Pu1  1  0.354466  0.354466  0.302624  1
  Pu  Pu2  1  0.115802  0.380003  0.852135  1
  Pu  Pu3  1  0.380003  0.115802  0.852135  1
  Pu  Pu4  1  0.172371  0.827629  0.500000  1
  Pu  Pu5  1  0.645534  0.645534  0.697376  1
  Pu  Pu6  1  0.827629  0.172371  0.500000  1
  Pu  Pu7  1  0.619997  0.884198  0.147865  1
  Ru  Ru8  1  0.813544  0.423686  0.743055  1
  Ru  Ru9  1  0.996349  0.996349  0.251452  1
  Ru  Ru10  1  0.423686  0.813544  0.743055  1
  Ru  Ru11  1  0.576314  0.186456  0.256945  1
  Ru  Ru12  1  0.003651  0.003651  0.748548  1
  Ru  Ru13  1  0.186456  0.576314  0.256945  1
