# generated using pymatgen
data_Ca2La2MgIr
_symmetry_space_group_name_H-M   'P 1'
_cell_length_a   10.16528427
_cell_length_b   10.16528349
_cell_length_c   10.30758000
_cell_angle_alpha   59.53585658
_cell_angle_beta   59.53585915
_cell_angle_gamma   60.92830041
_symmetry_Int_Tables_number   1
_chemical_formula_structural   Ca2La2MgIr
_chemical_formula_sum   'Ca8 La8 Mg4 Ir4'
_cell_volume   752.84944206
_cell_formula_units_Z   4
loop_
 _symmetry_equiv_pos_site_id
 _symmetry_equiv_pos_as_xyz
  1  'x, y, z'
loop_
 _atom_site_type_symbol
 _atom_site_label
 _atom_site_symmetry_multiplicity
 _atom_site_fract_x
 _atom_site_fract_y
 _atom_site_fract_z
 _atom_site_occupancy
  Ca  Ca0  1  0.192756  0.192756  0.807244  1
  Ca  Ca1  1  0.807244  0.807244  0.192756  1
  Ca  Ca2  1  0.940829  0.559171  0.559171  1
  Ca  Ca3  1  0.559171  0.940829  0.940829  1
  Ca  Ca4  1  0.559171  0.940829  0.559171  1
  Ca  Ca5  1  0.940829  0.559171  0.940829  1
  Ca  Ca6  1  0.557308  0.557308  0.942692  1
  Ca  Ca7  1  0.942692  0.942692  0.557308  1
  La  La8  1  0.342258  0.342258  0.345707  1
  La  La9  1  0.342258  0.342258  0.969778  1
  La  La10  1  0.345707  0.969778  0.342258  1
  La  La11  1  0.969778  0.345707  0.342258  1
  La  La12  1  0.811377  0.188623  0.188623  1
  La  La13  1  0.188623  0.811377  0.811377  1
  La  La14  1  0.188623  0.811377  0.188623  1
  La  La15  1  0.811377  0.188623  0.811377  1
  Mg  Mg16  1  0.576733  0.576733  0.578420  1
  Mg  Mg17  1  0.576733  0.576733  0.268114  1
  Mg  Mg18  1  0.578420  0.268114  0.576733  1
  Mg  Mg19  1  0.268114  0.578420  0.576733  1
  Ir  Ir20  1  0.134099  0.134099  0.151515  1
  Ir  Ir21  1  0.134099  0.134099  0.580285  1
  Ir  Ir22  1  0.151515  0.580285  0.134099  1
  Ir  Ir23  1  0.580285  0.151515  0.134099  1
