# generated using pymatgen
data_SrAcIO2
_symmetry_space_group_name_H-M   'P 1'
_cell_length_a   7.72281368
_cell_length_b   7.72281298
_cell_length_c   6.10887100
_cell_angle_alpha   90.00000000
_cell_angle_beta   90.00000000
_cell_angle_gamma   133.11500348
_symmetry_Int_Tables_number   1
_chemical_formula_structural   SrAcIO2
_chemical_formula_sum   'Sr2 Ac2 I2 O4'
_cell_volume   265.96529577
_cell_formula_units_Z   2
loop_
 _symmetry_equiv_pos_site_id
 _symmetry_equiv_pos_as_xyz
  1  'x, y, z'
loop_
 _atom_site_type_symbol
 _atom_site_label
 _atom_site_symmetry_multiplicity
 _atom_site_fract_x
 _atom_site_fract_y
 _atom_site_fract_z
 _atom_site_occupancy
  Sr  Sr0  1  0.924200  0.075800  0.750000  1
  Sr  Sr1  1  0.075800  0.924200  0.250000  1
  Ac  Ac2  1  0.580290  0.419710  0.750000  1
  Ac  Ac3  1  0.419710  0.580290  0.250000  1
  I  I4  1  0.247328  0.752672  0.750000  1
  I  I5  1  0.752672  0.247328  0.250000  1
  O  O6  1  0.261551  0.261551  0.000000  1
  O  O7  1  0.261551  0.261551  0.500000  1
  O  O8  1  0.738449  0.738449  0.500000  1
  O  O9  1  0.738449  0.738449  0.000000  1
