# generated using pymatgen
data_La6Mg(P3Rh5)4
_symmetry_space_group_name_H-M   'P 1'
_cell_length_a   13.71226800
_cell_length_b   13.71226799
_cell_length_c   3.95658600
_cell_angle_alpha   90.00000000
_cell_angle_beta   90.00000000
_cell_angle_gamma   119.99999519
_symmetry_Int_Tables_number   1
_chemical_formula_structural   La6Mg(P3Rh5)4
_chemical_formula_sum   'La6 Mg1 P12 Rh20'
_cell_volume   644.27287612
_cell_formula_units_Z   1
loop_
 _symmetry_equiv_pos_site_id
 _symmetry_equiv_pos_as_xyz
  1  'x, y, z'
loop_
 _atom_site_type_symbol
 _atom_site_label
 _atom_site_symmetry_multiplicity
 _atom_site_fract_x
 _atom_site_fract_y
 _atom_site_fract_z
 _atom_site_occupancy
  La  La0  1  0.529290  0.717549  0.250680  1
  La  La1  1  0.282451  0.811741  0.250680  1
  La  La2  1  0.188259  0.470710  0.250680  1
  La  La3  1  0.470710  0.282451  0.749320  1
  La  La4  1  0.717549  0.188259  0.749320  1
  La  La5  1  0.811741  0.529290  0.749320  1
  Mg  Mg6  1  0.000000  0.000000  0.000000  1
  P  P7  1  0.520469  0.132256  0.250150  1
  P  P8  1  0.867744  0.388215  0.250150  1
  P  P9  1  0.611785  0.479531  0.250150  1
  P  P10  1  0.950135  0.725101  0.246105  1
  P  P11  1  0.274899  0.225034  0.246105  1
  P  P12  1  0.774966  0.049865  0.246105  1
  P  P13  1  0.388215  0.520469  0.749850  1
  P  P14  1  0.479531  0.867744  0.749850  1
  P  P15  1  0.132256  0.611785  0.749850  1
  P  P16  1  0.725101  0.774966  0.753895  1
  P  P17  1  0.225034  0.950135  0.753895  1
  P  P18  1  0.049865  0.274899  0.753895  1
  Rh  Rh19  1  0.333333  0.666667  0.750704  1
  Rh  Rh20  1  0.924691  0.253492  0.246161  1
  Rh  Rh21  1  0.746508  0.671199  0.246161  1
  Rh  Rh22  1  0.328801  0.075309  0.246161  1
  Rh  Rh23  1  0.441929  0.025967  0.749218  1
  Rh  Rh24  1  0.974033  0.415962  0.749218  1
  Rh  Rh25  1  0.584038  0.558071  0.749218  1
  Rh  Rh26  1  0.666667  0.333333  0.249296  1
  Rh  Rh27  1  0.097199  0.204760  0.257513  1
  Rh  Rh28  1  0.795240  0.892439  0.257513  1
  Rh  Rh29  1  0.107561  0.902801  0.257513  1
  Rh  Rh30  1  0.025967  0.584038  0.250782  1
  Rh  Rh31  1  0.415962  0.441929  0.250782  1
  Rh  Rh32  1  0.558071  0.974033  0.250782  1
  Rh  Rh33  1  0.671199  0.924691  0.753839  1
  Rh  Rh34  1  0.075309  0.746508  0.753839  1
  Rh  Rh35  1  0.253492  0.328801  0.753839  1
  Rh  Rh36  1  0.902801  0.795240  0.742487  1
  Rh  Rh37  1  0.204760  0.107561  0.742487  1
  Rh  Rh38  1  0.892439  0.097199  0.742487  1
