# generated using pymatgen
data_Yb2CdTeO6
_symmetry_space_group_name_H-M   'P 1'
_cell_length_a   6.54678890
_cell_length_b   6.56462299
_cell_length_c   6.53749113
_cell_angle_alpha   91.00807679
_cell_angle_beta   91.19515480
_cell_angle_gamma   91.39583391
_symmetry_Int_Tables_number   1
_chemical_formula_structural   Yb2CdTeO6
_chemical_formula_sum   'Yb4 Cd2 Te2 O12'
_cell_volume   280.77253453
_cell_formula_units_Z   2
loop_
 _symmetry_equiv_pos_site_id
 _symmetry_equiv_pos_as_xyz
  1  'x, y, z'
loop_
 _atom_site_type_symbol
 _atom_site_label
 _atom_site_symmetry_multiplicity
 _atom_site_fract_x
 _atom_site_fract_y
 _atom_site_fract_z
 _atom_site_occupancy
  Yb  Yb0  1  0.438638  0.247118  0.941896  1
  Yb  Yb1  1  0.060552  0.564698  0.751076  1
  Yb  Yb2  1  0.751808  0.061464  0.562111  1
  Yb  Yb3  1  0.562292  0.750206  0.062118  1
  Cd  Cd4  1  0.946052  0.437593  0.247828  1
  Cd  Cd5  1  0.251722  0.946645  0.437392  1
  Te  Te6  1  0.500767  0.501636  0.501638  1
  Te  Te7  1  0.999031  0.999082  0.998820  1
  O  O8  1  0.216153  0.568860  0.434696  1
  O  O9  1  0.434409  0.217642  0.574395  1
  O  O10  1  0.560267  0.431249  0.216401  1
  O  O11  1  0.785334  0.434870  0.568571  1
  O  O12  1  0.570269  0.785615  0.435041  1
  O  O13  1  0.435707  0.566913  0.786651  1
  O  O14  1  0.952469  0.075371  0.284056  1
  O  O15  1  0.284308  0.952130  0.073506  1
  O  O16  1  0.079925  0.283088  0.950619  1
  O  O17  1  0.040348  0.918260  0.713175  1
  O  O18  1  0.714507  0.043872  0.919838  1
  O  O19  1  0.915442  0.713689  0.040173  1
