# generated using pymatgen
data_ZnRe6As13
_symmetry_space_group_name_H-M   'P 1'
_cell_length_a   7.65128766
_cell_length_b   7.65131664
_cell_length_c   7.65128740
_cell_angle_alpha   110.40453877
_cell_angle_beta   107.62007458
_cell_angle_gamma   110.40454313
_symmetry_Int_Tables_number   1
_chemical_formula_structural   ZnRe6As13
_chemical_formula_sum   'Zn1 Re6 As13'
_cell_volume   344.54481583
_cell_formula_units_Z   1
loop_
 _symmetry_equiv_pos_site_id
 _symmetry_equiv_pos_as_xyz
  1  'x, y, z'
loop_
 _atom_site_type_symbol
 _atom_site_label
 _atom_site_symmetry_multiplicity
 _atom_site_fract_x
 _atom_site_fract_y
 _atom_site_fract_z
 _atom_site_occupancy
  Zn  Zn0  1  0.750006  0.500000  0.249994  1
  Re  Re1  1  0.341742  0.999998  0.341744  1
  Re  Re2  1  0.008725  0.336532  0.345259  1
  Re  Re3  1  0.008730  0.663470  0.672198  1
  Re  Re4  1  0.327802  0.336530  0.991270  1
  Re  Re5  1  0.654741  0.663468  0.991275  1
  Re  Re6  1  0.658256  0.000002  0.658258  1
  As  As7  1  0.501022  0.746949  0.247973  1
  As  As8  1  0.501022  0.253053  0.754074  1
  As  As9  1  0.752027  0.253051  0.498978  1
  As  As10  1  0.245926  0.746947  0.498978  1
  As  As11  1  0.250004  0.500000  0.749996  1
  As  As12  1  0.996641  0.992359  0.327469  1
  As  As13  1  0.672531  0.007641  0.003359  1
  As  As14  1  0.996641  0.669173  0.004289  1
  As  As15  1  0.335117  0.330830  0.327473  1
  As  As16  1  0.995711  0.330827  0.003359  1
  As  As17  1  0.672527  0.669170  0.664883  1
  As  As18  1  0.335118  0.007649  0.004286  1
  As  As19  1  0.995714  0.992351  0.664882  1
