# generated using pymatgen
data_Lu8Tc2B24RuW
_symmetry_space_group_name_H-M   'P 1'
_cell_length_a   3.59537300
_cell_length_b   9.08221272
_cell_length_c   11.44264865
_cell_angle_alpha   89.97313765
_cell_angle_beta   90.00000000
_cell_angle_gamma   90.00000000
_symmetry_Int_Tables_number   1
_chemical_formula_structural   Lu8Tc2B24RuW
_chemical_formula_sum   'Lu8 Tc2 B24 Ru1 W1'
_cell_volume   373.64754869
_cell_formula_units_Z   1
loop_
 _symmetry_equiv_pos_site_id
 _symmetry_equiv_pos_as_xyz
  1  'x, y, z'
loop_
 _atom_site_type_symbol
 _atom_site_label
 _atom_site_symmetry_multiplicity
 _atom_site_fract_x
 _atom_site_fract_y
 _atom_site_fract_z
 _atom_site_occupancy
  Lu  Lu0  1  0.000000  0.324490  0.415142  1
  Lu  Lu1  1  0.000000  0.675712  0.584095  1
  Lu  Lu2  1  0.000000  0.819161  0.086939  1
  Lu  Lu3  1  0.000000  0.179455  0.912371  1
  Lu  Lu4  1  0.000000  0.940292  0.372739  1
  Lu  Lu5  1  0.000000  0.057852  0.630482  1
  Lu  Lu6  1  0.000000  0.446714  0.128846  1
  Lu  Lu7  1  0.000000  0.558102  0.869345  1
  Tc  Tc8  1  0.000000  0.638655  0.321060  1
  Tc  Tc9  1  0.000000  0.361656  0.680129  1
  B  B10  1  0.500000  0.552583  0.433762  1
  B  B11  1  0.500000  0.447203  0.566301  1
  B  B12  1  0.500000  0.049833  0.063214  1
  B  B13  1  0.500000  0.945658  0.932238  1
  B  B14  1  0.500000  0.748988  0.419802  1
  B  B15  1  0.500000  0.249937  0.580722  1
  B  B16  1  0.500000  0.253594  0.077356  1
  B  B17  1  0.500000  0.750529  0.918889  1
  B  B18  1  0.500000  0.791391  0.265745  1
  B  B19  1  0.500000  0.207519  0.735813  1
  B  B20  1  0.500000  0.296159  0.236611  1
  B  B21  1  0.500000  0.708416  0.764535  1
  B  B22  1  0.500000  0.630527  0.185162  1
  B  B23  1  0.500000  0.369698  0.815822  1
  B  B24  1  0.500000  0.130100  0.318164  1
  B  B25  1  0.500000  0.869103  0.684483  1
  B  B26  1  0.500000  0.975560  0.212540  1
  B  B27  1  0.500000  0.018039  0.788043  1
  B  B28  1  0.500000  0.481843  0.288169  1
  B  B29  1  0.500000  0.519560  0.711743  1
  B  B30  1  0.500000  0.602337  0.027509  1
  B  B31  1  0.500000  0.401123  0.971134  1
  B  B32  1  0.500000  0.100283  0.473298  1
  B  B33  1  0.500000  0.898938  0.529174  1
  Ru  Ru34  1  0.000000  0.861096  0.819891  1
  W  W35  1  0.000000  0.137895  0.178735  1
