# generated using pymatgen
data_Nd4Al5Ir9
_symmetry_space_group_name_H-M   'P 1'
_cell_length_a   5.64654200
_cell_length_b   5.64654166
_cell_length_c   23.55716900
_cell_angle_alpha   90.00000000
_cell_angle_beta   90.00000000
_cell_angle_gamma   119.99999028
_symmetry_Int_Tables_number   1
_chemical_formula_structural   Nd4Al5Ir9
_chemical_formula_sum   'Nd8 Al10 Ir18'
_cell_volume   650.45741875
_cell_formula_units_Z   2
loop_
 _symmetry_equiv_pos_site_id
 _symmetry_equiv_pos_as_xyz
  1  'x, y, z'
loop_
 _atom_site_type_symbol
 _atom_site_label
 _atom_site_symmetry_multiplicity
 _atom_site_fract_x
 _atom_site_fract_y
 _atom_site_fract_z
 _atom_site_occupancy
  Nd  Nd0  1  0.333333  0.666667  0.530027  1
  Nd  Nd1  1  0.666667  0.333333  0.469973  1
  Nd  Nd2  1  0.666667  0.333333  0.030027  1
  Nd  Nd3  1  0.333333  0.666667  0.969973  1
  Nd  Nd4  1  0.333333  0.666667  0.676265  1
  Nd  Nd5  1  0.666667  0.333333  0.323735  1
  Nd  Nd6  1  0.666667  0.333333  0.176265  1
  Nd  Nd7  1  0.333333  0.666667  0.823735  1
  Al  Al8  1  0.000000  0.000000  0.000000  1
  Al  Al9  1  0.000000  0.000000  0.500000  1
  Al  Al10  1  0.333333  0.666667  0.168718  1
  Al  Al11  1  0.666667  0.333333  0.831282  1
  Al  Al12  1  0.666667  0.333333  0.668718  1
  Al  Al13  1  0.333333  0.666667  0.331282  1
  Al  Al14  1  0.000000  0.000000  0.166601  1
  Al  Al15  1  0.000000  0.000000  0.833399  1
  Al  Al16  1  0.000000  0.000000  0.666601  1
  Al  Al17  1  0.000000  0.000000  0.333399  1
  Ir  Ir18  1  0.169170  0.338339  0.085368  1
  Ir  Ir19  1  0.830830  0.661661  0.914632  1
  Ir  Ir20  1  0.661661  0.830830  0.085368  1
  Ir  Ir21  1  0.830830  0.661661  0.585368  1
  Ir  Ir22  1  0.338339  0.169170  0.914632  1
  Ir  Ir23  1  0.169170  0.338339  0.414632  1
  Ir  Ir24  1  0.169170  0.830830  0.085368  1
  Ir  Ir25  1  0.338339  0.169170  0.585368  1
  Ir  Ir26  1  0.830830  0.169170  0.914632  1
  Ir  Ir27  1  0.661661  0.830830  0.414632  1
  Ir  Ir28  1  0.830830  0.169170  0.585368  1
  Ir  Ir29  1  0.169170  0.830830  0.414632  1
  Ir  Ir30  1  0.166051  0.332099  0.250000  1
  Ir  Ir31  1  0.833949  0.667901  0.750000  1
  Ir  Ir32  1  0.667901  0.833949  0.250000  1
  Ir  Ir33  1  0.332099  0.166051  0.750000  1
  Ir  Ir34  1  0.166051  0.833949  0.250000  1
  Ir  Ir35  1  0.833949  0.166051  0.750000  1
