# generated using pymatgen
data_YbIn(CuO2)4
_symmetry_space_group_name_H-M   'P 1'
_cell_length_a   6.21476716
_cell_length_b   6.21476634
_cell_length_c   6.21476567
_cell_angle_alpha   126.23814521
_cell_angle_beta   126.23814092
_cell_angle_gamma   79.49707703
_symmetry_Int_Tables_number   1
_chemical_formula_structural   YbIn(CuO2)4
_chemical_formula_sum   'Yb1 In1 Cu4 O8'
_cell_volume   150.91150290
_cell_formula_units_Z   1
loop_
 _symmetry_equiv_pos_site_id
 _symmetry_equiv_pos_as_xyz
  1  'x, y, z'
loop_
 _atom_site_type_symbol
 _atom_site_label
 _atom_site_symmetry_multiplicity
 _atom_site_fract_x
 _atom_site_fract_y
 _atom_site_fract_z
 _atom_site_occupancy
  Yb  Yb0  1  0.000000  0.000000  0.000000  1
  In  In1  1  0.750000  0.250000  0.500000  1
  Cu  Cu2  1  0.873722  0.619528  0.243689  1
  Cu  Cu3  1  0.375838  0.630032  0.756311  1
  Cu  Cu4  1  0.369968  0.126278  0.745806  1
  Cu  Cu5  1  0.380472  0.624162  0.254194  1
  O  O6  1  0.413436  0.842619  0.152361  1
  O  O7  1  0.690258  0.261076  0.847639  1
  O  O8  1  0.361331  0.413184  0.371685  1
  O  O9  1  0.041499  0.989646  0.628315  1
  O  O10  1  0.010354  0.638669  0.051853  1
  O  O11  1  0.586816  0.958501  0.948147  1
  O  O12  1  0.157381  0.309742  0.570818  1
  O  O13  1  0.738924  0.586564  0.429182  1
