# generated using pymatgen
data_Tm3Al12TcRh3
_symmetry_space_group_name_H-M   'P 1'
_cell_length_a   8.80663300
_cell_length_b   8.80663297
_cell_length_c   9.49884400
_cell_angle_alpha   90.00000000
_cell_angle_beta   90.00000000
_cell_angle_gamma   120.00001138
_symmetry_Int_Tables_number   1
_chemical_formula_structural   Tm3Al12TcRh3
_chemical_formula_sum   'Tm6 Al24 Tc2 Rh6'
_cell_volume   638.00066643
_cell_formula_units_Z   2
loop_
 _symmetry_equiv_pos_site_id
 _symmetry_equiv_pos_as_xyz
  1  'x, y, z'
loop_
 _atom_site_type_symbol
 _atom_site_label
 _atom_site_symmetry_multiplicity
 _atom_site_fract_x
 _atom_site_fract_y
 _atom_site_fract_z
 _atom_site_occupancy
  Tm  Tm0  1  0.807564  0.192436  0.750000  1
  Tm  Tm1  1  0.192436  0.807564  0.250000  1
  Tm  Tm2  1  0.384871  0.192436  0.750000  1
  Tm  Tm3  1  0.615129  0.807564  0.250000  1
  Tm  Tm4  1  0.807564  0.615129  0.750000  1
  Tm  Tm5  1  0.192436  0.384871  0.250000  1
  Al  Al6  1  0.666667  0.333333  0.970345  1
  Al  Al7  1  0.333333  0.666667  0.029655  1
  Al  Al8  1  0.333333  0.666667  0.470345  1
  Al  Al9  1  0.666667  0.333333  0.529655  1
  Al  Al10  1  0.837005  0.162995  0.423461  1
  Al  Al11  1  0.162995  0.837005  0.576539  1
  Al  Al12  1  0.325991  0.162995  0.423461  1
  Al  Al13  1  0.162995  0.837005  0.923461  1
  Al  Al14  1  0.674009  0.837005  0.576539  1
  Al  Al15  1  0.837005  0.162995  0.076539  1
  Al  Al16  1  0.837005  0.674009  0.423461  1
  Al  Al17  1  0.674009  0.837005  0.923461  1
  Al  Al18  1  0.162995  0.325991  0.576539  1
  Al  Al19  1  0.325991  0.162995  0.076539  1
  Al  Al20  1  0.162995  0.325991  0.923461  1
  Al  Al21  1  0.837005  0.674009  0.076539  1
  Al  Al22  1  0.437601  0.562399  0.750000  1
  Al  Al23  1  0.562399  0.437601  0.250000  1
  Al  Al24  1  0.124797  0.562399  0.750000  1
  Al  Al25  1  0.875203  0.437601  0.250000  1
  Al  Al26  1  0.437601  0.875203  0.750000  1
  Al  Al27  1  0.562399  0.124797  0.250000  1
  Al  Al28  1  0.000000  0.000000  0.750000  1
  Al  Al29  1  0.000000  0.000000  0.250000  1
  Tc  Tc30  1  0.000000  0.000000  0.000000  1
  Tc  Tc31  1  0.000000  0.000000  0.500000  1
  Rh  Rh32  1  0.500000  0.500000  0.000000  1
  Rh  Rh33  1  0.000000  0.500000  0.000000  1
  Rh  Rh34  1  0.500000  0.500000  0.500000  1
  Rh  Rh35  1  0.500000  0.000000  0.000000  1
  Rh  Rh36  1  0.000000  0.500000  0.500000  1
  Rh  Rh37  1  0.500000  0.000000  0.500000  1
