# generated using pymatgen
data_Nd3Sm9(Si7Cl3)2
_symmetry_space_group_name_H-M   'P 1'
_cell_length_a   3.99991700
_cell_length_b   11.48365519
_cell_length_c   16.22145000
_cell_angle_alpha   90.01054745
_cell_angle_beta   90.00000000
_cell_angle_gamma   90.00000000
_symmetry_Int_Tables_number   1
_chemical_formula_structural   Nd3Sm9(Si7Cl3)2
_chemical_formula_sum   'Nd3 Sm9 Si14 Cl6'
_cell_volume   745.11068023
_cell_formula_units_Z   1
loop_
 _symmetry_equiv_pos_site_id
 _symmetry_equiv_pos_as_xyz
  1  'x, y, z'
loop_
 _atom_site_type_symbol
 _atom_site_label
 _atom_site_symmetry_multiplicity
 _atom_site_fract_x
 _atom_site_fract_y
 _atom_site_fract_z
 _atom_site_occupancy
  Nd  Nd0  1  0.000000  0.945020  0.622523  1
  Nd  Nd1  1  0.500000  0.053996  0.121943  1
  Nd  Nd2  1  0.000000  0.944907  0.377882  1
  Sm  Sm3  1  0.500000  0.337621  0.500056  1
  Sm  Sm4  1  0.000000  0.662692  0.999690  1
  Sm  Sm5  1  0.500000  0.356078  0.756664  1
  Sm  Sm6  1  0.000000  0.643668  0.743576  1
  Sm  Sm7  1  0.500000  0.356120  0.243008  1
  Sm  Sm8  1  0.000000  0.643461  0.256579  1
  Sm  Sm9  1  0.500000  0.055952  0.877953  1
  Sm  Sm10  1  0.500000  0.352571  0.999635  1
  Sm  Sm11  1  0.000000  0.647110  0.500150  1
  Si  Si12  1  0.000000  0.143039  0.999275  1
  Si  Si13  1  0.500000  0.856158  0.500230  1
  Si  Si14  1  0.500000  0.572176  0.876096  1
  Si  Si15  1  0.000000  0.427409  0.624041  1
  Si  Si16  1  0.500000  0.572379  0.123507  1
  Si  Si17  1  0.000000  0.427131  0.375976  1
  Si  Si18  1  0.000000  0.248331  0.872334  1
  Si  Si19  1  0.500000  0.750942  0.627657  1
  Si  Si20  1  0.000000  0.249057  0.126770  1
  Si  Si21  1  0.500000  0.750659  0.372783  1
  Si  Si22  1  0.000000  0.457863  0.877071  1
  Si  Si23  1  0.500000  0.541813  0.623141  1
  Si  Si24  1  0.500000  0.541740  0.377070  1
  Si  Si25  1  0.000000  0.457906  0.122513  1
  Cl  Cl26  1  0.500000  0.108880  0.697832  1
  Cl  Cl27  1  0.000000  0.894125  0.805943  1
  Cl  Cl28  1  0.000000  0.141942  0.500351  1
  Cl  Cl29  1  0.500000  0.859351  0.998423  1
  Cl  Cl30  1  0.500000  0.109641  0.303824  1
  Cl  Cl31  1  0.000000  0.890256  0.195504  1
