# generated using pymatgen
data_Tb15Ho5(InGa2)4
_symmetry_space_group_name_H-M   'P 1'
_cell_length_a   7.75954654
_cell_length_b   7.76222569
_cell_length_c   14.42687998
_cell_angle_alpha   89.92458125
_cell_angle_beta   89.92791926
_cell_angle_gamma   90.00510721
_symmetry_Int_Tables_number   1
_chemical_formula_structural   Tb15Ho5(InGa2)4
_chemical_formula_sum   'Tb15 Ho5 In4 Ga8'
_cell_volume   868.94903521
_cell_formula_units_Z   1
loop_
 _symmetry_equiv_pos_site_id
 _symmetry_equiv_pos_as_xyz
  1  'x, y, z'
loop_
 _atom_site_type_symbol
 _atom_site_label
 _atom_site_symmetry_multiplicity
 _atom_site_fract_x
 _atom_site_fract_y
 _atom_site_fract_z
 _atom_site_occupancy
  Tb  Tb0  1  0.673674  0.661671  0.606413  1
  Tb  Tb1  1  0.675048  0.337399  0.106779  1
  Tb  Tb2  1  0.826582  0.838437  0.393250  1
  Tb  Tb3  1  0.174429  0.838190  0.893494  1
  Tb  Tb4  1  0.326582  0.338466  0.606470  1
  Tb  Tb5  1  0.325213  0.662162  0.106815  1
  Tb  Tb6  1  0.173618  0.161616  0.393385  1
  Tb  Tb7  1  0.825903  0.161807  0.893389  1
  Tb  Tb8  1  0.661944  0.325892  0.393303  1
  Tb  Tb9  1  0.337916  0.325978  0.893464  1
  Tb  Tb10  1  0.161989  0.826023  0.606387  1
  Tb  Tb11  1  0.837977  0.826202  0.106640  1
  Tb  Tb12  1  0.337769  0.674064  0.393391  1
  Tb  Tb13  1  0.661923  0.673859  0.893468  1
  Tb  Tb14  1  0.838119  0.174118  0.606353  1
  Ho  Ho15  1  0.999964  0.499869  0.760087  1
  Ho  Ho16  1  0.000125  0.499980  0.260477  1
  Ho  Ho17  1  0.499673  0.000112  0.239929  1
  Ho  Ho18  1  0.499901  0.999923  0.739523  1
  Ho  Ho19  1  0.161658  0.173996  0.107543  1
  In  In20  1  0.000039  0.500040  0.495768  1
  In  In21  1  0.000527  0.499270  0.996060  1
  In  In22  1  0.500037  0.000106  0.504079  1
  In  In23  1  0.499412  0.000511  0.004433  1
  Ga  Ga24  1  0.875542  0.875585  0.749837  1
  Ga  Ga25  1  0.875977  0.124656  0.249807  1
  Ga  Ga26  1  0.624328  0.624247  0.250005  1
  Ga  Ga27  1  0.375618  0.624422  0.749912  1
  Ga  Ga28  1  0.124366  0.124342  0.749764  1
  Ga  Ga29  1  0.124540  0.876054  0.249817  1
  Ga  Ga30  1  0.375224  0.375370  0.250057  1
  Ga  Ga31  1  0.624384  0.375632  0.749901  1
