# generated using pymatgen
data_TbDy7Cd2NiIr
_symmetry_space_group_name_H-M   'P 1'
_cell_length_a   9.59022647
_cell_length_b   9.59022715
_cell_length_c   9.63687100
_cell_angle_alpha   59.83896936
_cell_angle_beta   59.83896701
_cell_angle_gamma   59.60840629
_symmetry_Int_Tables_number   1
_chemical_formula_structural   TbDy7Cd2NiIr
_chemical_formula_sum   'Tb2 Dy14 Cd4 Ni2 Ir2'
_cell_volume   623.33555343
_cell_formula_units_Z   2
loop_
 _symmetry_equiv_pos_site_id
 _symmetry_equiv_pos_as_xyz
  1  'x, y, z'
loop_
 _atom_site_type_symbol
 _atom_site_label
 _atom_site_symmetry_multiplicity
 _atom_site_fract_x
 _atom_site_fract_y
 _atom_site_fract_z
 _atom_site_occupancy
  Tb  Tb0  1  0.566047  0.566047  0.933953  1
  Tb  Tb1  1  0.938851  0.938851  0.561149  1
  Dy  Dy2  1  0.350092  0.350092  0.344633  1
  Dy  Dy3  1  0.350092  0.350092  0.955182  1
  Dy  Dy4  1  0.353136  0.952277  0.347294  1
  Dy  Dy5  1  0.952277  0.353136  0.347294  1
  Dy  Dy6  1  0.809157  0.187552  0.190622  1
  Dy  Dy7  1  0.187552  0.809157  0.812670  1
  Dy  Dy8  1  0.187552  0.809157  0.190622  1
  Dy  Dy9  1  0.809157  0.187552  0.812670  1
  Dy  Dy10  1  0.189355  0.189355  0.810645  1
  Dy  Dy11  1  0.811210  0.811210  0.188790  1
  Dy  Dy12  1  0.937557  0.560983  0.565798  1
  Dy  Dy13  1  0.560983  0.937557  0.935662  1
  Dy  Dy14  1  0.560983  0.937557  0.565798  1
  Dy  Dy15  1  0.937557  0.560983  0.935662  1
  Cd  Cd16  1  0.579936  0.579936  0.582674  1
  Cd  Cd17  1  0.579936  0.579936  0.257453  1
  Cd  Cd18  1  0.579996  0.255941  0.582031  1
  Cd  Cd19  1  0.255941  0.579996  0.582031  1
  Ni  Ni20  1  0.141513  0.574909  0.141789  1
  Ni  Ni21  1  0.574909  0.141513  0.141789  1
  Ir  Ir22  1  0.143104  0.143104  0.141058  1
  Ir  Ir23  1  0.143104  0.143104  0.572734  1
