# generated using pymatgen
data_Sm10C4Br15
_symmetry_space_group_name_H-M   'P 1'
_cell_length_a   9.09753396
_cell_length_b   10.05336216
_cell_length_c   11.04216647
_cell_angle_alpha   70.09939733
_cell_angle_beta   66.13474579
_cell_angle_gamma   70.75103765
_symmetry_Int_Tables_number   1
_chemical_formula_structural   Sm10C4Br15
_chemical_formula_sum   'Sm10 C4 Br15'
_cell_volume   846.50975744
_cell_formula_units_Z   1
loop_
 _symmetry_equiv_pos_site_id
 _symmetry_equiv_pos_as_xyz
  1  'x, y, z'
loop_
 _atom_site_type_symbol
 _atom_site_label
 _atom_site_symmetry_multiplicity
 _atom_site_fract_x
 _atom_site_fract_y
 _atom_site_fract_z
 _atom_site_occupancy
  Sm  Sm0  1  0.331149  0.748178  0.832730  1
  Sm  Sm1  1  0.668851  0.251822  0.167270  1
  Sm  Sm2  1  0.167706  0.430380  0.045511  1
  Sm  Sm3  1  0.832294  0.569620  0.954489  1
  Sm  Sm4  1  0.077525  0.178511  0.889727  1
  Sm  Sm5  1  0.922475  0.821489  0.110273  1
  Sm  Sm6  1  0.247237  0.540548  0.646505  1
  Sm  Sm7  1  0.752763  0.459452  0.353495  1
  Sm  Sm8  1  0.026034  0.107730  0.262517  1
  Sm  Sm9  1  0.973966  0.892270  0.737483  1
  C  C10  1  0.879161  0.361846  0.170946  1
  C  C11  1  0.120839  0.638154  0.829054  1
  C  C12  1  0.957068  0.296270  0.059475  1
  C  C13  1  0.042932  0.703730  0.940525  1
  Br  Br14  1  0.500000  0.500000  0.000000  1
  Br  Br15  1  0.131677  0.814315  0.470349  1
  Br  Br16  1  0.868323  0.185685  0.529651  1
  Br  Br17  1  0.255358  0.024863  0.649122  1
  Br  Br18  1  0.744642  0.975137  0.350878  1
  Br  Br19  1  0.332787  0.168300  0.220530  1
  Br  Br20  1  0.667213  0.831700  0.779470  1
  Br  Br21  1  0.453116  0.368221  0.413211  1
  Br  Br22  1  0.546884  0.631779  0.586789  1
  Br  Br23  1  0.950983  0.441951  0.703409  1
  Br  Br24  1  0.049017  0.558049  0.296591  1
  Br  Br25  1  0.232807  0.907486  0.061318  1
  Br  Br26  1  0.767193  0.092514  0.938682  1
  Br  Br27  1  0.384583  0.270573  0.817340  1
  Br  Br28  1  0.615417  0.729427  0.182660  1
