# generated using pymatgen
data_TiFe2TcP2
_symmetry_space_group_name_H-M   'P 1'
_cell_length_a   3.64620100
_cell_length_b   5.90150000
_cell_length_c   6.69143500
_cell_angle_alpha   90.00000000
_cell_angle_beta   90.00000000
_cell_angle_gamma   90.00000000
_symmetry_Int_Tables_number   1
_chemical_formula_structural   TiFe2TcP2
_chemical_formula_sum   'Ti2 Fe4 Tc2 P4'
_cell_volume   143.98666771
_cell_formula_units_Z   2
loop_
 _symmetry_equiv_pos_site_id
 _symmetry_equiv_pos_as_xyz
  1  'x, y, z'
loop_
 _atom_site_type_symbol
 _atom_site_label
 _atom_site_symmetry_multiplicity
 _atom_site_fract_x
 _atom_site_fract_y
 _atom_site_fract_z
 _atom_site_occupancy
  Ti  Ti0  1  0.750000  0.976621  0.177022  1
  Ti  Ti1  1  0.750000  0.476621  0.322978  1
  Fe  Fe2  1  0.250000  0.143804  0.438733  1
  Fe  Fe3  1  0.250000  0.643804  0.061267  1
  Fe  Fe4  1  0.750000  0.856036  0.561656  1
  Fe  Fe5  1  0.750000  0.356036  0.938344  1
  Tc  Tc6  1  0.250000  0.028331  0.825784  1
  Tc  Tc7  1  0.250000  0.528331  0.674216  1
  P  P8  1  0.250000  0.770316  0.382355  1
  P  P9  1  0.250000  0.270316  0.117645  1
  P  P10  1  0.750000  0.224892  0.626853  1
  P  P11  1  0.750000  0.724892  0.873147  1
