# generated using pymatgen
data_LiSnRhO4
_symmetry_space_group_name_H-M   'P 1'
_cell_length_a   6.19264002
_cell_length_b   6.32081702
_cell_length_c   8.73557300
_cell_angle_alpha   89.99979183
_cell_angle_beta   89.99908973
_cell_angle_gamma   89.99050431
_symmetry_Int_Tables_number   1
_chemical_formula_structural   LiSnRhO4
_chemical_formula_sum   'Li4 Sn4 Rh4 O16'
_cell_volume   341.93254978
_cell_formula_units_Z   4
loop_
 _symmetry_equiv_pos_site_id
 _symmetry_equiv_pos_as_xyz
  1  'x, y, z'
loop_
 _atom_site_type_symbol
 _atom_site_label
 _atom_site_symmetry_multiplicity
 _atom_site_fract_x
 _atom_site_fract_y
 _atom_site_fract_z
 _atom_site_occupancy
  Li  Li0  1  0.000003  0.249999  0.119403  1
  Li  Li1  1  0.500006  0.749998  0.619395  1
  Li  Li2  1  0.999994  0.749997  0.880592  1
  Li  Li3  1  0.499996  0.250000  0.380581  1
  Sn  Sn4  1  0.000002  0.499644  0.500013  1
  Sn  Sn5  1  0.499991  0.999906  0.000118  1
  Sn  Sn6  1  0.999986  0.000347  0.500002  1
  Sn  Sn7  1  0.499997  0.500093  0.000112  1
  Rh  Rh8  1  0.750057  0.250003  0.749961  1
  Rh  Rh9  1  0.249956  0.250002  0.749972  1
  Rh  Rh10  1  0.250060  0.750003  0.249960  1
  Rh  Rh11  1  0.749955  0.750003  0.249972  1
  O  O12  1  0.000056  0.529576  0.261084  1
  O  O13  1  0.500053  0.029584  0.761055  1
  O  O14  1  0.999947  0.970423  0.261088  1
  O  O15  1  0.499945  0.470415  0.761056  1
  O  O16  1  0.000052  0.029532  0.738938  1
  O  O17  1  0.500054  0.529528  0.238906  1
  O  O18  1  0.999944  0.470467  0.738934  1
  O  O19  1  0.499946  0.970470  0.238905  1
  O  O20  1  0.230205  0.749974  0.489328  1
  O  O21  1  0.730161  0.249962  0.989328  1
  O  O22  1  0.769800  0.750034  0.489331  1
  O  O23  1  0.269833  0.250036  0.989333  1
  O  O24  1  0.769878  0.250040  0.510659  1
  O  O25  1  0.269842  0.750030  0.010653  1
  O  O26  1  0.230128  0.249967  0.510662  1
  O  O27  1  0.730155  0.749969  0.010656  1
