# generated using pymatgen
data_Ce3UCo(Si2Os)5
_symmetry_space_group_name_H-M   'P 1'
_cell_length_a   8.15634685
_cell_length_b   8.09508235
_cell_length_c   5.78717182
_cell_angle_alpha   70.29217880
_cell_angle_beta   70.38505578
_cell_angle_gamma   93.22403830
_symmetry_Int_Tables_number   1
_chemical_formula_structural   Ce3UCo(Si2Os)5
_chemical_formula_sum   'Ce3 U1 Co1 Si10 Os5'
_cell_volume   332.60549812
_cell_formula_units_Z   1
loop_
 _symmetry_equiv_pos_site_id
 _symmetry_equiv_pos_as_xyz
  1  'x, y, z'
loop_
 _atom_site_type_symbol
 _atom_site_label
 _atom_site_symmetry_multiplicity
 _atom_site_fract_x
 _atom_site_fract_y
 _atom_site_fract_z
 _atom_site_occupancy
  Ce  Ce0  1  0.867631  0.599026  0.757972  1
  Ce  Ce1  1  0.396645  0.128183  0.743633  1
  Ce  Ce2  1  0.133981  0.400807  0.236353  1
  U  U3  1  0.596309  0.868892  0.264384  1
  Co  Co4  1  0.261986  0.543674  0.628901  1
  Si  Si5  1  0.067711  0.272538  0.829497  1
  Si  Si6  1  0.739404  0.938039  0.663420  1
  Si  Si7  1  0.937038  0.739657  0.159684  1
  Si  Si8  1  0.262388  0.055809  0.340002  1
  Si  Si9  1  0.208622  0.784512  0.741097  1
  Si  Si10  1  0.794734  0.208410  0.243538  1
  Si  Si11  1  0.509383  0.488519  0.745574  1
  Si  Si12  1  0.480380  0.512606  0.265345  1
  Si  Si13  1  0.777233  0.225781  0.751445  1
  Si  Si14  1  0.226106  0.769846  0.262353  1
  Os  Os15  1  0.457370  0.745689  0.869451  1
  Os  Os16  1  0.741845  0.458202  0.366171  1
  Os  Os17  1  0.540457  0.255124  0.134982  1
  Os  Os18  1  0.001841  0.001401  0.749072  1
  Os  Os19  1  0.998935  0.003287  0.247128  1
