# generated using pymatgen
data_Tm3Nb(Co4P3)2
_symmetry_space_group_name_H-M   'P 1'
_cell_length_a   3.68646500
_cell_length_b   10.60238000
_cell_length_c   12.27082700
_cell_angle_alpha   90.00000000
_cell_angle_beta   90.00000000
_cell_angle_gamma   90.00000000
_symmetry_Int_Tables_number   1
_chemical_formula_structural   Tm3Nb(Co4P3)2
_chemical_formula_sum   'Tm6 Nb2 Co16 P12'
_cell_volume   479.60898874
_cell_formula_units_Z   2
loop_
 _symmetry_equiv_pos_site_id
 _symmetry_equiv_pos_as_xyz
  1  'x, y, z'
loop_
 _atom_site_type_symbol
 _atom_site_label
 _atom_site_symmetry_multiplicity
 _atom_site_fract_x
 _atom_site_fract_y
 _atom_site_fract_z
 _atom_site_occupancy
  Tm  Tm0  1  0.000000  0.500000  0.526815  1
  Tm  Tm1  1  0.500000  0.000000  0.473185  1
  Tm  Tm2  1  0.500000  0.820709  0.205323  1
  Tm  Tm3  1  0.500000  0.179291  0.205323  1
  Tm  Tm4  1  0.000000  0.679291  0.794677  1
  Tm  Tm5  1  0.000000  0.320709  0.794677  1
  Nb  Nb6  1  0.500000  0.500000  0.157393  1
  Nb  Nb7  1  0.000000  0.000000  0.842607  1
  Co  Co8  1  0.500000  0.500000  0.701458  1
  Co  Co9  1  0.000000  0.000000  0.298542  1
  Co  Co10  1  0.000000  0.500000  0.985273  1
  Co  Co11  1  0.500000  0.000000  0.014727  1
  Co  Co12  1  0.500000  0.332506  0.991193  1
  Co  Co13  1  0.500000  0.667494  0.991193  1
  Co  Co14  1  0.000000  0.167494  0.008807  1
  Co  Co15  1  0.000000  0.832506  0.008807  1
  Co  Co16  1  0.500000  0.295350  0.432621  1
  Co  Co17  1  0.500000  0.704650  0.432621  1
  Co  Co18  1  0.000000  0.204650  0.567379  1
  Co  Co19  1  0.000000  0.795350  0.567379  1
  Co  Co20  1  0.500000  0.876450  0.704253  1
  Co  Co21  1  0.500000  0.123550  0.704253  1
  Co  Co22  1  0.000000  0.623550  0.295747  1
  Co  Co23  1  0.000000  0.376450  0.295747  1
  P  P24  1  0.500000  0.500000  0.880718  1
  P  P25  1  0.000000  0.000000  0.119282  1
  P  P26  1  0.500000  0.500000  0.357279  1
  P  P27  1  0.000000  0.000000  0.642721  1
  P  P28  1  0.500000  0.312192  0.615914  1
  P  P29  1  0.500000  0.687808  0.615914  1
  P  P30  1  0.000000  0.187808  0.384086  1
  P  P31  1  0.000000  0.812192  0.384086  1
  P  P32  1  0.500000  0.840585  0.892445  1
  P  P33  1  0.500000  0.159415  0.892445  1
  P  P34  1  0.000000  0.659415  0.107555  1
  P  P35  1  0.000000  0.340585  0.107555  1
