# generated using pymatgen
data_K(BaRh)2
_symmetry_space_group_name_H-M   'P 1'
_cell_length_a   4.50820200
_cell_length_b   4.50820247
_cell_length_c   25.07135100
_cell_angle_alpha   90.00000000
_cell_angle_beta   90.00000000
_cell_angle_gamma   119.99999655
_symmetry_Int_Tables_number   1
_chemical_formula_structural   K(BaRh)2
_chemical_formula_sum   'K2 Ba4 Rh4'
_cell_volume   441.28093409
_cell_formula_units_Z   2
loop_
 _symmetry_equiv_pos_site_id
 _symmetry_equiv_pos_as_xyz
  1  'x, y, z'
loop_
 _atom_site_type_symbol
 _atom_site_label
 _atom_site_symmetry_multiplicity
 _atom_site_fract_x
 _atom_site_fract_y
 _atom_site_fract_z
 _atom_site_occupancy
  K  K0  1  0.333333  0.666667  0.250000  1
  K  K1  1  0.666667  0.333333  0.750000  1
  Ba  Ba2  1  0.000000  0.000000  0.080550  1
  Ba  Ba3  1  0.000000  0.000000  0.919450  1
  Ba  Ba4  1  0.000000  0.000000  0.580550  1
  Ba  Ba5  1  0.000000  0.000000  0.419450  1
  Rh  Rh6  1  0.333333  0.666667  0.499721  1
  Rh  Rh7  1  0.666667  0.333333  0.500279  1
  Rh  Rh8  1  0.666667  0.333333  0.999721  1
  Rh  Rh9  1  0.333333  0.666667  0.000279  1
