# generated using pymatgen
data_Ba2AsS3I
_symmetry_space_group_name_H-M   'P 1'
_cell_length_a   6.99824500
_cell_length_b   9.77791700
_cell_length_c   12.33131700
_cell_angle_alpha   90.00000000
_cell_angle_beta   90.00000000
_cell_angle_gamma   90.00000000
_symmetry_Int_Tables_number   1
_chemical_formula_structural   Ba2AsS3I
_chemical_formula_sum   'Ba8 As4 S12 I4'
_cell_volume   843.81055047
_cell_formula_units_Z   4
loop_
 _symmetry_equiv_pos_site_id
 _symmetry_equiv_pos_as_xyz
  1  'x, y, z'
loop_
 _atom_site_type_symbol
 _atom_site_label
 _atom_site_symmetry_multiplicity
 _atom_site_fract_x
 _atom_site_fract_y
 _atom_site_fract_z
 _atom_site_occupancy
  Ba  Ba0  1  0.250000  0.831673  0.364849  1
  Ba  Ba1  1  0.750000  0.168327  0.635151  1
  Ba  Ba2  1  0.750000  0.331673  0.135151  1
  Ba  Ba3  1  0.250000  0.668327  0.864849  1
  Ba  Ba4  1  0.250000  0.311628  0.337039  1
  Ba  Ba5  1  0.750000  0.688372  0.662961  1
  Ba  Ba6  1  0.750000  0.811628  0.162961  1
  Ba  Ba7  1  0.250000  0.188372  0.837039  1
  As  As8  1  0.250000  0.024880  0.092987  1
  As  As9  1  0.750000  0.975120  0.907013  1
  As  As10  1  0.750000  0.524880  0.407013  1
  As  As11  1  0.250000  0.475120  0.592987  1
  S  S12  1  0.009526  0.073769  0.209719  1
  S  S13  1  0.990474  0.926231  0.790281  1
  S  S14  1  0.990474  0.573769  0.290281  1
  S  S15  1  0.509526  0.926231  0.790281  1
  S  S16  1  0.009526  0.426231  0.709719  1
  S  S17  1  0.490474  0.073769  0.209719  1
  S  S18  1  0.490474  0.426231  0.709719  1
  S  S19  1  0.509526  0.573769  0.290281  1
  S  S20  1  0.250000  0.794344  0.104573  1
  S  S21  1  0.750000  0.205656  0.895427  1
  S  S22  1  0.750000  0.294344  0.395427  1
  S  S23  1  0.250000  0.705656  0.604573  1
  I  I24  1  0.250000  0.399734  0.055885  1
  I  I25  1  0.750000  0.600266  0.944115  1
  I  I26  1  0.750000  0.899734  0.444115  1
  I  I27  1  0.250000  0.100266  0.555885  1
