# generated using pymatgen
data_Ac2Ga6Ni3Ru
_symmetry_space_group_name_H-M   'P 1'
_cell_length_a   6.45934467
_cell_length_b   6.45934378
_cell_length_c   5.39959617
_cell_angle_alpha   90.22789665
_cell_angle_beta   90.22789397
_cell_angle_gamma   104.30679824
_symmetry_Int_Tables_number   1
_chemical_formula_structural   Ac2Ga6Ni3Ru
_chemical_formula_sum   'Ac2 Ga6 Ni3 Ru1'
_cell_volume   218.29646467
_cell_formula_units_Z   1
loop_
 _symmetry_equiv_pos_site_id
 _symmetry_equiv_pos_as_xyz
  1  'x, y, z'
loop_
 _atom_site_type_symbol
 _atom_site_label
 _atom_site_symmetry_multiplicity
 _atom_site_fract_x
 _atom_site_fract_y
 _atom_site_fract_z
 _atom_site_occupancy
  Ac  Ac0  1  0.659989  0.659199  0.253536  1
  Ac  Ac1  1  0.340801  0.340011  0.746464  1
  Ga  Ga2  1  0.061661  0.065692  0.243856  1
  Ga  Ga3  1  0.934308  0.938339  0.756144  1
  Ga  Ga4  1  0.087973  0.470617  0.244219  1
  Ga  Ga5  1  0.529383  0.912027  0.755781  1
  Ga  Ga6  1  0.910068  0.524967  0.751541  1
  Ga  Ga7  1  0.475033  0.089932  0.248459  1
  Ni  Ni8  1  0.204238  0.795762  0.000000  1
  Ni  Ni9  1  0.798439  0.201561  0.500000  1
  Ni  Ni10  1  0.796800  0.203200  0.000000  1
  Ru  Ru11  1  0.201308  0.798692  0.500000  1
