# generated using pymatgen
data_TbDy5(Tm2Si3)2
_symmetry_space_group_name_H-M   'P 1'
_cell_length_a   8.41628531
_cell_length_b   8.41628522
_cell_length_c   6.29913400
_cell_angle_alpha   90.00000000
_cell_angle_beta   90.00000000
_cell_angle_gamma   120.03094166
_symmetry_Int_Tables_number   1
_chemical_formula_structural   TbDy5(Tm2Si3)2
_chemical_formula_sum   'Tb1 Dy5 Tm4 Si6'
_cell_volume   386.29303741
_cell_formula_units_Z   1
loop_
 _symmetry_equiv_pos_site_id
 _symmetry_equiv_pos_as_xyz
  1  'x, y, z'
loop_
 _atom_site_type_symbol
 _atom_site_label
 _atom_site_symmetry_multiplicity
 _atom_site_fract_x
 _atom_site_fract_y
 _atom_site_fract_z
 _atom_site_occupancy
  Tb  Tb0  1  0.756164  0.756164  0.250000  1
  Dy  Dy1  1  0.244028  0.000052  0.250000  1
  Dy  Dy2  1  0.000052  0.244028  0.250000  1
  Dy  Dy3  1  0.243842  0.243842  0.750000  1
  Dy  Dy4  1  0.756055  0.000102  0.750000  1
  Dy  Dy5  1  0.000102  0.756055  0.750000  1
  Tm  Tm6  1  0.666653  0.333240  0.500030  1
  Tm  Tm7  1  0.333240  0.666653  0.500030  1
  Tm  Tm8  1  0.333240  0.666653  0.999970  1
  Tm  Tm9  1  0.666653  0.333240  0.999970  1
  Si  Si10  1  0.394497  0.394497  0.250000  1
  Si  Si11  1  0.605183  0.000211  0.250000  1
  Si  Si12  1  0.000211  0.605183  0.250000  1
  Si  Si13  1  0.605319  0.605319  0.750000  1
  Si  Si14  1  0.394734  0.000030  0.750000  1
  Si  Si15  1  0.000030  0.394734  0.750000  1
