# generated using pymatgen
data_Nd4Er12Cd4Ir3Pt
_symmetry_space_group_name_H-M   'P 1'
_cell_length_a   9.66971290
_cell_length_b   9.64916240
_cell_length_c   9.64916070
_cell_angle_alpha   60.08843961
_cell_angle_beta   60.04348796
_cell_angle_gamma   60.04348643
_symmetry_Int_Tables_number   1
_chemical_formula_structural   Nd4Er12Cd4Ir3Pt
_chemical_formula_sum   'Nd4 Er12 Cd4 Ir3 Pt1'
_cell_volume   637.45965884
_cell_formula_units_Z   1
loop_
 _symmetry_equiv_pos_site_id
 _symmetry_equiv_pos_as_xyz
  1  'x, y, z'
loop_
 _atom_site_type_symbol
 _atom_site_label
 _atom_site_symmetry_multiplicity
 _atom_site_fract_x
 _atom_site_fract_y
 _atom_site_fract_z
 _atom_site_occupancy
  Nd  Nd0  1  0.565156  0.935545  0.564945  1
  Nd  Nd1  1  0.937501  0.564863  0.934346  1
  Nd  Nd2  1  0.565156  0.564945  0.935545  1
  Nd  Nd3  1  0.937501  0.934346  0.564863  1
  Er  Er4  1  0.352309  0.344953  0.344953  1
  Er  Er5  1  0.348552  0.355959  0.953622  1
  Er  Er6  1  0.348552  0.953622  0.355959  1
  Er  Er7  1  0.947625  0.350154  0.350154  1
  Er  Er8  1  0.809367  0.186303  0.186303  1
  Er  Er9  1  0.184449  0.814928  0.814928  1
  Er  Er10  1  0.191074  0.806939  0.189911  1
  Er  Er11  1  0.810841  0.186229  0.810272  1
  Er  Er12  1  0.191074  0.189911  0.806939  1
  Er  Er13  1  0.810841  0.810272  0.186229  1
  Er  Er14  1  0.949545  0.551037  0.551037  1
  Er  Er15  1  0.554085  0.947267  0.947267  1
  Cd  Cd16  1  0.583284  0.577894  0.577894  1
  Cd  Cd17  1  0.578119  0.582689  0.259037  1
  Cd  Cd18  1  0.578119  0.259037  0.582689  1
  Cd  Cd19  1  0.260493  0.578781  0.578781  1
  Ir  Ir20  1  0.137239  0.149914  0.575126  1
  Ir  Ir21  1  0.137239  0.575126  0.149914  1
  Ir  Ir22  1  0.574963  0.138619  0.138619  1
  Pt  Pt23  1  0.146912  0.140664  0.140664  1
