# generated using pymatgen
data_YHo2In3Pt2Rh
_symmetry_space_group_name_H-M   'P 1'
_cell_length_a   7.69653161
_cell_length_b   7.67777681
_cell_length_c   3.82242600
_cell_angle_alpha   90.00000000
_cell_angle_beta   90.00000000
_cell_angle_gamma   119.91941868
_symmetry_Int_Tables_number   1
_chemical_formula_structural   YHo2In3Pt2Rh
_chemical_formula_sum   'Y1 Ho2 In3 Pt2 Rh1'
_cell_volume   195.77278986
_cell_formula_units_Z   1
loop_
 _symmetry_equiv_pos_site_id
 _symmetry_equiv_pos_as_xyz
  1  'x, y, z'
loop_
 _atom_site_type_symbol
 _atom_site_label
 _atom_site_symmetry_multiplicity
 _atom_site_fract_x
 _atom_site_fract_y
 _atom_site_fract_z
 _atom_site_occupancy
  Y  Y0  1  0.000000  0.404655  0.500000  1
  Ho  Ho1  1  0.595603  0.595603  0.500000  1
  Ho  Ho2  1  0.404397  0.000000  0.500000  1
  In  In3  1  0.257244  0.256923  0.000000  1
  In  In4  1  0.000000  0.743109  0.000000  1
  In  In5  1  0.742756  0.999679  0.000000  1
  Pt  Pt6  1  0.336623  0.669182  0.000000  1
  Pt  Pt7  1  0.663377  0.332558  0.000000  1
  Rh  Rh8  1  0.000000  0.998291  0.500000  1
