# generated using pymatgen
data_Ta12Cr10GaSiN4
_symmetry_space_group_name_H-M   'P 1'
_cell_length_a   8.13471547
_cell_length_b   8.08142348
_cell_length_c   8.08142300
_cell_angle_alpha   60.00000606
_cell_angle_beta   60.21648174
_cell_angle_gamma   60.21647987
_symmetry_Int_Tables_number   1
_chemical_formula_structural   Ta12Cr10GaSiN4
_chemical_formula_sum   'Ta12 Cr10 Ga1 Si1 N4'
_cell_volume   376.89157448
_cell_formula_units_Z   1
loop_
 _symmetry_equiv_pos_site_id
 _symmetry_equiv_pos_as_xyz
  1  'x, y, z'
loop_
 _atom_site_type_symbol
 _atom_site_label
 _atom_site_symmetry_multiplicity
 _atom_site_fract_x
 _atom_site_fract_y
 _atom_site_fract_z
 _atom_site_occupancy
  Ta  Ta0  1  0.807155  0.808907  0.191969  1
  Ta  Ta1  1  0.190849  0.198801  0.805175  1
  Ta  Ta2  1  0.807155  0.191969  0.808907  1
  Ta  Ta3  1  0.190849  0.805175  0.198801  1
  Ta  Ta4  1  0.190849  0.805175  0.805175  1
  Ta  Ta5  1  0.807155  0.191969  0.191969  1
  Ta  Ta6  1  0.441131  0.443453  0.057708  1
  Ta  Ta7  1  0.057707  0.046144  0.448075  1
  Ta  Ta8  1  0.441131  0.057708  0.443453  1
  Ta  Ta9  1  0.057707  0.448075  0.046144  1
  Ta  Ta10  1  0.057707  0.448075  0.448075  1
  Ta  Ta11  1  0.441131  0.057708  0.057708  1
  Cr  Cr12  1  0.623944  0.115573  0.630242  1
  Cr  Cr13  1  0.623944  0.630242  0.115573  1
  Cr  Cr14  1  0.623944  0.630242  0.630242  1
  Cr  Cr15  1  0.426781  0.733946  0.419636  1
  Cr  Cr16  1  0.426781  0.419636  0.733946  1
  Cr  Cr17  1  0.426781  0.419636  0.419636  1
  Cr  Cr18  1  0.504044  0.831985  0.831985  1
  Cr  Cr19  1  0.825251  0.513116  0.830817  1
  Cr  Cr20  1  0.825251  0.830817  0.513116  1
  Cr  Cr21  1  0.825251  0.830817  0.830817  1
  Ga  Ga22  1  0.754649  0.415117  0.415117  1
  Si  Si23  1  0.125298  0.624901  0.624901  1
  N  N24  1  0.625270  0.124910  0.124910  1
  N  N25  1  0.124097  0.625367  0.125268  1
  N  N26  1  0.124097  0.125268  0.625367  1
  N  N27  1  0.124097  0.125268  0.125268  1
