# generated using pymatgen
data_DyLu5Si2Os
_symmetry_space_group_name_H-M   'P 1'
_cell_length_a   7.56677800
_cell_length_b   7.56117293
_cell_length_c   4.28882500
_cell_angle_alpha   90.00000000
_cell_angle_beta   90.00000000
_cell_angle_gamma   120.02452490
_symmetry_Int_Tables_number   1
_chemical_formula_structural   DyLu5Si2Os
_chemical_formula_sum   'Dy1 Lu5 Si2 Os1'
_cell_volume   212.45244872
_cell_formula_units_Z   1
loop_
 _symmetry_equiv_pos_site_id
 _symmetry_equiv_pos_as_xyz
  1  'x, y, z'
loop_
 _atom_site_type_symbol
 _atom_site_label
 _atom_site_symmetry_multiplicity
 _atom_site_fract_x
 _atom_site_fract_y
 _atom_site_fract_z
 _atom_site_occupancy
  Dy  Dy0  1  0.403216  0.000000  0.000000  1
  Lu  Lu1  1  0.000369  0.401368  0.000000  1
  Lu  Lu2  1  0.599001  0.598632  0.000000  1
  Lu  Lu3  1  0.749155  0.000000  0.499999  1
  Lu  Lu4  1  0.251246  0.252658  0.499999  1
  Lu  Lu5  1  0.998588  0.747342  0.499999  1
  Si  Si6  1  0.667829  0.335333  0.499999  1
  Si  Si7  1  0.332498  0.664668  0.499999  1
  Os  Os8  1  0.998099  0.000000  0.000000  1
