# generated using pymatgen
data_Tm3MgPaNi4Hg
_symmetry_space_group_name_H-M   'P 1'
_cell_length_a   7.43936404
_cell_length_b   7.42229576
_cell_length_c   3.50289300
_cell_angle_alpha   90.00000000
_cell_angle_beta   90.00000000
_cell_angle_gamma   92.40948722
_symmetry_Int_Tables_number   1
_chemical_formula_structural   Tm3MgPaNi4Hg
_chemical_formula_sum   'Tm3 Mg1 Pa1 Ni4 Hg1'
_cell_volume   193.24879782
_cell_formula_units_Z   1
loop_
 _symmetry_equiv_pos_site_id
 _symmetry_equiv_pos_as_xyz
  1  'x, y, z'
loop_
 _atom_site_type_symbol
 _atom_site_label
 _atom_site_symmetry_multiplicity
 _atom_site_fract_x
 _atom_site_fract_y
 _atom_site_fract_z
 _atom_site_occupancy
  Tm  Tm0  1  0.318104  0.836534  0.500000  1
  Tm  Tm1  1  0.164179  0.323146  0.500000  1
  Tm  Tm2  1  0.841464  0.675404  0.500000  1
  Mg  Mg3  1  0.496738  0.508173  0.000000  1
  Pa  Pa4  1  0.673799  0.161959  0.500000  1
  Ni  Ni5  1  0.122651  0.605471  0.000000  1
  Ni  Ni6  1  0.855044  0.367814  0.000000  1
  Ni  Ni7  1  0.623032  0.886818  0.000000  1
  Ni  Ni8  1  0.398186  0.138500  0.000000  1
  Hg  Hg9  1  0.006804  0.996183  0.000000  1
