# generated using pymatgen
data_LiNd8Co2Ag
_symmetry_space_group_name_H-M   'P 1'
_cell_length_a   9.80229403
_cell_length_b   9.80847957
_cell_length_c   9.83165955
_cell_angle_alpha   59.80862278
_cell_angle_beta   59.74843194
_cell_angle_gamma   60.26702824
_symmetry_Int_Tables_number   1
_chemical_formula_structural   LiNd8Co2Ag
_chemical_formula_sum   'Li2 Nd16 Co4 Ag2'
_cell_volume   667.48555400
_cell_formula_units_Z   2
loop_
 _symmetry_equiv_pos_site_id
 _symmetry_equiv_pos_as_xyz
  1  'x, y, z'
loop_
 _atom_site_type_symbol
 _atom_site_label
 _atom_site_symmetry_multiplicity
 _atom_site_fract_x
 _atom_site_fract_y
 _atom_site_fract_z
 _atom_site_occupancy
  Li  Li0  1  0.815730  0.816182  0.828195  1
  Li  Li1  1  0.815304  0.815723  0.540781  1
  Nd  Nd2  1  0.596502  0.596936  0.596281  1
  Nd  Nd3  1  0.596225  0.596769  0.210510  1
  Nd  Nd4  1  0.597221  0.216436  0.593975  1
  Nd  Nd5  1  0.216271  0.596535  0.594056  1
  Nd  Nd6  1  0.188054  0.812597  0.811591  1
  Nd  Nd7  1  0.811677  0.189919  0.187819  1
  Nd  Nd8  1  0.812795  0.188864  0.811701  1
  Nd  Nd9  1  0.188900  0.812213  0.187932  1
  Nd  Nd10  1  0.811481  0.811396  0.187902  1
  Nd  Nd11  1  0.191818  0.190345  0.809362  1
  Nd  Nd12  1  0.064121  0.437289  0.436882  1
  Nd  Nd13  1  0.438366  0.064063  0.059827  1
  Nd  Nd14  1  0.437416  0.063820  0.436721  1
  Nd  Nd15  1  0.064294  0.438066  0.059774  1
  Nd  Nd16  1  0.444047  0.444270  0.055009  1
  Nd  Nd17  1  0.065576  0.065366  0.434227  1
  Co  Co18  1  0.392011  0.390768  0.391169  1
  Co  Co19  1  0.393043  0.393483  0.824133  1
  Co  Co20  1  0.394736  0.828699  0.389443  1
  Co  Co21  1  0.828957  0.395265  0.388812  1
  Ag  Ag22  1  0.833915  0.501636  0.831761  1
  Ag  Ag23  1  0.501538  0.833357  0.832136  1
