# generated using pymatgen
data_Dy2HoZr(Al3Ir)6
_symmetry_space_group_name_H-M   'P 1'
_cell_length_a   7.54279450
_cell_length_b   7.53383194
_cell_length_c   9.42126700
_cell_angle_alpha   90.00000000
_cell_angle_beta   90.00000000
_cell_angle_gamma   119.60595409
_symmetry_Int_Tables_number   1
_chemical_formula_structural   Dy2HoZr(Al3Ir)6
_chemical_formula_sum   'Dy2 Ho1 Zr1 Al18 Ir6'
_cell_volume   465.47775205
_cell_formula_units_Z   1
loop_
 _symmetry_equiv_pos_site_id
 _symmetry_equiv_pos_as_xyz
  1  'x, y, z'
loop_
 _atom_site_type_symbol
 _atom_site_label
 _atom_site_symmetry_multiplicity
 _atom_site_fract_x
 _atom_site_fract_y
 _atom_site_fract_z
 _atom_site_occupancy
  Dy  Dy0  1  0.005641  0.327671  0.750000  1
  Dy  Dy1  1  0.329300  0.006447  0.750000  1
  Ho  Ho2  1  0.670752  0.995647  0.250000  1
  Zr  Zr3  1  0.996812  0.672009  0.250000  1
  Al  Al4  1  0.125384  0.122998  0.250000  1
  Al  Al5  1  0.870801  0.869374  0.750000  1
  Al  Al6  1  0.000141  0.337541  0.078616  1
  Al  Al7  1  0.999272  0.665064  0.929880  1
  Al  Al8  1  0.999272  0.665064  0.570120  1
  Al  Al9  1  0.332496  0.998299  0.421229  1
  Al  Al10  1  0.000141  0.337541  0.421384  1
  Al  Al11  1  0.664665  0.998167  0.574161  1
  Al  Al12  1  0.664665  0.998167  0.925839  1
  Al  Al13  1  0.332496  0.998299  0.078771  1
  Al  Al14  1  0.333956  0.334060  0.550380  1
  Al  Al15  1  0.668927  0.667127  0.443333  1
  Al  Al16  1  0.668927  0.667127  0.056667  1
  Al  Al17  1  0.333956  0.334060  0.949620  1
  Al  Al18  1  0.335970  0.549497  0.250000  1
  Al  Al19  1  0.660947  0.452440  0.750000  1
  Al  Al20  1  0.554804  0.343951  0.250000  1
  Al  Al21  1  0.451103  0.659566  0.750000  1
  Ir  Ir22  1  0.672368  0.328169  0.000871  1
  Ir  Ir23  1  0.328007  0.672313  0.001608  1
  Ir  Ir24  1  0.328007  0.672313  0.498392  1
  Ir  Ir25  1  0.672368  0.328169  0.499129  1
  Ir  Ir26  1  0.999412  0.999459  0.000835  1
  Ir  Ir27  1  0.999412  0.999459  0.499165  1
