# generated using pymatgen
data_Th2CdCu10Sn
_symmetry_space_group_name_H-M   'P 1'
_cell_length_a   8.29944100
_cell_length_b   5.11781100
_cell_length_c   10.60800900
_cell_angle_alpha   90.00000000
_cell_angle_beta   90.00000000
_cell_angle_gamma   90.00000000
_symmetry_Int_Tables_number   1
_chemical_formula_structural   Th2CdCu10Sn
_chemical_formula_sum   'Th4 Cd2 Cu20 Sn2'
_cell_volume   450.57486874
_cell_formula_units_Z   2
loop_
 _symmetry_equiv_pos_site_id
 _symmetry_equiv_pos_as_xyz
  1  'x, y, z'
loop_
 _atom_site_type_symbol
 _atom_site_label
 _atom_site_symmetry_multiplicity
 _atom_site_fract_x
 _atom_site_fract_y
 _atom_site_fract_z
 _atom_site_occupancy
  Th  Th0  1  0.248388  0.750001  0.064993  1
  Th  Th1  1  0.748388  0.750001  0.435007  1
  Th  Th2  1  0.251718  0.250000  0.553895  1
  Th  Th3  1  0.751718  0.250000  0.946105  1
  Cd  Cd4  1  0.863980  0.750001  0.136446  1
  Cd  Cd5  1  0.363980  0.750001  0.363555  1
  Cu  Cu6  1  0.414874  0.250000  0.018161  1
  Cu  Cu7  1  0.062162  0.250000  0.105852  1
  Cu  Cu8  1  0.569468  0.501494  0.187583  1
  Cu  Cu9  1  0.569468  0.998508  0.187583  1
  Cu  Cu10  1  0.321561  0.250000  0.246902  1
  Cu  Cu11  1  0.821561  0.250000  0.253098  1
  Cu  Cu12  1  0.069468  0.501494  0.312417  1
  Cu  Cu13  1  0.069468  0.998508  0.312417  1
  Cu  Cu14  1  0.562162  0.250000  0.394148  1
  Cu  Cu15  1  0.914874  0.250000  0.481840  1
  Cu  Cu16  1  0.083568  0.750001  0.516641  1
  Cu  Cu17  1  0.436529  0.750001  0.607853  1
  Cu  Cu18  1  0.929237  0.001100  0.685890  1
  Cu  Cu19  1  0.929237  0.498900  0.685890  1
  Cu  Cu20  1  0.181322  0.750001  0.743868  1
  Cu  Cu21  1  0.681321  0.750001  0.756132  1
  Cu  Cu22  1  0.429237  0.001100  0.814110  1
  Cu  Cu23  1  0.429237  0.498900  0.814110  1
  Cu  Cu24  1  0.936529  0.750001  0.892147  1
  Cu  Cu25  1  0.583568  0.750001  0.983359  1
  Sn  Sn26  1  0.638489  0.250000  0.640821  1
  Sn  Sn27  1  0.138489  0.250000  0.859179  1
