# generated using pymatgen
data_CaNiPd3O8
_symmetry_space_group_name_H-M   'P 1'
_cell_length_a   6.14127042
_cell_length_b   10.63784043
_cell_length_c   6.57669650
_cell_angle_alpha   105.63697494
_cell_angle_beta   62.16361794
_cell_angle_gamma   89.99594662
_symmetry_Int_Tables_number   1
_chemical_formula_structural   CaNiPd3O8
_chemical_formula_sum   'Ca2 Ni2 Pd6 O16'
_cell_volume   361.85210666
_cell_formula_units_Z   2
loop_
 _symmetry_equiv_pos_site_id
 _symmetry_equiv_pos_as_xyz
  1  'x, y, z'
loop_
 _atom_site_type_symbol
 _atom_site_label
 _atom_site_symmetry_multiplicity
 _atom_site_fract_x
 _atom_site_fract_y
 _atom_site_fract_z
 _atom_site_occupancy
  Ca  Ca0  1  0.750001  0.749999  0.500000  1
  Ca  Ca1  1  0.250001  0.250001  0.499997  1
  Ni  Ni2  1  0.500000  0.499999  0.999997  1
  Ni  Ni3  1  0.000003  0.999998  0.999999  1
  Pd  Pd4  1  0.750125  0.749960  0.000001  1
  Pd  Pd5  1  0.749833  0.249946  0.999989  1
  Pd  Pd6  1  0.000003  0.500099  0.999993  1
  Pd  Pd7  1  0.250175  0.249948  0.999991  1
  Pd  Pd8  1  0.249872  0.749957  0.999999  1
  Pd  Pd9  1  0.500004  0.000093  0.999997  1
  O  O10  1  0.090581  0.636451  0.818830  1
  O  O11  1  0.590577  0.136470  0.818841  1
  O  O12  1  0.409420  0.863534  0.181168  1
  O  O13  1  0.909413  0.363548  0.181185  1
  O  O14  1  0.354564  0.881802  0.808492  1
  O  O15  1  0.854567  0.381805  0.808496  1
  O  O16  1  0.904204  0.859380  0.191549  1
  O  O17  1  0.404200  0.359385  0.191555  1
  O  O18  1  0.145446  0.618190  0.191511  1
  O  O19  1  0.645449  0.118193  0.191511  1
  O  O20  1  0.663012  0.618200  0.191536  1
  O  O21  1  0.163009  0.118205  0.191534  1
  O  O22  1  0.836975  0.881792  0.808471  1
  O  O23  1  0.336972  0.381794  0.808470  1
  O  O24  1  0.595801  0.640621  0.808447  1
  O  O25  1  0.095797  0.140628  0.808452  1
