# generated using pymatgen
data_PrMnP3Rh4
_symmetry_space_group_name_H-M   'P 1'
_cell_length_a   3.91740000
_cell_length_b   10.83727000
_cell_length_c   12.54770600
_cell_angle_alpha   90.00000000
_cell_angle_beta   90.00000000
_cell_angle_gamma   90.00000000
_symmetry_Int_Tables_number   1
_chemical_formula_structural   PrMnP3Rh4
_chemical_formula_sum   'Pr4 Mn4 P12 Rh16'
_cell_volume   532.69932550
_cell_formula_units_Z   4
loop_
 _symmetry_equiv_pos_site_id
 _symmetry_equiv_pos_as_xyz
  1  'x, y, z'
loop_
 _atom_site_type_symbol
 _atom_site_label
 _atom_site_symmetry_multiplicity
 _atom_site_fract_x
 _atom_site_fract_y
 _atom_site_fract_z
 _atom_site_occupancy
  Pr  Pr0  1  0.250000  0.582805  0.707383  1
  Pr  Pr1  1  0.250000  0.917195  0.207383  1
  Pr  Pr2  1  0.750000  0.417195  0.292617  1
  Pr  Pr3  1  0.750000  0.082805  0.792617  1
  Mn  Mn4  1  0.250000  0.463242  0.936475  1
  Mn  Mn5  1  0.250000  0.036758  0.436475  1
  Mn  Mn6  1  0.750000  0.536758  0.063525  1
  Mn  Mn7  1  0.750000  0.963242  0.563525  1
  P  P8  1  0.250000  0.428973  0.107703  1
  P  P9  1  0.250000  0.071027  0.607703  1
  P  P10  1  0.750000  0.571027  0.892297  1
  P  P11  1  0.750000  0.928973  0.392297  1
  P  P12  1  0.250000  0.273161  0.869460  1
  P  P13  1  0.250000  0.226839  0.369460  1
  P  P14  1  0.750000  0.726839  0.130540  1
  P  P15  1  0.750000  0.773161  0.630540  1
  P  P16  1  0.250000  0.603741  0.391212  1
  P  P17  1  0.250000  0.896259  0.891212  1
  P  P18  1  0.750000  0.396259  0.608788  1
  P  P19  1  0.750000  0.103741  0.108788  1
  Rh  Rh20  1  0.250000  0.713901  0.990210  1
  Rh  Rh21  1  0.250000  0.786099  0.490210  1
  Rh  Rh22  1  0.750000  0.286099  0.009790  1
  Rh  Rh23  1  0.750000  0.213901  0.509790  1
  Rh  Rh24  1  0.250000  0.407904  0.482976  1
  Rh  Rh25  1  0.250000  0.092096  0.982976  1
  Rh  Rh26  1  0.750000  0.592096  0.517024  1
  Rh  Rh27  1  0.750000  0.907904  0.017024  1
  Rh  Rh28  1  0.250000  0.228082  0.174095  1
  Rh  Rh29  1  0.250000  0.271918  0.674095  1
  Rh  Rh30  1  0.750000  0.771918  0.825905  1
  Rh  Rh31  1  0.750000  0.728082  0.325905  1
  Rh  Rh32  1  0.250000  0.880985  0.700261  1
  Rh  Rh33  1  0.250000  0.619015  0.200261  1
  Rh  Rh34  1  0.750000  0.119015  0.299739  1
  Rh  Rh35  1  0.750000  0.380985  0.799739  1
