# generated using pymatgen
data_TbLu3(ZnIr)4
_symmetry_space_group_name_H-M   'P 1'
_cell_length_a   4.01210400
_cell_length_b   6.93639091
_cell_length_c   8.04786657
_cell_angle_alpha   89.71440405
_cell_angle_beta   90.00000000
_cell_angle_gamma   90.00000000
_symmetry_Int_Tables_number   1
_chemical_formula_structural   TbLu3(ZnIr)4
_chemical_formula_sum   'Tb1 Lu3 Zn4 Ir4'
_cell_volume   223.96549502
_cell_formula_units_Z   1
loop_
 _symmetry_equiv_pos_site_id
 _symmetry_equiv_pos_as_xyz
  1  'x, y, z'
loop_
 _atom_site_type_symbol
 _atom_site_label
 _atom_site_symmetry_multiplicity
 _atom_site_fract_x
 _atom_site_fract_y
 _atom_site_fract_z
 _atom_site_occupancy
  Tb  Tb0  1  0.250000  0.535138  0.182971  1
  Lu  Lu1  1  0.750000  0.463981  0.815761  1
  Lu  Lu2  1  0.750000  0.965112  0.682043  1
  Lu  Lu3  1  0.250000  0.036595  0.320007  1
  Zn  Zn4  1  0.250000  0.639940  0.566521  1
  Zn  Zn5  1  0.750000  0.358844  0.435097  1
  Zn  Zn6  1  0.750000  0.860968  0.064543  1
  Zn  Zn7  1  0.250000  0.137961  0.933473  1
  Ir  Ir8  1  0.250000  0.757211  0.874397  1
  Ir  Ir9  1  0.750000  0.239020  0.121810  1
  Ir  Ir10  1  0.750000  0.748528  0.380509  1
  Ir  Ir11  1  0.250000  0.256702  0.622868  1
