# generated using pymatgen
data_Ho6Er2InAgRh2
_symmetry_space_group_name_H-M   'P 1'
_cell_length_a   9.57783631
_cell_length_b   9.53240191
_cell_length_c   9.53789435
_cell_angle_alpha   59.87762915
_cell_angle_beta   59.79933011
_cell_angle_gamma   59.84655984
_symmetry_Int_Tables_number   1
_chemical_formula_structural   Ho6Er2InAgRh2
_chemical_formula_sum   'Ho12 Er4 In2 Ag2 Rh4'
_cell_volume   613.53391093
_cell_formula_units_Z   2
loop_
 _symmetry_equiv_pos_site_id
 _symmetry_equiv_pos_as_xyz
  1  'x, y, z'
loop_
 _atom_site_type_symbol
 _atom_site_label
 _atom_site_symmetry_multiplicity
 _atom_site_fract_x
 _atom_site_fract_y
 _atom_site_fract_z
 _atom_site_occupancy
  Ho  Ho0  1  0.187854  0.189933  0.811422  1
  Ho  Ho1  1  0.438132  0.062108  0.061806  1
  Ho  Ho2  1  0.436821  0.059699  0.435889  1
  Ho  Ho3  1  0.067878  0.436201  0.059255  1
  Ho  Ho4  1  0.650379  0.051960  0.647423  1
  Ho  Ho5  1  0.188211  0.811538  0.811930  1
  Ho  Ho6  1  0.067526  0.059282  0.436256  1
  Ho  Ho7  1  0.808972  0.190932  0.190845  1
  Ho  Ho8  1  0.810808  0.811618  0.189701  1
  Ho  Ho9  1  0.650116  0.647379  0.052003  1
  Ho  Ho10  1  0.651634  0.648702  0.649170  1
  Ho  Ho11  1  0.065057  0.435217  0.434987  1
  Er  Er12  1  0.050036  0.649130  0.648896  1
  Er  Er13  1  0.810690  0.189717  0.811613  1
  Er  Er14  1  0.436941  0.436200  0.059461  1
  Er  Er15  1  0.188146  0.811197  0.189867  1
  In  In16  1  0.741839  0.421004  0.421175  1
  In  In17  1  0.415623  0.421351  0.421082  1
  Ag  Ag18  1  0.416282  0.749332  0.417855  1
  Ag  Ag19  1  0.416348  0.417924  0.749590  1
  Rh  Rh20  1  0.857210  0.428167  0.857386  1
  Rh  Rh21  1  0.857719  0.857299  0.428072  1
  Rh  Rh22  1  0.428298  0.856965  0.857415  1
  Rh  Rh23  1  0.857480  0.857146  0.856899  1
