# generated using pymatgen
data_Yb12Ag11Ge12Pt
_symmetry_space_group_name_H-M   'P 1'
_cell_length_a   4.55096000
_cell_length_b   7.81068367
_cell_length_c   21.28451717
_cell_angle_alpha   90.01648268
_cell_angle_beta   90.00000000
_cell_angle_gamma   90.00000000
_symmetry_Int_Tables_number   1
_chemical_formula_structural   Yb12Ag11Ge12Pt
_chemical_formula_sum   'Yb12 Ag11 Ge12 Pt1'
_cell_volume   756.58173555
_cell_formula_units_Z   1
loop_
 _symmetry_equiv_pos_site_id
 _symmetry_equiv_pos_as_xyz
  1  'x, y, z'
loop_
 _atom_site_type_symbol
 _atom_site_label
 _atom_site_symmetry_multiplicity
 _atom_site_fract_x
 _atom_site_fract_y
 _atom_site_fract_z
 _atom_site_occupancy
  Yb  Yb0  1  0.250000  0.788114  0.166181  1
  Yb  Yb1  1  0.250000  0.778125  0.500369  1
  Yb  Yb2  1  0.250000  0.712187  0.332793  1
  Yb  Yb3  1  0.750000  0.222165  0.500611  1
  Yb  Yb4  1  0.750000  0.299984  0.670094  1
  Yb  Yb5  1  0.750000  0.278164  0.999697  1
  Yb  Yb6  1  0.250000  0.783753  0.830468  1
  Yb  Yb7  1  0.250000  0.720782  0.999153  1
  Yb  Yb8  1  0.750000  0.212178  0.167312  1
  Yb  Yb9  1  0.750000  0.288385  0.333850  1
  Yb  Yb10  1  0.250000  0.703603  0.667806  1
  Yb  Yb11  1  0.750000  0.216153  0.833218  1
  Ag  Ag12  1  0.750000  0.582142  0.904189  1
  Ag  Ag13  1  0.250000  0.416540  0.434171  1
  Ag  Ag14  1  0.750000  0.584430  0.565240  1
  Ag  Ag15  1  0.750000  0.918359  0.406252  1
  Ag  Ag16  1  0.250000  0.418403  0.093642  1
  Ag  Ag17  1  0.250000  0.412559  0.238164  1
  Ag  Ag18  1  0.750000  0.912469  0.261797  1
  Ag  Ag19  1  0.250000  0.089000  0.737775  1
  Ag  Ag20  1  0.250000  0.082717  0.933372  1
  Ag  Ag21  1  0.750000  0.916349  0.065754  1
  Ag  Ag22  1  0.250000  0.082219  0.594799  1
  Ge  Ge23  1  0.250000  0.412192  0.898362  1
  Ge  Ge24  1  0.750000  0.905751  0.729824  1
  Ge  Ge25  1  0.750000  0.581901  0.229108  1
  Ge  Ge26  1  0.250000  0.088114  0.072108  1
  Ge  Ge27  1  0.750000  0.911893  0.929117  1
  Ge  Ge28  1  0.750000  0.913976  0.603719  1
  Ge  Ge29  1  0.250000  0.410462  0.570744  1
  Ge  Ge30  1  0.250000  0.087766  0.397135  1
  Ge  Ge31  1  0.250000  0.081885  0.270853  1
  Ge  Ge32  1  0.750000  0.588783  0.426936  1
  Ge  Ge33  1  0.250000  0.426881  0.772583  1
  Ge  Ge34  1  0.750000  0.586617  0.103020  1
  Pt  Pt35  1  0.750000  0.584997  0.759782  1
