# generated using pymatgen
data_Ca3Tb3Ga6(SnO6)4
_symmetry_space_group_name_H-M   'P 1'
_cell_length_a   11.04469057
_cell_length_b   11.04468931
_cell_length_c   11.04469073
_cell_angle_alpha   109.41613266
_cell_angle_beta   109.51175740
_cell_angle_gamma   109.48578908
_symmetry_Int_Tables_number   1
_chemical_formula_structural   Ca3Tb3Ga6(SnO6)4
_chemical_formula_sum   'Ca6 Tb6 Ga12 Sn8 O48'
_cell_volume   1037.14240285
_cell_formula_units_Z   2
loop_
 _symmetry_equiv_pos_site_id
 _symmetry_equiv_pos_as_xyz
  1  'x, y, z'
loop_
 _atom_site_type_symbol
 _atom_site_label
 _atom_site_symmetry_multiplicity
 _atom_site_fract_x
 _atom_site_fract_y
 _atom_site_fract_z
 _atom_site_occupancy
  Ca  Ca0  1  0.873167  0.750000  0.623167  1
  Ca  Ca1  1  0.626833  0.250000  0.876833  1
  Ca  Ca2  1  0.374795  0.124795  0.250000  1
  Ca  Ca3  1  0.626700  0.876700  0.750000  1
  Ca  Ca4  1  0.125205  0.375205  0.750000  1
  Ca  Ca5  1  0.873300  0.623300  0.250000  1
  Tb  Tb6  1  0.250000  0.373586  0.123586  1
  Tb  Tb7  1  0.750000  0.625148  0.875148  1
  Tb  Tb8  1  0.750000  0.126414  0.376414  1
  Tb  Tb9  1  0.126594  0.250000  0.376594  1
  Tb  Tb10  1  0.373406  0.750000  0.123406  1
  Tb  Tb11  1  0.250000  0.874852  0.624852  1
  Ga  Ga12  1  0.250000  0.624935  0.374935  1
  Ga  Ga13  1  0.750000  0.374945  0.624945  1
  Ga  Ga14  1  0.750000  0.875065  0.125065  1
  Ga  Ga15  1  0.376146  0.250000  0.626146  1
  Ga  Ga16  1  0.625654  0.750000  0.375654  1
  Ga  Ga17  1  0.250000  0.125055  0.875055  1
  Ga  Ga18  1  0.123854  0.750000  0.873854  1
  Ga  Ga19  1  0.874346  0.250000  0.124346  1
  Ga  Ga20  1  0.624790  0.374790  0.250000  1
  Ga  Ga21  1  0.375236  0.625236  0.750000  1
  Ga  Ga22  1  0.875210  0.125210  0.750000  1
  Ga  Ga23  1  0.124764  0.874764  0.250000  1
  Sn  Sn24  1  0.999363  0.998549  0.998789  1
  Sn  Sn25  1  0.499760  0.000572  0.501211  1
  Sn  Sn26  1  0.000240  0.501451  0.500813  1
  Sn  Sn27  1  0.501217  0.000485  0.999445  1
  Sn  Sn28  1  0.500637  0.499428  0.999187  1
  Sn  Sn29  1  0.501040  0.501772  0.500555  1
  Sn  Sn30  1  0.998783  0.998228  0.499268  1
  Sn  Sn31  1  0.998960  0.499515  0.000732  1
  O  O32  1  0.470253  0.377862  0.288259  1
  O  O33  1  0.528850  0.622903  0.711401  1
  O  O34  1  0.589603  0.181993  0.211741  1
  O  O35  1  0.910397  0.122138  0.592390  1
  O  O36  1  0.287751  0.469039  0.370978  1
  O  O37  1  0.317066  0.909415  0.287563  1
  O  O38  1  0.411502  0.817450  0.788599  1
  O  O39  1  0.088498  0.877097  0.405947  1
  O  O40  1  0.705013  0.524595  0.627533  1
  O  O41  1  0.682452  0.085562  0.705895  1
  O  O42  1  0.029747  0.318007  0.907610  1
  O  O43  1  0.212249  0.583227  0.181288  1
  O  O44  1  0.121852  0.029503  0.212437  1
  O  O45  1  0.971150  0.682550  0.094053  1
  O  O46  1  0.794987  0.422520  0.819582  1
  O  O47  1  0.879667  0.976557  0.794105  1
  O  O48  1  0.598061  0.916773  0.129022  1
  O  O49  1  0.182934  0.470497  0.592349  1
  O  O50  1  0.397063  0.077480  0.872467  1
  O  O51  1  0.817548  0.523443  0.403110  1
  O  O52  1  0.901939  0.030961  0.318712  1
  O  O53  1  0.378148  0.590585  0.907651  1
  O  O54  1  0.102937  0.975405  0.680418  1
  O  O55  1  0.620333  0.414438  0.096890  1
  O  O56  1  0.372596  0.294398  0.474245  1
  O  O57  1  0.581745  0.901648  0.370844  1
  O  O58  1  0.619830  0.707110  0.523670  1
  O  O59  1  0.411080  0.093888  0.622516  1
  O  O60  1  0.127404  0.601648  0.921802  1
  O  O61  1  0.030804  0.210902  0.129156  1
  O  O62  1  0.880170  0.403840  0.087281  1
  O  O63  1  0.971371  0.788564  0.877484  1
  O  O64  1  0.320153  0.898352  0.025755  1
  O  O65  1  0.918255  0.289098  0.319903  1
  O  O66  1  0.683441  0.096160  0.976330  1
  O  O67  1  0.088920  0.711436  0.682808  1
  O  O68  1  0.179847  0.205602  0.578198  1
  O  O69  1  0.469196  0.598352  0.180097  1
  O  O70  1  0.816559  0.792890  0.412719  1
  O  O71  1  0.528629  0.406112  0.817192  1
  O  O72  1  0.293333  0.319670  0.920766  1
  O  O73  1  0.705985  0.680950  0.078340  1
  O  O74  1  0.206667  0.127433  0.026337  1
  O  O75  1  0.794015  0.872356  0.974965  1
  O  O76  1  0.898903  0.372567  0.579234  1
  O  O77  1  0.102609  0.627644  0.421660  1
  O  O78  1  0.601097  0.180330  0.473663  1
  O  O79  1  0.397391  0.819050  0.525035  1
