# generated using pymatgen
data_PaCu2Ir(RhS4)2
_symmetry_space_group_name_H-M   'P 1'
_cell_length_a   7.29362858
_cell_length_b   6.99325915
_cell_length_c   7.31520890
_cell_angle_alpha   58.34237919
_cell_angle_beta   60.09754335
_cell_angle_gamma   58.56871636
_symmetry_Int_Tables_number   1
_chemical_formula_structural   PaCu2Ir(RhS4)2
_chemical_formula_sum   'Pa1 Cu2 Ir1 Rh2 S8'
_cell_volume   257.68656135
_cell_formula_units_Z   1
loop_
 _symmetry_equiv_pos_site_id
 _symmetry_equiv_pos_as_xyz
  1  'x, y, z'
loop_
 _atom_site_type_symbol
 _atom_site_label
 _atom_site_symmetry_multiplicity
 _atom_site_fract_x
 _atom_site_fract_y
 _atom_site_fract_z
 _atom_site_occupancy
  Pa  Pa0  1  0.625000  0.125000  0.625000  1
  Cu  Cu1  1  0.001303  0.993678  0.003718  1
  Cu  Cu2  1  0.248697  0.256322  0.246282  1
  Ir  Ir3  1  0.625000  0.625000  0.125000  1
  Rh  Rh4  1  0.625000  0.625000  0.625000  1
  Rh  Rh5  1  0.125000  0.625000  0.625000  1
  S  S6  1  0.365365  0.408342  0.860930  1
  S  S7  1  0.363152  0.411952  0.364186  1
  S  S8  1  0.886848  0.838048  0.885814  1
  S  S9  1  0.884635  0.841658  0.389070  1
  S  S10  1  0.387345  0.841536  0.383775  1
  S  S11  1  0.860712  0.411952  0.364186  1
  S  S12  1  0.389288  0.838048  0.885814  1
  S  S13  1  0.862655  0.408464  0.866225  1
