# generated using pymatgen
data_Zr3Sc17Tc6
_symmetry_space_group_name_H-M   'P 1'
_cell_length_a   8.89704380
_cell_length_b   8.89063049
_cell_length_c   8.13195604
_cell_angle_alpha   89.99999780
_cell_angle_beta   90.00939349
_cell_angle_gamma   119.97615124
_symmetry_Int_Tables_number   1
_chemical_formula_structural   Zr3Sc17Tc6
_chemical_formula_sum   'Zr3 Sc17 Tc6'
_cell_volume   557.19633716
_cell_formula_units_Z   1
loop_
 _symmetry_equiv_pos_site_id
 _symmetry_equiv_pos_as_xyz
  1  'x, y, z'
loop_
 _atom_site_type_symbol
 _atom_site_label
 _atom_site_symmetry_multiplicity
 _atom_site_fract_x
 _atom_site_fract_y
 _atom_site_fract_z
 _atom_site_occupancy
  Zr  Zr0  1  0.996072  0.998036  0.001277  1
  Zr  Zr1  1  0.403764  0.201882  0.052649  1
  Zr  Zr2  1  0.000508  0.000254  0.501148  1
  Sc  Sc3  1  0.796425  0.202970  0.054690  1
  Sc  Sc4  1  0.796424  0.593454  0.054690  1
  Sc  Sc5  1  0.095453  0.547727  0.250047  1
  Sc  Sc6  1  0.452084  0.546569  0.249237  1
  Sc  Sc7  1  0.452084  0.905516  0.249237  1
  Sc  Sc8  1  0.406033  0.203016  0.442436  1
  Sc  Sc9  1  0.796848  0.202367  0.445742  1
  Sc  Sc10  1  0.796847  0.594480  0.445742  1
  Sc  Sc11  1  0.201921  0.404390  0.554738  1
  Sc  Sc12  1  0.201920  0.797532  0.554738  1
  Sc  Sc13  1  0.595007  0.797504  0.554086  1
  Sc  Sc14  1  0.548481  0.095686  0.748878  1
  Sc  Sc15  1  0.548482  0.452795  0.748878  1
  Sc  Sc16  1  0.904931  0.452465  0.749288  1
  Sc  Sc17  1  0.201697  0.404642  0.945253  1
  Sc  Sc18  1  0.201696  0.797055  0.945253  1
  Sc  Sc19  1  0.594569  0.797285  0.943684  1
  Tc  Tc20  1  0.121555  0.238283  0.249938  1
  Tc  Tc21  1  0.121554  0.883272  0.249938  1
  Tc  Tc22  1  0.761876  0.880938  0.250921  1
  Tc  Tc23  1  0.240906  0.120453  0.757219  1
  Tc  Tc24  1  0.881431  0.119782  0.750149  1
  Tc  Tc25  1  0.881430  0.761649  0.750149  1
