# generated using pymatgen
data_Li24YEr3(BO3)12
_symmetry_space_group_name_H-M   'P 1'
_cell_length_a   16.44721809
_cell_length_b   6.67116874
_cell_length_c   7.20776081
_cell_angle_alpha   74.69490732
_cell_angle_beta   89.99983065
_cell_angle_gamma   90.01146604
_symmetry_Int_Tables_number   1
_chemical_formula_structural   Li24YEr3(BO3)12
_chemical_formula_sum   'Li24 Y1 Er3 B12 O36'
_cell_volume   762.80276290
_cell_formula_units_Z   1
loop_
 _symmetry_equiv_pos_site_id
 _symmetry_equiv_pos_as_xyz
  1  'x, y, z'
loop_
 _atom_site_type_symbol
 _atom_site_label
 _atom_site_symmetry_multiplicity
 _atom_site_fract_x
 _atom_site_fract_y
 _atom_site_fract_z
 _atom_site_occupancy
  Li  Li0  1  0.552578  0.584285  0.862762  1
  Li  Li1  1  0.052873  0.915532  0.137229  1
  Li  Li2  1  0.447273  0.415398  0.137263  1
  Li  Li3  1  0.947418  0.084681  0.862737  1
  Li  Li4  1  0.795105  0.545571  0.438406  1
  Li  Li5  1  0.295011  0.954114  0.562019  1
  Li  Li6  1  0.204997  0.454102  0.562024  1
  Li  Li7  1  0.704982  0.046277  0.438250  1
  Li  Li8  1  0.964503  0.556114  0.306398  1
  Li  Li9  1  0.464493  0.943881  0.693648  1
  Li  Li10  1  0.035550  0.443814  0.693642  1
  Li  Li11  1  0.535261  0.056294  0.306549  1
  Li  Li12  1  0.706075  0.634033  0.715320  1
  Li  Li13  1  0.206212  0.865517  0.284567  1
  Li  Li14  1  0.293790  0.365517  0.284569  1
  Li  Li15  1  0.793911  0.134835  0.714707  1
  Li  Li16  1  0.969953  0.829487  0.546422  1
  Li  Li17  1  0.469745  0.670438  0.453853  1
  Li  Li18  1  0.030137  0.170505  0.453590  1
  Li  Li19  1  0.529930  0.329523  0.546409  1
  Li  Li20  1  0.003984  0.323672  0.071328  1
  Li  Li21  1  0.503814  0.176509  0.928515  1
  Li  Li22  1  0.996150  0.676234  0.928656  1
  Li  Li23  1  0.495910  0.823746  0.071414  1
  Y  Y24  1  0.690067  0.847318  0.079716  1
  Er  Er25  1  0.810271  0.346976  0.079813  1
  Er  Er26  1  0.310019  0.152951  0.920255  1
  Er  Er27  1  0.189983  0.652928  0.920267  1
  B  B28  1  0.635786  0.338566  0.083940  1
  B  B29  1  0.135844  0.161676  0.915982  1
  B  B30  1  0.364153  0.661578  0.916085  1
  B  B31  1  0.864789  0.838150  0.084159  1
  B  B32  1  0.620800  0.000360  0.712797  1
  B  B33  1  0.121153  0.500342  0.285562  1
  B  B34  1  0.378828  0.000376  0.285563  1
  B  B35  1  0.878929  0.499559  0.714459  1
  B  B36  1  0.884685  0.189181  0.439041  1
  B  B37  1  0.384532  0.310832  0.560961  1
  B  B38  1  0.115422  0.810819  0.560998  1
  B  B39  1  0.615038  0.688605  0.440384  1
  O  O40  1  0.826291  0.029084  0.008537  1
  O  O41  1  0.325622  0.470784  0.991456  1
  O  O42  1  0.174322  0.970835  0.991428  1
  O  O43  1  0.674304  0.528442  0.005776  1
  O  O44  1  0.686175  0.166680  0.147346  1
  O  O45  1  0.185986  0.334849  0.855175  1
  O  O46  1  0.314041  0.834805  0.855227  1
  O  O47  1  0.815104  0.664041  0.145536  1
  O  O48  1  0.553032  0.323787  0.088499  1
  O  O49  1  0.053066  0.176171  0.911493  1
  O  O50  1  0.446931  0.675914  0.911763  1
  O  O51  1  0.947489  0.824228  0.088408  1
  O  O52  1  0.573818  0.958907  0.879598  1
  O  O53  1  0.074504  0.541616  0.118401  1
  O  O54  1  0.425525  0.041807  0.118423  1
  O  O55  1  0.925620  0.458296  0.881546  1
  O  O56  1  0.797126  0.441843  0.741210  1
  O  O57  1  0.297000  0.057777  0.258847  1
  O  O58  1  0.202989  0.557795  0.258904  1
  O  O59  1  0.702729  0.943654  0.738490  1
  O  O60  1  0.588287  0.087781  0.534950  1
  O  O61  1  0.088589  0.413021  0.463611  1
  O  O62  1  0.411326  0.913028  0.463655  1
  O  O63  1  0.911401  0.587090  0.536379  1
  O  O64  1  0.568186  0.771393  0.276716  1
  O  O65  1  0.068798  0.728205  0.724944  1
  O  O66  1  0.431112  0.228338  0.724966  1
  O  O67  1  0.931299  0.271516  0.275067  1
  O  O68  1  0.801574  0.228908  0.420428  1
  O  O69  1  0.301393  0.271313  0.579594  1
  O  O70  1  0.198557  0.771344  0.579623  1
  O  O71  1  0.698271  0.727381  0.422657  1
  O  O72  1  0.921429  0.076272  0.606078  1
  O  O73  1  0.421368  0.423636  0.393947  1
  O  O74  1  0.078592  0.923690  0.394036  1
  O  O75  1  0.578194  0.575468  0.607029  1
