# generated using pymatgen
data_Zr5Ge2SbH
_symmetry_space_group_name_H-M   'P 1'
_cell_length_a   8.23821528
_cell_length_b   8.23821481
_cell_length_c   8.23821570
_cell_angle_alpha   128.36166082
_cell_angle_beta   128.36165938
_cell_angle_gamma   76.03987559
_symmetry_Int_Tables_number   1
_chemical_formula_structural   Zr5Ge2SbH
_chemical_formula_sum   'Zr10 Ge4 Sb2 H2'
_cell_volume   334.20594484
_cell_formula_units_Z   2
loop_
 _symmetry_equiv_pos_site_id
 _symmetry_equiv_pos_as_xyz
  1  'x, y, z'
loop_
 _atom_site_type_symbol
 _atom_site_label
 _atom_site_symmetry_multiplicity
 _atom_site_fract_x
 _atom_site_fract_y
 _atom_site_fract_z
 _atom_site_occupancy
  Zr  Zr0  1  0.500000  0.500000  0.000000  1
  Zr  Zr1  1  0.000000  0.000000  0.000000  1
  Zr  Zr2  1  0.518530  0.018530  0.824211  1
  Zr  Zr3  1  0.194320  0.694320  0.175789  1
  Zr  Zr4  1  0.018530  0.194320  0.500000  1
  Zr  Zr5  1  0.694320  0.518530  0.500000  1
  Zr  Zr6  1  0.481470  0.981470  0.175789  1
  Zr  Zr7  1  0.805680  0.305680  0.824211  1
  Zr  Zr8  1  0.981470  0.805680  0.500000  1
  Zr  Zr9  1  0.305680  0.481470  0.500000  1
  Ge  Ge10  1  0.865374  0.365374  0.230748  1
  Ge  Ge11  1  0.134626  0.634626  0.769252  1
  Ge  Ge12  1  0.365374  0.134626  0.500000  1
  Ge  Ge13  1  0.634626  0.865374  0.500000  1
  Sb  Sb14  1  0.250000  0.250000  0.000000  1
  Sb  Sb15  1  0.750000  0.750000  0.000000  1
  H  H16  1  0.250000  0.750000  0.500000  1
  H  H17  1  0.750000  0.250000  0.500000  1
