# generated using pymatgen
data_SmInFe3P7Ru9
_symmetry_space_group_name_H-M   'P 1'
_cell_length_a   9.33193900
_cell_length_b   9.33193854
_cell_length_c   3.82667100
_cell_angle_alpha   90.00000000
_cell_angle_beta   90.00000000
_cell_angle_gamma   119.99999808
_symmetry_Int_Tables_number   1
_chemical_formula_structural   SmInFe3P7Ru9
_chemical_formula_sum   'Sm1 In1 Fe3 P7 Ru9'
_cell_volume   288.59946819
_cell_formula_units_Z   1
loop_
 _symmetry_equiv_pos_site_id
 _symmetry_equiv_pos_as_xyz
  1  'x, y, z'
loop_
 _atom_site_type_symbol
 _atom_site_label
 _atom_site_symmetry_multiplicity
 _atom_site_fract_x
 _atom_site_fract_y
 _atom_site_fract_z
 _atom_site_occupancy
  Sm  Sm0  1  0.000000  0.000000  0.000000  1
  In  In1  1  0.333333  0.666667  0.500000  1
  Fe  Fe2  1  0.807788  0.202487  0.000000  1
  Fe  Fe3  1  0.797513  0.605302  0.000000  1
  Fe  Fe4  1  0.394698  0.192212  0.000000  1
  P  P5  1  0.052367  0.421128  0.000000  1
  P  P6  1  0.578872  0.631238  0.000000  1
  P  P7  1  0.368762  0.947633  0.000000  1
  P  P8  1  0.776349  0.046250  0.500000  1
  P  P9  1  0.953750  0.730098  0.500000  1
  P  P10  1  0.269902  0.223651  0.500000  1
  P  P11  1  0.666667  0.333333  0.000000  1
  Ru  Ru12  1  0.114040  0.692360  0.000000  1
  Ru  Ru13  1  0.307640  0.421680  0.000000  1
  Ru  Ru14  1  0.578320  0.885960  0.000000  1
  Ru  Ru15  1  0.049121  0.277781  0.500000  1
  Ru  Ru16  1  0.722219  0.771339  0.500000  1
  Ru  Ru17  1  0.228661  0.950879  0.500000  1
  Ru  Ru18  1  0.874710  0.448318  0.500000  1
  Ru  Ru19  1  0.551682  0.426393  0.500000  1
  Ru  Ru20  1  0.573607  0.125290  0.500000  1
