# generated using pymatgen
data_Tb8Y4Os3Rh
_symmetry_space_group_name_H-M   'P 1'
_cell_length_a   6.41014692
_cell_length_b   7.38621744
_cell_length_c   9.17674948
_cell_angle_alpha   89.98368203
_cell_angle_beta   89.96679271
_cell_angle_gamma   90.08113862
_symmetry_Int_Tables_number   1
_chemical_formula_structural   Tb8Y4Os3Rh
_chemical_formula_sum   'Tb8 Y4 Os3 Rh1'
_cell_volume   434.48863597
_cell_formula_units_Z   1
loop_
 _symmetry_equiv_pos_site_id
 _symmetry_equiv_pos_as_xyz
  1  'x, y, z'
loop_
 _atom_site_type_symbol
 _atom_site_label
 _atom_site_symmetry_multiplicity
 _atom_site_fract_x
 _atom_site_fract_y
 _atom_site_fract_z
 _atom_site_occupancy
  Tb  Tb0  1  0.826133  0.824035  0.932953  1
  Tb  Tb1  1  0.670556  0.324303  0.935555  1
  Tb  Tb2  1  0.826052  0.824255  0.567149  1
  Tb  Tb3  1  0.333388  0.672917  0.437504  1
  Tb  Tb4  1  0.170228  0.178053  0.062522  1
  Tb  Tb5  1  0.632697  0.040726  0.250067  1
  Tb  Tb6  1  0.131335  0.461548  0.749889  1
  Tb  Tb7  1  0.366999  0.961372  0.750010  1
  Y  Y8  1  0.333222  0.673280  0.062085  1
  Y  Y9  1  0.170066  0.177915  0.438086  1
  Y  Y10  1  0.670480  0.324115  0.563917  1
  Y  Y11  1  0.867284  0.537931  0.249818  1
  Os  Os12  1  0.458877  0.382681  0.250200  1
  Os  Os13  1  0.960808  0.115343  0.750127  1
  Os  Os14  1  0.538985  0.617071  0.750286  1
  Rh  Rh15  1  0.042890  0.884454  0.249831  1
