# generated using pymatgen
data_Tb3Er9(TcIr)2
_symmetry_space_group_name_H-M   'P 1'
_cell_length_a   6.30896566
_cell_length_b   7.30342394
_cell_length_c   9.09391700
_cell_angle_alpha   90.00000000
_cell_angle_beta   90.00000000
_cell_angle_gamma   89.91663608
_symmetry_Int_Tables_number   1
_chemical_formula_structural   Tb3Er9(TcIr)2
_chemical_formula_sum   'Tb3 Er9 Tc2 Ir2'
_cell_volume   419.02043261
_cell_formula_units_Z   1
loop_
 _symmetry_equiv_pos_site_id
 _symmetry_equiv_pos_as_xyz
  1  'x, y, z'
loop_
 _atom_site_type_symbol
 _atom_site_label
 _atom_site_symmetry_multiplicity
 _atom_site_fract_x
 _atom_site_fract_y
 _atom_site_fract_z
 _atom_site_occupancy
  Tb  Tb0  1  0.874389  0.538059  0.250000  1
  Tb  Tb1  1  0.625750  0.038155  0.250000  1
  Tb  Tb2  1  0.132737  0.460059  0.750000  1
  Er  Er3  1  0.329937  0.677211  0.065266  1
  Er  Er4  1  0.170332  0.175791  0.434836  1
  Er  Er5  1  0.667802  0.323506  0.561608  1
  Er  Er6  1  0.831164  0.824216  0.938191  1
  Er  Er7  1  0.667802  0.323506  0.938392  1
  Er  Er8  1  0.831164  0.824216  0.561809  1
  Er  Er9  1  0.329937  0.677211  0.434734  1
  Er  Er10  1  0.170332  0.175791  0.065164  1
  Er  Er11  1  0.367100  0.960013  0.750000  1
  Tc  Tc12  1  0.036736  0.886422  0.250000  1
  Tc  Tc13  1  0.463121  0.386235  0.250000  1
  Ir  Ir14  1  0.956082  0.113442  0.750000  1
  Ir  Ir15  1  0.545615  0.616166  0.750000  1
