# generated using pymatgen
data_Nd3NiP6N13
_symmetry_space_group_name_H-M   'P 1'
_cell_length_a   7.38513032
_cell_length_b   7.38513160
_cell_length_c   7.38513200
_cell_angle_alpha   108.97479798
_cell_angle_beta   108.97479320
_cell_angle_gamma   108.97478782
_symmetry_Int_Tables_number   1
_chemical_formula_structural   Nd3NiP6N13
_chemical_formula_sum   'Nd3 Ni1 P6 N13'
_cell_volume   315.63529323
_cell_formula_units_Z   1
loop_
 _symmetry_equiv_pos_site_id
 _symmetry_equiv_pos_as_xyz
  1  'x, y, z'
loop_
 _atom_site_type_symbol
 _atom_site_label
 _atom_site_symmetry_multiplicity
 _atom_site_fract_x
 _atom_site_fract_y
 _atom_site_fract_z
 _atom_site_occupancy
  Nd  Nd0  1  0.691488  0.020427  0.020427  1
  Nd  Nd1  1  0.020427  0.020427  0.691488  1
  Nd  Nd2  1  0.020427  0.691488  0.020427  1
  Ni  Ni3  1  0.188509  0.188509  0.188509  1
  P  P4  1  0.254050  0.755775  0.507470  1
  P  P5  1  0.755775  0.254050  0.507470  1
  P  P6  1  0.755775  0.507470  0.254050  1
  P  P7  1  0.254050  0.507470  0.755775  1
  P  P8  1  0.507470  0.755775  0.254050  1
  P  P9  1  0.507470  0.254050  0.755775  1
  N  N10  1  0.949759  0.949759  0.949759  1
  N  N11  1  0.747255  0.321552  0.321552  1
  N  N12  1  0.321552  0.747255  0.321552  1
  N  N13  1  0.291211  0.588789  0.588789  1
  N  N14  1  0.588789  0.588789  0.291211  1
  N  N15  1  0.394561  0.720546  0.002719  1
  N  N16  1  0.002719  0.720546  0.394561  1
  N  N17  1  0.588789  0.291211  0.588789  1
  N  N18  1  0.720546  0.002719  0.394561  1
  N  N19  1  0.394561  0.002719  0.720546  1
  N  N20  1  0.720546  0.394561  0.002719  1
  N  N21  1  0.321552  0.321552  0.747255  1
  N  N22  1  0.002719  0.394561  0.720546  1
