# generated using pymatgen
data_Y6TlTe2
_symmetry_space_group_name_H-M   'P 1'
_cell_length_a   4.16641100
_cell_length_b   11.73385600
_cell_length_c   21.98936500
_cell_angle_alpha   90.00000000
_cell_angle_beta   90.00000000
_cell_angle_gamma   90.00000000
_symmetry_Int_Tables_number   1
_chemical_formula_structural   Y6TlTe2
_chemical_formula_sum   'Y24 Tl4 Te8'
_cell_volume   1075.01754305
_cell_formula_units_Z   4
loop_
 _symmetry_equiv_pos_site_id
 _symmetry_equiv_pos_as_xyz
  1  'x, y, z'
loop_
 _atom_site_type_symbol
 _atom_site_label
 _atom_site_symmetry_multiplicity
 _atom_site_fract_x
 _atom_site_fract_y
 _atom_site_fract_z
 _atom_site_occupancy
  Y  Y0  1  0.250000  0.337450  0.110017  1
  Y  Y1  1  0.750000  0.662550  0.889983  1
  Y  Y2  1  0.750000  0.837450  0.389983  1
  Y  Y3  1  0.250000  0.162550  0.610017  1
  Y  Y4  1  0.250000  0.030168  0.162439  1
  Y  Y5  1  0.750000  0.969832  0.837561  1
  Y  Y6  1  0.750000  0.530168  0.337561  1
  Y  Y7  1  0.250000  0.469832  0.662439  1
  Y  Y8  1  0.250000  0.752425  0.267144  1
  Y  Y9  1  0.750000  0.247575  0.732856  1
  Y  Y10  1  0.750000  0.252425  0.232856  1
  Y  Y11  1  0.250000  0.747575  0.767144  1
  Y  Y12  1  0.250000  0.374417  0.468621  1
  Y  Y13  1  0.750000  0.625583  0.531379  1
  Y  Y14  1  0.750000  0.874417  0.031379  1
  Y  Y15  1  0.250000  0.125583  0.968621  1
  Y  Y16  1  0.250000  0.075432  0.354694  1
  Y  Y17  1  0.750000  0.924568  0.645306  1
  Y  Y18  1  0.750000  0.575432  0.145306  1
  Y  Y19  1  0.250000  0.424568  0.854694  1
  Y  Y20  1  0.250000  0.611271  0.012664  1
  Y  Y21  1  0.750000  0.388729  0.987336  1
  Y  Y22  1  0.750000  0.111271  0.487336  1
  Y  Y23  1  0.250000  0.888729  0.512664  1
  Tl  Tl24  1  0.250000  0.638603  0.424618  1
  Tl  Tl25  1  0.750000  0.361397  0.575382  1
  Tl  Tl26  1  0.750000  0.138603  0.075382  1
  Tl  Tl27  1  0.250000  0.861397  0.924618  1
  Te  Te28  1  0.250000  0.464794  0.236905  1
  Te  Te29  1  0.750000  0.535206  0.763095  1
  Te  Te30  1  0.750000  0.964794  0.263095  1
  Te  Te31  1  0.250000  0.035206  0.736905  1
  Te  Te32  1  0.250000  0.776328  0.126161  1
  Te  Te33  1  0.750000  0.223672  0.873839  1
  Te  Te34  1  0.750000  0.276328  0.373839  1
  Te  Te35  1  0.250000  0.723672  0.626161  1
