# generated using pymatgen
data_Dy5Er3Re3B24Rh
_symmetry_space_group_name_H-M   'P 1'
_cell_length_a   3.67186600
_cell_length_b   9.14767950
_cell_length_c   11.53023002
_cell_angle_alpha   90.15820226
_cell_angle_beta   90.00000000
_cell_angle_gamma   90.00000000
_symmetry_Int_Tables_number   1
_chemical_formula_structural   Dy5Er3Re3B24Rh
_chemical_formula_sum   'Dy5 Er3 Re3 B24 Rh1'
_cell_volume   387.28803495
_cell_formula_units_Z   1
loop_
 _symmetry_equiv_pos_site_id
 _symmetry_equiv_pos_as_xyz
  1  'x, y, z'
loop_
 _atom_site_type_symbol
 _atom_site_label
 _atom_site_symmetry_multiplicity
 _atom_site_fract_x
 _atom_site_fract_y
 _atom_site_fract_z
 _atom_site_occupancy
  Dy  Dy0  1  0.000000  0.318548  0.415420  1
  Dy  Dy1  1  0.000000  0.678312  0.591001  1
  Dy  Dy2  1  0.000000  0.826673  0.081500  1
  Dy  Dy3  1  0.000000  0.177402  0.912704  1
  Dy  Dy4  1  0.000000  0.943329  0.370189  1
  Er  Er5  1  0.000000  0.055854  0.629100  1
  Er  Er6  1  0.000000  0.441532  0.128866  1
  Er  Er7  1  0.000000  0.556524  0.871560  1
  Re  Re8  1  0.000000  0.362251  0.677922  1
  Re  Re9  1  0.000000  0.138994  0.179860  1
  Re  Re10  1  0.000000  0.861422  0.820818  1
  B  B11  1  0.500000  0.554150  0.433567  1
  B  B12  1  0.500000  0.446491  0.566688  1
  B  B13  1  0.500000  0.053604  0.066651  1
  B  B14  1  0.500000  0.946882  0.932654  1
  B  B15  1  0.500000  0.748896  0.420231  1
  B  B16  1  0.500000  0.250204  0.581017  1
  B  B17  1  0.500000  0.249724  0.081324  1
  B  B18  1  0.500000  0.751189  0.918837  1
  B  B19  1  0.500000  0.790792  0.264961  1
  B  B20  1  0.500000  0.208194  0.734056  1
  B  B21  1  0.500000  0.292213  0.235127  1
  B  B22  1  0.500000  0.707955  0.765881  1
  B  B23  1  0.500000  0.631668  0.184011  1
  B  B24  1  0.500000  0.369570  0.814185  1
  B  B25  1  0.500000  0.131133  0.314766  1
  B  B26  1  0.500000  0.868610  0.685439  1
  B  B27  1  0.500000  0.983200  0.211791  1
  B  B28  1  0.500000  0.017337  0.786904  1
  B  B29  1  0.500000  0.483284  0.287832  1
  B  B30  1  0.500000  0.518087  0.712515  1
  B  B31  1  0.500000  0.603216  0.029216  1
  B  B32  1  0.500000  0.397998  0.972234  1
  B  B33  1  0.500000  0.101894  0.471502  1
  B  B34  1  0.500000  0.895345  0.528635  1
  Rh  Rh35  1  0.000000  0.637524  0.321031  1
