# generated using pymatgen
data_KInMo(PO4)3
_symmetry_space_group_name_H-M   'P 1'
_cell_length_a   8.99273900
_cell_length_b   9.35349300
_cell_length_c   12.76682300
_cell_angle_alpha   90.00000000
_cell_angle_beta   90.00000000
_cell_angle_gamma   90.00000000
_symmetry_Int_Tables_number   1
_chemical_formula_structural   KInMo(PO4)3
_chemical_formula_sum   'K4 In4 Mo4 P12 O48'
_cell_volume   1073.86243818
_cell_formula_units_Z   4
loop_
 _symmetry_equiv_pos_site_id
 _symmetry_equiv_pos_as_xyz
  1  'x, y, z'
loop_
 _atom_site_type_symbol
 _atom_site_label
 _atom_site_symmetry_multiplicity
 _atom_site_fract_x
 _atom_site_fract_y
 _atom_site_fract_z
 _atom_site_occupancy
  K  K0  1  0.826070  0.088658  0.749876  1
  K  K1  1  0.173930  0.411342  0.249876  1
  K  K2  1  0.826070  0.911342  0.250124  1
  K  K3  1  0.173930  0.588658  0.750124  1
  In  In4  1  0.754140  0.279862  0.411822  1
  In  In5  1  0.245860  0.220138  0.911822  1
  In  In6  1  0.754140  0.720138  0.588178  1
  In  In7  1  0.245860  0.779862  0.088178  1
  Mo  Mo8  1  0.247527  0.221397  0.604695  1
  Mo  Mo9  1  0.752473  0.278603  0.104695  1
  Mo  Mo10  1  0.247527  0.778603  0.395305  1
  Mo  Mo11  1  0.752473  0.721397  0.895305  1
  P  P12  1  0.970986  0.000000  0.500000  1
  P  P13  1  0.029014  0.500000  0.000000  1
  P  P14  1  0.037155  0.500000  0.500000  1
  P  P15  1  0.962845  0.000000  0.000000  1
  P  P16  1  0.408764  0.885128  0.627837  1
  P  P17  1  0.591236  0.614872  0.127837  1
  P  P18  1  0.408764  0.114872  0.372163  1
  P  P19  1  0.591236  0.385128  0.872163  1
  P  P20  1  0.596812  0.617831  0.361434  1
  P  P21  1  0.403188  0.882169  0.861434  1
  P  P22  1  0.596812  0.382169  0.638566  1
  P  P23  1  0.403188  0.117831  0.138566  1
  O  O24  1  0.141591  0.404194  0.567426  1
  O  O25  1  0.858409  0.095806  0.067426  1
  O  O26  1  0.141591  0.595806  0.432574  1
  O  O27  1  0.858409  0.904194  0.932574  1
  O  O28  1  0.878021  0.083686  0.419506  1
  O  O29  1  0.121979  0.416314  0.919506  1
  O  O30  1  0.878021  0.916314  0.580494  1
  O  O31  1  0.121979  0.583686  0.080494  1
  O  O32  1  0.066880  0.105116  0.565459  1
  O  O33  1  0.933120  0.394884  0.065459  1
  O  O34  1  0.066880  0.894884  0.434541  1
  O  O35  1  0.933120  0.605116  0.934541  1
  O  O36  1  0.947659  0.412445  0.420260  1
  O  O37  1  0.052341  0.087555  0.920260  1
  O  O38  1  0.947659  0.587555  0.579740  1
  O  O39  1  0.052341  0.912445  0.079740  1
  O  O40  1  0.197760  0.227732  0.738305  1
  O  O41  1  0.802240  0.272268  0.238305  1
  O  O42  1  0.197760  0.772268  0.261695  1
  O  O43  1  0.802240  0.727732  0.761695  1
  O  O44  1  0.377360  0.045764  0.619844  1
  O  O45  1  0.622640  0.454236  0.119844  1
  O  O46  1  0.377360  0.954236  0.380156  1
  O  O47  1  0.622640  0.545764  0.880156  1
  O  O48  1  0.613731  0.457645  0.372893  1
  O  O49  1  0.386269  0.042355  0.872893  1
  O  O50  1  0.613731  0.542355  0.627107  1
  O  O51  1  0.386269  0.957645  0.127107  1
  O  O52  1  0.311227  0.206801  0.444375  1
  O  O53  1  0.688773  0.293199  0.944375  1
  O  O54  1  0.311227  0.793199  0.555625  1
  O  O55  1  0.688773  0.706801  0.055625  1
  O  O56  1  0.702290  0.287847  0.575207  1
  O  O57  1  0.297710  0.212153  0.075207  1
  O  O58  1  0.702290  0.712153  0.424793  1
  O  O59  1  0.297710  0.787847  0.924793  1
  O  O60  1  0.352393  0.835094  0.742968  1
  O  O61  1  0.647607  0.664906  0.242968  1
  O  O62  1  0.352393  0.164906  0.257032  1
  O  O63  1  0.647607  0.335094  0.757032  1
  O  O64  1  0.431464  0.345236  0.626976  1
  O  O65  1  0.568536  0.154764  0.126976  1
  O  O66  1  0.431464  0.654764  0.373024  1
  O  O67  1  0.568536  0.845236  0.873024  1
  O  O68  1  0.574432  0.137914  0.378886  1
  O  O69  1  0.425568  0.362086  0.878886  1
  O  O70  1  0.574432  0.862086  0.621114  1
  O  O71  1  0.425568  0.637914  0.121114  1
