# generated using pymatgen
data_Zr4CoHgN
_symmetry_space_group_name_H-M   'P 1'
_cell_length_a   8.86916368
_cell_length_b   8.86833273
_cell_length_c   8.86770900
_cell_angle_alpha   59.99937401
_cell_angle_beta   60.00269344
_cell_angle_gamma   60.00512301
_symmetry_Int_Tables_number   1
_chemical_formula_structural   Zr4CoHgN
_chemical_formula_sum   'Zr16 Co4 Hg4 N4'
_cell_volume   493.22454557
_cell_formula_units_Z   4
loop_
 _symmetry_equiv_pos_site_id
 _symmetry_equiv_pos_as_xyz
  1  'x, y, z'
loop_
 _atom_site_type_symbol
 _atom_site_label
 _atom_site_symmetry_multiplicity
 _atom_site_fract_x
 _atom_site_fract_y
 _atom_site_fract_z
 _atom_site_occupancy
  Zr  Zr0  1  0.048595  0.650504  0.650426  1
  Zr  Zr1  1  0.650568  0.048666  0.650357  1
  Zr  Zr2  1  0.650529  0.650398  0.048703  1
  Zr  Zr3  1  0.650555  0.650422  0.650343  1
  Zr  Zr4  1  0.819299  0.819295  0.180718  1
  Zr  Zr5  1  0.180662  0.180785  0.819276  1
  Zr  Zr6  1  0.819294  0.180698  0.819288  1
  Zr  Zr7  1  0.180629  0.819284  0.180804  1
  Zr  Zr8  1  0.180648  0.819280  0.819279  1
  Zr  Zr9  1  0.819297  0.180680  0.180731  1
  Zr  Zr10  1  0.431744  0.431738  0.068263  1
  Zr  Zr11  1  0.068252  0.068257  0.431747  1
  Zr  Zr12  1  0.431745  0.068257  0.431741  1
  Zr  Zr13  1  0.068250  0.431745  0.068260  1
  Zr  Zr14  1  0.068253  0.431744  0.431747  1
  Zr  Zr15  1  0.431744  0.068256  0.068263  1
  Co  Co16  1  0.434339  0.855220  0.855221  1
  Co  Co17  1  0.855212  0.434358  0.855216  1
  Co  Co18  1  0.855207  0.855212  0.434369  1
  Co  Co19  1  0.855209  0.855213  0.855214  1
  Hg  Hg20  1  0.753533  0.415488  0.415490  1
  Hg  Hg21  1  0.415489  0.753529  0.415491  1
  Hg  Hg22  1  0.415490  0.415491  0.753527  1
  Hg  Hg23  1  0.415489  0.415490  0.415492  1
  N  N24  1  0.622293  0.125893  0.125914  1
  N  N25  1  0.125887  0.622287  0.125919  1
  N  N26  1  0.125896  0.125909  0.622280  1
  N  N27  1  0.125890  0.125903  0.125922  1
