# generated using pymatgen
data_Dy4Zn4IrRh3
_symmetry_space_group_name_H-M   'P 1'
_cell_length_a   4.04735800
_cell_length_b   6.98732796
_cell_length_c   8.10752013
_cell_angle_alpha   90.06029050
_cell_angle_beta   90.00000000
_cell_angle_gamma   90.00000000
_symmetry_Int_Tables_number   1
_chemical_formula_structural   Dy4Zn4IrRh3
_chemical_formula_sum   'Dy4 Zn4 Ir1 Rh3'
_cell_volume   229.28230750
_cell_formula_units_Z   1
loop_
 _symmetry_equiv_pos_site_id
 _symmetry_equiv_pos_as_xyz
  1  'x, y, z'
loop_
 _atom_site_type_symbol
 _atom_site_label
 _atom_site_symmetry_multiplicity
 _atom_site_fract_x
 _atom_site_fract_y
 _atom_site_fract_z
 _atom_site_occupancy
  Dy  Dy0  1  0.250000  0.539875  0.184823  1
  Dy  Dy1  1  0.750000  0.461899  0.815882  1
  Dy  Dy2  1  0.250000  0.036101  0.316266  1
  Dy  Dy3  1  0.750000  0.961012  0.683314  1
  Zn  Zn4  1  0.250000  0.136394  0.936280  1
  Zn  Zn5  1  0.750000  0.863815  0.064216  1
  Zn  Zn6  1  0.250000  0.636667  0.564293  1
  Zn  Zn7  1  0.750000  0.363391  0.436126  1
  Ir  Ir8  1  0.750000  0.744297  0.376494  1
  Rh  Rh9  1  0.250000  0.255588  0.623304  1
  Rh  Rh10  1  0.750000  0.245321  0.121952  1
  Rh  Rh11  1  0.250000  0.755641  0.877051  1
