# generated using pymatgen
data_Pr3Nd8In9Ni4
_symmetry_space_group_name_H-M   'P 1'
_cell_length_a   13.43618372
_cell_length_b   13.43618280
_cell_length_c   3.77500500
_cell_angle_alpha   90.00000000
_cell_angle_beta   90.00000000
_cell_angle_gamma   111.22020745
_symmetry_Int_Tables_number   1
_chemical_formula_structural   Pr3Nd8In9Ni4
_chemical_formula_sum   'Pr3 Nd8 In9 Ni4'
_cell_volume   635.29684434
_cell_formula_units_Z   1
loop_
 _symmetry_equiv_pos_site_id
 _symmetry_equiv_pos_as_xyz
  1  'x, y, z'
loop_
 _atom_site_type_symbol
 _atom_site_label
 _atom_site_symmetry_multiplicity
 _atom_site_fract_x
 _atom_site_fract_y
 _atom_site_fract_z
 _atom_site_occupancy
  Pr  Pr0  1  0.873726  0.126274  0.500000  1
  Pr  Pr1  1  0.340958  0.659042  0.500000  1
  Pr  Pr2  1  0.659019  0.340981  0.500000  1
  Nd  Nd3  1  0.499998  0.500002  0.500000  1
  Nd  Nd4  1  0.812935  0.812743  0.500000  1
  Nd  Nd5  1  0.187257  0.187065  0.500000  1
  Nd  Nd6  1  0.577322  0.919026  0.500000  1
  Nd  Nd7  1  0.422413  0.080789  0.500000  1
  Nd  Nd8  1  0.919211  0.577587  0.500000  1
  Nd  Nd9  1  0.080974  0.422678  0.500000  1
  Nd  Nd10  1  0.126264  0.873736  0.500000  1
  In  In11  1  0.338008  0.868605  0.000000  1
  In  In12  1  0.661300  0.131405  0.000000  1
  In  In13  1  0.868595  0.338700  0.000000  1
  In  In14  1  0.131395  0.661992  0.000000  1
  In  In15  1  0.580410  0.721061  0.000000  1
  In  In16  1  0.419611  0.278907  0.000000  1
  In  In17  1  0.721093  0.580389  0.000000  1
  In  In18  1  0.278939  0.419590  0.000000  1
  In  In19  1  0.000397  0.999603  0.000000  1
  Ni  Ni20  1  0.745554  0.948103  0.000000  1
  Ni  Ni21  1  0.253903  0.051178  0.000000  1
  Ni  Ni22  1  0.948822  0.746097  0.000000  1
  Ni  Ni23  1  0.051897  0.254446  0.000000  1
