# generated using pymatgen
data_Na2TlSbSe3
_symmetry_space_group_name_H-M   'P 1'
_cell_length_a   9.54805900
_cell_length_b   9.54805900
_cell_length_c   9.54805900
_cell_angle_alpha   90.00000000
_cell_angle_beta   90.00000000
_cell_angle_gamma   90.00000000
_symmetry_Int_Tables_number   1
_chemical_formula_structural   Na2TlSbSe3
_chemical_formula_sum   'Na8 Tl4 Sb4 Se12'
_cell_volume   870.45291077
_cell_formula_units_Z   4
loop_
 _symmetry_equiv_pos_site_id
 _symmetry_equiv_pos_as_xyz
  1  'x, y, z'
loop_
 _atom_site_type_symbol
 _atom_site_label
 _atom_site_symmetry_multiplicity
 _atom_site_fract_x
 _atom_site_fract_y
 _atom_site_fract_z
 _atom_site_occupancy
  Na  Na0  1  0.181031  0.681031  0.818969  1
  Na  Na1  1  0.681031  0.818969  0.181031  1
  Na  Na2  1  0.818969  0.181031  0.681031  1
  Na  Na3  1  0.318969  0.318969  0.318969  1
  Na  Na4  1  0.689236  0.189236  0.310764  1
  Na  Na5  1  0.189236  0.310764  0.689236  1
  Na  Na6  1  0.310764  0.689236  0.189236  1
  Na  Na7  1  0.810764  0.810764  0.810764  1
  Tl  Tl8  1  0.919871  0.419871  0.080129  1
  Tl  Tl9  1  0.419871  0.080129  0.919871  1
  Tl  Tl10  1  0.080129  0.919871  0.419871  1
  Tl  Tl11  1  0.580129  0.580129  0.580129  1
  Sb  Sb12  1  0.468581  0.968581  0.531419  1
  Sb  Sb13  1  0.968581  0.531419  0.468581  1
  Sb  Sb14  1  0.531419  0.468581  0.968581  1
  Sb  Sb15  1  0.031419  0.031419  0.031419  1
  Se  Se16  1  0.002993  0.768683  0.099631  1
  Se  Se17  1  0.900369  0.502993  0.731317  1
  Se  Se18  1  0.268683  0.400369  0.997007  1
  Se  Se19  1  0.502993  0.731317  0.900369  1
  Se  Se20  1  0.400369  0.997007  0.268683  1
  Se  Se21  1  0.768683  0.099631  0.002993  1
  Se  Se22  1  0.997007  0.268683  0.400369  1
  Se  Se23  1  0.099631  0.002993  0.768683  1
  Se  Se24  1  0.731317  0.900369  0.502993  1
  Se  Se25  1  0.497007  0.231317  0.599631  1
  Se  Se26  1  0.599631  0.497007  0.231317  1
  Se  Se27  1  0.231317  0.599631  0.497007  1
