# generated using pymatgen
data_Sr8SbRhO12
_symmetry_space_group_name_H-M   'P 1'
_cell_length_a   6.97769420
_cell_length_b   6.97769596
_cell_length_c   6.97769457
_cell_angle_alpha   90.28859735
_cell_angle_beta   90.28860520
_cell_angle_gamma   90.28860233
_symmetry_Int_Tables_number   1
_chemical_formula_structural   Sr8SbRhO12
_chemical_formula_sum   'Sr8 Sb1 Rh1 O12'
_cell_volume   339.71861560
_cell_formula_units_Z   1
loop_
 _symmetry_equiv_pos_site_id
 _symmetry_equiv_pos_as_xyz
  1  'x, y, z'
loop_
 _atom_site_type_symbol
 _atom_site_label
 _atom_site_symmetry_multiplicity
 _atom_site_fract_x
 _atom_site_fract_y
 _atom_site_fract_z
 _atom_site_occupancy
  Sr  Sr0  1  0.878007  0.608915  0.260654  1
  Sr  Sr1  1  0.121993  0.391085  0.739346  1
  Sr  Sr2  1  0.260654  0.878007  0.608915  1
  Sr  Sr3  1  0.608915  0.260654  0.878007  1
  Sr  Sr4  1  0.741849  0.741849  0.741849  1
  Sr  Sr5  1  0.391085  0.739346  0.121993  1
  Sr  Sr6  1  0.258151  0.258151  0.258151  1
  Sr  Sr7  1  0.739346  0.121993  0.391085  1
  Sb  Sb8  1  0.000000  0.000000  0.000000  1
  Rh  Rh9  1  0.500000  0.500000  0.500000  1
  O  O10  1  0.438100  0.577999  0.789905  1
  O  O11  1  0.577999  0.789905  0.438100  1
  O  O12  1  0.947908  0.280117  0.067633  1
  O  O13  1  0.561900  0.422001  0.210095  1
  O  O14  1  0.210095  0.561900  0.422001  1
  O  O15  1  0.052092  0.719883  0.932367  1
  O  O16  1  0.789905  0.438100  0.577999  1
  O  O17  1  0.719883  0.932367  0.052092  1
  O  O18  1  0.067633  0.947908  0.280117  1
  O  O19  1  0.932367  0.052092  0.719883  1
  O  O20  1  0.422001  0.210095  0.561900  1
  O  O21  1  0.280117  0.067633  0.947908  1
