# generated using pymatgen
data_Ba8UAsSe12
_symmetry_space_group_name_H-M   'P 1'
_cell_length_a   9.00445255
_cell_length_b   9.00445309
_cell_length_c   9.00445347
_cell_angle_alpha   89.47082931
_cell_angle_beta   89.47083296
_cell_angle_gamma   89.47084397
_symmetry_Int_Tables_number   1
_chemical_formula_structural   Ba8UAsSe12
_chemical_formula_sum   'Ba8 U1 As1 Se12'
_cell_volume   729.98978490
_cell_formula_units_Z   1
loop_
 _symmetry_equiv_pos_site_id
 _symmetry_equiv_pos_as_xyz
  1  'x, y, z'
loop_
 _atom_site_type_symbol
 _atom_site_label
 _atom_site_symmetry_multiplicity
 _atom_site_fract_x
 _atom_site_fract_y
 _atom_site_fract_z
 _atom_site_occupancy
  Ba  Ba0  1  0.867606  0.621462  0.257992  1
  Ba  Ba1  1  0.257992  0.867606  0.621462  1
  Ba  Ba2  1  0.621462  0.257992  0.867606  1
  Ba  Ba3  1  0.742008  0.132394  0.378538  1
  Ba  Ba4  1  0.378538  0.742008  0.132394  1
  Ba  Ba5  1  0.132394  0.378538  0.742008  1
  Ba  Ba6  1  0.257148  0.257148  0.257148  1
  Ba  Ba7  1  0.742852  0.742852  0.742852  1
  U  U8  1  0.000000  0.000000  0.000000  1
  As  As9  1  0.500000  0.500000  0.500000  1
  Se  Se10  1  0.204936  0.563546  0.425507  1
  Se  Se11  1  0.425507  0.204936  0.563546  1
  Se  Se12  1  0.563546  0.425507  0.204936  1
  Se  Se13  1  0.926916  0.058723  0.706427  1
  Se  Se14  1  0.706427  0.926916  0.058723  1
  Se  Se15  1  0.058723  0.706427  0.926916  1
  Se  Se16  1  0.795064  0.436454  0.574493  1
  Se  Se17  1  0.574493  0.795064  0.436454  1
  Se  Se18  1  0.436454  0.574493  0.795064  1
  Se  Se19  1  0.073084  0.941277  0.293573  1
  Se  Se20  1  0.293573  0.073084  0.941277  1
  Se  Se21  1  0.941277  0.293573  0.073084  1
