# generated using pymatgen
data_Cs7K9(SiSe4)4
_symmetry_space_group_name_H-M   'P 1'
_cell_length_a   8.36247178
_cell_length_b   10.06661775
_cell_length_c   15.26884000
_cell_angle_alpha   90.40834601
_cell_angle_beta   90.49870907
_cell_angle_gamma   90.41379741
_symmetry_Int_Tables_number   1
_chemical_formula_structural   Cs7K9(SiSe4)4
_chemical_formula_sum   'Cs7 K9 Si4 Se16'
_cell_volume   1285.24310399
_cell_formula_units_Z   1
loop_
 _symmetry_equiv_pos_site_id
 _symmetry_equiv_pos_as_xyz
  1  'x, y, z'
loop_
 _atom_site_type_symbol
 _atom_site_label
 _atom_site_symmetry_multiplicity
 _atom_site_fract_x
 _atom_site_fract_y
 _atom_site_fract_z
 _atom_site_occupancy
  Cs  Cs0  1  0.000000  0.000000  0.000000  1
  Cs  Cs1  1  0.500000  0.000000  0.500000  1
  Cs  Cs2  1  0.000000  0.500000  0.000000  1
  Cs  Cs3  1  0.008069  0.750742  0.427201  1
  Cs  Cs4  1  0.504167  0.249781  0.076003  1
  Cs  Cs5  1  0.991931  0.249258  0.572799  1
  Cs  Cs6  1  0.495833  0.750219  0.923997  1
  K  K7  1  0.500000  0.500000  0.500000  1
  K  K8  1  0.832168  0.050320  0.272021  1
  K  K9  1  0.332829  0.952222  0.230882  1
  K  K10  1  0.160931  0.544633  0.724743  1
  K  K11  1  0.664340  0.449496  0.769380  1
  K  K12  1  0.167832  0.949680  0.727979  1
  K  K13  1  0.667171  0.047778  0.769118  1
  K  K14  1  0.839069  0.455367  0.275257  1
  K  K15  1  0.335660  0.550504  0.230620  1
  Si  Si16  1  0.763493  0.746073  0.670523  1
  Si  Si17  1  0.236507  0.253927  0.329477  1
  Si  Si18  1  0.727825  0.749914  0.175620  1
  Si  Si19  1  0.272175  0.250086  0.824380  1
  Se  Se20  1  0.994514  0.248905  0.818452  1
  Se  Se21  1  0.513631  0.253296  0.325096  1
  Se  Se22  1  0.486369  0.746704  0.674904  1
  Se  Se23  1  0.005486  0.751095  0.181548  1
  Se  Se24  1  0.638029  0.565076  0.103371  1
  Se  Se25  1  0.157739  0.439602  0.403658  1
  Se  Se26  1  0.362522  0.066628  0.896043  1
  Se  Se27  1  0.860265  0.930387  0.602513  1
  Se  Se28  1  0.361971  0.434924  0.896629  1
  Se  Se29  1  0.842261  0.560398  0.596342  1
  Se  Se30  1  0.637478  0.933372  0.103957  1
  Se  Se31  1  0.139735  0.069613  0.397487  1
  Se  Se32  1  0.624821  0.750749  0.316453  1
  Se  Se33  1  0.127379  0.255249  0.188668  1
  Se  Se34  1  0.375179  0.249251  0.683547  1
  Se  Se35  1  0.872621  0.744751  0.811332  1
