# generated using pymatgen
data_Ho6ZnNiRh
_symmetry_space_group_name_H-M   'P 1'
_cell_length_a   8.32627666
_cell_length_b   8.32642788
_cell_length_c   8.32627534
_cell_angle_alpha   112.26467558
_cell_angle_beta   110.24720784
_cell_angle_gamma   105.96386419
_symmetry_Int_Tables_number   1
_chemical_formula_structural   Ho6ZnNiRh
_chemical_formula_sum   'Ho12 Zn2 Ni2 Rh2'
_cell_volume   442.98191312
_cell_formula_units_Z   2
loop_
 _symmetry_equiv_pos_site_id
 _symmetry_equiv_pos_as_xyz
  1  'x, y, z'
loop_
 _atom_site_type_symbol
 _atom_site_label
 _atom_site_symmetry_multiplicity
 _atom_site_fract_x
 _atom_site_fract_y
 _atom_site_fract_z
 _atom_site_occupancy
  Ho  Ho0  1  0.433255  0.241819  0.191424  1
  Ho  Ho1  1  0.566745  0.758181  0.808576  1
  Ho  Ho2  1  0.050395  0.241819  0.808564  1
  Ho  Ho3  1  0.949605  0.758181  0.191436  1
  Ho  Ho4  1  0.178802  0.280520  0.459309  1
  Ho  Ho5  1  0.821198  0.719480  0.540691  1
  Ho  Ho6  1  0.178791  0.719480  0.898282  1
  Ho  Ho7  1  0.821209  0.280520  0.101718  1
  Ho  Ho8  1  0.325109  0.633339  0.308231  1
  Ho  Ho9  1  0.674891  0.366661  0.691769  1
  Ho  Ho10  1  0.325104  0.016851  0.691746  1
  Ho  Ho11  1  0.674896  0.983149  0.308254  1
  Zn  Zn12  1  0.500000  0.500000  0.000000  1
  Zn  Zn13  1  0.000000  0.000000  0.000000  1
  Ni  Ni14  1  0.119325  0.619330  0.500005  1
  Ni  Ni15  1  0.880675  0.380670  0.499995  1
  Rh  Rh16  1  0.334652  0.000000  0.334652  1
  Rh  Rh17  1  0.665348  0.000000  0.665348  1
