# generated using pymatgen
data_Tb17Y3Si15Au
_symmetry_space_group_name_H-M   'P 1'
_cell_length_a   7.48674697
_cell_length_b   7.72508118
_cell_length_c   14.72588706
_cell_angle_alpha   90.14712107
_cell_angle_beta   90.50254868
_cell_angle_gamma   90.16592249
_symmetry_Int_Tables_number   1
_chemical_formula_structural   Tb17Y3Si15Au
_chemical_formula_sum   'Tb17 Y3 Si15 Au1'
_cell_volume   851.64320469
_cell_formula_units_Z   1
loop_
 _symmetry_equiv_pos_site_id
 _symmetry_equiv_pos_as_xyz
  1  'x, y, z'
loop_
 _atom_site_type_symbol
 _atom_site_label
 _atom_site_symmetry_multiplicity
 _atom_site_fract_x
 _atom_site_fract_y
 _atom_site_fract_z
 _atom_site_occupancy
  Tb  Tb0  1  0.680074  0.174154  0.623216  1
  Tb  Tb1  1  0.182761  0.321759  0.877377  1
  Tb  Tb2  1  0.318355  0.819530  0.121321  1
  Tb  Tb3  1  0.823595  0.677492  0.377581  1
  Tb  Tb4  1  0.318895  0.824807  0.377826  1
  Tb  Tb5  1  0.817366  0.678717  0.121773  1
  Tb  Tb6  1  0.680953  0.179644  0.877593  1
  Tb  Tb7  1  0.178433  0.321466  0.623410  1
  Tb  Tb8  1  0.526095  0.679207  0.601016  1
  Tb  Tb9  1  0.028806  0.816436  0.901171  1
  Tb  Tb10  1  0.470065  0.317813  0.098592  1
  Tb  Tb11  1  0.976508  0.181999  0.399784  1
  Tb  Tb12  1  0.470868  0.321788  0.400074  1
  Tb  Tb13  1  0.970071  0.183378  0.098291  1
  Tb  Tb14  1  0.530511  0.682809  0.900161  1
  Tb  Tb15  1  0.025234  0.817741  0.600855  1
  Tb  Tb16  1  0.851456  0.508552  0.749985  1
  Y  Y17  1  0.349563  0.988748  0.748828  1
  Y  Y18  1  0.149996  0.488499  0.250015  1
  Y  Y19  1  0.651556  0.011283  0.250733  1
  Si  Si20  1  0.144977  0.527996  0.040104  1
  Si  Si21  1  0.354015  0.029329  0.959988  1
  Si  Si22  1  0.851170  0.471742  0.541746  1
  Si  Si23  1  0.342203  0.027955  0.542852  1
  Si  Si24  1  0.855232  0.471252  0.959311  1
  Si  Si25  1  0.644335  0.971016  0.039345  1
  Si  Si26  1  0.148271  0.530535  0.461165  1
  Si  Si27  1  0.477963  0.395465  0.750313  1
  Si  Si28  1  0.976371  0.104016  0.752064  1
  Si  Si29  1  0.523078  0.606935  0.248667  1
  Si  Si30  1  0.025065  0.895133  0.247235  1
  Si  Si31  1  0.734126  0.871457  0.752292  1
  Si  Si32  1  0.233981  0.626815  0.751208  1
  Si  Si33  1  0.267838  0.126218  0.247015  1
  Si  Si34  1  0.765481  0.375158  0.248688  1
  Au  Au35  1  0.654734  0.973157  0.458403  1
