# generated using pymatgen
data_Yb7Pr9MgCd3Ru4
_symmetry_space_group_name_H-M   'P 1'
_cell_length_a   9.94362905
_cell_length_b   9.91256225
_cell_length_c   9.96183228
_cell_angle_alpha   60.50510130
_cell_angle_beta   61.16045061
_cell_angle_gamma   60.43673801
_symmetry_Int_Tables_number   1
_chemical_formula_structural   Yb7Pr9MgCd3Ru4
_chemical_formula_sum   'Yb7 Pr9 Mg1 Cd3 Ru4'
_cell_volume   705.22660057
_cell_formula_units_Z   1
loop_
 _symmetry_equiv_pos_site_id
 _symmetry_equiv_pos_as_xyz
  1  'x, y, z'
loop_
 _atom_site_type_symbol
 _atom_site_label
 _atom_site_symmetry_multiplicity
 _atom_site_fract_x
 _atom_site_fract_y
 _atom_site_fract_z
 _atom_site_occupancy
  Yb  Yb0  1  0.054547  0.443195  0.446472  1
  Yb  Yb1  1  0.193183  0.806605  0.194379  1
  Yb  Yb2  1  0.656710  0.656582  0.656242  1
  Yb  Yb3  1  0.447084  0.443365  0.056321  1
  Yb  Yb4  1  0.052216  0.446542  0.056166  1
  Yb  Yb5  1  0.449059  0.053161  0.059136  1
  Yb  Yb6  1  0.056386  0.054785  0.449743  1
  Pr  Pr7  1  0.655360  0.654943  0.035947  1
  Pr  Pr8  1  0.656931  0.026447  0.658523  1
  Pr  Pr9  1  0.196926  0.810068  0.804339  1
  Pr  Pr10  1  0.446511  0.054532  0.443628  1
  Pr  Pr11  1  0.191732  0.189027  0.805734  1
  Pr  Pr12  1  0.031778  0.655804  0.657259  1
  Pr  Pr13  1  0.803683  0.806133  0.198982  1
  Pr  Pr14  1  0.804568  0.190620  0.195047  1
  Pr  Pr15  1  0.806882  0.193007  0.806615  1
  Mg  Mg16  1  0.425521  0.428848  0.715909  1
  Cd  Cd17  1  0.418766  0.420719  0.417285  1
  Cd  Cd18  1  0.419410  0.741990  0.420486  1
  Cd  Cd19  1  0.738442  0.421585  0.418647  1
  Ru  Ru20  1  0.865304  0.859672  0.866172  1
  Ru  Ru21  1  0.404796  0.868574  0.861537  1
  Ru  Ru22  1  0.865800  0.404340  0.868739  1
  Ru  Ru23  1  0.858405  0.869458  0.406695  1
