# generated using pymatgen
data_Tb4PrNdIrBr10
_symmetry_space_group_name_H-M   'P 1'
_cell_length_a   7.49394566
_cell_length_b   9.44414646
_cell_length_c   9.41716343
_cell_angle_alpha   108.90327200
_cell_angle_beta   96.64783497
_cell_angle_gamma   104.39170763
_symmetry_Int_Tables_number   1
_chemical_formula_structural   Tb4PrNdIrBr10
_chemical_formula_sum   'Tb4 Pr1 Nd1 Ir1 Br10'
_cell_volume   596.58075291
_cell_formula_units_Z   1
loop_
 _symmetry_equiv_pos_site_id
 _symmetry_equiv_pos_as_xyz
  1  'x, y, z'
loop_
 _atom_site_type_symbol
 _atom_site_label
 _atom_site_symmetry_multiplicity
 _atom_site_fract_x
 _atom_site_fract_y
 _atom_site_fract_z
 _atom_site_occupancy
  Tb  Tb0  1  0.639806  0.868169  0.818372  1
  Tb  Tb1  1  0.360270  0.131356  0.181562  1
  Tb  Tb2  1  0.125978  0.045485  0.751458  1
  Tb  Tb3  1  0.874018  0.954186  0.248426  1
  Pr  Pr4  1  0.968456  0.297434  0.097327  1
  Nd  Nd5  1  0.030910  0.703632  0.902933  1
  Ir  Ir6  1  0.999997  0.999580  0.999859  1
  Br  Br7  1  0.540681  0.171503  0.916546  1
  Br  Br8  1  0.458366  0.828050  0.082920  1
  Br  Br9  1  0.754766  0.917553  0.544667  1
  Br  Br10  1  0.245209  0.082402  0.455355  1
  Br  Br11  1  0.091366  0.361900  0.823466  1
  Br  Br12  1  0.908986  0.638972  0.175549  1
  Br  Br13  1  0.224691  0.753116  0.647807  1
  Br  Br14  1  0.774538  0.246368  0.353061  1
  Br  Br15  1  0.638633  0.554747  0.727918  1
  Br  Br16  1  0.363329  0.445549  0.272774  1
