# generated using pymatgen
data_CeEu2Mg3Ir2Rh
_symmetry_space_group_name_H-M   'P 1'
_cell_length_a   7.36485779
_cell_length_b   7.36485730
_cell_length_c   4.15531700
_cell_angle_alpha   90.00000000
_cell_angle_beta   90.00000000
_cell_angle_gamma   119.20151961
_symmetry_Int_Tables_number   1
_chemical_formula_structural   CeEu2Mg3Ir2Rh
_chemical_formula_sum   'Ce1 Eu2 Mg3 Ir2 Rh1'
_cell_volume   196.74418390
_cell_formula_units_Z   1
loop_
 _symmetry_equiv_pos_site_id
 _symmetry_equiv_pos_as_xyz
  1  'x, y, z'
loop_
 _atom_site_type_symbol
 _atom_site_label
 _atom_site_symmetry_multiplicity
 _atom_site_fract_x
 _atom_site_fract_y
 _atom_site_fract_z
 _atom_site_occupancy
  Ce  Ce0  1  0.418119  0.418119  0.000000  1
  Eu  Eu1  1  0.583125  0.000205  0.000000  1
  Eu  Eu2  1  0.000205  0.583125  0.000000  1
  Mg  Mg3  1  0.241142  0.999621  0.500000  1
  Mg  Mg4  1  0.999621  0.241142  0.500000  1
  Mg  Mg5  1  0.760254  0.760254  0.500000  1
  Ir  Ir6  1  0.335950  0.655725  0.500000  1
  Ir  Ir7  1  0.655725  0.335950  0.500000  1
  Rh  Rh8  1  0.005859  0.005859  0.000000  1
