# generated using pymatgen
data_AcTa3(FeH6)2
_symmetry_space_group_name_H-M   'P 1'
_cell_length_a   6.16268800
_cell_length_b   6.16268632
_cell_length_c   4.53418100
_cell_angle_alpha   90.00000000
_cell_angle_beta   90.00000000
_cell_angle_gamma   119.99999829
_symmetry_Int_Tables_number   1
_chemical_formula_structural   AcTa3(FeH6)2
_chemical_formula_sum   'Ac1 Ta3 Fe2 H12'
_cell_volume   149.13162007
_cell_formula_units_Z   1
loop_
 _symmetry_equiv_pos_site_id
 _symmetry_equiv_pos_as_xyz
  1  'x, y, z'
loop_
 _atom_site_type_symbol
 _atom_site_label
 _atom_site_symmetry_multiplicity
 _atom_site_fract_x
 _atom_site_fract_y
 _atom_site_fract_z
 _atom_site_occupancy
  Ac  Ac0  1  0.000000  0.000000  0.000000  1
  Ta  Ta1  1  0.500000  0.000000  0.500000  1
  Ta  Ta2  1  0.000000  0.500000  0.500000  1
  Ta  Ta3  1  0.500000  0.500000  0.500000  1
  Fe  Fe4  1  0.666667  0.333333  0.000000  1
  Fe  Fe5  1  0.333333  0.666667  0.000000  1
  H  H6  1  0.792316  0.584633  0.753221  1
  H  H7  1  0.207684  0.415367  0.246779  1
  H  H8  1  0.207684  0.792316  0.246779  1
  H  H9  1  0.792316  0.207684  0.246779  1
  H  H10  1  0.584633  0.792316  0.246779  1
  H  H11  1  0.415367  0.207684  0.246779  1
  H  H12  1  0.415367  0.207684  0.753221  1
  H  H13  1  0.207684  0.415367  0.753221  1
  H  H14  1  0.792316  0.207684  0.753221  1
  H  H15  1  0.584633  0.792316  0.753221  1
  H  H16  1  0.792316  0.584633  0.246779  1
  H  H17  1  0.207684  0.792316  0.753221  1
