# generated using pymatgen
data_TbLuTc2F14
_symmetry_space_group_name_H-M   'P 1'
_cell_length_a   5.54275459
_cell_length_b   8.85024774
_cell_length_c   11.95854763
_cell_angle_alpha   62.61033876
_cell_angle_beta   89.87130900
_cell_angle_gamma   90.00578622
_symmetry_Int_Tables_number   1
_chemical_formula_structural   TbLuTc2F14
_chemical_formula_sum   'Tb2 Lu2 Tc4 F28'
_cell_volume   520.86040561
_cell_formula_units_Z   2
loop_
 _symmetry_equiv_pos_site_id
 _symmetry_equiv_pos_as_xyz
  1  'x, y, z'
loop_
 _atom_site_type_symbol
 _atom_site_label
 _atom_site_symmetry_multiplicity
 _atom_site_fract_x
 _atom_site_fract_y
 _atom_site_fract_z
 _atom_site_occupancy
  Tb  Tb0  1  0.258310  0.815984  0.264359  1
  Tb  Tb1  1  0.741690  0.184016  0.735641  1
  Lu  Lu2  1  0.759971  0.187005  0.235586  1
  Lu  Lu3  1  0.240029  0.812995  0.764414  1
  Tc  Tc4  1  0.758042  0.723862  0.041737  1
  Tc  Tc5  1  0.241958  0.276138  0.958263  1
  Tc  Tc6  1  0.258447  0.270760  0.455326  1
  Tc  Tc7  1  0.741553  0.729240  0.544674  1
  F  F8  1  0.943994  0.708538  0.418340  1
  F  F9  1  0.056006  0.291462  0.581660  1
  F  F10  1  0.446166  0.294074  0.084912  1
  F  F11  1  0.553834  0.705926  0.915088  1
  F  F12  1  0.472889  0.727491  0.137526  1
  F  F13  1  0.527111  0.272509  0.862474  1
  F  F14  1  0.972596  0.269500  0.358558  1
  F  F15  1  0.027404  0.730500  0.641442  1
  F  F16  1  0.953644  0.742486  0.172196  1
  F  F17  1  0.046356  0.257514  0.827804  1
  F  F18  1  0.459032  0.251472  0.325662  1
  F  F19  1  0.540968  0.748528  0.674338  1
  F  F20  1  0.772941  0.474760  0.140806  1
  F  F21  1  0.227059  0.525240  0.859194  1
  F  F22  1  0.272696  0.519362  0.358232  1
  F  F23  1  0.727304  0.480638  0.641768  1
  F  F24  1  0.943629  0.277852  0.048775  1
  F  F25  1  0.056371  0.722148  0.951225  1
  F  F26  1  0.446320  0.722748  0.455627  1
  F  F27  1  0.553680  0.277252  0.544373  1
  F  F28  1  0.741338  0.977119  0.446132  1
  F  F29  1  0.258662  0.022881  0.553868  1
  F  F30  1  0.242027  0.027941  0.053005  1
  F  F31  1  0.757973  0.972059  0.946995  1
  F  F32  1  0.587524  0.976204  0.231467  1
  F  F33  1  0.412476  0.023796  0.768533  1
  F  F34  1  0.078019  0.034858  0.268151  1
  F  F35  1  0.921981  0.965142  0.731849  1
