# generated using pymatgen
data_Pu2Ga5Ni3
_symmetry_space_group_name_H-M   'P 1'
_cell_length_a   8.36787288
_cell_length_b   8.36787121
_cell_length_c   8.36787141
_cell_angle_alpha   141.60263507
_cell_angle_beta   106.72977166
_cell_angle_gamma   85.89524496
_symmetry_Int_Tables_number   1
_chemical_formula_structural   Pu2Ga5Ni3
_chemical_formula_sum   'Pu4 Ga10 Ni6'
_cell_volume   336.63695984
_cell_formula_units_Z   2
loop_
 _symmetry_equiv_pos_site_id
 _symmetry_equiv_pos_as_xyz
  1  'x, y, z'
loop_
 _atom_site_type_symbol
 _atom_site_label
 _atom_site_symmetry_multiplicity
 _atom_site_fract_x
 _atom_site_fract_y
 _atom_site_fract_z
 _atom_site_occupancy
  Pu  Pu0  1  0.370142  0.649208  0.720933  1
  Pu  Pu1  1  0.629858  0.350792  0.279067  1
  Pu  Pu2  1  0.071725  0.850792  0.220933  1
  Pu  Pu3  1  0.928275  0.149208  0.779067  1
  Ga  Ga4  1  0.000000  0.750000  0.750000  1
  Ga  Ga5  1  0.000000  0.250000  0.250000  1
  Ga  Ga6  1  0.707061  0.457061  0.750000  1
  Ga  Ga7  1  0.292939  0.042939  0.750000  1
  Ga  Ga8  1  0.292939  0.542939  0.250000  1
  Ga  Ga9  1  0.707061  0.957061  0.250000  1
  Ga  Ga10  1  0.242866  0.416614  0.826254  1
  Ga  Ga11  1  0.757134  0.583386  0.173746  1
  Ga  Ga12  1  0.590360  0.916614  0.673746  1
  Ga  Ga13  1  0.409640  0.083386  0.326254  1
  Ni  Ni14  1  0.050056  0.645685  0.404371  1
  Ni  Ni15  1  0.241315  0.145685  0.095629  1
  Ni  Ni16  1  0.500000  0.750000  0.250000  1
  Ni  Ni17  1  0.500000  0.250000  0.750000  1
  Ni  Ni18  1  0.949944  0.354315  0.595629  1
  Ni  Ni19  1  0.758685  0.854315  0.904371  1
