# generated using pymatgen
data_SmY6CoSn23Rh5
_symmetry_space_group_name_H-M   'P 1'
_cell_length_a   9.86273800
_cell_length_b   9.86326153
_cell_length_c   10.09740201
_cell_angle_alpha   90.01194912
_cell_angle_beta   90.00000000
_cell_angle_gamma   119.99824419
_symmetry_Int_Tables_number   1
_chemical_formula_structural   SmY6CoSn23Rh5
_chemical_formula_sum   'Sm1 Y6 Co1 Sn23 Rh5'
_cell_volume   850.67955460
_cell_formula_units_Z   1
loop_
 _symmetry_equiv_pos_site_id
 _symmetry_equiv_pos_as_xyz
  1  'x, y, z'
loop_
 _atom_site_type_symbol
 _atom_site_label
 _atom_site_symmetry_multiplicity
 _atom_site_fract_x
 _atom_site_fract_y
 _atom_site_fract_z
 _atom_site_occupancy
  Sm  Sm0  1  0.002000  0.003999  0.998095  1
  Y  Y1  1  0.042715  0.521627  0.307420  1
  Y  Y2  1  0.477923  0.955846  0.307414  1
  Y  Y3  1  0.478912  0.521627  0.307420  1
  Y  Y4  1  0.956094  0.478792  0.691940  1
  Y  Y5  1  0.521462  0.042925  0.692405  1
  Y  Y6  1  0.522698  0.478792  0.691940  1
  Co  Co7  1  0.831219  0.662439  0.198087  1
  Sn  Sn8  1  0.000680  0.001362  0.499580  1
  Sn  Sn9  1  0.111697  0.875790  0.276931  1
  Sn  Sn10  1  0.764092  0.875790  0.276931  1
  Sn  Sn11  1  0.120207  0.240415  0.282709  1
  Sn  Sn12  1  0.879766  0.118473  0.718986  1
  Sn  Sn13  1  0.238708  0.118473  0.718986  1
  Sn  Sn14  1  0.879835  0.759670  0.718004  1
  Sn  Sn15  1  0.351262  0.999927  0.000136  1
  Sn  Sn16  1  0.655702  0.650183  0.004784  1
  Sn  Sn17  1  0.999563  0.352416  0.000383  1
  Sn  Sn18  1  0.352852  0.352416  0.000383  1
  Sn  Sn19  1  0.994481  0.650183  0.004784  1
  Sn  Sn20  1  0.648665  0.999927  0.000136  1
  Sn  Sn21  1  0.780574  0.561147  0.448492  1
  Sn  Sn22  1  0.777776  0.221974  0.454764  1
  Sn  Sn23  1  0.444198  0.221974  0.454764  1
  Sn  Sn24  1  0.222123  0.444245  0.545536  1
  Sn  Sn25  1  0.221824  0.778505  0.545130  1
  Sn  Sn26  1  0.556679  0.778505  0.545130  1
  Sn  Sn27  1  0.668976  0.337949  0.180927  1
  Sn  Sn28  1  0.333247  0.666495  0.820577  1
  Sn  Sn29  1  0.666383  0.332764  0.881087  1
  Sn  Sn30  1  0.333184  0.666368  0.119477  1
  Rh  Rh31  1  0.166546  0.829799  0.803347  1
  Rh  Rh32  1  0.663253  0.829799  0.803347  1
  Rh  Rh33  1  0.167999  0.335997  0.801969  1
  Rh  Rh34  1  0.831353  0.166706  0.198998  1
  Rh  Rh35  1  0.335354  0.166706  0.198998  1
