# generated using pymatgen
data_Ca4PrIr2
_symmetry_space_group_name_H-M   'P 1'
_cell_length_a   8.74768646
_cell_length_b   8.74768700
_cell_length_c   7.52744404
_cell_angle_alpha   82.89477818
_cell_angle_beta   82.89477454
_cell_angle_gamma   45.08567833
_symmetry_Int_Tables_number   1
_chemical_formula_structural   Ca4PrIr2
_chemical_formula_sum   'Ca8 Pr2 Ir4'
_cell_volume   404.23822239
_cell_formula_units_Z   2
loop_
 _symmetry_equiv_pos_site_id
 _symmetry_equiv_pos_as_xyz
  1  'x, y, z'
loop_
 _atom_site_type_symbol
 _atom_site_label
 _atom_site_symmetry_multiplicity
 _atom_site_fract_x
 _atom_site_fract_y
 _atom_site_fract_z
 _atom_site_occupancy
  Ca  Ca0  1  0.016303  0.808198  0.916402  1
  Ca  Ca1  1  0.191802  0.983697  0.583598  1
  Ca  Ca2  1  0.983697  0.191802  0.083598  1
  Ca  Ca3  1  0.808198  0.016303  0.416402  1
  Ca  Ca4  1  0.359154  0.203244  0.820259  1
  Ca  Ca5  1  0.796756  0.640846  0.679741  1
  Ca  Ca6  1  0.640846  0.796756  0.179741  1
  Ca  Ca7  1  0.203244  0.359154  0.320259  1
  Pr  Pr8  1  0.566041  0.433959  0.750000  1
  Pr  Pr9  1  0.433959  0.566041  0.250000  1
  Ir  Ir10  1  0.184571  0.600477  0.577611  1
  Ir  Ir11  1  0.399523  0.815429  0.922389  1
  Ir  Ir12  1  0.815429  0.399523  0.422389  1
  Ir  Ir13  1  0.600477  0.184571  0.077611  1
