# generated using pymatgen
data_Ca3AgBi2H
_symmetry_space_group_name_H-M   'P 1'
_cell_length_a   4.68027000
_cell_length_b   12.49802200
_cell_length_c   12.60720900
_cell_angle_alpha   90.00000000
_cell_angle_beta   90.00000000
_cell_angle_gamma   90.00000000
_symmetry_Int_Tables_number   1
_chemical_formula_structural   Ca3AgBi2H
_chemical_formula_sum   'Ca12 Ag4 Bi8 H4'
_cell_volume   737.44756366
_cell_formula_units_Z   4
loop_
 _symmetry_equiv_pos_site_id
 _symmetry_equiv_pos_as_xyz
  1  'x, y, z'
loop_
 _atom_site_type_symbol
 _atom_site_label
 _atom_site_symmetry_multiplicity
 _atom_site_fract_x
 _atom_site_fract_y
 _atom_site_fract_z
 _atom_site_occupancy
  Ca  Ca0  1  0.250000  0.065881  0.628033  1
  Ca  Ca1  1  0.250000  0.565881  0.871967  1
  Ca  Ca2  1  0.750000  0.934119  0.371967  1
  Ca  Ca3  1  0.750000  0.434119  0.128033  1
  Ca  Ca4  1  0.250000  0.357748  0.559945  1
  Ca  Ca5  1  0.250000  0.857748  0.940055  1
  Ca  Ca6  1  0.750000  0.642252  0.440055  1
  Ca  Ca7  1  0.750000  0.142252  0.059945  1
  Ca  Ca8  1  0.250000  0.231412  0.282679  1
  Ca  Ca9  1  0.250000  0.731412  0.217321  1
  Ca  Ca10  1  0.750000  0.768588  0.717321  1
  Ca  Ca11  1  0.750000  0.268588  0.782679  1
  Ag  Ag12  1  0.250000  0.120613  0.882023  1
  Ag  Ag13  1  0.250000  0.620613  0.617977  1
  Ag  Ag14  1  0.750000  0.879387  0.117977  1
  Ag  Ag15  1  0.750000  0.379387  0.382023  1
  Bi  Bi16  1  0.250000  0.495004  0.315427  1
  Bi  Bi17  1  0.250000  0.995004  0.184573  1
  Bi  Bi18  1  0.750000  0.504996  0.684573  1
  Bi  Bi19  1  0.750000  0.004996  0.815427  1
  Bi  Bi20  1  0.250000  0.322991  0.988965  1
  Bi  Bi21  1  0.250000  0.822991  0.511035  1
  Bi  Bi22  1  0.750000  0.677009  0.011035  1
  Bi  Bi23  1  0.750000  0.177009  0.488965  1
  H  H24  1  0.250000  0.244453  0.705792  1
  H  H25  1  0.250000  0.744453  0.794208  1
  H  H26  1  0.750000  0.755547  0.294208  1
  H  H27  1  0.750000  0.255547  0.205792  1
