# generated using pymatgen
data_GdAgH6Ru
_symmetry_space_group_name_H-M   'P 1'
_cell_length_a   4.94232834
_cell_length_b   4.94232883
_cell_length_c   4.94232900
_cell_angle_alpha   60.00000555
_cell_angle_beta   60.00000231
_cell_angle_gamma   60.00000864
_symmetry_Int_Tables_number   1
_chemical_formula_structural   GdAgH6Ru
_chemical_formula_sum   'Gd1 Ag1 H6 Ru1'
_cell_volume   85.36501872
_cell_formula_units_Z   1
loop_
 _symmetry_equiv_pos_site_id
 _symmetry_equiv_pos_as_xyz
  1  'x, y, z'
loop_
 _atom_site_type_symbol
 _atom_site_label
 _atom_site_symmetry_multiplicity
 _atom_site_fract_x
 _atom_site_fract_y
 _atom_site_fract_z
 _atom_site_occupancy
  Gd  Gd0  1  0.250000  0.250000  0.250000  1
  Ag  Ag1  1  0.750000  0.750000  0.750000  1
  H  H2  1  0.755751  0.755751  0.244249  1
  H  H3  1  0.244249  0.755751  0.244249  1
  H  H4  1  0.755751  0.244249  0.244249  1
  H  H5  1  0.244249  0.244249  0.755751  1
  H  H6  1  0.755751  0.244249  0.755751  1
  H  H7  1  0.244249  0.755751  0.755751  1
  Ru  Ru8  1  0.000000  0.000000  0.000000  1
