# generated using pymatgen
data_Ta4Mn5CrIr2
_symmetry_space_group_name_H-M   'P 1'
_cell_length_a   4.84112300
_cell_length_b   4.81741270
_cell_length_c   8.28141700
_cell_angle_alpha   90.00000000
_cell_angle_beta   90.00000000
_cell_angle_gamma   120.16293866
_symmetry_Int_Tables_number   1
_chemical_formula_structural   Ta4Mn5CrIr2
_chemical_formula_sum   'Ta4 Mn5 Cr1 Ir2'
_cell_volume   166.98591970
_cell_formula_units_Z   1
loop_
 _symmetry_equiv_pos_site_id
 _symmetry_equiv_pos_as_xyz
  1  'x, y, z'
loop_
 _atom_site_type_symbol
 _atom_site_label
 _atom_site_symmetry_multiplicity
 _atom_site_fract_x
 _atom_site_fract_y
 _atom_site_fract_z
 _atom_site_occupancy
  Ta  Ta0  1  0.667266  0.334533  0.070765  1
  Ta  Ta1  1  0.667266  0.334533  0.429235  1
  Ta  Ta2  1  0.333287  0.666574  0.571919  1
  Ta  Ta3  1  0.333287  0.666574  0.928081  1
  Mn  Mn4  1  0.176951  0.821131  0.250001  1
  Mn  Mn5  1  0.644181  0.821131  0.250001  1
  Mn  Mn6  1  0.356868  0.178621  0.750000  1
  Mn  Mn7  1  0.821752  0.178621  0.750000  1
  Mn  Mn8  1  0.821634  0.643269  0.750000  1
  Cr  Cr9  1  0.177985  0.355969  0.250001  1
  Ir  Ir10  1  0.999761  0.999522  0.998358  1
  Ir  Ir11  1  0.999761  0.999522  0.501642  1
