# generated using pymatgen
data_Pr2TlCd3(IrO7)2
_symmetry_space_group_name_H-M   'P 1'
_cell_length_a   6.56872276
_cell_length_b   6.57106492
_cell_length_c   7.66679900
_cell_angle_alpha   90.00000000
_cell_angle_beta   90.00000000
_cell_angle_gamma   112.90649554
_symmetry_Int_Tables_number   1
_chemical_formula_structural   Pr2TlCd3(IrO7)2
_chemical_formula_sum   'Pr2 Tl1 Cd3 Ir2 O14'
_cell_volume   304.82951539
_cell_formula_units_Z   1
loop_
 _symmetry_equiv_pos_site_id
 _symmetry_equiv_pos_as_xyz
  1  'x, y, z'
loop_
 _atom_site_type_symbol
 _atom_site_label
 _atom_site_symmetry_multiplicity
 _atom_site_fract_x
 _atom_site_fract_y
 _atom_site_fract_z
 _atom_site_occupancy
  Pr  Pr0  1  0.998810  0.997357  0.994360  1
  Pr  Pr1  1  0.998810  0.997357  0.505640  1
  Tl  Tl2  1  0.035201  0.505296  0.250000  1
  Cd  Cd3  1  0.490483  0.993017  0.750000  1
  Cd  Cd4  1  0.512943  0.009103  0.250000  1
  Cd  Cd5  1  0.964900  0.494110  0.750000  1
  Ir  Ir6  1  0.498288  0.500084  0.999557  1
  Ir  Ir7  1  0.498288  0.500084  0.500443  1
  O  O8  1  0.580516  0.501452  0.750000  1
  O  O9  1  0.416585  0.499498  0.250000  1
  O  O10  1  0.850122  0.129541  0.750000  1
  O  O11  1  0.148189  0.856086  0.250000  1
  O  O12  1  0.128506  0.858742  0.750000  1
  O  O13  1  0.882545  0.152752  0.250000  1
  O  O14  1  0.426819  0.187425  0.008185  1
  O  O15  1  0.572226  0.813572  0.502139  1
  O  O16  1  0.189061  0.429032  0.965670  1
  O  O17  1  0.809800  0.572730  0.466919  1
  O  O18  1  0.426819  0.187425  0.491815  1
  O  O19  1  0.572226  0.813572  0.997861  1
  O  O20  1  0.809800  0.572730  0.033081  1
  O  O21  1  0.189061  0.429032  0.534330  1
