# generated using pymatgen
data_CeMnF24
_symmetry_space_group_name_H-M   'P 1'
_cell_length_a   6.82802170
_cell_length_b   8.13154375
_cell_length_c   8.88698237
_cell_angle_alpha   101.45343971
_cell_angle_beta   85.47134398
_cell_angle_gamma   106.39880030
_symmetry_Int_Tables_number   1
_chemical_formula_structural   CeMnF24
_chemical_formula_sum   'Ce1 Mn1 F24'
_cell_volume   463.78981243
_cell_formula_units_Z   1
loop_
 _symmetry_equiv_pos_site_id
 _symmetry_equiv_pos_as_xyz
  1  'x, y, z'
loop_
 _atom_site_type_symbol
 _atom_site_label
 _atom_site_symmetry_multiplicity
 _atom_site_fract_x
 _atom_site_fract_y
 _atom_site_fract_z
 _atom_site_occupancy
  Ce  Ce0  1  0.247595  0.987352  0.003494  1
  Mn  Mn1  1  0.752855  0.002278  0.993945  1
  F  F2  1  0.524363  0.452822  0.176733  1
  F  F3  1  0.462177  0.547384  0.847951  1
  F  F4  1  0.227036  0.585224  0.187369  1
  F  F5  1  0.782100  0.453220  0.803743  1
  F  F6  1  0.357738  0.756507  0.508577  1
  F  F7  1  0.648790  0.243614  0.489700  1
  F  F8  1  0.821585  0.807910  0.471051  1
  F  F9  1  0.173292  0.189347  0.545133  1
  F  F10  1  0.313983  0.382882  0.855511  1
  F  F11  1  0.675497  0.605494  0.146362  1
  F  F12  1  0.279769  0.168292  0.197437  1
  F  F13  1  0.705879  0.818468  0.838162  1
  F  F14  1  0.096255  0.696095  0.190170  1
  F  F15  1  0.930987  0.356948  0.773868  1
  F  F16  1  0.908229  0.897508  0.092169  1
  F  F17  1  0.010893  0.094015  0.900623  1
  F  F18  1  0.231232  0.044854  0.577301  1
  F  F19  1  0.774684  0.950615  0.425276  1
  F  F20  1  0.803706  0.189682  0.142994  1
  F  F21  1  0.187297  0.773733  0.838933  1
  F  F22  1  0.508337  0.900750  0.094116  1
  F  F23  1  0.577938  0.096378  0.901878  1
  F  F24  1  0.327840  0.580837  0.526632  1
  F  F25  1  0.669944  0.417791  0.470868  1
