# generated using pymatgen
data_Pa8Fe5Co15B8
_symmetry_space_group_name_H-M   'P 1'
_cell_length_a   5.01581162
_cell_length_b   5.01581172
_cell_length_c   20.09486300
_cell_angle_alpha   90.00000000
_cell_angle_beta   90.00000000
_cell_angle_gamma   119.76415240
_symmetry_Int_Tables_number   1
_chemical_formula_structural   Pa8Fe5Co15B8
_chemical_formula_sum   'Pa8 Fe5 Co15 B8'
_cell_volume   438.85934682
_cell_formula_units_Z   1
loop_
 _symmetry_equiv_pos_site_id
 _symmetry_equiv_pos_as_xyz
  1  'x, y, z'
loop_
 _atom_site_type_symbol
 _atom_site_label
 _atom_site_symmetry_multiplicity
 _atom_site_fract_x
 _atom_site_fract_y
 _atom_site_fract_z
 _atom_site_occupancy
  Pa  Pa0  1  0.666250  0.333750  0.827056  1
  Pa  Pa1  1  0.666680  0.333320  0.979896  1
  Pa  Pa2  1  0.332905  0.667095  0.480862  1
  Pa  Pa3  1  0.332905  0.667095  0.019138  1
  Pa  Pa4  1  0.333883  0.666117  0.172650  1
  Pa  Pa5  1  0.666680  0.333320  0.520104  1
  Pa  Pa6  1  0.666250  0.333750  0.672944  1
  Pa  Pa7  1  0.333883  0.666117  0.327350  1
  Fe  Fe8  1  0.334624  0.166942  0.250000  1
  Fe  Fe9  1  0.833058  0.665376  0.250000  1
  Fe  Fe10  1  0.665641  0.833412  0.750000  1
  Fe  Fe11  1  0.166588  0.334359  0.750000  1
  Fe  Fe12  1  0.166510  0.833490  0.750000  1
  Co  Co13  1  0.164851  0.329940  0.896707  1
  Co  Co14  1  0.164726  0.835274  0.603349  1
  Co  Co15  1  0.834706  0.165294  0.397570  1
  Co  Co16  1  0.329930  0.164814  0.396386  1
  Co  Co17  1  0.835186  0.670070  0.103614  1
  Co  Co18  1  0.835186  0.670070  0.396386  1
  Co  Co19  1  0.670060  0.835149  0.603293  1
  Co  Co20  1  0.834706  0.165294  0.102430  1
  Co  Co21  1  0.670060  0.835149  0.896707  1
  Co  Co22  1  0.000777  0.999223  0.999845  1
  Co  Co23  1  0.833443  0.166557  0.250000  1
  Co  Co24  1  0.329930  0.164814  0.103614  1
  Co  Co25  1  0.000777  0.999223  0.500155  1
  Co  Co26  1  0.164726  0.835274  0.896651  1
  Co  Co27  1  0.164851  0.329940  0.603293  1
  B  B28  1  0.332913  0.667087  0.824955  1
  B  B29  1  0.332913  0.667087  0.675045  1
  B  B30  1  0.667086  0.332914  0.325034  1
  B  B31  1  0.999693  0.000307  0.823561  1
  B  B32  1  0.667086  0.332914  0.174966  1
  B  B33  1  0.999693  0.000307  0.676439  1
  B  B34  1  0.000422  0.999578  0.323751  1
  B  B35  1  0.000422  0.999578  0.176249  1
