# generated using pymatgen
data_Dy5Mg2Mo(P3Ir4)4
_symmetry_space_group_name_H-M   'P 1'
_cell_length_a   12.79451600
_cell_length_b   12.75307760
_cell_length_c   3.98108300
_cell_angle_alpha   90.00000000
_cell_angle_beta   90.00000000
_cell_angle_gamma   120.10754386
_symmetry_Int_Tables_number   1
_chemical_formula_structural   Dy5Mg2Mo(P3Ir4)4
_chemical_formula_sum   'Dy5 Mg2 Mo1 P12 Ir16'
_cell_volume   561.95180346
_cell_formula_units_Z   1
loop_
 _symmetry_equiv_pos_site_id
 _symmetry_equiv_pos_as_xyz
  1  'x, y, z'
loop_
 _atom_site_type_symbol
 _atom_site_label
 _atom_site_symmetry_multiplicity
 _atom_site_fract_x
 _atom_site_fract_y
 _atom_site_fract_z
 _atom_site_occupancy
  Dy  Dy0  1  0.334759  0.669162  0.500000  1
  Dy  Dy1  1  0.665598  0.330838  0.500000  1
  Dy  Dy2  1  0.003066  0.812038  0.000000  1
  Dy  Dy3  1  0.191028  0.187962  0.000000  1
  Dy  Dy4  1  0.810429  0.000000  0.000000  1
  Mg  Mg5  1  0.000385  0.446055  0.500000  1
  Mg  Mg6  1  0.554330  0.553945  0.500000  1
  Mo  Mo7  1  0.450387  0.000000  0.500000  1
  P  P8  1  0.000347  0.642774  0.500000  1
  P  P9  1  0.357573  0.357226  0.500000  1
  P  P10  1  0.634236  0.000000  0.500000  1
  P  P11  1  0.514613  0.687245  0.000000  1
  P  P12  1  0.315148  0.833278  0.000000  1
  P  P13  1  0.174451  0.483927  0.000000  1
  P  P14  1  0.481869  0.166722  0.000000  1
  P  P15  1  0.690524  0.516073  0.000000  1
  P  P16  1  0.827368  0.312755  0.000000  1
  P  P17  1  0.997841  0.177247  0.500000  1
  P  P18  1  0.820595  0.822753  0.500000  1
  P  P19  1  0.174610  0.000000  0.500000  1
  Ir  Ir20  1  0.508268  0.869079  0.000000  1
  Ir  Ir21  1  0.138396  0.642623  0.000000  1
  Ir  Ir22  1  0.359736  0.487247  0.000000  1
  Ir  Ir23  1  0.495775  0.357377  0.000000  1
  Ir  Ir24  1  0.872490  0.512753  0.000000  1
  Ir  Ir25  1  0.639190  0.130921  0.000000  1
  Ir  Ir26  1  0.998488  0.278829  0.000000  1
  Ir  Ir27  1  0.719659  0.721171  0.000000  1
  Ir  Ir28  1  0.284573  0.000000  0.000000  1
  Ir  Ir29  1  0.625080  0.806516  0.500000  1
  Ir  Ir30  1  0.193156  0.823086  0.500000  1
  Ir  Ir31  1  0.176862  0.372432  0.500000  1
  Ir  Ir32  1  0.370070  0.176914  0.500000  1
  Ir  Ir33  1  0.804430  0.627568  0.500000  1
  Ir  Ir34  1  0.818564  0.193484  0.500000  1
  Ir  Ir35  1  0.996106  0.000000  0.500000  1
