# generated using pymatgen
data_Tl4MoS3O14
_symmetry_space_group_name_H-M   'P 1'
_cell_length_a   14.32169000
_cell_length_b   9.68605056
_cell_length_c   14.12642200
_cell_angle_alpha   47.93946778
_cell_angle_beta   90.00000000
_cell_angle_gamma   90.00000000
_symmetry_Int_Tables_number   1
_chemical_formula_structural   Tl4MoS3O14
_chemical_formula_sum   'Tl16 Mo4 S12 O56'
_cell_volume   1454.89974025
_cell_formula_units_Z   4
loop_
 _symmetry_equiv_pos_site_id
 _symmetry_equiv_pos_as_xyz
  1  'x, y, z'
loop_
 _atom_site_type_symbol
 _atom_site_label
 _atom_site_symmetry_multiplicity
 _atom_site_fract_x
 _atom_site_fract_y
 _atom_site_fract_z
 _atom_site_occupancy
  Tl  Tl0  1  0.494213  0.690062  0.802680  1
  Tl  Tl1  1  0.321387  0.978114  0.842032  1
  Tl  Tl2  1  0.219036  0.483602  0.764800  1
  Tl  Tl3  1  0.719036  0.516398  0.735200  1
  Tl  Tl4  1  0.456944  0.732959  0.475934  1
  Tl  Tl5  1  0.994213  0.309938  0.697320  1
  Tl  Tl6  1  0.956944  0.267041  0.024066  1
  Tl  Tl7  1  0.780964  0.516398  0.235200  1
  Tl  Tl8  1  0.043056  0.732959  0.975934  1
  Tl  Tl9  1  0.543056  0.267041  0.524066  1
  Tl  Tl10  1  0.280964  0.483602  0.264800  1
  Tl  Tl11  1  0.821387  0.021886  0.657968  1
  Tl  Tl12  1  0.178613  0.978114  0.342032  1
  Tl  Tl13  1  0.505787  0.309938  0.197320  1
  Tl  Tl14  1  0.005787  0.690062  0.302680  1
  Tl  Tl15  1  0.678613  0.021886  0.157968  1
  Mo  Mo16  1  0.120711  0.082415  0.583429  1
  Mo  Mo17  1  0.379289  0.082415  0.083429  1
  Mo  Mo18  1  0.620711  0.917585  0.916571  1
  Mo  Mo19  1  0.879289  0.917585  0.416571  1
  S  S20  1  0.156665  0.982478  0.048074  1
  S  S21  1  0.495153  0.288178  0.795694  1
  S  S22  1  0.779388  0.550146  0.476905  1
  S  S23  1  0.656665  0.017522  0.451926  1
  S  S24  1  0.004847  0.288178  0.295694  1
  S  S25  1  0.995153  0.711822  0.704306  1
  S  S26  1  0.279388  0.449854  0.023095  1
  S  S27  1  0.843335  0.017522  0.951926  1
  S  S28  1  0.220612  0.449854  0.523095  1
  S  S29  1  0.504847  0.711822  0.204306  1
  S  S30  1  0.343335  0.982478  0.548074  1
  S  S31  1  0.720612  0.550146  0.976905  1
  O  O32  1  0.304611  0.536216  0.444316  1
  O  O33  1  0.492081  0.140838  0.092124  1
  O  O34  1  0.587259  0.787948  0.116656  1
  O  O35  1  0.739986  0.960482  0.984463  1
  O  O36  1  0.607623  0.913316  0.574471  1
  O  O37  1  0.378977  0.027836  0.622970  1
  O  O38  1  0.652343  0.221445  0.375826  1
  O  O39  1  0.146676  0.584552  0.485911  1
  O  O40  1  0.121023  0.027836  0.122970  1
  O  O41  1  0.804611  0.463784  0.055684  1
  O  O42  1  0.836843  0.028510  0.265791  1
  O  O43  1  0.238208  0.319757  0.660962  1
  O  O44  1  0.472783  0.291784  0.693234  1
  O  O45  1  0.260014  0.039518  0.015537  1
  O  O46  1  0.738208  0.680243  0.839038  1
  O  O47  1  0.695389  0.463784  0.555684  1
  O  O48  1  0.992081  0.859162  0.407876  1
  O  O49  1  0.022478  0.528983  0.751182  1
  O  O50  1  0.477522  0.528983  0.251182  1
  O  O51  1  0.152343  0.778555  0.124174  1
  O  O52  1  0.853324  0.415448  0.514089  1
  O  O53  1  0.579243  0.158781  0.874284  1
  O  O54  1  0.527217  0.708216  0.306766  1
  O  O55  1  0.761792  0.680243  0.339038  1
  O  O56  1  0.507919  0.859162  0.907876  1
  O  O57  1  0.892377  0.913316  0.074471  1
  O  O58  1  0.522478  0.471017  0.748818  1
  O  O59  1  0.912741  0.787948  0.616656  1
  O  O60  1  0.677853  0.667720  0.007828  1
  O  O61  1  0.027217  0.291784  0.193234  1
  O  O62  1  0.760014  0.960482  0.484463  1
  O  O63  1  0.322147  0.332280  0.992172  1
  O  O64  1  0.822147  0.667720  0.507828  1
  O  O65  1  0.107623  0.086684  0.925529  1
  O  O66  1  0.392377  0.086684  0.425529  1
  O  O67  1  0.663157  0.028510  0.765791  1
  O  O68  1  0.977522  0.471017  0.248818  1
  O  O69  1  0.163157  0.971490  0.734209  1
  O  O70  1  0.420757  0.841219  0.125716  1
  O  O71  1  0.336843  0.971490  0.234209  1
  O  O72  1  0.353324  0.584552  0.985911  1
  O  O73  1  0.007919  0.140838  0.592124  1
  O  O74  1  0.621023  0.972164  0.377030  1
  O  O75  1  0.239986  0.039518  0.515537  1
  O  O76  1  0.412741  0.212052  0.883344  1
  O  O77  1  0.195389  0.536216  0.944316  1
  O  O78  1  0.920757  0.158781  0.374284  1
  O  O79  1  0.847657  0.221445  0.875826  1
  O  O80  1  0.261792  0.319757  0.160962  1
  O  O81  1  0.347657  0.778555  0.624174  1
  O  O82  1  0.079243  0.841219  0.625716  1
  O  O83  1  0.972783  0.708216  0.806766  1
  O  O84  1  0.087259  0.212052  0.383344  1
  O  O85  1  0.177853  0.332280  0.492172  1
  O  O86  1  0.646676  0.415448  0.014089  1
  O  O87  1  0.878977  0.972164  0.877030  1
