# generated using pymatgen
data_DyY5Al24Co3Os5
_symmetry_space_group_name_H-M   'P 1'
_cell_length_a   8.74168068
_cell_length_b   8.77584324
_cell_length_c   9.47013200
_cell_angle_alpha   89.99886684
_cell_angle_beta   89.72775063
_cell_angle_gamma   120.12712026
_symmetry_Int_Tables_number   1
_chemical_formula_structural   DyY5Al24Co3Os5
_chemical_formula_sum   'Dy1 Y5 Al24 Co3 Os5'
_cell_volume   628.35654470
_cell_formula_units_Z   1
loop_
 _symmetry_equiv_pos_site_id
 _symmetry_equiv_pos_as_xyz
  1  'x, y, z'
loop_
 _atom_site_type_symbol
 _atom_site_label
 _atom_site_symmetry_multiplicity
 _atom_site_fract_x
 _atom_site_fract_y
 _atom_site_fract_z
 _atom_site_occupancy
  Dy  Dy0  1  0.803588  0.191376  0.749641  1
  Y  Y1  1  0.196376  0.387789  0.250340  1
  Y  Y2  1  0.803620  0.612168  0.749658  1
  Y  Y3  1  0.610763  0.805378  0.247950  1
  Y  Y4  1  0.389289  0.194631  0.752053  1
  Y  Y5  1  0.196368  0.808589  0.250343  1
  Al  Al6  1  0.326927  0.663457  0.015656  1
  Al  Al7  1  0.673092  0.336532  0.984310  1
  Al  Al8  1  0.666627  0.333300  0.515005  1
  Al  Al9  1  0.333388  0.666688  0.485023  1
  Al  Al10  1  0.159171  0.319409  0.576130  1
  Al  Al11  1  0.840804  0.680581  0.423897  1
  Al  Al12  1  0.680739  0.840388  0.574898  1
  Al  Al13  1  0.841465  0.679309  0.074809  1
  Al  Al14  1  0.319270  0.159638  0.425131  1
  Al  Al15  1  0.158507  0.320682  0.925165  1
  Al  Al16  1  0.159190  0.839776  0.576104  1
  Al  Al17  1  0.321330  0.160667  0.075018  1
  Al  Al18  1  0.840807  0.160227  0.423923  1
  Al  Al19  1  0.678681  0.839360  0.924953  1
  Al  Al20  1  0.841464  0.162157  0.074780  1
  Al  Al21  1  0.158535  0.837847  0.925191  1
  Al  Al22  1  0.563277  0.124512  0.249006  1
  Al  Al23  1  0.436753  0.875498  0.750996  1
  Al  Al24  1  0.881729  0.440868  0.244262  1
  Al  Al25  1  0.118257  0.559102  0.755741  1
  Al  Al26  1  0.563280  0.438764  0.249006  1
  Al  Al27  1  0.436721  0.561241  0.750993  1
  Al  Al28  1  0.000774  0.000390  0.250172  1
  Al  Al29  1  0.999161  0.999671  0.749827  1
  Co  Co30  1  0.999984  0.499982  0.999984  1
  Co  Co31  1  0.999999  0.999998  0.000011  1
  Co  Co32  1  0.000003  0.999997  0.499983  1
  Os  Os33  1  0.500035  0.000025  0.999971  1
  Os  Os34  1  0.500053  0.000036  0.500041  1
  Os  Os35  1  0.499999  0.499998  0.000002  1
  Os  Os36  1  0.999977  0.499970  0.500030  1
  Os  Os37  1  0.499998  0.500000  0.499994  1
