# generated using pymatgen
data_Y8Ho3TmGa20
_symmetry_space_group_name_H-M   'P 1'
_cell_length_a   6.09692203
_cell_length_b   9.62927600
_cell_length_c   11.57073206
_cell_angle_alpha   90.00000000
_cell_angle_beta   90.01155960
_cell_angle_gamma   90.00000000
_symmetry_Int_Tables_number   1
_chemical_formula_structural   Y8Ho3TmGa20
_chemical_formula_sum   'Y8 Ho3 Tm1 Ga20'
_cell_volume   679.30545808
_cell_formula_units_Z   1
loop_
 _symmetry_equiv_pos_site_id
 _symmetry_equiv_pos_as_xyz
  1  'x, y, z'
loop_
 _atom_site_type_symbol
 _atom_site_label
 _atom_site_symmetry_multiplicity
 _atom_site_fract_x
 _atom_site_fract_y
 _atom_site_fract_z
 _atom_site_occupancy
  Y  Y0  1  0.891105  0.509272  0.350981  1
  Y  Y1  1  0.609202  0.990761  0.850955  1
  Y  Y2  1  0.109386  0.009666  0.648735  1
  Y  Y3  1  0.390721  0.490483  0.149105  1
  Y  Y4  1  0.109386  0.490334  0.648735  1
  Y  Y5  1  0.390721  0.009517  0.149105  1
  Y  Y6  1  0.891105  0.990728  0.350981  1
  Y  Y7  1  0.609202  0.509239  0.850955  1
  Ho  Ho8  1  0.848773  0.750000  0.075467  1
  Ho  Ho9  1  0.651088  0.750000  0.575515  1
  Ho  Ho10  1  0.151135  0.250000  0.924342  1
  Tm  Tm11  1  0.348579  0.250000  0.424466  1
  Ga  Ga12  1  0.875615  0.053978  0.089680  1
  Ga  Ga13  1  0.624185  0.445824  0.589265  1
  Ga  Ga14  1  0.124364  0.553824  0.910431  1
  Ga  Ga15  1  0.375817  0.946835  0.410604  1
  Ga  Ga16  1  0.124364  0.946176  0.910431  1
  Ga  Ga17  1  0.375817  0.553165  0.410604  1
  Ga  Ga18  1  0.875615  0.446022  0.089680  1
  Ga  Ga19  1  0.624185  0.054176  0.589265  1
  Ga  Ga20  1  0.171457  0.750000  0.252286  1
  Ga  Ga21  1  0.328358  0.750000  0.752177  1
  Ga  Ga22  1  0.828392  0.250000  0.747555  1
  Ga  Ga23  1  0.670392  0.250000  0.248252  1
  Ga  Ga24  1  0.373871  0.750000  0.003853  1
  Ga  Ga25  1  0.126513  0.750000  0.503820  1
  Ga  Ga26  1  0.626037  0.250000  0.996375  1
  Ga  Ga27  1  0.875031  0.250000  0.495867  1
  Ga  Ga28  1  0.600304  0.750000  0.299741  1
  Ga  Ga29  1  0.899349  0.750000  0.799698  1
  Ga  Ga30  1  0.399355  0.250000  0.699987  1
  Ga  Ga31  1  0.100575  0.250000  0.201084  1
