# generated using pymatgen
data_Y3Ho7(Bi3C)2
_symmetry_space_group_name_H-M   'P 1'
_cell_length_a   6.48459200
_cell_length_b   9.12373159
_cell_length_c   9.12297900
_cell_angle_alpha   120.00276097
_cell_angle_beta   90.00010326
_cell_angle_gamma   89.99936873
_symmetry_Int_Tables_number   1
_chemical_formula_structural   Y3Ho7(Bi3C)2
_chemical_formula_sum   'Y3 Ho7 Bi6 C2'
_cell_volume   467.42332479
_cell_formula_units_Z   1
loop_
 _symmetry_equiv_pos_site_id
 _symmetry_equiv_pos_as_xyz
  1  'x, y, z'
loop_
 _atom_site_type_symbol
 _atom_site_label
 _atom_site_symmetry_multiplicity
 _atom_site_fract_x
 _atom_site_fract_y
 _atom_site_fract_z
 _atom_site_occupancy
  Y  Y0  1  0.500001  0.333329  0.666655  1
  Y  Y1  1  0.500008  0.666662  0.333337  1
  Y  Y2  1  0.999999  0.666684  0.333347  1
  Ho  Ho3  1  0.000003  0.333328  0.666662  1
  Ho  Ho4  1  0.749965  0.206935  0.000001  1
  Ho  Ho5  1  0.749978  0.792991  0.792995  1
  Ho  Ho6  1  0.749973  0.999987  0.206998  1
  Ho  Ho7  1  0.250028  0.793069  0.000006  1
  Ho  Ho8  1  0.250027  0.207006  0.207001  1
  Ho  Ho9  1  0.250031  0.000007  0.792997  1
  Bi  Bi10  1  0.750358  0.598630  0.999717  1
  Bi  Bi11  1  0.750355  0.401119  0.401422  1
  Bi  Bi12  1  0.750353  0.000261  0.598858  1
  Bi  Bi13  1  0.249646  0.401085  0.999717  1
  Bi  Bi14  1  0.249640  0.598599  0.598863  1
  Bi  Bi15  1  0.249639  0.000306  0.401426  1
  C  C16  1  0.499997  0.999999  0.000000  1
  C  C17  1  0.999998  0.000001  0.000000  1
