# generated using pymatgen
data_Pr4TmSi2Ag
_symmetry_space_group_name_H-M   'P 1'
_cell_length_a   7.62924168
_cell_length_b   7.62924094
_cell_length_c   9.44426600
_cell_angle_alpha   113.82276047
_cell_angle_beta   113.82275800
_cell_angle_gamma   90.00001185
_symmetry_Int_Tables_number   1
_chemical_formula_structural   Pr4TmSi2Ag
_chemical_formula_sum   'Pr8 Tm2 Si4 Ag2'
_cell_volume   451.20007709
_cell_formula_units_Z   2
loop_
 _symmetry_equiv_pos_site_id
 _symmetry_equiv_pos_as_xyz
  1  'x, y, z'
loop_
 _atom_site_type_symbol
 _atom_site_label
 _atom_site_symmetry_multiplicity
 _atom_site_fract_x
 _atom_site_fract_y
 _atom_site_fract_z
 _atom_site_occupancy
  Pr  Pr0  1  0.963165  0.813168  0.276809  1
  Pr  Pr1  1  0.312847  0.463054  0.276365  1
  Pr  Pr2  1  0.813644  0.313168  0.276809  1
  Pr  Pr3  1  0.463518  0.963054  0.276365  1
  Pr  Pr4  1  0.036835  0.186832  0.723191  1
  Pr  Pr5  1  0.687153  0.536946  0.723635  1
  Pr  Pr6  1  0.186356  0.686832  0.723191  1
  Pr  Pr7  1  0.536482  0.036946  0.723635  1
  Tm  Tm8  1  0.500000  0.500000  0.000000  1
  Tm  Tm9  1  0.000000  0.000000  0.000000  1
  Si  Si10  1  0.619245  0.881028  0.000262  1
  Si  Si11  1  0.380755  0.118972  0.999738  1
  Si  Si12  1  0.881017  0.381028  0.000262  1
  Si  Si13  1  0.118983  0.618972  0.999738  1
  Ag  Ag14  1  0.750030  0.750000  0.500000  1
  Ag  Ag15  1  0.249970  0.250000  0.500000  1
