# generated using pymatgen
data_Dy3VB7
_symmetry_space_group_name_H-M   'P 1'
_cell_length_a   8.14418261
_cell_length_b   8.14418264
_cell_length_c   9.42602000
_cell_angle_alpha   90.00000000
_cell_angle_beta   90.00000000
_cell_angle_gamma   155.64565619
_symmetry_Int_Tables_number   1
_chemical_formula_structural   Dy3VB7
_chemical_formula_sum   'Dy6 V2 B14'
_cell_volume   257.82172225
_cell_formula_units_Z   2
loop_
 _symmetry_equiv_pos_site_id
 _symmetry_equiv_pos_as_xyz
  1  'x, y, z'
loop_
 _atom_site_type_symbol
 _atom_site_label
 _atom_site_symmetry_multiplicity
 _atom_site_fract_x
 _atom_site_fract_y
 _atom_site_fract_z
 _atom_site_occupancy
  Dy  Dy0  1  0.894447  0.105553  0.440768  1
  Dy  Dy1  1  0.105553  0.894447  0.559232  1
  Dy  Dy2  1  0.894447  0.105553  0.059232  1
  Dy  Dy3  1  0.105553  0.894447  0.940768  1
  Dy  Dy4  1  0.242265  0.757735  0.250000  1
  Dy  Dy5  1  0.757735  0.242265  0.750000  1
  V  V6  1  0.052739  0.947261  0.250000  1
  V  V7  1  0.947261  0.052739  0.750000  1
  B  B8  1  0.727081  0.272919  0.468627  1
  B  B9  1  0.272919  0.727081  0.531373  1
  B  B10  1  0.727081  0.272919  0.031373  1
  B  B11  1  0.272919  0.727081  0.968627  1
  B  B12  1  0.632406  0.367594  0.149796  1
  B  B13  1  0.367594  0.632406  0.850204  1
  B  B14  1  0.632406  0.367594  0.350204  1
  B  B15  1  0.367594  0.632406  0.649796  1
  B  B16  1  0.521074  0.478926  0.094982  1
  B  B17  1  0.478926  0.521074  0.905018  1
  B  B18  1  0.521074  0.478926  0.405018  1
  B  B19  1  0.478926  0.521074  0.594982  1
  B  B20  1  0.458928  0.541072  0.250000  1
  B  B21  1  0.541072  0.458928  0.750000  1
