# generated using pymatgen
data_Yb5Tm3(Si3Pt)4
_symmetry_space_group_name_H-M   'P 1'
_cell_length_a   8.18608298
_cell_length_b   8.18608313
_cell_length_c   8.06877200
_cell_angle_alpha   90.00000000
_cell_angle_beta   90.00000000
_cell_angle_gamma   120.05613467
_symmetry_Int_Tables_number   1
_chemical_formula_structural   Yb5Tm3(Si3Pt)4
_chemical_formula_sum   'Yb5 Tm3 Si12 Pt4'
_cell_volume   467.99846854
_cell_formula_units_Z   1
loop_
 _symmetry_equiv_pos_site_id
 _symmetry_equiv_pos_as_xyz
  1  'x, y, z'
loop_
 _atom_site_type_symbol
 _atom_site_label
 _atom_site_symmetry_multiplicity
 _atom_site_fract_x
 _atom_site_fract_y
 _atom_site_fract_z
 _atom_site_occupancy
  Yb  Yb0  1  0.499836  0.999127  0.250000  1
  Yb  Yb1  1  0.500986  0.001611  0.750000  1
  Yb  Yb2  1  0.000873  0.500164  0.250000  1
  Yb  Yb3  1  0.998389  0.499014  0.750000  1
  Yb  Yb4  1  0.499321  0.500679  0.250000  1
  Tm  Tm5  1  0.501045  0.498955  0.750000  1
  Tm  Tm6  1  0.000335  0.999665  0.250000  1
  Tm  Tm7  1  0.000164  0.999836  0.750000  1
  Si  Si8  1  0.164027  0.327806  0.998553  1
  Si  Si9  1  0.836053  0.672398  0.997699  1
  Si  Si10  1  0.672194  0.835973  0.998553  1
  Si  Si11  1  0.836053  0.672398  0.502301  1
  Si  Si12  1  0.327602  0.163947  0.997699  1
  Si  Si13  1  0.164027  0.327806  0.501447  1
  Si  Si14  1  0.164932  0.835068  0.999443  1
  Si  Si15  1  0.327602  0.163947  0.502301  1
  Si  Si16  1  0.835116  0.164884  0.998284  1
  Si  Si17  1  0.672194  0.835973  0.501447  1
  Si  Si18  1  0.835116  0.164884  0.501716  1
  Si  Si19  1  0.164932  0.835068  0.500557  1
  Pt  Pt20  1  0.334338  0.665662  0.992474  1
  Pt  Pt21  1  0.665265  0.334735  0.997538  1
  Pt  Pt22  1  0.665265  0.334735  0.502462  1
  Pt  Pt23  1  0.334338  0.665662  0.507526  1
