# generated using pymatgen
data_Dy10Y6MgCd3Ir4
_symmetry_space_group_name_H-M   'P 1'
_cell_length_a   9.68427536
_cell_length_b   9.68427536
_cell_length_c   9.68427600
_cell_angle_alpha   59.82986452
_cell_angle_beta   59.82986641
_cell_angle_gamma   59.82986696
_symmetry_Int_Tables_number   1
_chemical_formula_structural   Dy10Y6MgCd3Ir4
_chemical_formula_sum   'Dy10 Y6 Mg1 Cd3 Ir4'
_cell_volume   639.74390585
_cell_formula_units_Z   1
loop_
 _symmetry_equiv_pos_site_id
 _symmetry_equiv_pos_as_xyz
  1  'x, y, z'
loop_
 _atom_site_type_symbol
 _atom_site_label
 _atom_site_symmetry_multiplicity
 _atom_site_fract_x
 _atom_site_fract_y
 _atom_site_fract_z
 _atom_site_occupancy
  Dy  Dy0  1  0.348646  0.348646  0.348646  1
  Dy  Dy1  1  0.348295  0.348295  0.956669  1
  Dy  Dy2  1  0.348295  0.956669  0.348295  1
  Dy  Dy3  1  0.956669  0.348295  0.348295  1
  Dy  Dy4  1  0.809003  0.190244  0.190244  1
  Dy  Dy5  1  0.186813  0.811024  0.811024  1
  Dy  Dy6  1  0.190244  0.809003  0.190244  1
  Dy  Dy7  1  0.811024  0.186813  0.811024  1
  Dy  Dy8  1  0.190244  0.190244  0.809003  1
  Dy  Dy9  1  0.811024  0.811024  0.186813  1
  Y  Y10  1  0.940332  0.562128  0.562128  1
  Y  Y11  1  0.561486  0.938426  0.938426  1
  Y  Y12  1  0.562128  0.940332  0.562128  1
  Y  Y13  1  0.938426  0.561486  0.938426  1
  Y  Y14  1  0.562128  0.562128  0.940332  1
  Y  Y15  1  0.938426  0.938426  0.561486  1
  Mg  Mg16  1  0.575221  0.575221  0.575221  1
  Cd  Cd17  1  0.581450  0.581450  0.255205  1
  Cd  Cd18  1  0.581450  0.255205  0.581450  1
  Cd  Cd19  1  0.255205  0.581450  0.581450  1
  Ir  Ir20  1  0.141764  0.141764  0.141764  1
  Ir  Ir21  1  0.142866  0.142866  0.575992  1
  Ir  Ir22  1  0.142866  0.575992  0.142866  1
  Ir  Ir23  1  0.575992  0.142866  0.142866  1
