# generated using pymatgen
data_Fe(RhS4)2
_symmetry_space_group_name_H-M   'P 1'
_cell_length_a   5.61037184
_cell_length_b   5.63028873
_cell_length_c   5.62111332
_cell_angle_alpha   89.96270093
_cell_angle_beta   89.83641785
_cell_angle_gamma   89.42285395
_symmetry_Int_Tables_number   1
_chemical_formula_structural   Fe(RhS4)2
_chemical_formula_sum   'Fe1 Rh2 S8'
_cell_volume   177.55003649
_cell_formula_units_Z   1
loop_
 _symmetry_equiv_pos_site_id
 _symmetry_equiv_pos_as_xyz
  1  'x, y, z'
loop_
 _atom_site_type_symbol
 _atom_site_label
 _atom_site_symmetry_multiplicity
 _atom_site_fract_x
 _atom_site_fract_y
 _atom_site_fract_z
 _atom_site_occupancy
  Fe  Fe0  1  0.000000  0.500000  0.500000  1
  Rh  Rh1  1  0.500000  0.000000  0.500000  1
  Rh  Rh2  1  0.500000  0.500000  0.000000  1
  S  S3  1  0.389413  0.895326  0.104742  1
  S  S4  1  0.102594  0.397437  0.880041  1
  S  S5  1  0.896800  0.119594  0.397861  1
  S  S6  1  0.610587  0.104674  0.895258  1
  S  S7  1  0.897406  0.602563  0.119959  1
  S  S8  1  0.103200  0.880406  0.602139  1
  S  S9  1  0.626039  0.606976  0.607164  1
  S  S10  1  0.373961  0.393024  0.392836  1
