# generated using pymatgen
data_Ce4Al18(OsPd)3
_symmetry_space_group_name_H-M   'P 1'
_cell_length_a   7.67558517
_cell_length_b   7.67558474
_cell_length_c   9.48832023
_cell_angle_alpha   90.06257637
_cell_angle_beta   90.06257827
_cell_angle_gamma   119.37726078
_symmetry_Int_Tables_number   1
_chemical_formula_structural   Ce4Al18(OsPd)3
_chemical_formula_sum   'Ce4 Al18 Os3 Pd3'
_cell_volume   487.11680115
_cell_formula_units_Z   1
loop_
 _symmetry_equiv_pos_site_id
 _symmetry_equiv_pos_as_xyz
  1  'x, y, z'
loop_
 _atom_site_type_symbol
 _atom_site_label
 _atom_site_symmetry_multiplicity
 _atom_site_fract_x
 _atom_site_fract_y
 _atom_site_fract_z
 _atom_site_occupancy
  Ce  Ce0  1  0.993800  0.674040  0.247334  1
  Ce  Ce1  1  0.003376  0.325108  0.751799  1
  Ce  Ce2  1  0.674892  0.996624  0.248201  1
  Ce  Ce3  1  0.325960  0.006200  0.752666  1
  Al  Al4  1  0.129288  0.130839  0.249869  1
  Al  Al5  1  0.869161  0.870712  0.750131  1
  Al  Al6  1  0.998038  0.330355  0.074839  1
  Al  Al7  1  0.993512  0.662401  0.923469  1
  Al  Al8  1  0.997424  0.668422  0.577565  1
  Al  Al9  1  0.331578  0.002576  0.422435  1
  Al  Al10  1  0.002506  0.332922  0.423777  1
  Al  Al11  1  0.667078  0.997494  0.576223  1
  Al  Al12  1  0.669645  0.001962  0.925161  1
  Al  Al13  1  0.337599  0.006488  0.076531  1
  Al  Al14  1  0.330704  0.331385  0.553321  1
  Al  Al15  1  0.668615  0.669296  0.446679  1
  Al  Al16  1  0.670599  0.664856  0.046734  1
  Al  Al17  1  0.335144  0.329401  0.953266  1
  Al  Al18  1  0.342404  0.547764  0.249595  1
  Al  Al19  1  0.656663  0.451248  0.753140  1
  Al  Al20  1  0.548752  0.343337  0.246860  1
  Al  Al21  1  0.452236  0.657596  0.750405  1
  Os  Os22  1  0.672682  0.327318  0.000000  1
  Os  Os23  1  0.000956  0.999044  0.000000  1
  Os  Os24  1  0.999801  0.000199  0.500000  1
  Pd  Pd25  1  0.328530  0.671470  0.000000  1
  Pd  Pd26  1  0.327843  0.672157  0.500000  1
  Pd  Pd27  1  0.671214  0.328786  0.500000  1
