# generated using pymatgen
data_Zr16Pd4PtRh3O4
_symmetry_space_group_name_H-M   'P 1'
_cell_length_a   8.88556027
_cell_length_b   8.86199164
_cell_length_c   8.88556000
_cell_angle_alpha   59.91198580
_cell_angle_beta   60.00000101
_cell_angle_gamma   59.91198762
_symmetry_Int_Tables_number   1
_chemical_formula_structural   Zr16Pd4PtRh3O4
_chemical_formula_sum   'Zr16 Pd4 Pt1 Rh3 O4'
_cell_volume   494.09098372
_cell_formula_units_Z   1
loop_
 _symmetry_equiv_pos_site_id
 _symmetry_equiv_pos_as_xyz
  1  'x, y, z'
loop_
 _atom_site_type_symbol
 _atom_site_label
 _atom_site_symmetry_multiplicity
 _atom_site_fract_x
 _atom_site_fract_y
 _atom_site_fract_z
 _atom_site_occupancy
  Zr  Zr0  1  0.316961  0.681484  0.316961  1
  Zr  Zr1  1  0.932864  0.569625  0.932864  1
  Zr  Zr2  1  0.682015  0.317838  0.682015  1
  Zr  Zr3  1  0.682015  0.317838  0.318134  1
  Zr  Zr4  1  0.316961  0.681484  0.684595  1
  Zr  Zr5  1  0.636000  0.118691  0.122654  1
  Zr  Zr6  1  0.934020  0.933774  0.566103  1
  Zr  Zr7  1  0.684595  0.681484  0.316961  1
  Zr  Zr8  1  0.117122  0.648632  0.117122  1
  Zr  Zr9  1  0.122654  0.118691  0.636000  1
  Zr  Zr10  1  0.318134  0.317838  0.682015  1
  Zr  Zr11  1  0.122654  0.118691  0.122654  1
  Zr  Zr12  1  0.564646  0.569625  0.932864  1
  Zr  Zr13  1  0.566103  0.933774  0.934020  1
  Zr  Zr14  1  0.932864  0.569625  0.564646  1
  Zr  Zr15  1  0.566103  0.933774  0.566103  1
  Pd  Pd16  1  0.336944  0.340824  0.336944  1
  Pd  Pd17  1  0.985288  0.340824  0.336944  1
  Pd  Pd18  1  0.336944  0.340824  0.985288  1
  Pd  Pd19  1  0.906404  0.280790  0.906404  1
  Pt  Pt20  1  0.343448  0.969655  0.343448  1
  Rh  Rh21  1  0.293202  0.905493  0.900653  1
  Rh  Rh22  1  0.900653  0.905493  0.900653  1
  Rh  Rh23  1  0.900653  0.905493  0.293202  1
  O  O24  1  0.625116  0.624511  0.625116  1
  O  O25  1  0.125257  0.624511  0.625116  1
  O  O26  1  0.625116  0.624511  0.125257  1
  O  O27  1  0.625265  0.124203  0.625265  1
