# generated using pymatgen
data_LaDyMn3Re14C3
_symmetry_space_group_name_H-M   'P 1'
_cell_length_a   6.96659395
_cell_length_b   6.96659378
_cell_length_c   6.96659421
_cell_angle_alpha   82.57327564
_cell_angle_beta   82.57326302
_cell_angle_gamma   82.57326292
_symmetry_Int_Tables_number   1
_chemical_formula_structural   LaDyMn3Re14C3
_chemical_formula_sum   'La1 Dy1 Mn3 Re14 C3'
_cell_volume   330.27851444
_cell_formula_units_Z   1
loop_
 _symmetry_equiv_pos_site_id
 _symmetry_equiv_pos_as_xyz
  1  'x, y, z'
loop_
 _atom_site_type_symbol
 _atom_site_label
 _atom_site_symmetry_multiplicity
 _atom_site_fract_x
 _atom_site_fract_y
 _atom_site_fract_z
 _atom_site_occupancy
  La  La0  1  0.352563  0.352563  0.352563  1
  Dy  Dy1  1  0.649039  0.649039  0.649039  1
  Mn  Mn2  1  0.003102  0.003102  0.497944  1
  Mn  Mn3  1  0.497944  0.003102  0.003102  1
  Mn  Mn4  1  0.003102  0.497944  0.003102  1
  Re  Re5  1  0.722172  0.278869  0.999025  1
  Re  Re6  1  0.999025  0.722172  0.278869  1
  Re  Re7  1  0.278869  0.999025  0.722172  1
  Re  Re8  1  0.999025  0.278869  0.722172  1
  Re  Re9  1  0.722172  0.999025  0.278869  1
  Re  Re10  1  0.278869  0.722172  0.999025  1
  Re  Re11  1  0.345765  0.345765  0.859821  1
  Re  Re12  1  0.859821  0.345765  0.345765  1
  Re  Re13  1  0.345765  0.859821  0.345765  1
  Re  Re14  1  0.655888  0.655888  0.134384  1
  Re  Re15  1  0.134384  0.655888  0.655888  1
  Re  Re16  1  0.655888  0.134384  0.655888  1
  Re  Re17  1  0.899487  0.899487  0.899487  1
  Re  Re18  1  0.098946  0.098946  0.098946  1
  C  C19  1  0.504556  0.504556  0.989063  1
  C  C20  1  0.989063  0.504556  0.504556  1
  C  C21  1  0.504556  0.989063  0.504556  1
