# generated using pymatgen
data_Tm11Cd8InNi4
_symmetry_space_group_name_H-M   'P 1'
_cell_length_a   12.88837829
_cell_length_b   12.88837895
_cell_length_c   3.56548800
_cell_angle_alpha   90.00000000
_cell_angle_beta   90.00000000
_cell_angle_gamma   112.43408117
_symmetry_Int_Tables_number   1
_chemical_formula_structural   Tm11Cd8InNi4
_chemical_formula_sum   'Tm11 Cd8 In1 Ni4'
_cell_volume   547.44125725
_cell_formula_units_Z   1
loop_
 _symmetry_equiv_pos_site_id
 _symmetry_equiv_pos_as_xyz
  1  'x, y, z'
loop_
 _atom_site_type_symbol
 _atom_site_label
 _atom_site_symmetry_multiplicity
 _atom_site_fract_x
 _atom_site_fract_y
 _atom_site_fract_z
 _atom_site_occupancy
  Tm  Tm0  1  0.082665  0.417598  0.000000  1
  Tm  Tm1  1  0.917335  0.582402  0.000000  1
  Tm  Tm2  1  0.417598  0.082665  0.000000  1
  Tm  Tm3  1  0.582402  0.917335  0.000000  1
  Tm  Tm4  1  0.626337  0.373663  0.000000  1
  Tm  Tm5  1  0.373663  0.626337  0.000000  1
  Tm  Tm6  1  0.839392  0.160608  0.000000  1
  Tm  Tm7  1  0.160608  0.839392  0.000000  1
  Tm  Tm8  1  0.000000  0.000000  0.000000  1
  Tm  Tm9  1  0.311491  0.311491  0.000000  1
  Tm  Tm10  1  0.688509  0.688509  0.000000  1
  Cd  Cd11  1  0.843408  0.367333  0.500000  1
  Cd  Cd12  1  0.156592  0.632667  0.500000  1
  Cd  Cd13  1  0.367333  0.843408  0.500000  1
  Cd  Cd14  1  0.632667  0.156592  0.500000  1
  Cd  Cd15  1  0.075839  0.218644  0.500000  1
  Cd  Cd16  1  0.924161  0.781356  0.500000  1
  Cd  Cd17  1  0.218644  0.075839  0.500000  1
  Cd  Cd18  1  0.781356  0.924161  0.500000  1
  In  In19  1  0.500000  0.500000  0.500000  1
  Ni  Ni20  1  0.251648  0.451304  0.500000  1
  Ni  Ni21  1  0.748352  0.548696  0.500000  1
  Ni  Ni22  1  0.451304  0.251648  0.500000  1
  Ni  Ni23  1  0.548696  0.748352  0.500000  1
