# generated using pymatgen
data_Pr3NdGe4(BO5)4
_symmetry_space_group_name_H-M   'P 1'
_cell_length_a   10.16388359
_cell_length_b   7.70979227
_cell_length_c   5.03913815
_cell_angle_alpha   89.97836223
_cell_angle_beta   92.03383144
_cell_angle_gamma   90.02230473
_symmetry_Int_Tables_number   1
_chemical_formula_structural   Pr3NdGe4(BO5)4
_chemical_formula_sum   'Pr3 Nd1 Ge4 B4 O20'
_cell_volume   394.62526832
_cell_formula_units_Z   1
loop_
 _symmetry_equiv_pos_site_id
 _symmetry_equiv_pos_as_xyz
  1  'x, y, z'
loop_
 _atom_site_type_symbol
 _atom_site_label
 _atom_site_symmetry_multiplicity
 _atom_site_fract_x
 _atom_site_fract_y
 _atom_site_fract_z
 _atom_site_occupancy
  Pr  Pr0  1  0.179647  0.391542  0.006444  1
  Pr  Pr1  1  0.680430  0.108120  0.007259  1
  Pr  Pr2  1  0.320020  0.891369  0.993670  1
  Nd  Nd3  1  0.820372  0.608015  0.993139  1
  Ge  Ge4  1  0.075492  0.734656  0.471523  1
  Ge  Ge5  1  0.576614  0.764761  0.471131  1
  Ge  Ge6  1  0.424103  0.234883  0.528541  1
  Ge  Ge7  1  0.923534  0.265636  0.528717  1
  B  B8  1  0.669398  0.404882  0.455604  1
  B  B9  1  0.168656  0.096286  0.457043  1
  B  B10  1  0.331054  0.596191  0.543089  1
  B  B11  1  0.831141  0.902522  0.544135  1
  O  O12  1  0.026732  0.590317  0.222524  1
  O  O13  1  0.528144  0.910718  0.224108  1
  O  O14  1  0.811073  0.893723  0.267383  1
  O  O15  1  0.310582  0.604147  0.266447  1
  O  O16  1  0.295371  0.159614  0.299542  1
  O  O17  1  0.795740  0.341013  0.297930  1
  O  O18  1  0.149677  0.921560  0.332366  1
  O  O19  1  0.650623  0.578979  0.328771  1
  O  O20  1  0.564047  0.286847  0.340473  1
  O  O21  1  0.063493  0.213913  0.340629  1
  O  O22  1  0.436558  0.713254  0.659434  1
  O  O23  1  0.936412  0.785992  0.662555  1
  O  O24  1  0.349739  0.421380  0.667788  1
  O  O25  1  0.849256  0.078319  0.666807  1
  O  O26  1  0.204480  0.659515  0.700128  1
  O  O27  1  0.704947  0.838698  0.702109  1
  O  O28  1  0.188963  0.104238  0.733597  1
  O  O29  1  0.690120  0.398256  0.732277  1
  O  O30  1  0.472368  0.090067  0.777224  1
  O  O31  1  0.971213  0.410585  0.777618  1
