# generated using pymatgen
data_Gd3Si2IrPd
_symmetry_space_group_name_H-M   'P 1'
_cell_length_a   5.68485900
_cell_length_b   5.68485896
_cell_length_c   13.46989200
_cell_angle_alpha   90.00000000
_cell_angle_beta   90.00000000
_cell_angle_gamma   138.07579628
_symmetry_Int_Tables_number   1
_chemical_formula_structural   Gd3Si2IrPd
_chemical_formula_sum   'Gd6 Si4 Ir2 Pd2'
_cell_volume   290.85429123
_cell_formula_units_Z   2
loop_
 _symmetry_equiv_pos_site_id
 _symmetry_equiv_pos_as_xyz
  1  'x, y, z'
loop_
 _atom_site_type_symbol
 _atom_site_label
 _atom_site_symmetry_multiplicity
 _atom_site_fract_x
 _atom_site_fract_y
 _atom_site_fract_z
 _atom_site_occupancy
  Gd  Gd0  1  0.777058  0.222942  0.599636  1
  Gd  Gd1  1  0.515356  0.484644  0.250000  1
  Gd  Gd2  1  0.222942  0.777058  0.400364  1
  Gd  Gd3  1  0.777058  0.222942  0.900364  1
  Gd  Gd4  1  0.484644  0.515356  0.750000  1
  Gd  Gd5  1  0.222942  0.777058  0.099636  1
  Si  Si6  1  0.061256  0.938744  0.588534  1
  Si  Si7  1  0.061256  0.938744  0.911466  1
  Si  Si8  1  0.938744  0.061256  0.411466  1
  Si  Si9  1  0.938744  0.061256  0.088534  1
  Ir  Ir10  1  0.500000  0.500000  0.000000  1
  Ir  Ir11  1  0.500000  0.500000  0.500000  1
  Pd  Pd12  1  0.807393  0.192607  0.250000  1
  Pd  Pd13  1  0.192607  0.807393  0.750000  1
