# generated using pymatgen
data_MgBi2Rh4PbO14
_symmetry_space_group_name_H-M   'P 1'
_cell_length_a   7.34503670
_cell_length_b   7.15993669
_cell_length_c   7.27056964
_cell_angle_alpha   58.97006270
_cell_angle_beta   59.66060281
_cell_angle_gamma   59.14106509
_symmetry_Int_Tables_number   1
_chemical_formula_structural   MgBi2Rh4PbO14
_chemical_formula_sum   'Mg1 Bi2 Rh4 Pb1 O14'
_cell_volume   265.77350694
_cell_formula_units_Z   1
loop_
 _symmetry_equiv_pos_site_id
 _symmetry_equiv_pos_as_xyz
  1  'x, y, z'
loop_
 _atom_site_type_symbol
 _atom_site_label
 _atom_site_symmetry_multiplicity
 _atom_site_fract_x
 _atom_site_fract_y
 _atom_site_fract_z
 _atom_site_occupancy
  Mg  Mg0  1  0.125000  0.625000  0.125000  1
  Bi  Bi1  1  0.125000  0.125000  0.125000  1
  Bi  Bi2  1  0.625000  0.125000  0.125000  1
  Rh  Rh3  1  0.625000  0.625000  0.625000  1
  Rh  Rh4  1  0.625000  0.625000  0.125000  1
  Rh  Rh5  1  0.125000  0.625000  0.625000  1
  Rh  Rh6  1  0.625000  0.125000  0.625000  1
  Pb  Pb7  1  0.125000  0.125000  0.625000  1
  O  O8  1  0.245830  0.273649  0.234691  1
  O  O9  1  0.291504  0.707508  0.289604  1
  O  O10  1  0.958521  0.962834  0.537809  1
  O  O11  1  0.540837  0.962834  0.537809  1
  O  O12  1  0.711383  0.707508  0.289604  1
  O  O13  1  0.961212  0.542203  0.535374  1
  O  O14  1  0.709163  0.287166  0.712191  1
  O  O15  1  0.291479  0.287166  0.712191  1
  O  O16  1  0.711087  0.287803  0.290022  1
  O  O17  1  0.288788  0.707797  0.714626  1
  O  O18  1  0.958496  0.542492  0.960396  1
  O  O19  1  0.538617  0.542492  0.960396  1
  O  O20  1  0.004170  0.976351  0.015309  1
  O  O21  1  0.538913  0.962197  0.959978  1
