# generated using pymatgen
data_Ac5Bi2Os
_symmetry_space_group_name_H-M   'P 1'
_cell_length_a   8.95248400
_cell_length_b   9.63169600
_cell_length_c   13.66687700
_cell_angle_alpha   90.00000000
_cell_angle_beta   90.00000000
_cell_angle_gamma   90.00000000
_symmetry_Int_Tables_number   1
_chemical_formula_structural   Ac5Bi2Os
_chemical_formula_sum   'Ac20 Bi8 Os4'
_cell_volume   1178.46206242
_cell_formula_units_Z   4
loop_
 _symmetry_equiv_pos_site_id
 _symmetry_equiv_pos_as_xyz
  1  'x, y, z'
loop_
 _atom_site_type_symbol
 _atom_site_label
 _atom_site_symmetry_multiplicity
 _atom_site_fract_x
 _atom_site_fract_y
 _atom_site_fract_z
 _atom_site_occupancy
  Ac  Ac0  1  0.658214  0.750000  0.704648  1
  Ac  Ac1  1  0.341786  0.250000  0.295352  1
  Ac  Ac2  1  0.158214  0.250000  0.795352  1
  Ac  Ac3  1  0.841786  0.750000  0.204648  1
  Ac  Ac4  1  0.129005  0.750000  0.810166  1
  Ac  Ac5  1  0.870995  0.250000  0.189834  1
  Ac  Ac6  1  0.629005  0.250000  0.689834  1
  Ac  Ac7  1  0.370995  0.750000  0.310166  1
  Ac  Ac8  1  0.561499  0.750000  0.995856  1
  Ac  Ac9  1  0.438501  0.250000  0.004144  1
  Ac  Ac10  1  0.061499  0.250000  0.504144  1
  Ac  Ac11  1  0.938501  0.750000  0.495856  1
  Ac  Ac12  1  0.827993  0.460999  0.929904  1
  Ac  Ac13  1  0.172007  0.539001  0.070096  1
  Ac  Ac14  1  0.327993  0.539001  0.570096  1
  Ac  Ac15  1  0.172007  0.960999  0.070096  1
  Ac  Ac16  1  0.672007  0.460999  0.429904  1
  Ac  Ac17  1  0.827993  0.039001  0.929904  1
  Ac  Ac18  1  0.672007  0.039001  0.429904  1
  Ac  Ac19  1  0.327993  0.960999  0.570096  1
  Bi  Bi20  1  0.934138  0.005040  0.671208  1
  Bi  Bi21  1  0.065862  0.994960  0.328792  1
  Bi  Bi22  1  0.434138  0.994960  0.828792  1
  Bi  Bi23  1  0.065862  0.505040  0.328792  1
  Bi  Bi24  1  0.565862  0.005040  0.171208  1
  Bi  Bi25  1  0.934138  0.494960  0.671208  1
  Bi  Bi26  1  0.565862  0.494960  0.171208  1
  Bi  Bi27  1  0.434138  0.505040  0.828792  1
  Os  Os28  1  0.924122  0.750000  0.991126  1
  Os  Os29  1  0.075878  0.250000  0.008874  1
  Os  Os30  1  0.424122  0.250000  0.508874  1
  Os  Os31  1  0.575878  0.750000  0.491126  1
