# generated using pymatgen
data_EuGa8Pd3
_symmetry_space_group_name_H-M   'P 1'
_cell_length_a   8.56654496
_cell_length_b   8.56654497
_cell_length_c   8.56654585
_cell_angle_alpha   89.95184334
_cell_angle_beta   89.95184545
_cell_angle_gamma   89.95184999
_symmetry_Int_Tables_number   1
_chemical_formula_structural   EuGa8Pd3
_chemical_formula_sum   'Eu3 Ga24 Pd9'
_cell_volume   628.66123516
_cell_formula_units_Z   3
loop_
 _symmetry_equiv_pos_site_id
 _symmetry_equiv_pos_as_xyz
  1  'x, y, z'
loop_
 _atom_site_type_symbol
 _atom_site_label
 _atom_site_symmetry_multiplicity
 _atom_site_fract_x
 _atom_site_fract_y
 _atom_site_fract_z
 _atom_site_occupancy
  Eu  Eu0  1  0.000000  0.500000  0.000000  1
  Eu  Eu1  1  0.500000  0.000000  0.000000  1
  Eu  Eu2  1  0.000000  0.000000  0.500000  1
  Ga  Ga3  1  0.989682  0.643126  0.643126  1
  Ga  Ga4  1  0.643126  0.643126  0.989682  1
  Ga  Ga5  1  0.643126  0.989682  0.643126  1
  Ga  Ga6  1  0.010318  0.356874  0.356874  1
  Ga  Ga7  1  0.356874  0.356874  0.010318  1
  Ga  Ga8  1  0.356874  0.010318  0.356874  1
  Ga  Ga9  1  0.739951  0.500000  0.260049  1
  Ga  Ga10  1  0.260049  0.500000  0.739951  1
  Ga  Ga11  1  0.500000  0.260049  0.739951  1
  Ga  Ga12  1  0.500000  0.739951  0.260049  1
  Ga  Ga13  1  0.260049  0.739951  0.500000  1
  Ga  Ga14  1  0.739951  0.260049  0.500000  1
  Ga  Ga15  1  0.839184  0.142260  0.839184  1
  Ga  Ga16  1  0.142260  0.839184  0.839184  1
  Ga  Ga17  1  0.839184  0.839184  0.142260  1
  Ga  Ga18  1  0.160816  0.857740  0.160816  1
  Ga  Ga19  1  0.857740  0.160816  0.160816  1
  Ga  Ga20  1  0.160816  0.160816  0.857740  1
  Ga  Ga21  1  0.731842  0.484904  0.731842  1
  Ga  Ga22  1  0.484904  0.731842  0.731842  1
  Ga  Ga23  1  0.731842  0.731842  0.484904  1
  Ga  Ga24  1  0.268158  0.515096  0.268158  1
  Ga  Ga25  1  0.515096  0.268158  0.268158  1
  Ga  Ga26  1  0.268158  0.268158  0.515096  1
  Pd  Pd27  1  0.836272  0.836272  0.836272  1
  Pd  Pd28  1  0.163728  0.163728  0.163728  1
  Pd  Pd29  1  0.663021  0.336979  0.000000  1
  Pd  Pd30  1  0.000000  0.336979  0.663021  1
  Pd  Pd31  1  0.336979  0.000000  0.663021  1
  Pd  Pd32  1  0.336979  0.663021  0.000000  1
  Pd  Pd33  1  0.000000  0.663021  0.336979  1
  Pd  Pd34  1  0.663021  0.000000  0.336979  1
  Pd  Pd35  1  0.500000  0.500000  0.500000  1
