# generated using pymatgen
data_Dy5Sc3(Co4P3)4
_symmetry_space_group_name_H-M   'P 1'
_cell_length_a   12.22780200
_cell_length_b   12.22780086
_cell_length_c   3.71609300
_cell_angle_alpha   90.00000000
_cell_angle_beta   90.00000000
_cell_angle_gamma   119.99999227
_symmetry_Int_Tables_number   1
_chemical_formula_structural   Dy5Sc3(Co4P3)4
_chemical_formula_sum   'Dy5 Sc3 Co16 P12'
_cell_volume   481.18712076
_cell_formula_units_Z   1
loop_
 _symmetry_equiv_pos_site_id
 _symmetry_equiv_pos_as_xyz
  1  'x, y, z'
loop_
 _atom_site_type_symbol
 _atom_site_label
 _atom_site_symmetry_multiplicity
 _atom_site_fract_x
 _atom_site_fract_y
 _atom_site_fract_z
 _atom_site_occupancy
  Dy  Dy0  1  0.666667  0.333333  0.000000  1
  Dy  Dy1  1  0.333333  0.666667  0.000000  1
  Dy  Dy2  1  0.183579  0.183579  0.500000  1
  Dy  Dy3  1  0.816421  0.000000  0.500000  1
  Dy  Dy4  1  0.000000  0.816421  0.500000  1
  Sc  Sc5  1  0.559387  0.559387  0.000000  1
  Sc  Sc6  1  0.440613  0.000000  0.000000  1
  Sc  Sc7  1  0.000000  0.440613  0.000000  1
  Co  Co8  1  0.821254  0.195373  0.000000  1
  Co  Co9  1  0.804627  0.625881  0.000000  1
  Co  Co10  1  0.374119  0.178746  0.000000  1
  Co  Co11  1  0.195373  0.821254  0.000000  1
  Co  Co12  1  0.625881  0.804627  0.000000  1
  Co  Co13  1  0.178746  0.374119  0.000000  1
  Co  Co14  1  0.645009  0.124391  0.500000  1
  Co  Co15  1  0.875609  0.520618  0.500000  1
  Co  Co16  1  0.479382  0.354991  0.500000  1
  Co  Co17  1  0.124391  0.645009  0.500000  1
  Co  Co18  1  0.520618  0.875609  0.500000  1
  Co  Co19  1  0.354991  0.479382  0.500000  1
  Co  Co20  1  0.721284  0.721284  0.500000  1
  Co  Co21  1  0.278716  0.000000  0.500000  1
  Co  Co22  1  0.000000  0.278716  0.500000  1
  Co  Co23  1  0.000000  0.000000  0.000000  1
  P  P24  1  0.354150  0.354150  0.000000  1
  P  P25  1  0.645850  0.000000  0.000000  1
  P  P26  1  0.000000  0.645850  0.000000  1
  P  P27  1  0.829220  0.307601  0.500000  1
  P  P28  1  0.692399  0.521619  0.500000  1
  P  P29  1  0.478381  0.170780  0.500000  1
  P  P30  1  0.307601  0.829220  0.500000  1
  P  P31  1  0.521619  0.692399  0.500000  1
  P  P32  1  0.170780  0.478381  0.500000  1
  P  P33  1  0.820337  0.820337  0.000000  1
  P  P34  1  0.179663  0.000000  0.000000  1
  P  P35  1  0.000000  0.179663  0.000000  1
