# generated using pymatgen
data_ErAlCu3Pd
_symmetry_space_group_name_H-M   'P 1'
_cell_length_a   5.05019511
_cell_length_b   5.05019537
_cell_length_c   5.01373652
_cell_angle_alpha   59.75915825
_cell_angle_beta   59.75915149
_cell_angle_gamma   59.99999404
_symmetry_Int_Tables_number   1
_chemical_formula_structural   ErAlCu3Pd
_chemical_formula_sum   'Er1 Al1 Cu3 Pd1'
_cell_volume   90.08909059
_cell_formula_units_Z   1
loop_
 _symmetry_equiv_pos_site_id
 _symmetry_equiv_pos_as_xyz
  1  'x, y, z'
loop_
 _atom_site_type_symbol
 _atom_site_label
 _atom_site_symmetry_multiplicity
 _atom_site_fract_x
 _atom_site_fract_y
 _atom_site_fract_z
 _atom_site_occupancy
  Er  Er0  1  0.004538  0.004538  0.986386  1
  Al  Al1  1  0.619542  0.619542  0.141376  1
  Cu  Cu2  1  0.623876  0.124517  0.627732  1
  Cu  Cu3  1  0.124517  0.623876  0.627732  1
  Cu  Cu4  1  0.623876  0.623876  0.627732  1
  Pd  Pd5  1  0.253652  0.253652  0.239043  1
