# generated using pymatgen
data_TbMn3Al8Fe
_symmetry_space_group_name_H-M   'P 1'
_cell_length_a   5.15697759
_cell_length_b   6.70462511
_cell_length_c   6.70315043
_cell_angle_alpha   81.66323580
_cell_angle_beta   67.37685984
_cell_angle_gamma   67.85662797
_symmetry_Int_Tables_number   1
_chemical_formula_structural   TbMn3Al8Fe
_chemical_formula_sum   'Tb1 Mn3 Al8 Fe1'
_cell_volume   198.15337035
_cell_formula_units_Z   1
loop_
 _symmetry_equiv_pos_site_id
 _symmetry_equiv_pos_as_xyz
  1  'x, y, z'
loop_
 _atom_site_type_symbol
 _atom_site_label
 _atom_site_symmetry_multiplicity
 _atom_site_fract_x
 _atom_site_fract_y
 _atom_site_fract_z
 _atom_site_occupancy
  Tb  Tb0  1  0.000000  0.000000  0.000000  1
  Mn  Mn1  1  0.000000  0.000000  0.500000  1
  Mn  Mn2  1  0.500000  0.000000  0.500000  1
  Mn  Mn3  1  0.000000  0.500000  0.000000  1
  Al  Al4  1  0.997262  0.339589  0.663204  1
  Al  Al5  1  0.002738  0.660411  0.336796  1
  Al  Al6  1  0.660466  0.339589  0.336796  1
  Al  Al7  1  0.339534  0.660411  0.663204  1
  Al  Al8  1  0.498532  0.772844  0.223837  1
  Al  Al9  1  0.501468  0.227156  0.776163  1
  Al  Al10  1  0.722369  0.772844  0.776163  1
  Al  Al11  1  0.277631  0.227156  0.223837  1
  Fe  Fe12  1  0.500000  0.500000  0.000000  1
