# generated using pymatgen
data_DyLu5(Sc2Pb3)2
_symmetry_space_group_name_H-M   'P 1'
_cell_length_a   8.78920700
_cell_length_b   8.80843087
_cell_length_c   6.31531600
_cell_angle_alpha   90.00000000
_cell_angle_beta   90.00000000
_cell_angle_gamma   119.92783544
_symmetry_Int_Tables_number   1
_chemical_formula_structural   DyLu5(Sc2Pb3)2
_chemical_formula_sum   'Dy1 Lu5 Sc4 Pb6'
_cell_volume   423.73009610
_cell_formula_units_Z   1
loop_
 _symmetry_equiv_pos_site_id
 _symmetry_equiv_pos_as_xyz
  1  'x, y, z'
loop_
 _atom_site_type_symbol
 _atom_site_label
 _atom_site_symmetry_multiplicity
 _atom_site_fract_x
 _atom_site_fract_y
 _atom_site_fract_z
 _atom_site_occupancy
  Dy  Dy0  1  0.235867  0.000000  0.250000  1
  Lu  Lu1  1  0.235918  0.236495  0.750000  1
  Lu  Lu2  1  0.999424  0.763505  0.750000  1
  Lu  Lu3  1  0.999904  0.236205  0.250000  1
  Lu  Lu4  1  0.763699  0.763795  0.250000  1
  Lu  Lu5  1  0.764873  0.000000  0.750000  1
  Sc  Sc6  1  0.333598  0.667068  0.999982  1
  Sc  Sc7  1  0.666531  0.332932  0.500018  1
  Sc  Sc8  1  0.666531  0.332932  0.999982  1
  Sc  Sc9  1  0.333598  0.667068  0.500018  1
  Pb  Pb10  1  0.602577  0.000000  0.250000  1
  Pb  Pb11  1  0.601799  0.601831  0.750000  1
  Pb  Pb12  1  0.999968  0.398169  0.750000  1
  Pb  Pb13  1  0.998774  0.600097  0.250000  1
  Pb  Pb14  1  0.398677  0.399903  0.250000  1
  Pb  Pb15  1  0.398263  0.000000  0.750000  1
