# generated using pymatgen
data_Tb3Nd(Lu3Si4)2
_symmetry_space_group_name_H-M   'P 1'
_cell_length_a   7.58642100
_cell_length_b   7.58411160
_cell_length_c   13.88662100
_cell_angle_alpha   90.00000000
_cell_angle_beta   90.00000000
_cell_angle_gamma   90.06308941
_symmetry_Int_Tables_number   1
_chemical_formula_structural   Tb3Nd(Lu3Si4)2
_chemical_formula_sum   'Tb6 Nd2 Lu12 Si16'
_cell_volume   798.98380049
_cell_formula_units_Z   2
loop_
 _symmetry_equiv_pos_site_id
 _symmetry_equiv_pos_as_xyz
  1  'x, y, z'
loop_
 _atom_site_type_symbol
 _atom_site_label
 _atom_site_symmetry_multiplicity
 _atom_site_fract_x
 _atom_site_fract_y
 _atom_site_fract_z
 _atom_site_occupancy
  Tb  Tb0  1  0.147771  0.495795  0.461185  1
  Tb  Tb1  1  0.503947  0.853239  0.038670  1
  Tb  Tb2  1  0.852229  0.504205  0.961185  1
  Tb  Tb3  1  0.496053  0.146761  0.538670  1
  Tb  Tb4  1  0.354530  0.995054  0.789350  1
  Tb  Tb5  1  0.645470  0.004946  0.289350  1
  Nd  Nd6  1  0.993828  0.352234  0.211079  1
  Nd  Nd7  1  0.006172  0.647766  0.711079  1
  Lu  Lu8  1  0.179469  0.177795  0.999875  1
  Lu  Lu9  1  0.820531  0.822205  0.499875  1
  Lu  Lu10  1  0.320852  0.680289  0.250101  1
  Lu  Lu11  1  0.679148  0.319711  0.750101  1
  Lu  Lu12  1  0.144002  0.006956  0.376545  1
  Lu  Lu13  1  0.855998  0.993044  0.876545  1
  Lu  Lu14  1  0.495755  0.643033  0.625900  1
  Lu  Lu15  1  0.357164  0.503858  0.874106  1
  Lu  Lu16  1  0.504245  0.356967  0.125900  1
  Lu  Lu17  1  0.642836  0.496142  0.374106  1
  Lu  Lu18  1  0.005648  0.143986  0.623650  1
  Lu  Lu19  1  0.994352  0.856014  0.123650  1
  Si  Si20  1  0.354976  0.294305  0.317445  1
  Si  Si21  1  0.645024  0.705695  0.817445  1
  Si  Si22  1  0.208717  0.854665  0.564472  1
  Si  Si23  1  0.148423  0.794734  0.934294  1
  Si  Si24  1  0.791283  0.145335  0.064472  1
  Si  Si25  1  0.851577  0.205266  0.434294  1
  Si  Si26  1  0.297061  0.349831  0.683712  1
  Si  Si27  1  0.702939  0.650169  0.183712  1
  Si  Si28  1  0.295533  0.054392  0.187425  1
  Si  Si29  1  0.704467  0.945608  0.687425  1
  Si  Si30  1  0.444088  0.795224  0.437515  1
  Si  Si31  1  0.207521  0.558762  0.061362  1
  Si  Si32  1  0.555912  0.204776  0.937515  1
  Si  Si33  1  0.792479  0.441238  0.561362  1
  Si  Si34  1  0.057802  0.290384  0.813315  1
  Si  Si35  1  0.942198  0.709616  0.313315  1
