# generated using pymatgen
data_YHo3(NbRu3)2
_symmetry_space_group_name_H-M   'P 1'
_cell_length_a   5.68739901
_cell_length_b   5.68753533
_cell_length_c   8.04374400
_cell_angle_alpha   90.00086385
_cell_angle_beta   89.99975804
_cell_angle_gamma   119.99831925
_symmetry_Int_Tables_number   1
_chemical_formula_structural   YHo3(NbRu3)2
_chemical_formula_sum   'Y1 Ho3 Nb2 Ru6'
_cell_volume   225.33779101
_cell_formula_units_Z   1
loop_
 _symmetry_equiv_pos_site_id
 _symmetry_equiv_pos_as_xyz
  1  'x, y, z'
loop_
 _atom_site_type_symbol
 _atom_site_label
 _atom_site_symmetry_multiplicity
 _atom_site_fract_x
 _atom_site_fract_y
 _atom_site_fract_z
 _atom_site_occupancy
  Y  Y0  1  0.666642  0.333356  0.561296  1
  Ho  Ho1  1  0.333351  0.666660  0.439279  1
  Ho  Ho2  1  0.333355  0.666659  0.060626  1
  Ho  Ho3  1  0.666655  0.333333  0.939810  1
  Nb  Nb4  1  0.000001  0.999997  0.500112  1
  Nb  Nb5  1  0.999996  0.999994  0.000102  1
  Ru  Ru6  1  0.172000  0.344068  0.750288  1
  Ru  Ru7  1  0.172038  0.827966  0.750289  1
  Ru  Ru8  1  0.655929  0.828001  0.750288  1
  Ru  Ru9  1  0.828245  0.656434  0.249301  1
  Ru  Ru10  1  0.828230  0.171781  0.249306  1
  Ru  Ru11  1  0.343559  0.171751  0.249302  1
