# generated using pymatgen
data_Y7Er(ZrGa5)4
_symmetry_space_group_name_H-M   'P 1'
_cell_length_a   5.96980621
_cell_length_b   9.42695255
_cell_length_c   11.38583083
_cell_angle_alpha   90.03535614
_cell_angle_beta   89.97416931
_cell_angle_gamma   89.98356256
_symmetry_Int_Tables_number   1
_chemical_formula_structural   Y7Er(ZrGa5)4
_chemical_formula_sum   'Y7 Er1 Zr4 Ga20'
_cell_volume   640.76109765
_cell_formula_units_Z   1
loop_
 _symmetry_equiv_pos_site_id
 _symmetry_equiv_pos_as_xyz
  1  'x, y, z'
loop_
 _atom_site_type_symbol
 _atom_site_label
 _atom_site_symmetry_multiplicity
 _atom_site_fract_x
 _atom_site_fract_y
 _atom_site_fract_z
 _atom_site_occupancy
  Y  Y0  1  0.886299  0.507035  0.352388  1
  Y  Y1  1  0.613698  0.992824  0.852339  1
  Y  Y2  1  0.113671  0.007075  0.647813  1
  Y  Y3  1  0.386503  0.492938  0.147154  1
  Y  Y4  1  0.113495  0.492951  0.647862  1
  Y  Y5  1  0.386515  0.007092  0.147473  1
  Y  Y6  1  0.886341  0.993021  0.352387  1
  Er  Er7  1  0.613271  0.507251  0.852573  1
  Zr  Zr8  1  0.857487  0.749807  0.075391  1
  Zr  Zr9  1  0.642303  0.749914  0.575763  1
  Zr  Zr10  1  0.142935  0.250081  0.924231  1
  Zr  Zr11  1  0.357736  0.250070  0.424446  1
  Ga  Ga12  1  0.875670  0.053248  0.088473  1
  Ga  Ga13  1  0.624283  0.447037  0.589170  1
  Ga  Ga14  1  0.124733  0.552972  0.911245  1
  Ga  Ga15  1  0.375679  0.946852  0.411514  1
  Ga  Ga16  1  0.124304  0.946609  0.911509  1
  Ga  Ga17  1  0.375720  0.553153  0.411497  1
  Ga  Ga18  1  0.875538  0.446907  0.088103  1
  Ga  Ga19  1  0.624252  0.053184  0.588537  1
  Ga  Ga20  1  0.162195  0.749982  0.254073  1
  Ga  Ga21  1  0.338292  0.749354  0.754557  1
  Ga  Ga22  1  0.836982  0.250670  0.746430  1
  Ga  Ga23  1  0.662288  0.250018  0.245763  1
  Ga  Ga24  1  0.389086  0.749725  0.001744  1
  Ga  Ga25  1  0.111421  0.750005  0.502084  1
  Ga  Ga26  1  0.611869  0.250727  0.997131  1
  Ga  Ga27  1  0.888333  0.250113  0.497954  1
  Ga  Ga28  1  0.604377  0.749980  0.293971  1
  Ga  Ga29  1  0.894655  0.749112  0.794302  1
  Ga  Ga30  1  0.395645  0.250227  0.706111  1
  Ga  Ga31  1  0.104423  0.250067  0.206012  1
