# generated using pymatgen
data_Dy8Si12Pt3Rh
_symmetry_space_group_name_H-M   'P 1'
_cell_length_a   8.16969100
_cell_length_b   8.16969166
_cell_length_c   8.08855600
_cell_angle_alpha   90.00000000
_cell_angle_beta   90.00000000
_cell_angle_gamma   119.99999327
_symmetry_Int_Tables_number   1
_chemical_formula_structural   Dy8Si12Pt3Rh
_chemical_formula_sum   'Dy8 Si12 Pt3 Rh1'
_cell_volume   467.53373637
_cell_formula_units_Z   1
loop_
 _symmetry_equiv_pos_site_id
 _symmetry_equiv_pos_as_xyz
  1  'x, y, z'
loop_
 _atom_site_type_symbol
 _atom_site_label
 _atom_site_symmetry_multiplicity
 _atom_site_fract_x
 _atom_site_fract_y
 _atom_site_fract_z
 _atom_site_occupancy
  Dy  Dy0  1  0.000000  0.000000  0.250769  1
  Dy  Dy1  1  0.000000  0.000000  0.748926  1
  Dy  Dy2  1  0.007624  0.503812  0.252326  1
  Dy  Dy3  1  0.496188  0.503812  0.252326  1
  Dy  Dy4  1  0.504799  0.009597  0.747774  1
  Dy  Dy5  1  0.496188  0.992376  0.252326  1
  Dy  Dy6  1  0.504799  0.495201  0.747774  1
  Dy  Dy7  1  0.990403  0.495201  0.747774  1
  Si  Si8  1  0.165581  0.331161  0.000148  1
  Si  Si9  1  0.668839  0.834419  0.000148  1
  Si  Si10  1  0.164677  0.329354  0.499982  1
  Si  Si11  1  0.330188  0.165095  0.000036  1
  Si  Si12  1  0.165581  0.834419  0.000148  1
  Si  Si13  1  0.670646  0.835323  0.499982  1
  Si  Si14  1  0.834905  0.669812  0.000036  1
  Si  Si15  1  0.334873  0.167437  0.499895  1
  Si  Si16  1  0.164677  0.835323  0.499982  1
  Si  Si17  1  0.832563  0.665127  0.499895  1
  Si  Si18  1  0.834905  0.165095  0.000036  1
  Si  Si19  1  0.832563  0.167437  0.499895  1
  Pt  Pt20  1  0.333333  0.666667  0.987802  1
  Pt  Pt21  1  0.333333  0.666667  0.513462  1
  Pt  Pt22  1  0.666667  0.333333  0.013426  1
  Rh  Rh23  1  0.666667  0.333333  0.485131  1
