# generated using pymatgen
data_Nd3Cd3Hg2Pb
_symmetry_space_group_name_H-M   'P 1'
_cell_length_a   7.88543000
_cell_length_b   7.88542939
_cell_length_c   4.52998400
_cell_angle_alpha   90.00000000
_cell_angle_beta   90.00000000
_cell_angle_gamma   120.00000254
_symmetry_Int_Tables_number   1
_chemical_formula_structural   Nd3Cd3Hg2Pb
_chemical_formula_sum   'Nd3 Cd3 Hg2 Pb1'
_cell_volume   243.93719009
_cell_formula_units_Z   1
loop_
 _symmetry_equiv_pos_site_id
 _symmetry_equiv_pos_as_xyz
  1  'x, y, z'
loop_
 _atom_site_type_symbol
 _atom_site_label
 _atom_site_symmetry_multiplicity
 _atom_site_fract_x
 _atom_site_fract_y
 _atom_site_fract_z
 _atom_site_occupancy
  Nd  Nd0  1  0.582901  0.991430  0.000000  1
  Nd  Nd1  1  0.008570  0.591470  0.000000  1
  Nd  Nd2  1  0.408530  0.417099  0.000000  1
  Cd  Cd3  1  0.242733  0.987143  0.500000  1
  Cd  Cd4  1  0.012857  0.255590  0.500000  1
  Cd  Cd5  1  0.744410  0.757267  0.500000  1
  Hg  Hg6  1  0.333333  0.666667  0.500000  1
  Hg  Hg7  1  0.000000  0.000000  0.000000  1
  Pb  Pb8  1  0.666667  0.333333  0.500000  1
