# generated using pymatgen
data_BaPuF5
_symmetry_space_group_name_H-M   'P 1'
_cell_length_a   8.68309649
_cell_length_b   8.68309659
_cell_length_c   6.19235081
_cell_angle_alpha   89.16548868
_cell_angle_beta   89.16548038
_cell_angle_gamma   149.80690250
_symmetry_Int_Tables_number   1
_chemical_formula_structural   BaPuF5
_chemical_formula_sum   'Ba2 Pu2 F10'
_cell_volume   234.43366801
_cell_formula_units_Z   2
loop_
 _symmetry_equiv_pos_site_id
 _symmetry_equiv_pos_as_xyz
  1  'x, y, z'
loop_
 _atom_site_type_symbol
 _atom_site_label
 _atom_site_symmetry_multiplicity
 _atom_site_fract_x
 _atom_site_fract_y
 _atom_site_fract_z
 _atom_site_occupancy
  Ba  Ba0  1  0.323544  0.676456  0.750000  1
  Ba  Ba1  1  0.676456  0.323544  0.250000  1
  Pu  Pu2  1  0.073406  0.926594  0.750000  1
  Pu  Pu3  1  0.926594  0.073406  0.250000  1
  F  F4  1  0.732316  0.810234  0.598207  1
  F  F5  1  0.810234  0.732316  0.098207  1
  F  F6  1  0.800305  0.173908  0.008089  1
  F  F7  1  0.620259  0.379741  0.750000  1
  F  F8  1  0.826092  0.199695  0.491911  1
  F  F9  1  0.173908  0.800305  0.508089  1
  F  F10  1  0.379741  0.620259  0.250000  1
  F  F11  1  0.199695  0.826092  0.991911  1
  F  F12  1  0.189766  0.267684  0.901793  1
  F  F13  1  0.267684  0.189766  0.401793  1
