# generated using pymatgen
data_Ce2SmFe3(CoP)6
_symmetry_space_group_name_H-M   'P 1'
_cell_length_a   3.75612000
_cell_length_b   10.68158000
_cell_length_c   12.21306300
_cell_angle_alpha   90.00000000
_cell_angle_beta   90.00000000
_cell_angle_gamma   90.00000000
_symmetry_Int_Tables_number   1
_chemical_formula_structural   Ce2SmFe3(CoP)6
_chemical_formula_sum   'Ce4 Sm2 Fe6 Co12 P12'
_cell_volume   490.00391898
_cell_formula_units_Z   2
loop_
 _symmetry_equiv_pos_site_id
 _symmetry_equiv_pos_as_xyz
  1  'x, y, z'
loop_
 _atom_site_type_symbol
 _atom_site_label
 _atom_site_symmetry_multiplicity
 _atom_site_fract_x
 _atom_site_fract_y
 _atom_site_fract_z
 _atom_site_occupancy
  Ce  Ce0  1  0.000000  0.500000  0.525378  1
  Ce  Ce1  1  0.500000  0.000000  0.476836  1
  Ce  Ce2  1  0.500000  0.820107  0.203526  1
  Ce  Ce3  1  0.500000  0.179893  0.203526  1
  Sm  Sm4  1  0.000000  0.682408  0.795851  1
  Sm  Sm5  1  0.000000  0.317592  0.795851  1
  Fe  Fe6  1  0.500000  0.500000  0.154552  1
  Fe  Fe7  1  0.000000  0.000000  0.847659  1
  Fe  Fe8  1  0.000000  0.500000  0.988422  1
  Fe  Fe9  1  0.500000  0.000000  0.010648  1
  Fe  Fe10  1  0.000000  0.168500  0.004716  1
  Fe  Fe11  1  0.000000  0.831500  0.004716  1
  Co  Co12  1  0.500000  0.500000  0.697393  1
  Co  Co13  1  0.000000  0.000000  0.296406  1
  Co  Co14  1  0.500000  0.334699  0.996294  1
  Co  Co15  1  0.500000  0.665301  0.996294  1
  Co  Co16  1  0.500000  0.298427  0.430215  1
  Co  Co17  1  0.500000  0.701573  0.430215  1
  Co  Co18  1  0.000000  0.200265  0.569918  1
  Co  Co19  1  0.000000  0.799735  0.569918  1
  Co  Co20  1  0.500000  0.880907  0.711821  1
  Co  Co21  1  0.500000  0.119093  0.711821  1
  Co  Co22  1  0.000000  0.621165  0.288529  1
  Co  Co23  1  0.000000  0.378835  0.288529  1
  P  P24  1  0.500000  0.500000  0.885344  1
  P  P25  1  0.000000  0.000000  0.109255  1
  P  P26  1  0.500000  0.500000  0.339621  1
  P  P27  1  0.000000  0.000000  0.662731  1
  P  P28  1  0.500000  0.304958  0.615448  1
  P  P29  1  0.500000  0.695042  0.615448  1
  P  P30  1  0.000000  0.194683  0.385422  1
  P  P31  1  0.000000  0.805317  0.385422  1
  P  P32  1  0.500000  0.845595  0.897568  1
  P  P33  1  0.500000  0.154405  0.897568  1
  P  P34  1  0.000000  0.653017  0.103570  1
  P  P35  1  0.000000  0.346983  0.103570  1
