# generated using pymatgen
data_Lu3Zn3Cu2Ni
_symmetry_space_group_name_H-M   'P 1'
_cell_length_a   7.08196200
_cell_length_b   7.08196200
_cell_length_c   3.64081000
_cell_angle_alpha   90.00000000
_cell_angle_beta   90.00000000
_cell_angle_gamma   120.00000000
_symmetry_Int_Tables_number   1
_chemical_formula_structural   Lu3Zn3Cu2Ni
_chemical_formula_sum   'Lu3 Zn3 Cu2 Ni1'
_cell_volume   158.13785047
_cell_formula_units_Z   1
loop_
 _symmetry_equiv_pos_site_id
 _symmetry_equiv_pos_as_xyz
  1  'x, y, z'
loop_
 _atom_site_type_symbol
 _atom_site_label
 _atom_site_symmetry_multiplicity
 _atom_site_fract_x
 _atom_site_fract_y
 _atom_site_fract_z
 _atom_site_occupancy
  Lu  Lu0  1  0.595548  0.011424  0.000000  1
  Lu  Lu1  1  0.988576  0.584125  0.000000  1
  Lu  Lu2  1  0.415875  0.404452  0.000000  1
  Zn  Zn3  1  0.254685  0.001543  0.500000  1
  Zn  Zn4  1  0.998457  0.253142  0.500000  1
  Zn  Zn5  1  0.746858  0.745315  0.500000  1
  Cu  Cu6  1  0.333333  0.666667  0.500000  1
  Cu  Cu7  1  0.000000  0.000000  0.000000  1
  Ni  Ni8  1  0.666667  0.333333  0.500000  1
