# generated using pymatgen
data_La4Sm3Dy(TeO6)4
_symmetry_space_group_name_H-M   'P 1'
_cell_length_a   5.50263612
_cell_length_b   9.41384637
_cell_length_c   10.31702838
_cell_angle_alpha   89.97007145
_cell_angle_beta   89.92797438
_cell_angle_gamma   89.98896816
_symmetry_Int_Tables_number   1
_chemical_formula_structural   La4Sm3Dy(TeO6)4
_chemical_formula_sum   'La4 Sm3 Dy1 Te4 O24'
_cell_volume   534.43158301
_cell_formula_units_Z   1
loop_
 _symmetry_equiv_pos_site_id
 _symmetry_equiv_pos_as_xyz
  1  'x, y, z'
loop_
 _atom_site_type_symbol
 _atom_site_label
 _atom_site_symmetry_multiplicity
 _atom_site_fract_x
 _atom_site_fract_y
 _atom_site_fract_z
 _atom_site_occupancy
  La  La0  1  0.530972  0.219253  0.357707  1
  La  La1  1  0.030196  0.280433  0.642252  1
  La  La2  1  0.468871  0.719798  0.142887  1
  La  La3  1  0.969420  0.780654  0.856922  1
  Sm  Sm4  1  0.521820  0.102798  0.955604  1
  Sm  Sm5  1  0.021557  0.396929  0.044472  1
  Sm  Sm6  1  0.477041  0.604870  0.543682  1
  Dy  Dy7  1  0.979686  0.898001  0.455264  1
  Te  Te8  1  0.465245  0.990578  0.639759  1
  Te  Te9  1  0.963915  0.509813  0.358920  1
  Te  Te10  1  0.535419  0.491623  0.858512  1
  Te  Te11  1  0.035252  0.007811  0.143070  1
  O  O12  1  0.304464  0.141050  0.170476  1
  O  O13  1  0.804474  0.358313  0.830018  1
  O  O14  1  0.693493  0.641016  0.329436  1
  O  O15  1  0.195768  0.857207  0.666356  1
  O  O16  1  0.725016  0.108083  0.562483  1
  O  O17  1  0.225456  0.393920  0.437174  1
  O  O18  1  0.274286  0.607961  0.936527  1
  O  O19  1  0.774545  0.892251  0.063958  1
  O  O20  1  0.674914  0.633915  0.745046  1
  O  O21  1  0.173001  0.866092  0.257958  1
  O  O22  1  0.325188  0.132897  0.753449  1
  O  O23  1  0.825580  0.366394  0.245790  1
  O  O24  1  0.664154  0.947372  0.789433  1
  O  O25  1  0.165172  0.552361  0.210198  1
  O  O26  1  0.334681  0.448014  0.710121  1
  O  O27  1  0.835481  0.049848  0.292964  1
  O  O28  1  0.256170  0.073969  0.502568  1
  O  O29  1  0.758557  0.423270  0.495993  1
  O  O30  1  0.741135  0.577806  0.995403  1
  O  O31  1  0.241217  0.921811  0.005787  1
  O  O32  1  0.092258  0.661827  0.468132  1
  O  O33  1  0.604710  0.842676  0.530173  1
  O  O34  1  0.905166  0.157348  0.032068  1
  O  O35  1  0.405720  0.342035  0.969436  1
