# generated using pymatgen
data_Er8V11Si16Os
_symmetry_space_group_name_H-M   'P 1'
_cell_length_a   6.77693422
_cell_length_b   6.77812713
_cell_length_c   12.56207598
_cell_angle_alpha   89.99047119
_cell_angle_beta   89.99411006
_cell_angle_gamma   89.74529632
_symmetry_Int_Tables_number   1
_chemical_formula_structural   Er8V11Si16Os
_chemical_formula_sum   'Er8 V11 Si16 Os1'
_cell_volume   577.03226441
_cell_formula_units_Z   1
loop_
 _symmetry_equiv_pos_site_id
 _symmetry_equiv_pos_as_xyz
  1  'x, y, z'
loop_
 _atom_site_type_symbol
 _atom_site_label
 _atom_site_symmetry_multiplicity
 _atom_site_fract_x
 _atom_site_fract_y
 _atom_site_fract_z
 _atom_site_occupancy
  Er  Er0  1  0.337159  0.001498  0.470496  1
  Er  Er1  1  0.498388  0.836386  0.720421  1
  Er  Er2  1  0.499251  0.163548  0.219652  1
  Er  Er3  1  0.836181  0.498432  0.279507  1
  Er  Er4  1  0.163208  0.499143  0.780329  1
  Er  Er5  1  0.662718  0.999473  0.970899  1
  Er  Er6  1  0.001411  0.337047  0.529532  1
  Er  Er7  1  0.999339  0.662662  0.029176  1
  V  V8  1  0.172612  0.832169  0.247402  1
  V  V9  1  0.831522  0.172310  0.752556  1
  V  V10  1  0.670530  0.670918  0.499847  1
  V  V11  1  0.155087  0.000945  0.873598  1
  V  V12  1  0.491897  0.668343  0.127285  1
  V  V13  1  0.507672  0.341457  0.626122  1
  V  V14  1  0.668019  0.491567  0.872848  1
  V  V15  1  0.341918  0.507465  0.373796  1
  V  V16  1  0.839634  0.991701  0.375899  1
  V  V17  1  0.001106  0.155735  0.126862  1
  V  V18  1  0.992013  0.839193  0.623967  1
  Si  Si19  1  0.198266  0.124578  0.684924  1
  Si  Si20  1  0.379437  0.696053  0.934656  1
  Si  Si21  1  0.624569  0.300692  0.435195  1
  Si  Si22  1  0.696039  0.379488  0.065351  1
  Si  Si23  1  0.300787  0.624242  0.564847  1
  Si  Si24  1  0.798886  0.875349  0.185588  1
  Si  Si25  1  0.124797  0.198737  0.315319  1
  Si  Si26  1  0.875040  0.798744  0.814442  1
  Si  Si27  1  0.284910  0.962898  0.062776  1
  Si  Si28  1  0.540296  0.790614  0.315846  1
  Si  Si29  1  0.458113  0.210031  0.815989  1
  Si  Si30  1  0.790154  0.540128  0.684125  1
  Si  Si31  1  0.210300  0.458343  0.183951  1
  Si  Si32  1  0.711518  0.041736  0.565844  1
  Si  Si33  1  0.962630  0.284993  0.937235  1
  Si  Si34  1  0.041951  0.711134  0.434000  1
  Os  Os35  1  0.332645  0.332251  0.999716  1
