# generated using pymatgen
data_Tb3Tm7Si5As
_symmetry_space_group_name_H-M   'P 1'
_cell_length_a   8.35092965
_cell_length_b   8.39925712
_cell_length_c   6.22863500
_cell_angle_alpha   90.00000000
_cell_angle_beta   90.00000000
_cell_angle_gamma   119.97431499
_symmetry_Int_Tables_number   1
_chemical_formula_structural   Tb3Tm7Si5As
_chemical_formula_sum   'Tb3 Tm7 Si5 As1'
_cell_volume   378.45265855
_cell_formula_units_Z   1
loop_
 _symmetry_equiv_pos_site_id
 _symmetry_equiv_pos_as_xyz
  1  'x, y, z'
loop_
 _atom_site_type_symbol
 _atom_site_label
 _atom_site_symmetry_multiplicity
 _atom_site_fract_x
 _atom_site_fract_y
 _atom_site_fract_z
 _atom_site_occupancy
  Tb  Tb0  1  0.758300  0.999788  0.750000  1
  Tb  Tb1  1  0.243494  0.247296  0.750000  1
  Tb  Tb2  1  0.242806  0.999425  0.250000  1
  Tm  Tm3  1  0.995725  0.751610  0.750000  1
  Tm  Tm4  1  0.999999  0.245555  0.250000  1
  Tm  Tm5  1  0.755737  0.755279  0.250000  1
  Tm  Tm6  1  0.332725  0.663556  0.498438  1
  Tm  Tm7  1  0.669881  0.336956  0.001538  1
  Tm  Tm8  1  0.669881  0.336956  0.498462  1
  Tm  Tm9  1  0.332725  0.663556  0.001562  1
  Si  Si10  1  0.394595  0.394762  0.250000  1
  Si  Si11  1  0.999793  0.604966  0.250000  1
  Si  Si12  1  0.999583  0.396693  0.750000  1
  Si  Si13  1  0.606617  0.605529  0.750000  1
  Si  Si14  1  0.608584  0.999901  0.250000  1
  As  As15  1  0.389555  0.998172  0.750000  1
