# generated using pymatgen
data_TiVCl6
_symmetry_space_group_name_H-M   'P 1'
_cell_length_a   7.50124751
_cell_length_b   7.50124788
_cell_length_c   7.50124835
_cell_angle_alpha   48.23895329
_cell_angle_beta   48.23895537
_cell_angle_gamma   48.23896230
_symmetry_Int_Tables_number   1
_chemical_formula_structural   TiVCl6
_chemical_formula_sum   'Ti1 V1 Cl6'
_cell_volume   215.26972032
_cell_formula_units_Z   1
loop_
 _symmetry_equiv_pos_site_id
 _symmetry_equiv_pos_as_xyz
  1  'x, y, z'
loop_
 _atom_site_type_symbol
 _atom_site_label
 _atom_site_symmetry_multiplicity
 _atom_site_fract_x
 _atom_site_fract_y
 _atom_site_fract_z
 _atom_site_occupancy
  Ti  Ti0  1  0.333332  0.333332  0.333332  1
  V  V1  1  0.666669  0.666669  0.666669  1
  Cl  Cl2  1  0.709285  0.073925  0.425659  1
  Cl  Cl3  1  0.073925  0.425659  0.709285  1
  Cl  Cl4  1  0.570002  0.286401  0.934728  1
  Cl  Cl5  1  0.934728  0.570002  0.286401  1
  Cl  Cl6  1  0.286401  0.934728  0.570002  1
  Cl  Cl7  1  0.425659  0.709285  0.073925  1
