# generated using pymatgen
data_MgScAl2(B4Ru5)2
_symmetry_space_group_name_H-M   'P 1'
_cell_length_a   2.95581500
_cell_length_b   8.36199967
_cell_length_c   10.11414245
_cell_angle_alpha   88.78331117
_cell_angle_beta   90.00000000
_cell_angle_gamma   90.00000000
_symmetry_Int_Tables_number   1
_chemical_formula_structural   MgScAl2(B4Ru5)2
_chemical_formula_sum   'Mg1 Sc1 Al2 B8 Ru10'
_cell_volume   249.93008363
_cell_formula_units_Z   1
loop_
 _symmetry_equiv_pos_site_id
 _symmetry_equiv_pos_as_xyz
  1  'x, y, z'
loop_
 _atom_site_type_symbol
 _atom_site_label
 _atom_site_symmetry_multiplicity
 _atom_site_fract_x
 _atom_site_fract_y
 _atom_site_fract_z
 _atom_site_occupancy
  Mg  Mg0  1  0.500000  0.850801  0.312782  1
  Sc  Sc1  1  0.500000  0.149956  0.680923  1
  Al  Al2  1  0.500000  0.641924  0.821744  1
  Al  Al3  1  0.500000  0.361179  0.182110  1
  B  B4  1  0.500000  0.847903  0.601436  1
  B  B5  1  0.500000  0.147823  0.396337  1
  B  B6  1  0.500000  0.350726  0.897462  1
  B  B7  1  0.500000  0.649601  0.105546  1
  B  B8  1  0.500000  0.958152  0.911164  1
  B  B9  1  0.500000  0.040306  0.089644  1
  B  B10  1  0.500000  0.460032  0.587313  1
  B  B11  1  0.500000  0.541779  0.413364  1
  Ru  Ru12  1  0.000000  0.409063  0.739725  1
  Ru  Ru13  1  0.000000  0.593023  0.262229  1
  Ru  Ru14  1  0.000000  0.879033  0.765802  1
  Ru  Ru15  1  0.000000  0.123490  0.232896  1
  Ru  Ru16  1  0.000000  0.997340  0.498682  1
  Ru  Ru17  1  0.000000  0.500855  0.000272  1
  Ru  Ru18  1  0.000000  0.656262  0.545817  1
  Ru  Ru19  1  0.000000  0.340084  0.457418  1
  Ru  Ru20  1  0.000000  0.155758  0.945572  1
  Ru  Ru21  1  0.000000  0.844910  0.051763  1
