# generated using pymatgen
data_Ac7Yb(InSi2)4
_symmetry_space_group_name_H-M   'P 1'
_cell_length_a   4.52617700
_cell_length_b   8.04376371
_cell_length_c   15.30810550
_cell_angle_alpha   90.50221766
_cell_angle_beta   90.00000000
_cell_angle_gamma   90.00000000
_symmetry_Int_Tables_number   1
_chemical_formula_structural   Ac7Yb(InSi2)4
_chemical_formula_sum   'Ac7 Yb1 In4 Si8'
_cell_volume   557.30841507
_cell_formula_units_Z   1
loop_
 _symmetry_equiv_pos_site_id
 _symmetry_equiv_pos_as_xyz
  1  'x, y, z'
loop_
 _atom_site_type_symbol
 _atom_site_label
 _atom_site_symmetry_multiplicity
 _atom_site_fract_x
 _atom_site_fract_y
 _atom_site_fract_z
 _atom_site_occupancy
  Ac  Ac0  1  0.500000  0.745861  0.032043  1
  Ac  Ac1  1  0.500000  0.241695  0.961670  1
  Ac  Ac2  1  0.500000  0.252853  0.468161  1
  Ac  Ac3  1  0.500000  0.753743  0.537667  1
  Ac  Ac4  1  0.500000  0.616734  0.281784  1
  Ac  Ac5  1  0.500000  0.386647  0.720183  1
  Ac  Ac6  1  0.500000  0.117286  0.216102  1
  Yb  Yb7  1  0.500000  0.886427  0.781841  1
  In  In8  1  0.000000  0.936699  0.375624  1
  In  In9  1  0.000000  0.052502  0.633843  1
  In  In10  1  0.000000  0.435813  0.122586  1
  In  In11  1  0.000000  0.577960  0.871497  1
  Si  Si12  1  0.000000  0.552592  0.426489  1
  Si  Si13  1  0.000000  0.461940  0.578721  1
  Si  Si14  1  0.000000  0.042415  0.070503  1
  Si  Si15  1  0.000000  0.937577  0.919489  1
  Si  Si16  1  0.000000  0.832023  0.181404  1
  Si  Si17  1  0.000000  0.156107  0.814133  1
  Si  Si18  1  0.000000  0.331468  0.318699  1
  Si  Si19  1  0.000000  0.681657  0.687564  1
