# generated using pymatgen
data_Er7Hf(Si4W3)4
_symmetry_space_group_name_H-M   'P 1'
_cell_length_a   6.71845423
_cell_length_b   6.89169219
_cell_length_c   12.86412629
_cell_angle_alpha   89.87379515
_cell_angle_beta   90.00448867
_cell_angle_gamma   90.13414931
_symmetry_Int_Tables_number   1
_chemical_formula_structural   Er7Hf(Si4W3)4
_chemical_formula_sum   'Er7 Hf1 Si16 W12'
_cell_volume   595.62550208
_cell_formula_units_Z   1
loop_
 _symmetry_equiv_pos_site_id
 _symmetry_equiv_pos_as_xyz
  1  'x, y, z'
loop_
 _atom_site_type_symbol
 _atom_site_label
 _atom_site_symmetry_multiplicity
 _atom_site_fract_x
 _atom_site_fract_y
 _atom_site_fract_z
 _atom_site_occupancy
  Er  Er0  1  0.996134  0.167630  0.093675  1
  Er  Er1  1  0.004113  0.832168  0.905613  1
  Er  Er2  1  0.504051  0.667097  0.906748  1
  Er  Er3  1  0.005508  0.831672  0.592873  1
  Er  Er4  1  0.496073  0.331859  0.093580  1
  Er  Er5  1  0.996542  0.168292  0.407571  1
  Er  Er6  1  0.496920  0.333286  0.407972  1
  Hf  Hf7  1  0.506678  0.670175  0.596883  1
  Si  Si8  1  0.034750  0.128278  0.749468  1
  Si  Si9  1  0.963247  0.871413  0.250378  1
  Si  Si10  1  0.464176  0.627244  0.249778  1
  Si  Si11  1  0.535240  0.374127  0.748416  1
  Si  Si12  1  0.303723  0.863794  0.748739  1
  Si  Si13  1  0.696997  0.133864  0.250883  1
  Si  Si14  1  0.198100  0.364909  0.250523  1
  Si  Si15  1  0.800172  0.635593  0.749298  1
  Si  Si16  1  0.169443  0.461484  0.545377  1
  Si  Si17  1  0.835490  0.541708  0.455961  1
  Si  Si18  1  0.338072  0.956680  0.456024  1
  Si  Si19  1  0.837888  0.541016  0.046033  1
  Si  Si20  1  0.661129  0.038684  0.545865  1
  Si  Si21  1  0.160834  0.458479  0.953103  1
  Si  Si22  1  0.661176  0.041045  0.952753  1
  Si  Si23  1  0.337999  0.959713  0.046087  1
  W  W24  1  0.166748  0.503727  0.747231  1
  W  W25  1  0.834384  0.498628  0.251566  1
  W  W26  1  0.333594  0.000493  0.250483  1
  W  W27  1  0.665563  0.994927  0.747963  1
  W  W28  1  0.331980  0.164155  0.624504  1
  W  W29  1  0.665797  0.833170  0.377153  1
  W  W30  1  0.168394  0.664348  0.375321  1
  W  W31  1  0.667217  0.834831  0.125094  1
  W  W32  1  0.831276  0.339185  0.624630  1
  W  W33  1  0.332192  0.165805  0.873562  1
  W  W34  1  0.830849  0.337065  0.874377  1
  W  W35  1  0.167556  0.663455  0.124513  1
