# generated using pymatgen
data_CeLu5BiO12
_symmetry_space_group_name_H-M   'P 1'
_cell_length_a   6.47736262
_cell_length_b   6.46838251
_cell_length_c   6.44597515
_cell_angle_alpha   99.10895508
_cell_angle_beta   99.10272029
_cell_angle_gamma   99.27934826
_symmetry_Int_Tables_number   1
_chemical_formula_structural   CeLu5BiO12
_chemical_formula_sum   'Ce1 Lu5 Bi1 O12'
_cell_volume   258.45802692
_cell_formula_units_Z   1
loop_
 _symmetry_equiv_pos_site_id
 _symmetry_equiv_pos_as_xyz
  1  'x, y, z'
loop_
 _atom_site_type_symbol
 _atom_site_label
 _atom_site_symmetry_multiplicity
 _atom_site_fract_x
 _atom_site_fract_y
 _atom_site_fract_z
 _atom_site_occupancy
  Ce  Ce0  1  0.395794  0.684452  0.857886  1
  Lu  Lu1  1  0.854505  0.389296  0.679658  1
  Lu  Lu2  1  0.690500  0.859798  0.394897  1
  Lu  Lu3  1  0.610524  0.314949  0.147234  1
  Lu  Lu4  1  0.135156  0.606016  0.312606  1
  Lu  Lu5  1  0.316386  0.142584  0.603146  1
  Bi  Bi6  1  0.003986  0.004676  0.001006  1
  O  O7  1  0.176945  0.425164  0.581650  1
  O  O8  1  0.583598  0.177008  0.427944  1
  O  O9  1  0.426261  0.583098  0.179137  1
  O  O10  1  0.820878  0.573233  0.415944  1
  O  O11  1  0.415134  0.820595  0.570576  1
  O  O12  1  0.573669  0.412531  0.822092  1
  O  O13  1  0.918876  0.053492  0.681887  1
  O  O14  1  0.945780  0.319600  0.081173  1
  O  O15  1  0.320341  0.082520  0.943970  1
  O  O16  1  0.080410  0.945799  0.318544  1
  O  O17  1  0.045728  0.680572  0.920846  1
  O  O18  1  0.685529  0.924618  0.059805  1
