# generated using pymatgen
data_Zr24Si3P5
_symmetry_space_group_name_H-M   'P 1'
_cell_length_a   10.91765659
_cell_length_b   10.90530733
_cell_length_c   5.40424840
_cell_angle_alpha   90.11295969
_cell_angle_beta   89.93858898
_cell_angle_gamma   89.99202773
_symmetry_Int_Tables_number   1
_chemical_formula_structural   Zr24Si3P5
_chemical_formula_sum   'Zr24 Si3 P5'
_cell_volume   643.43035231
_cell_formula_units_Z   1
loop_
 _symmetry_equiv_pos_site_id
 _symmetry_equiv_pos_as_xyz
  1  'x, y, z'
loop_
 _atom_site_type_symbol
 _atom_site_label
 _atom_site_symmetry_multiplicity
 _atom_site_fract_x
 _atom_site_fract_y
 _atom_site_fract_z
 _atom_site_occupancy
  Zr  Zr0  1  0.027038  0.859180  0.279519  1
  Zr  Zr1  1  0.360156  0.476321  0.778664  1
  Zr  Zr2  1  0.638556  0.529321  0.779200  1
  Zr  Zr3  1  0.973172  0.139893  0.278762  1
  Zr  Zr4  1  0.473781  0.636798  0.220835  1
  Zr  Zr5  1  0.135893  0.025753  0.721128  1
  Zr  Zr6  1  0.864113  0.972736  0.721294  1
  Zr  Zr7  1  0.526232  0.364854  0.220840  1
  Zr  Zr8  1  0.284532  0.817335  0.985074  1
  Zr  Zr9  1  0.318905  0.216845  0.489187  1
  Zr  Zr10  1  0.679124  0.782838  0.488257  1
  Zr  Zr11  1  0.716398  0.180936  0.988473  1
  Zr  Zr12  1  0.214984  0.679993  0.511825  1
  Zr  Zr13  1  0.179660  0.285904  0.012019  1
  Zr  Zr14  1  0.821201  0.713881  0.013063  1
  Zr  Zr15  1  0.786015  0.321659  0.512775  1
  Zr  Zr16  1  0.891924  0.416332  0.036551  1
  Zr  Zr17  1  0.916276  0.608276  0.534630  1
  Zr  Zr18  1  0.083850  0.392325  0.536032  1
  Zr  Zr19  1  0.107973  0.583498  0.036473  1
  Zr  Zr20  1  0.607441  0.082795  0.464742  1
  Zr  Zr21  1  0.582140  0.890222  0.963530  1
  Zr  Zr22  1  0.417703  0.107232  0.963193  1
  Zr  Zr23  1  0.392879  0.914976  0.464423  1
  Si  Si24  1  0.541045  0.296114  0.713296  1
  Si  Si25  1  0.794467  0.958297  0.213291  1
  Si  Si26  1  0.205412  0.040272  0.213246  1
  P  P27  1  0.458596  0.705593  0.712675  1
  P  P28  1  0.958957  0.207139  0.786764  1
  P  P29  1  0.707145  0.541105  0.286790  1
  P  P30  1  0.292956  0.459198  0.286534  1
  P  P31  1  0.041474  0.792379  0.786916  1
