# generated using pymatgen
data_Pr2Fe3P7(Ir2Ru)3
_symmetry_space_group_name_H-M   'P 1'
_cell_length_a   9.40634700
_cell_length_b   9.40634672
_cell_length_c   3.93211800
_cell_angle_alpha   90.00000000
_cell_angle_beta   90.00000000
_cell_angle_gamma   119.99999044
_symmetry_Int_Tables_number   1
_chemical_formula_structural   Pr2Fe3P7(Ir2Ru)3
_chemical_formula_sum   'Pr2 Fe3 P7 Ir6 Ru3'
_cell_volume   301.30004352
_cell_formula_units_Z   1
loop_
 _symmetry_equiv_pos_site_id
 _symmetry_equiv_pos_as_xyz
  1  'x, y, z'
loop_
 _atom_site_type_symbol
 _atom_site_label
 _atom_site_symmetry_multiplicity
 _atom_site_fract_x
 _atom_site_fract_y
 _atom_site_fract_z
 _atom_site_occupancy
  Pr  Pr0  1  0.333333  0.666667  0.000000  1
  Pr  Pr1  1  0.666667  0.333333  0.500000  1
  Fe  Fe2  1  0.160367  0.892356  0.000000  1
  Fe  Fe3  1  0.107644  0.268011  0.000000  1
  Fe  Fe4  1  0.731989  0.839633  0.000000  1
  P  P5  1  0.405019  0.107123  0.000000  1
  P  P6  1  0.892877  0.297897  0.000000  1
  P  P7  1  0.702103  0.594981  0.000000  1
  P  P8  1  0.115937  0.722925  0.500000  1
  P  P9  1  0.277075  0.393012  0.500000  1
  P  P10  1  0.606988  0.884063  0.500000  1
  P  P11  1  0.000000  0.000000  0.000000  1
  Ir  Ir12  1  0.426062  0.364027  0.000000  1
  Ir  Ir13  1  0.635973  0.062033  0.000000  1
  Ir  Ir14  1  0.937967  0.573938  0.000000  1
  Ir  Ir15  1  0.386526  0.946542  0.500000  1
  Ir  Ir16  1  0.053458  0.439983  0.500000  1
  Ir  Ir17  1  0.560017  0.613474  0.500000  1
  Ru  Ru18  1  0.213464  0.123807  0.500000  1
  Ru  Ru19  1  0.876193  0.089659  0.500000  1
  Ru  Ru20  1  0.910341  0.786536  0.500000  1
