# generated using pymatgen
data_Ba10Li4U(TeO6)5
_symmetry_space_group_name_H-M   'P 1'
_cell_length_a   10.16657528
_cell_length_b   10.16653080
_cell_length_c   10.16794700
_cell_angle_alpha   99.71860820
_cell_angle_beta   99.73497563
_cell_angle_gamma   131.45660840
_symmetry_Int_Tables_number   1
_chemical_formula_structural   Ba10Li4U(TeO6)5
_chemical_formula_sum   'Ba10 Li4 U1 Te5 O30'
_cell_volume   718.03770893
_cell_formula_units_Z   1
loop_
 _symmetry_equiv_pos_site_id
 _symmetry_equiv_pos_as_xyz
  1  'x, y, z'
loop_
 _atom_site_type_symbol
 _atom_site_label
 _atom_site_symmetry_multiplicity
 _atom_site_fract_x
 _atom_site_fract_y
 _atom_site_fract_z
 _atom_site_occupancy
  Ba  Ba0  1  0.750029  0.250030  0.500001  1
  Ba  Ba1  1  0.529207  0.634022  0.684304  1
  Ba  Ba2  1  0.949723  0.844908  0.315698  1
  Ba  Ba3  1  0.155098  0.470764  0.104810  1
  Ba  Ba4  1  0.365947  0.050282  0.895183  1
  Ba  Ba5  1  0.844902  0.529236  0.895190  1
  Ba  Ba6  1  0.634053  0.949718  0.104817  1
  Ba  Ba7  1  0.050277  0.155092  0.684302  1
  Ba  Ba8  1  0.249971  0.749970  0.499999  1
  Ba  Ba9  1  0.470793  0.365978  0.315696  1
  Li  Li10  1  0.402442  0.197768  0.600198  1
  Li  Li11  1  0.802218  0.402346  0.204562  1
  Li  Li12  1  0.197782  0.597654  0.795438  1
  Li  Li13  1  0.597558  0.802232  0.399802  1
  U  U14  1  0.000000  0.000000  0.000000  1
  Te  Te15  1  0.304827  0.902022  0.206849  1
  Te  Te16  1  0.097914  0.304789  0.402703  1
  Te  Te17  1  0.500000  0.500000  0.000000  1
  Te  Te18  1  0.695173  0.097978  0.793151  1
  Te  Te19  1  0.902086  0.695211  0.597297  1
  O  O20  1  0.526535  0.134415  0.198820  1
  O  O21  1  0.327706  0.526514  0.392083  1
  O  O22  1  0.746868  0.746877  0.999998  1
  O  O23  1  0.935586  0.327712  0.801177  1
  O  O24  1  0.134425  0.935623  0.607918  1
  O  O25  1  0.250374  0.764246  0.014616  1
  O  O26  1  0.048389  0.148605  0.196991  1
  O  O27  1  0.452640  0.361353  0.813992  1
  O  O28  1  0.658209  0.955855  0.614063  1
  O  O29  1  0.855030  0.555975  0.411000  1
  O  O30  1  0.148606  0.951606  0.100224  1
  O  O31  1  0.955823  0.341753  0.297574  1
  O  O32  1  0.361312  0.547362  0.908691  1
  O  O33  1  0.555916  0.145023  0.700944  1
  O  O34  1  0.764210  0.749668  0.513881  1
  O  O35  1  0.064414  0.672288  0.198823  1
  O  O36  1  0.865575  0.064377  0.392082  1
  O  O37  1  0.253132  0.253123  0.000002  1
  O  O38  1  0.473465  0.865585  0.801180  1
  O  O39  1  0.672294  0.473486  0.607917  1
  O  O40  1  0.341791  0.044145  0.385937  1
  O  O41  1  0.144970  0.444025  0.589000  1
  O  O42  1  0.547360  0.638647  0.186008  1
  O  O43  1  0.749626  0.235754  0.985384  1
  O  O44  1  0.951611  0.851395  0.803009  1
  O  O45  1  0.444084  0.854977  0.299056  1
  O  O46  1  0.235790  0.250332  0.486119  1
  O  O47  1  0.638688  0.452638  0.091309  1
  O  O48  1  0.851394  0.048394  0.899776  1
  O  O49  1  0.044177  0.658247  0.702426  1
