# generated using pymatgen
data_Er3Tm5Se12
_symmetry_space_group_name_H-M   'P 1'
_cell_length_a   7.00457962
_cell_length_b   7.00696225
_cell_length_c   12.78590530
_cell_angle_alpha   100.67597564
_cell_angle_beta   100.66878695
_cell_angle_gamma   108.90658348
_symmetry_Int_Tables_number   1
_chemical_formula_structural   Er3Tm5Se12
_chemical_formula_sum   'Er3 Tm5 Se12'
_cell_volume   562.75870798
_cell_formula_units_Z   1
loop_
 _symmetry_equiv_pos_site_id
 _symmetry_equiv_pos_as_xyz
  1  'x, y, z'
loop_
 _atom_site_type_symbol
 _atom_site_label
 _atom_site_symmetry_multiplicity
 _atom_site_fract_x
 _atom_site_fract_y
 _atom_site_fract_z
 _atom_site_occupancy
  Er  Er0  1  0.872407  0.622406  0.744814  1
  Er  Er1  1  0.377548  0.127548  0.755095  1
  Er  Er2  1  0.958749  0.208748  0.917497  1
  Tm  Tm3  1  0.041345  0.791345  0.082690  1
  Tm  Tm4  1  0.622564  0.872564  0.245128  1
  Tm  Tm5  1  0.127492  0.377492  0.254984  1
  Tm  Tm6  1  0.208696  0.958696  0.417394  1
  Tm  Tm7  1  0.791230  0.041230  0.582460  1
  Se  Se8  1  0.803191  0.048180  0.087892  1
  Se  Se9  1  0.284701  0.539711  0.087892  1
  Se  Se10  1  0.368281  0.118303  0.250005  1
  Se  Se11  1  0.881724  0.631702  0.250005  1
  Se  Se12  1  0.951489  0.196542  0.412500  1
  Se  Se13  1  0.461012  0.715958  0.412500  1
  Se  Se14  1  0.538663  0.283548  0.586791  1
  Se  Se15  1  0.048128  0.803243  0.586791  1
  Se  Se16  1  0.118463  0.368460  0.749603  1
  Se  Se17  1  0.631139  0.881144  0.749603  1
  Se  Se18  1  0.715859  0.462003  0.913178  1
  Se  Se19  1  0.197319  0.951175  0.913178  1
