# generated using pymatgen
data_Ce3Nd(CdRh2)2
_symmetry_space_group_name_H-M   'P 1'
_cell_length_a   7.70792928
_cell_length_b   7.70792928
_cell_length_c   3.73564100
_cell_angle_alpha   90.00000000
_cell_angle_beta   90.00000000
_cell_angle_gamma   91.65438050
_symmetry_Int_Tables_number   1
_chemical_formula_structural   Ce3Nd(CdRh2)2
_chemical_formula_sum   'Ce3 Nd1 Cd2 Rh4'
_cell_volume   221.85003848
_cell_formula_units_Z   1
loop_
 _symmetry_equiv_pos_site_id
 _symmetry_equiv_pos_as_xyz
  1  'x, y, z'
loop_
 _atom_site_type_symbol
 _atom_site_label
 _atom_site_symmetry_multiplicity
 _atom_site_fract_x
 _atom_site_fract_y
 _atom_site_fract_z
 _atom_site_occupancy
  Ce  Ce0  1  0.669659  0.167378  0.500000  1
  Ce  Ce1  1  0.332622  0.830341  0.500000  1
  Ce  Ce2  1  0.169512  0.330488  0.500000  1
  Nd  Nd3  1  0.832951  0.667049  0.500000  1
  Cd  Cd4  1  0.999733  0.995648  0.000000  1
  Cd  Cd5  1  0.504352  0.500267  0.000000  1
  Rh  Rh6  1  0.150043  0.633297  0.000000  1
  Rh  Rh7  1  0.866703  0.349957  0.000000  1
  Rh  Rh8  1  0.618808  0.881192  0.000000  1
  Rh  Rh9  1  0.355617  0.144383  0.000000  1
