# generated using pymatgen
data_Li4Ni9MoP7
_symmetry_space_group_name_H-M   'P 1'
_cell_length_a   9.08458327
_cell_length_b   9.05982468
_cell_length_c   3.61121800
_cell_angle_alpha   90.00000000
_cell_angle_beta   90.00000000
_cell_angle_gamma   119.86059568
_symmetry_Int_Tables_number   1
_chemical_formula_structural   Li4Ni9MoP7
_chemical_formula_sum   'Li4 Ni9 Mo1 P7'
_cell_volume   257.76117103
_cell_formula_units_Z   1
loop_
 _symmetry_equiv_pos_site_id
 _symmetry_equiv_pos_as_xyz
  1  'x, y, z'
loop_
 _atom_site_type_symbol
 _atom_site_label
 _atom_site_symmetry_multiplicity
 _atom_site_fract_x
 _atom_site_fract_y
 _atom_site_fract_z
 _atom_site_occupancy
  Li  Li0  1  0.898913  0.121844  0.500000  1
  Li  Li1  1  0.220972  0.100775  0.500000  1
  Li  Li2  1  0.333314  0.665901  0.000000  1
  Li  Li3  1  0.664499  0.332188  0.500000  1
  Ni  Ni4  1  0.712949  0.882519  0.000000  1
  Ni  Ni5  1  0.164394  0.283055  0.000000  1
  Ni  Ni6  1  0.125706  0.835006  0.000000  1
  Ni  Ni7  1  0.625678  0.566233  0.000000  1
  Ni  Ni8  1  0.940126  0.371690  0.000000  1
  Ni  Ni9  1  0.430483  0.057753  0.000000  1
  Ni  Ni10  1  0.564390  0.953684  0.500000  1
  Ni  Ni11  1  0.389779  0.436449  0.500000  1
  Ni  Ni12  1  0.051958  0.610677  0.500000  1
  Mo  Mo13  1  0.877687  0.784402  0.500000  1
  P  P14  1  0.584245  0.710982  0.500000  1
  P  P15  1  0.128583  0.416396  0.500000  1
  P  P16  1  0.290134  0.871776  0.500000  1
  P  P17  1  0.000594  0.997529  0.000000  1
  P  P18  1  0.877827  0.578388  0.000000  1
  P  P19  1  0.697346  0.124185  0.000000  1
  P  P20  1  0.420426  0.298568  0.000000  1
