# generated using pymatgen
data_Er2Mn14(SiC)3
_symmetry_space_group_name_H-M   'P 1'
_cell_length_a   6.39439917
_cell_length_b   6.39439991
_cell_length_c   6.39439857
_cell_angle_alpha   82.46644553
_cell_angle_beta   82.46644927
_cell_angle_gamma   82.46645285
_symmetry_Int_Tables_number   1
_chemical_formula_structural   Er2Mn14(SiC)3
_chemical_formula_sum   'Er2 Mn14 Si3 C3'
_cell_volume   255.23020932
_cell_formula_units_Z   1
loop_
 _symmetry_equiv_pos_site_id
 _symmetry_equiv_pos_as_xyz
  1  'x, y, z'
loop_
 _atom_site_type_symbol
 _atom_site_label
 _atom_site_symmetry_multiplicity
 _atom_site_fract_x
 _atom_site_fract_y
 _atom_site_fract_z
 _atom_site_occupancy
  Er  Er0  1  0.656057  0.656057  0.656057  1
  Er  Er1  1  0.343943  0.343943  0.343943  1
  Mn  Mn2  1  0.725420  0.274580  0.000000  1
  Mn  Mn3  1  0.000000  0.725420  0.274580  1
  Mn  Mn4  1  0.274580  0.000000  0.725420  1
  Mn  Mn5  1  0.000000  0.274580  0.725420  1
  Mn  Mn6  1  0.725420  0.000000  0.274580  1
  Mn  Mn7  1  0.274580  0.725420  0.000000  1
  Mn  Mn8  1  0.347969  0.852911  0.347969  1
  Mn  Mn9  1  0.347969  0.347969  0.852911  1
  Mn  Mn10  1  0.852911  0.347969  0.347969  1
  Mn  Mn11  1  0.652031  0.147089  0.652031  1
  Mn  Mn12  1  0.652031  0.652031  0.147089  1
  Mn  Mn13  1  0.147089  0.652031  0.652031  1
  Mn  Mn14  1  0.905087  0.905087  0.905087  1
  Mn  Mn15  1  0.094913  0.094913  0.094913  1
  Si  Si16  1  0.000000  0.000000  0.500000  1
  Si  Si17  1  0.500000  0.000000  0.000000  1
  Si  Si18  1  0.000000  0.500000  0.000000  1
  C  C19  1  0.500000  0.500000  0.000000  1
  C  C20  1  0.000000  0.500000  0.500000  1
  C  C21  1  0.500000  0.000000  0.500000  1
