# generated using pymatgen
data_Tb7Dy3(GeB4)4
_symmetry_space_group_name_H-M   'P 1'
_cell_length_a   7.27258400
_cell_length_b   7.27258400
_cell_length_c   8.18339800
_cell_angle_alpha   89.99827221
_cell_angle_beta   90.00172779
_cell_angle_gamma   89.99951156
_symmetry_Int_Tables_number   1
_chemical_formula_structural   Tb7Dy3(GeB4)4
_chemical_formula_sum   'Tb7 Dy3 Ge4 B16'
_cell_volume   432.82383198
_cell_formula_units_Z   1
loop_
 _symmetry_equiv_pos_site_id
 _symmetry_equiv_pos_as_xyz
  1  'x, y, z'
loop_
 _atom_site_type_symbol
 _atom_site_label
 _atom_site_symmetry_multiplicity
 _atom_site_fract_x
 _atom_site_fract_y
 _atom_site_fract_z
 _atom_site_occupancy
  Tb  Tb0  1  0.680411  0.180429  0.221255  1
  Tb  Tb1  1  0.319604  0.819619  0.778755  1
  Tb  Tb2  1  0.319571  0.819589  0.221255  1
  Tb  Tb3  1  0.819675  0.680325  0.221158  1
  Tb  Tb4  1  0.819644  0.680356  0.778868  1
  Tb  Tb5  1  0.680381  0.180396  0.778755  1
  Tb  Tb6  1  0.180364  0.319636  0.778932  1
  Dy  Dy7  1  0.180361  0.319639  0.220430  1
  Dy  Dy8  1  0.000049  0.000095  0.499926  1
  Dy  Dy9  1  0.499905  0.499951  0.499926  1
  Ge  Ge10  1  0.120015  0.619812  0.499858  1
  Ge  Ge11  1  0.880188  0.379985  0.499858  1
  Ge  Ge12  1  0.379984  0.120016  0.499823  1
  Ge  Ge13  1  0.619835  0.880165  0.499974  1
  B  B14  1  0.171912  0.039483  0.000095  1
  B  B15  1  0.828174  0.960694  0.000040  1
  B  B16  1  0.960840  0.171994  0.000126  1
  B  B17  1  0.328006  0.539160  0.000126  1
  B  B18  1  0.039309  0.828117  0.000054  1
  B  B19  1  0.671883  0.460691  0.000054  1
  B  B20  1  0.539306  0.671826  0.000040  1
  B  B21  1  0.460517  0.328088  0.000095  1
  B  B22  1  0.090445  0.590274  0.000143  1
  B  B23  1  0.909726  0.409555  0.000143  1
  B  B24  1  0.409523  0.090477  0.000019  1
  B  B25  1  0.590442  0.909558  0.000018  1
  B  B26  1  0.000121  0.000212  0.161107  1
  B  B27  1  0.000035  0.000016  0.839029  1
  B  B28  1  0.499984  0.499965  0.839029  1
  B  B29  1  0.499788  0.499879  0.161107  1
