# generated using pymatgen
data_Mn2FeNiAs2
_symmetry_space_group_name_H-M   'P 1'
_cell_length_a   3.63715200
_cell_length_b   6.14228900
_cell_length_c   7.02569100
_cell_angle_alpha   90.00000000
_cell_angle_beta   90.00000000
_cell_angle_gamma   90.00000000
_symmetry_Int_Tables_number   1
_chemical_formula_structural   Mn2FeNiAs2
_chemical_formula_sum   'Mn4 Fe2 Ni2 As4'
_cell_volume   156.95701926
_cell_formula_units_Z   2
loop_
 _symmetry_equiv_pos_site_id
 _symmetry_equiv_pos_as_xyz
  1  'x, y, z'
loop_
 _atom_site_type_symbol
 _atom_site_label
 _atom_site_symmetry_multiplicity
 _atom_site_fract_x
 _atom_site_fract_y
 _atom_site_fract_z
 _atom_site_occupancy
  Mn  Mn0  1  0.500000  0.528705  0.578903  1
  Mn  Mn1  1  0.500000  0.028705  0.421097  1
  Mn  Mn2  1  0.000000  0.467115  0.919873  1
  Mn  Mn3  1  0.000000  0.967115  0.080127  1
  Fe  Fe4  1  0.000000  0.362046  0.310311  1
  Fe  Fe5  1  0.000000  0.862046  0.689689  1
  Ni  Ni6  1  0.500000  0.644797  0.183752  1
  Ni  Ni7  1  0.500000  0.144797  0.816248  1
  As  As8  1  0.500000  0.260804  0.129082  1
  As  As9  1  0.500000  0.760804  0.870918  1
  As  As10  1  0.000000  0.736532  0.382455  1
  As  As11  1  0.000000  0.236532  0.617545  1
