# generated using pymatgen
data_YbDy3(Al8Pt3)3
_symmetry_space_group_name_H-M   'P 1'
_cell_length_a   7.53528803
_cell_length_b   7.55334325
_cell_length_c   13.20426180
_cell_angle_alpha   84.60770198
_cell_angle_beta   79.10180890
_cell_angle_gamma   59.91600306
_symmetry_Int_Tables_number   1
_chemical_formula_structural   YbDy3(Al8Pt3)3
_chemical_formula_sum   'Yb1 Dy3 Al24 Pt9'
_cell_volume   638.57410052
_cell_formula_units_Z   1
loop_
 _symmetry_equiv_pos_site_id
 _symmetry_equiv_pos_as_xyz
  1  'x, y, z'
loop_
 _atom_site_type_symbol
 _atom_site_label
 _atom_site_symmetry_multiplicity
 _atom_site_fract_x
 _atom_site_fract_y
 _atom_site_fract_z
 _atom_site_occupancy
  Yb  Yb0  1  0.393843  0.168419  0.807434  1
  Dy  Dy1  1  0.605383  0.832430  0.191879  1
  Dy  Dy2  1  0.733872  0.498604  0.807852  1
  Dy  Dy3  1  0.266545  0.500721  0.192075  1
  Al  Al4  1  0.684199  0.833889  0.944652  1
  Al  Al5  1  0.315494  0.166276  0.054813  1
  Al  Al6  1  0.146805  0.832353  0.561129  1
  Al  Al7  1  0.853280  0.167790  0.438106  1
  Al  Al8  1  0.479891  0.166651  0.558995  1
  Al  Al9  1  0.520262  0.833677  0.440829  1
  Al  Al10  1  0.217455  0.165216  0.329424  1
  Al  Al11  1  0.782029  0.835732  0.670315  1
  Al  Al12  1  0.437096  0.505803  0.670023  1
  Al  Al13  1  0.563039  0.493122  0.329642  1
  Al  Al14  1  0.110436  0.160082  0.668838  1
  Al  Al15  1  0.890440  0.839921  0.330893  1
  Al  Al16  1  0.352728  0.499203  0.944815  1
  Al  Al17  1  0.646847  0.500747  0.055948  1
  Al  Al18  1  0.015605  0.167934  0.954062  1
  Al  Al19  1  0.984201  0.831844  0.046837  1
  Al  Al20  1  0.186647  0.499174  0.440895  1
  Al  Al21  1  0.813815  0.500317  0.558466  1
  Al  Al22  1  0.734285  0.164360  0.183632  1
  Al  Al23  1  0.266700  0.833457  0.816746  1
  Al  Al24  1  0.059431  0.632482  0.815729  1
  Al  Al25  1  0.938262  0.369100  0.184836  1
  Al  Al26  1  0.856522  0.042543  0.816400  1
  Al  Al27  1  0.145069  0.958417  0.184070  1
  Pt  Pt28  1  0.119936  0.492774  0.637998  1
  Pt  Pt29  1  0.879874  0.508185  0.361436  1
  Pt  Pt30  1  0.657129  0.171142  0.000617  1
  Pt  Pt31  1  0.342229  0.828447  0.000955  1
  Pt  Pt32  1  0.537910  0.166670  0.361478  1
  Pt  Pt33  1  0.462050  0.832659  0.637956  1
  Pt  Pt34  1  0.779835  0.174640  0.636730  1
  Pt  Pt35  1  0.221300  0.824829  0.362580  1
  Pt  Pt36  1  0.999553  0.500392  0.000914  1
