# generated using pymatgen
data_Cs12MgHgSe8
_symmetry_space_group_name_H-M   'P 1'
_cell_length_a   11.25548900
_cell_length_b   11.25548753
_cell_length_c   8.82862800
_cell_angle_alpha   90.00000000
_cell_angle_beta   90.00000000
_cell_angle_gamma   120.00000137
_symmetry_Int_Tables_number   1
_chemical_formula_structural   Cs12MgHgSe8
_chemical_formula_sum   'Cs12 Mg1 Hg1 Se8'
_cell_volume   968.61797182
_cell_formula_units_Z   1
loop_
 _symmetry_equiv_pos_site_id
 _symmetry_equiv_pos_as_xyz
  1  'x, y, z'
loop_
 _atom_site_type_symbol
 _atom_site_label
 _atom_site_symmetry_multiplicity
 _atom_site_fract_x
 _atom_site_fract_y
 _atom_site_fract_z
 _atom_site_occupancy
  Cs  Cs0  1  0.146994  0.853006  0.543255  1
  Cs  Cs1  1  0.294338  0.147169  0.042362  1
  Cs  Cs2  1  0.852831  0.705662  0.042362  1
  Cs  Cs3  1  0.146994  0.293988  0.543255  1
  Cs  Cs4  1  0.706012  0.853006  0.543255  1
  Cs  Cs5  1  0.852831  0.147169  0.042362  1
  Cs  Cs6  1  0.529024  0.470976  0.364635  1
  Cs  Cs7  1  0.059488  0.529744  0.866703  1
  Cs  Cs8  1  0.470256  0.940512  0.866703  1
  Cs  Cs9  1  0.529024  0.058049  0.364635  1
  Cs  Cs10  1  0.941951  0.470976  0.364635  1
  Cs  Cs11  1  0.470256  0.529744  0.866703  1
  Mg  Mg12  1  0.666667  0.333333  0.752109  1
  Hg  Hg13  1  0.333333  0.666667  0.250283  1
  Se  Se14  1  0.333333  0.666667  0.570718  1
  Se  Se15  1  0.666667  0.333333  0.056981  1
  Se  Se16  1  0.196077  0.803923  0.154771  1
  Se  Se17  1  0.403719  0.201861  0.658047  1
  Se  Se18  1  0.798139  0.596281  0.658047  1
  Se  Se19  1  0.196077  0.392151  0.154771  1
  Se  Se20  1  0.607849  0.803923  0.154771  1
  Se  Se21  1  0.798139  0.201861  0.658047  1
