# generated using pymatgen
data_Y12Ho4MgIn3Pt4
_symmetry_space_group_name_H-M   'P 1'
_cell_length_a   9.76974890
_cell_length_b   9.72561325
_cell_length_c   9.72561400
_cell_angle_alpha   59.99999745
_cell_angle_beta   60.14932573
_cell_angle_gamma   60.14932382
_symmetry_Int_Tables_number   1
_chemical_formula_structural   Y12Ho4MgIn3Pt4
_chemical_formula_sum   'Y12 Ho4 Mg1 In3 Pt4'
_cell_volume   654.90599002
_cell_formula_units_Z   1
loop_
 _symmetry_equiv_pos_site_id
 _symmetry_equiv_pos_as_xyz
  1  'x, y, z'
loop_
 _atom_site_type_symbol
 _atom_site_label
 _atom_site_symmetry_multiplicity
 _atom_site_fract_x
 _atom_site_fract_y
 _atom_site_fract_z
 _atom_site_occupancy
  Y  Y0  1  0.058521  0.440907  0.440907  1
  Y  Y1  1  0.438499  0.061375  0.061375  1
  Y  Y2  1  0.438499  0.061375  0.438752  1
  Y  Y3  1  0.058521  0.440907  0.059665  1
  Y  Y4  1  0.438499  0.438752  0.061375  1
  Y  Y5  1  0.058521  0.059665  0.440907  1
  Y  Y6  1  0.185424  0.813520  0.813520  1
  Y  Y7  1  0.813662  0.187405  0.187405  1
  Y  Y8  1  0.813662  0.187405  0.811528  1
  Y  Y9  1  0.185424  0.813520  0.187536  1
  Y  Y10  1  0.813662  0.811528  0.187405  1
  Y  Y11  1  0.185424  0.187536  0.813520  1
  Ho  Ho12  1  0.600491  0.599572  0.599572  1
  Ho  Ho13  1  0.600491  0.599572  0.200364  1
  Ho  Ho14  1  0.600491  0.200364  0.599572  1
  Ho  Ho15  1  0.197995  0.600668  0.600668  1
  Mg  Mg16  1  0.515812  0.828062  0.828062  1
  In  In17  1  0.832469  0.833275  0.833275  1
  In  In18  1  0.832469  0.833275  0.500980  1
  In  In19  1  0.832469  0.500980  0.833275  1
  Pt  Pt20  1  0.392976  0.393732  0.393732  1
  Pt  Pt21  1  0.392976  0.393732  0.819561  1
  Pt  Pt22  1  0.392976  0.819561  0.393732  1
  Pt  Pt23  1  0.820067  0.393312  0.393312  1
