# generated using pymatgen
data_CaYbEr2(ReN3)4
_symmetry_space_group_name_H-M   'P 1'
_cell_length_a   7.34917763
_cell_length_b   7.34917827
_cell_length_c   6.23493998
_cell_angle_alpha   73.90946797
_cell_angle_beta   73.90946399
_cell_angle_gamma   83.62542206
_symmetry_Int_Tables_number   1
_chemical_formula_structural   CaYbEr2(ReN3)4
_chemical_formula_sum   'Ca1 Yb1 Er2 Re4 N12'
_cell_volume   310.67043192
_cell_formula_units_Z   1
loop_
 _symmetry_equiv_pos_site_id
 _symmetry_equiv_pos_as_xyz
  1  'x, y, z'
loop_
 _atom_site_type_symbol
 _atom_site_label
 _atom_site_symmetry_multiplicity
 _atom_site_fract_x
 _atom_site_fract_y
 _atom_site_fract_z
 _atom_site_occupancy
  Ca  Ca0  1  0.705490  0.294510  0.250000  1
  Yb  Yb1  1  0.294199  0.705801  0.750000  1
  Er  Er2  1  0.910843  0.089157  0.750000  1
  Er  Er3  1  0.090169  0.909831  0.250000  1
  Re  Re4  1  0.621668  0.796542  0.268443  1
  Re  Re5  1  0.203458  0.378332  0.231557  1
  Re  Re6  1  0.377546  0.203072  0.732398  1
  Re  Re7  1  0.796928  0.622454  0.767602  1
  N  N8  1  0.341684  0.359541  0.936909  1
  N  N9  1  0.011492  0.212899  0.347338  1
  N  N10  1  0.787101  0.988508  0.152662  1
  N  N11  1  0.213746  0.009153  0.847168  1
  N  N12  1  0.657149  0.642824  0.060912  1
  N  N13  1  0.878464  0.380377  0.819887  1
  N  N14  1  0.122675  0.620713  0.175263  1
  N  N15  1  0.990847  0.786254  0.652832  1
  N  N16  1  0.379287  0.877325  0.324737  1
  N  N17  1  0.640459  0.658316  0.563091  1
  N  N18  1  0.619623  0.121536  0.680113  1
  N  N19  1  0.357176  0.342851  0.439088  1
