# generated using pymatgen
data_Er16Cd4TcPdPt2
_symmetry_space_group_name_H-M   'P 1'
_cell_length_a   9.65351424
_cell_length_b   9.65351544
_cell_length_c   9.64123050
_cell_angle_alpha   59.16957787
_cell_angle_beta   59.16957144
_cell_angle_gamma   59.18140698
_symmetry_Int_Tables_number   1
_chemical_formula_structural   Er16Cd4TcPdPt2
_chemical_formula_sum   'Er16 Cd4 Tc1 Pd1 Pt2'
_cell_volume   623.34895205
_cell_formula_units_Z   1
loop_
 _symmetry_equiv_pos_site_id
 _symmetry_equiv_pos_as_xyz
  1  'x, y, z'
loop_
 _atom_site_type_symbol
 _atom_site_label
 _atom_site_symmetry_multiplicity
 _atom_site_fract_x
 _atom_site_fract_y
 _atom_site_fract_z
 _atom_site_occupancy
  Er  Er0  1  0.352381  0.352381  0.350833  1
  Er  Er1  1  0.351507  0.351507  0.946997  1
  Er  Er2  1  0.352932  0.945322  0.350585  1
  Er  Er3  1  0.945322  0.352932  0.350585  1
  Er  Er4  1  0.815200  0.188280  0.187557  1
  Er  Er5  1  0.189005  0.808950  0.811127  1
  Er  Er6  1  0.188280  0.815200  0.187557  1
  Er  Er7  1  0.808950  0.189005  0.811127  1
  Er  Er8  1  0.187628  0.187628  0.816785  1
  Er  Er9  1  0.810118  0.810118  0.188683  1
  Er  Er10  1  0.935032  0.566198  0.565434  1
  Er  Er11  1  0.556496  0.937982  0.937963  1
  Er  Er12  1  0.566198  0.935032  0.565434  1
  Er  Er13  1  0.937982  0.556496  0.937963  1
  Er  Er14  1  0.565329  0.565329  0.935249  1
  Er  Er15  1  0.937656  0.937656  0.556575  1
  Cd  Cd16  1  0.579884  0.579884  0.579743  1
  Cd  Cd17  1  0.580833  0.580833  0.253812  1
  Cd  Cd18  1  0.580871  0.253812  0.580748  1
  Cd  Cd19  1  0.253812  0.580871  0.580748  1
  Tc  Tc20  1  0.144750  0.144750  0.144743  1
  Pd  Pd21  1  0.144008  0.144008  0.571389  1
  Pt  Pt22  1  0.143956  0.571872  0.144182  1
  Pt  Pt23  1  0.571872  0.143956  0.144182  1
