# generated using pymatgen
data_Sm2NbSi4Tc7
_symmetry_space_group_name_H-M   'P 1'
_cell_length_a   7.87930201
_cell_length_b   7.04436603
_cell_length_c   4.20682400
_cell_angle_alpha   90.00000000
_cell_angle_beta   90.00000000
_cell_angle_gamma   90.00828797
_symmetry_Int_Tables_number   1
_chemical_formula_structural   Sm2NbSi4Tc7
_chemical_formula_sum   'Sm2 Nb1 Si4 Tc7'
_cell_volume   233.49844867
_cell_formula_units_Z   1
loop_
 _symmetry_equiv_pos_site_id
 _symmetry_equiv_pos_as_xyz
  1  'x, y, z'
loop_
 _atom_site_type_symbol
 _atom_site_label
 _atom_site_symmetry_multiplicity
 _atom_site_fract_x
 _atom_site_fract_y
 _atom_site_fract_z
 _atom_site_occupancy
  Sm  Sm0  1  0.499010  0.497941  0.000000  1
  Sm  Sm1  1  0.002831  0.999372  0.500000  1
  Nb  Nb2  1  0.612161  0.147779  0.500000  1
  Si  Si3  1  0.687179  0.731213  0.500000  1
  Si  Si4  1  0.303729  0.271529  0.500000  1
  Si  Si5  1  0.189904  0.765594  0.000000  1
  Si  Si6  1  0.816266  0.234979  0.000000  1
  Tc  Tc7  1  0.386048  0.844451  0.500000  1
  Tc  Tc8  1  0.112713  0.348777  0.000000  1
  Tc  Tc9  1  0.891169  0.654014  0.000000  1
  Tc  Tc10  1  0.159269  0.578242  0.500000  1
  Tc  Tc11  1  0.847080  0.430466  0.500000  1
  Tc  Tc12  1  0.329606  0.075746  0.000000  1
  Tc  Tc13  1  0.663034  0.919896  0.000000  1
