# generated using pymatgen
data_Hf16Mn3Ni4Au
_symmetry_space_group_name_H-M   'P 1'
_cell_length_a   8.65331464
_cell_length_b   8.65392921
_cell_length_c   8.65397000
_cell_angle_alpha   60.07805257
_cell_angle_beta   60.07808648
_cell_angle_gamma   60.07781421
_symmetry_Int_Tables_number   1
_chemical_formula_structural   Hf16Mn3Ni4Au
_chemical_formula_sum   'Hf16 Mn3 Ni4 Au1'
_cell_volume   459.05322460
_cell_formula_units_Z   1
loop_
 _symmetry_equiv_pos_site_id
 _symmetry_equiv_pos_as_xyz
  1  'x, y, z'
loop_
 _atom_site_type_symbol
 _atom_site_label
 _atom_site_symmetry_multiplicity
 _atom_site_fract_x
 _atom_site_fract_y
 _atom_site_fract_z
 _atom_site_occupancy
  Hf  Hf0  1  0.678578  0.105575  0.105605  1
  Hf  Hf1  1  0.105656  0.678594  0.105526  1
  Hf  Hf2  1  0.105664  0.105511  0.678585  1
  Hf  Hf3  1  0.108497  0.108353  0.108383  1
  Hf  Hf4  1  0.316879  0.316857  0.697851  1
  Hf  Hf5  1  0.685518  0.685630  0.315717  1
  Hf  Hf6  1  0.316880  0.697790  0.316871  1
  Hf  Hf7  1  0.685460  0.315671  0.685713  1
  Hf  Hf8  1  0.697707  0.316881  0.316895  1
  Hf  Hf9  1  0.315612  0.685529  0.685698  1
  Hf  Hf10  1  0.957415  0.957298  0.542247  1
  Hf  Hf11  1  0.551005  0.551057  0.944863  1
  Hf  Hf12  1  0.957479  0.542253  0.957277  1
  Hf  Hf13  1  0.551043  0.944872  0.551059  1
  Hf  Hf14  1  0.542195  0.957429  0.957338  1
  Hf  Hf15  1  0.944886  0.551070  0.551056  1
  Mn  Mn16  1  0.989107  0.332956  0.332983  1
  Mn  Mn17  1  0.332911  0.988975  0.333055  1
  Mn  Mn18  1  0.332958  0.333107  0.988748  1
  Ni  Ni19  1  0.320301  0.891584  0.891560  1
  Ni  Ni20  1  0.891543  0.320395  0.891515  1
  Ni  Ni21  1  0.891553  0.891551  0.320429  1
  Ni  Ni22  1  0.893416  0.893433  0.893404  1
  Au  Au23  1  0.327736  0.327625  0.327618  1
