# generated using pymatgen
data_Tm3ThMgFe
_symmetry_space_group_name_H-M   'P 1'
_cell_length_a   9.51355088
_cell_length_b   9.51355097
_cell_length_c   9.51355100
_cell_angle_alpha   60.00000338
_cell_angle_beta   60.00000307
_cell_angle_gamma   60.00000035
_symmetry_Int_Tables_number   1
_chemical_formula_structural   Tm3ThMgFe
_chemical_formula_sum   'Tm12 Th4 Mg4 Fe4'
_cell_volume   608.85372849
_cell_formula_units_Z   4
loop_
 _symmetry_equiv_pos_site_id
 _symmetry_equiv_pos_as_xyz
  1  'x, y, z'
loop_
 _atom_site_type_symbol
 _atom_site_label
 _atom_site_symmetry_multiplicity
 _atom_site_fract_x
 _atom_site_fract_y
 _atom_site_fract_z
 _atom_site_occupancy
  Tm  Tm0  1  0.814289  0.185711  0.185711  1
  Tm  Tm1  1  0.185711  0.814289  0.814289  1
  Tm  Tm2  1  0.185711  0.814289  0.185711  1
  Tm  Tm3  1  0.814289  0.185711  0.814289  1
  Tm  Tm4  1  0.185711  0.185711  0.814289  1
  Tm  Tm5  1  0.814289  0.814289  0.185711  1
  Tm  Tm6  1  0.936143  0.563857  0.563857  1
  Tm  Tm7  1  0.563857  0.936143  0.936143  1
  Tm  Tm8  1  0.563857  0.936143  0.563857  1
  Tm  Tm9  1  0.936143  0.563857  0.936143  1
  Tm  Tm10  1  0.563857  0.563857  0.936143  1
  Tm  Tm11  1  0.936143  0.936143  0.563857  1
  Th  Th12  1  0.343756  0.343756  0.343756  1
  Th  Th13  1  0.343756  0.343756  0.968734  1
  Th  Th14  1  0.343756  0.968734  0.343756  1
  Th  Th15  1  0.968734  0.343756  0.343756  1
  Mg  Mg16  1  0.580137  0.580137  0.580137  1
  Mg  Mg17  1  0.580137  0.580137  0.259588  1
  Mg  Mg18  1  0.580137  0.259588  0.580137  1
  Mg  Mg19  1  0.259588  0.580137  0.580137  1
  Fe  Fe20  1  0.143779  0.143779  0.143779  1
  Fe  Fe21  1  0.143779  0.143779  0.568665  1
  Fe  Fe22  1  0.143779  0.568665  0.143779  1
  Fe  Fe23  1  0.568665  0.143779  0.143779  1
