# generated using pymatgen
data_Dy2ErGa6(Co2Ni)3
_symmetry_space_group_name_H-M   'P 1'
_cell_length_a   4.07271700
_cell_length_b   8.70693608
_cell_length_c   8.70693521
_cell_angle_alpha   59.96836989
_cell_angle_beta   90.00000000
_cell_angle_gamma   90.00000000
_symmetry_Int_Tables_number   1
_chemical_formula_structural   Dy2ErGa6(Co2Ni)3
_chemical_formula_sum   'Dy2 Er1 Ga6 Co6 Ni3'
_cell_volume   267.30496445
_cell_formula_units_Z   1
loop_
 _symmetry_equiv_pos_site_id
 _symmetry_equiv_pos_as_xyz
  1  'x, y, z'
loop_
 _atom_site_type_symbol
 _atom_site_label
 _atom_site_symmetry_multiplicity
 _atom_site_fract_x
 _atom_site_fract_y
 _atom_site_fract_z
 _atom_site_occupancy
  Dy  Dy0  1  0.500000  0.333355  0.333287  1
  Dy  Dy1  1  0.500000  0.666713  0.666645  1
  Er  Er2  1  0.000000  0.000194  0.999806  1
  Ga  Ga3  1  0.000000  0.508211  0.491789  1
  Ga  Ga4  1  0.000000  0.491863  0.000010  1
  Ga  Ga5  1  0.000000  0.999990  0.508137  1
  Ga  Ga6  1  0.500000  0.272953  0.727047  1
  Ga  Ga7  1  0.500000  0.726995  0.000266  1
  Ga  Ga8  1  0.500000  0.999734  0.273005  1
  Co  Co9  1  0.000000  0.177679  0.185697  1
  Co  Co10  1  0.000000  0.185675  0.636664  1
  Co  Co11  1  0.000000  0.636663  0.177670  1
  Co  Co12  1  0.000000  0.814303  0.822321  1
  Co  Co13  1  0.000000  0.363336  0.814325  1
  Co  Co14  1  0.000000  0.822330  0.363337  1
  Ni  Ni15  1  0.500000  0.701964  0.298036  1
  Ni  Ni16  1  0.500000  0.297965  0.000024  1
  Ni  Ni17  1  0.500000  0.999976  0.702035  1
