# generated using pymatgen
data_Ho5Er5Cd7InPd4
_symmetry_space_group_name_H-M   'P 1'
_cell_length_a   3.61944900
_cell_length_b   7.97075076
_cell_length_c   18.32640758
_cell_angle_alpha   89.74170593
_cell_angle_beta   90.00000000
_cell_angle_gamma   90.00000000
_symmetry_Int_Tables_number   1
_chemical_formula_structural   Ho5Er5Cd7InPd4
_chemical_formula_sum   'Ho5 Er5 Cd7 In1 Pd4'
_cell_volume   528.70646217
_cell_formula_units_Z   1
loop_
 _symmetry_equiv_pos_site_id
 _symmetry_equiv_pos_as_xyz
  1  'x, y, z'
loop_
 _atom_site_type_symbol
 _atom_site_label
 _atom_site_symmetry_multiplicity
 _atom_site_fract_x
 _atom_site_fract_y
 _atom_site_fract_z
 _atom_site_occupancy
  Ho  Ho0  1  0.000000  0.498107  0.500323  1
  Ho  Ho1  1  0.000000  0.001396  0.999749  1
  Ho  Ho2  1  0.000000  0.738874  0.281015  1
  Ho  Ho3  1  0.000000  0.261084  0.718710  1
  Ho  Ho4  1  0.000000  0.758668  0.780760  1
  Er  Er5  1  0.000000  0.240927  0.219439  1
  Er  Er6  1  0.000000  0.613006  0.083740  1
  Er  Er7  1  0.000000  0.387895  0.916406  1
  Er  Er8  1  0.000000  0.886846  0.583340  1
  Er  Er9  1  0.000000  0.113247  0.416152  1
  Cd  Cd10  1  0.500000  0.714651  0.932164  1
  Cd  Cd11  1  0.500000  0.286184  0.068320  1
  Cd  Cd12  1  0.500000  0.784307  0.432027  1
  Cd  Cd13  1  0.500000  0.213911  0.568553  1
  Cd  Cd14  1  0.500000  0.577954  0.647925  1
  Cd  Cd15  1  0.500000  0.423067  0.351852  1
  Cd  Cd16  1  0.500000  0.923325  0.148057  1
  In  In17  1  0.500000  0.076523  0.851110  1
  Pd  Pd18  1  0.500000  0.525392  0.195418  1
  Pd  Pd19  1  0.500000  0.474409  0.804605  1
  Pd  Pd20  1  0.500000  0.974460  0.695758  1
  Pd  Pd21  1  0.500000  0.025769  0.304580  1
