# generated using pymatgen
data_Sm13Dy3InHg3Rh4
_symmetry_space_group_name_H-M   'P 1'
_cell_length_a   9.76714065
_cell_length_b   9.76115587
_cell_length_c   9.77231021
_cell_angle_alpha   59.94292164
_cell_angle_beta   59.97859708
_cell_angle_gamma   59.96755470
_symmetry_Int_Tables_number   1
_chemical_formula_structural   Sm13Dy3InHg3Rh4
_chemical_formula_sum   'Sm13 Dy3 In1 Hg3 Rh4'
_cell_volume   658.24342499
_cell_formula_units_Z   1
loop_
 _symmetry_equiv_pos_site_id
 _symmetry_equiv_pos_as_xyz
  1  'x, y, z'
loop_
 _atom_site_type_symbol
 _atom_site_label
 _atom_site_symmetry_multiplicity
 _atom_site_fract_x
 _atom_site_fract_y
 _atom_site_fract_z
 _atom_site_occupancy
  Sm  Sm0  1  0.689948  0.310147  0.311044  1
  Sm  Sm1  1  0.689702  0.690417  0.313162  1
  Sm  Sm2  1  0.310755  0.690190  0.311291  1
  Sm  Sm3  1  0.936384  0.937105  0.561516  1
  Sm  Sm4  1  0.147713  0.147433  0.552464  1
  Sm  Sm5  1  0.561207  0.936930  0.561372  1
  Sm  Sm6  1  0.151265  0.150060  0.150681  1
  Sm  Sm7  1  0.311541  0.311301  0.690119  1
  Sm  Sm8  1  0.936424  0.561394  0.562180  1
  Sm  Sm9  1  0.561481  0.561112  0.936647  1
  Sm  Sm10  1  0.560590  0.937443  0.936647  1
  Sm  Sm11  1  0.936602  0.561340  0.936462  1
  Sm  Sm12  1  0.149576  0.551192  0.146943  1
  Dy  Dy13  1  0.312426  0.689380  0.690183  1
  Dy  Dy14  1  0.689398  0.311877  0.691213  1
  Dy  Dy15  1  0.550142  0.149739  0.147185  1
  In  In16  1  0.919112  0.921817  0.920288  1
  Hg  Hg17  1  0.914232  0.916255  0.253977  1
  Hg  Hg18  1  0.254035  0.915335  0.915172  1
  Hg  Hg19  1  0.913990  0.253936  0.915721  1
  Rh  Rh20  1  0.359687  0.355676  0.355187  1
  Rh  Rh21  1  0.924752  0.356518  0.358929  1
  Rh  Rh22  1  0.360694  0.357270  0.924277  1
  Rh  Rh23  1  0.358343  0.926132  0.357340  1
