# generated using pymatgen
data_Ho7Tm(Re3Si4)4
_symmetry_space_group_name_H-M   'P 1'
_cell_length_a   6.76596316
_cell_length_b   6.76489310
_cell_length_c   12.72876216
_cell_angle_alpha   90.00615019
_cell_angle_beta   89.98311226
_cell_angle_gamma   90.01842879
_symmetry_Int_Tables_number   1
_chemical_formula_structural   Ho7Tm(Re3Si4)4
_chemical_formula_sum   'Ho7 Tm1 Re12 Si16'
_cell_volume   582.60833642
_cell_formula_units_Z   1
loop_
 _symmetry_equiv_pos_site_id
 _symmetry_equiv_pos_as_xyz
  1  'x, y, z'
loop_
 _atom_site_type_symbol
 _atom_site_label
 _atom_site_symmetry_multiplicity
 _atom_site_fract_x
 _atom_site_fract_y
 _atom_site_fract_z
 _atom_site_occupancy
  Ho  Ho0  1  0.007230  0.662190  0.030925  1
  Ho  Ho1  1  0.992695  0.337932  0.530942  1
  Ho  Ho2  1  0.337909  0.992704  0.469060  1
  Ho  Ho3  1  0.162108  0.492694  0.780976  1
  Ho  Ho4  1  0.837887  0.507319  0.280908  1
  Ho  Ho5  1  0.492732  0.162044  0.218957  1
  Ho  Ho6  1  0.507352  0.837973  0.719168  1
  Tm  Tm7  1  0.661454  0.007573  0.969137  1
  Re  Re8  1  0.664930  0.664942  0.499997  1
  Re  Re9  1  0.164942  0.835035  0.249983  1
  Re  Re10  1  0.335330  0.334704  0.999944  1
  Re  Re11  1  0.019450  0.813450  0.630882  1
  Re  Re12  1  0.980280  0.186306  0.130694  1
  Re  Re13  1  0.813434  0.019470  0.369105  1
  Re  Re14  1  0.313492  0.480541  0.380829  1
  Re  Re15  1  0.686602  0.519882  0.880884  1
  Re  Re16  1  0.480553  0.313391  0.619210  1
  Re  Re17  1  0.519846  0.687016  0.118876  1
  Re  Re18  1  0.186679  0.980504  0.869148  1
  Re  Re19  1  0.834915  0.164800  0.750330  1
  Si  Si20  1  0.020514  0.725865  0.437991  1
  Si  Si21  1  0.614567  0.304734  0.434122  1
  Si  Si22  1  0.385654  0.695599  0.934142  1
  Si  Si23  1  0.195266  0.114580  0.684140  1
  Si  Si24  1  0.304726  0.614586  0.565881  1
  Si  Si25  1  0.695212  0.384864  0.065728  1
  Si  Si26  1  0.804627  0.885466  0.183920  1
  Si  Si27  1  0.114618  0.195258  0.315853  1
  Si  Si28  1  0.979043  0.273791  0.938016  1
  Si  Si29  1  0.725872  0.020514  0.562011  1
  Si  Si30  1  0.225869  0.479504  0.187974  1
  Si  Si31  1  0.774097  0.520504  0.688010  1
  Si  Si32  1  0.479761  0.225571  0.812290  1
  Si  Si33  1  0.520483  0.774136  0.311979  1
  Si  Si34  1  0.274731  0.979525  0.061879  1
  Si  Si35  1  0.885140  0.805033  0.816107  1
