# generated using pymatgen
data_La5CeHf2(Bi2Sb3)2
_symmetry_space_group_name_H-M   'P 1'
_cell_length_a   9.64690600
_cell_length_b   9.65915188
_cell_length_c   6.50146700
_cell_angle_alpha   90.00000000
_cell_angle_beta   90.00000000
_cell_angle_gamma   119.95807035
_symmetry_Int_Tables_number   1
_chemical_formula_structural   La5CeHf2(Bi2Sb3)2
_chemical_formula_sum   'La5 Ce1 Hf2 Bi4 Sb6'
_cell_volume   524.87075476
_cell_formula_units_Z   1
loop_
 _symmetry_equiv_pos_site_id
 _symmetry_equiv_pos_as_xyz
  1  'x, y, z'
loop_
 _atom_site_type_symbol
 _atom_site_label
 _atom_site_symmetry_multiplicity
 _atom_site_fract_x
 _atom_site_fract_y
 _atom_site_fract_z
 _atom_site_occupancy
  La  La0  1  0.620125  0.619942  0.750000  1
  La  La1  1  0.379786  0.000000  0.750000  1
  La  La2  1  0.377979  0.378222  0.250000  1
  La  La3  1  0.999756  0.621778  0.250000  1
  La  La4  1  0.000183  0.380058  0.750000  1
  Ce  Ce5  1  0.623037  0.000000  0.250000  1
  Hf  Hf6  1  0.000441  0.000000  0.999319  1
  Hf  Hf7  1  0.000441  0.000000  0.500681  1
  Bi  Bi8  1  0.335299  0.668728  0.498648  1
  Bi  Bi9  1  0.666571  0.331272  0.001352  1
  Bi  Bi10  1  0.666571  0.331272  0.498648  1
  Bi  Bi11  1  0.335299  0.668728  0.001352  1
  Sb  Sb12  1  0.740831  0.000000  0.750000  1
  Sb  Sb13  1  0.741019  0.744589  0.250000  1
  Sb  Sb14  1  0.996430  0.255411  0.250000  1
  Sb  Sb15  1  0.999728  0.742030  0.750000  1
  Sb  Sb16  1  0.258806  0.000000  0.250000  1
  Sb  Sb17  1  0.257698  0.257970  0.750000  1
