# generated using pymatgen
data_CeHo3(Tm3Ru2)2
_symmetry_space_group_name_H-M   'P 1'
_cell_length_a   6.29500029
_cell_length_b   7.18905684
_cell_length_c   8.44957148
_cell_angle_alpha   97.17221360
_cell_angle_beta   111.71218860
_cell_angle_gamma   88.79522210
_symmetry_Int_Tables_number   1
_chemical_formula_structural   CeHo3(Tm3Ru2)2
_chemical_formula_sum   'Ce1 Ho3 Tm6 Ru4'
_cell_volume   352.34639691
_cell_formula_units_Z   1
loop_
 _symmetry_equiv_pos_site_id
 _symmetry_equiv_pos_as_xyz
  1  'x, y, z'
loop_
 _atom_site_type_symbol
 _atom_site_label
 _atom_site_symmetry_multiplicity
 _atom_site_fract_x
 _atom_site_fract_y
 _atom_site_fract_z
 _atom_site_occupancy
  Ce  Ce0  1  0.796553  0.095927  0.809197  1
  Ho  Ho1  1  0.980589  0.418000  0.192308  1
  Ho  Ho2  1  0.211533  0.916750  0.187787  1
  Ho  Ho3  1  0.026621  0.582740  0.814189  1
  Tm  Tm4  1  0.201101  0.183588  0.563027  1
  Tm  Tm5  1  0.638242  0.314153  0.431409  1
  Tm  Tm6  1  0.790094  0.812967  0.431580  1
  Tm  Tm7  1  0.359435  0.687277  0.564842  1
  Tm  Tm8  1  0.424423  0.250574  0.002613  1
  Tm  Tm9  1  0.580240  0.751347  0.998744  1
  Ru  Ru10  1  0.612918  0.404938  0.779964  1
  Ru  Ru11  1  0.823745  0.074236  0.221615  1
  Ru  Ru12  1  0.400948  0.575171  0.222316  1
  Ru  Ru13  1  0.153558  0.932335  0.780408  1
