# generated using pymatgen
data_Y20FeHg6Ru
_symmetry_space_group_name_H-M   'P 1'
_cell_length_a   9.66417000
_cell_length_b   9.66416937
_cell_length_c   9.68687600
_cell_angle_alpha   90.00000000
_cell_angle_beta   90.00000000
_cell_angle_gamma   120.00000215
_symmetry_Int_Tables_number   1
_chemical_formula_structural   Y20FeHg6Ru
_chemical_formula_sum   'Y20 Fe1 Hg6 Ru1'
_cell_volume   783.50803802
_cell_formula_units_Z   1
loop_
 _symmetry_equiv_pos_site_id
 _symmetry_equiv_pos_as_xyz
  1  'x, y, z'
loop_
 _atom_site_type_symbol
 _atom_site_label
 _atom_site_symmetry_multiplicity
 _atom_site_fract_x
 _atom_site_fract_y
 _atom_site_fract_z
 _atom_site_occupancy
  Y  Y0  1  0.000000  0.000000  0.499872  1
  Y  Y1  1  0.000000  0.000000  0.000128  1
  Y  Y2  1  0.212030  0.787970  0.436047  1
  Y  Y3  1  0.212030  0.424061  0.436047  1
  Y  Y4  1  0.575939  0.787970  0.436047  1
  Y  Y5  1  0.790385  0.209615  0.560121  1
  Y  Y6  1  0.790385  0.580771  0.560121  1
  Y  Y7  1  0.419229  0.209615  0.560121  1
  Y  Y8  1  0.790385  0.209615  0.939879  1
  Y  Y9  1  0.790385  0.580771  0.939879  1
  Y  Y10  1  0.419229  0.209615  0.939879  1
  Y  Y11  1  0.212030  0.787970  0.063953  1
  Y  Y12  1  0.212030  0.424061  0.063953  1
  Y  Y13  1  0.575939  0.787970  0.063953  1
  Y  Y14  1  0.541259  0.458741  0.250000  1
  Y  Y15  1  0.541259  0.082519  0.250000  1
  Y  Y16  1  0.917481  0.458741  0.250000  1
  Y  Y17  1  0.458207  0.541793  0.750000  1
  Y  Y18  1  0.458207  0.916415  0.750000  1
  Y  Y19  1  0.083585  0.541793  0.750000  1
  Fe  Fe20  1  0.333333  0.666667  0.250000  1
  Hg  Hg21  1  0.881536  0.118464  0.250000  1
  Hg  Hg22  1  0.881536  0.763073  0.250000  1
  Hg  Hg23  1  0.236927  0.118464  0.250000  1
  Hg  Hg24  1  0.118291  0.881709  0.750000  1
  Hg  Hg25  1  0.118291  0.236581  0.750000  1
  Hg  Hg26  1  0.763419  0.881709  0.750000  1
  Ru  Ru27  1  0.666667  0.333333  0.750000  1
