# generated using pymatgen
data_Ce3DyYIr3
_symmetry_space_group_name_H-M   'P 1'
_cell_length_a   11.02264700
_cell_length_b   11.15240000
_cell_length_c   6.27448000
_cell_angle_alpha   90.00000000
_cell_angle_beta   90.00000000
_cell_angle_gamma   90.00000000
_symmetry_Int_Tables_number   1
_chemical_formula_structural   Ce3DyYIr3
_chemical_formula_sum   'Ce12 Dy4 Y4 Ir12'
_cell_volume   771.31535366
_cell_formula_units_Z   4
loop_
 _symmetry_equiv_pos_site_id
 _symmetry_equiv_pos_as_xyz
  1  'x, y, z'
loop_
 _atom_site_type_symbol
 _atom_site_label
 _atom_site_symmetry_multiplicity
 _atom_site_fract_x
 _atom_site_fract_y
 _atom_site_fract_z
 _atom_site_occupancy
  Ce  Ce0  1  0.290668  0.090431  0.380826  1
  Ce  Ce1  1  0.290668  0.909569  0.880826  1
  Ce  Ce2  1  0.709332  0.090431  0.880826  1
  Ce  Ce3  1  0.709332  0.909569  0.380826  1
  Ce  Ce4  1  0.593007  0.786852  0.884129  1
  Ce  Ce5  1  0.593007  0.213148  0.384129  1
  Ce  Ce6  1  0.406993  0.786852  0.384129  1
  Ce  Ce7  1  0.406993  0.213148  0.884129  1
  Ce  Ce8  1  0.205063  0.410944  0.616499  1
  Ce  Ce9  1  0.205063  0.589056  0.116499  1
  Ce  Ce10  1  0.794937  0.410944  0.116499  1
  Ce  Ce11  1  0.794937  0.589056  0.616499  1
  Dy  Dy12  1  0.000000  0.000000  0.493477  1
  Dy  Dy13  1  0.000000  0.000000  0.993477  1
  Dy  Dy14  1  0.500000  0.500000  0.008468  1
  Dy  Dy15  1  0.500000  0.500000  0.508468  1
  Y  Y16  1  0.913073  0.713629  0.118677  1
  Y  Y17  1  0.913073  0.286371  0.618677  1
  Y  Y18  1  0.086927  0.713629  0.618677  1
  Y  Y19  1  0.086927  0.286371  0.118677  1
  Ir  Ir20  1  0.841894  0.151029  0.240699  1
  Ir  Ir21  1  0.841894  0.848971  0.740699  1
  Ir  Ir22  1  0.158106  0.151029  0.740699  1
  Ir  Ir23  1  0.158106  0.848971  0.240699  1
  Ir  Ir24  1  0.654781  0.342325  0.756898  1
  Ir  Ir25  1  0.654781  0.657675  0.256898  1
  Ir  Ir26  1  0.345219  0.342325  0.256898  1
  Ir  Ir27  1  0.345219  0.657675  0.756898  1
  Ir  Ir28  1  0.500000  0.000000  0.123173  1
  Ir  Ir29  1  0.500000  0.000000  0.623173  1
  Ir  Ir30  1  0.000000  0.500000  0.879425  1
  Ir  Ir31  1  0.000000  0.500000  0.379425  1
