# generated using pymatgen
data_Er3Tm17(Ir5Au)2
_symmetry_space_group_name_H-M   'P 1'
_cell_length_a   10.91130782
_cell_length_b   10.86099001
_cell_length_c   6.29745527
_cell_angle_alpha   89.99533387
_cell_angle_beta   89.91300042
_cell_angle_gamma   89.99992737
_symmetry_Int_Tables_number   1
_chemical_formula_structural   Er3Tm17(Ir5Au)2
_chemical_formula_sum   'Er3 Tm17 Ir10 Au2'
_cell_volume   746.29547967
_cell_formula_units_Z   1
loop_
 _symmetry_equiv_pos_site_id
 _symmetry_equiv_pos_as_xyz
  1  'x, y, z'
loop_
 _atom_site_type_symbol
 _atom_site_label
 _atom_site_symmetry_multiplicity
 _atom_site_fract_x
 _atom_site_fract_y
 _atom_site_fract_z
 _atom_site_occupancy
  Er  Er0  1  0.291923  0.087974  0.372457  1
  Er  Er1  1  0.291937  0.911939  0.872387  1
  Er  Er2  1  0.697975  0.091817  0.866798  1
  Tm  Tm3  1  0.697597  0.908095  0.366956  1
  Tm  Tm4  1  0.577538  0.789655  0.877167  1
  Tm  Tm5  1  0.577488  0.210308  0.377110  1
  Tm  Tm6  1  0.409340  0.790876  0.376469  1
  Tm  Tm7  1  0.409161  0.209097  0.876538  1
  Tm  Tm8  1  0.209194  0.412080  0.621730  1
  Tm  Tm9  1  0.209179  0.587932  0.121743  1
  Tm  Tm10  1  0.790690  0.420239  0.123036  1
  Tm  Tm11  1  0.790710  0.579790  0.622930  1
  Tm  Tm12  1  0.917663  0.704947  0.137870  1
  Tm  Tm13  1  0.917822  0.295175  0.637776  1
  Tm  Tm14  1  0.095334  0.702617  0.622877  1
  Tm  Tm15  1  0.095298  0.297371  0.122872  1
  Tm  Tm16  1  0.008751  0.997995  0.500302  1
  Tm  Tm17  1  0.008851  0.001934  0.000360  1
  Tm  Tm18  1  0.500046  0.498732  0.000690  1
  Tm  Tm19  1  0.500067  0.501297  0.500586  1
  Ir  Ir20  1  0.153488  0.154680  0.750263  1
  Ir  Ir21  1  0.153516  0.845304  0.250292  1
  Ir  Ir22  1  0.655873  0.346753  0.747812  1
  Ir  Ir23  1  0.655948  0.653625  0.248026  1
  Ir  Ir24  1  0.347675  0.346430  0.251662  1
  Ir  Ir25  1  0.347688  0.653576  0.751712  1
  Ir  Ir26  1  0.499634  0.000008  0.120441  1
  Ir  Ir27  1  0.499642  0.999767  0.619934  1
  Ir  Ir28  1  0.000402  0.500835  0.879632  1
  Ir  Ir29  1  0.000383  0.499210  0.379643  1
  Au  Au30  1  0.844632  0.155050  0.251344  1
  Au  Au31  1  0.844554  0.844891  0.750583  1
