# generated using pymatgen
data_Pr6Nd6Ir3AuI12
_symmetry_space_group_name_H-M   'P 1'
_cell_length_a   10.98397587
_cell_length_b   10.98310675
_cell_length_c   10.98752006
_cell_angle_alpha   109.94074227
_cell_angle_beta   109.83405900
_cell_angle_gamma   109.67170805
_symmetry_Int_Tables_number   1
_chemical_formula_structural   Pr6Nd6Ir3AuI12
_chemical_formula_sum   'Pr6 Nd6 Ir3 Au1 I12'
_cell_volume   1007.16087697
_cell_formula_units_Z   1
loop_
 _symmetry_equiv_pos_site_id
 _symmetry_equiv_pos_as_xyz
  1  'x, y, z'
loop_
 _atom_site_type_symbol
 _atom_site_label
 _atom_site_symmetry_multiplicity
 _atom_site_fract_x
 _atom_site_fract_y
 _atom_site_fract_z
 _atom_site_occupancy
  Pr  Pr0  1  0.012116  0.040527  0.276592  1
  Pr  Pr1  1  0.479946  0.750670  0.021243  1
  Pr  Pr2  1  0.487945  0.223485  0.459724  1
  Pr  Pr3  1  0.020140  0.479043  0.749472  1
  Pr  Pr4  1  0.276334  0.012461  0.040328  1
  Pr  Pr5  1  0.227986  0.272100  0.750269  1
  Nd  Nd6  1  0.458430  0.487320  0.222917  1
  Nd  Nd7  1  0.750649  0.227701  0.272982  1
  Nd  Nd8  1  0.749373  0.020820  0.478550  1
  Nd  Nd9  1  0.223005  0.458872  0.486964  1
  Nd  Nd10  1  0.272393  0.749171  0.227229  1
  Nd  Nd11  1  0.041691  0.277451  0.013194  1
  Ir  Ir12  1  0.501877  0.998731  0.250673  1
  Ir  Ir13  1  0.998134  0.250060  0.500625  1
  Ir  Ir14  1  0.250040  0.501263  0.000186  1
  Au  Au15  1  0.250037  0.251499  0.250035  1
  I  I16  1  0.249974  0.759425  0.739251  1
  I  I17  1  0.514458  0.506672  0.755848  1
  I  I18  1  0.985470  0.743375  0.994071  1
  I  I19  1  0.740634  0.249375  0.760177  1
  I  I20  1  0.992798  0.985505  0.743605  1
  I  I21  1  0.250013  0.992828  0.506196  1
  I  I22  1  0.756126  0.514606  0.505458  1
  I  I23  1  0.507182  0.250751  0.994559  1
  I  I24  1  0.759379  0.739838  0.250667  1
  I  I25  1  0.743878  0.994590  0.985370  1
  I  I26  1  0.994038  0.505998  0.250024  1
  I  I27  1  0.505951  0.755865  0.513791  1
