# generated using pymatgen
data_Ho12Th4Mg3InIr4
_symmetry_space_group_name_H-M   'P 1'
_cell_length_a   9.77420248
_cell_length_b   9.77420225
_cell_length_c   9.77420180
_cell_angle_alpha   60.05682922
_cell_angle_beta   60.05682640
_cell_angle_gamma   60.05682956
_symmetry_Int_Tables_number   1
_chemical_formula_structural   Ho12Th4Mg3InIr4
_chemical_formula_sum   'Ho12 Th4 Mg3 In1 Ir4'
_cell_volume   661.13166563
_cell_formula_units_Z   1
loop_
 _symmetry_equiv_pos_site_id
 _symmetry_equiv_pos_as_xyz
  1  'x, y, z'
loop_
 _atom_site_type_symbol
 _atom_site_label
 _atom_site_symmetry_multiplicity
 _atom_site_fract_x
 _atom_site_fract_y
 _atom_site_fract_z
 _atom_site_occupancy
  Ho  Ho0  1  0.813022  0.186953  0.186953  1
  Ho  Ho1  1  0.186896  0.812589  0.812589  1
  Ho  Ho2  1  0.186953  0.813022  0.186953  1
  Ho  Ho3  1  0.812589  0.186896  0.812589  1
  Ho  Ho4  1  0.186953  0.186953  0.813022  1
  Ho  Ho5  1  0.812589  0.812589  0.186896  1
  Ho  Ho6  1  0.934380  0.565727  0.565727  1
  Ho  Ho7  1  0.566067  0.934148  0.934148  1
  Ho  Ho8  1  0.565727  0.934380  0.565727  1
  Ho  Ho9  1  0.934148  0.566067  0.934148  1
  Ho  Ho10  1  0.565727  0.565727  0.934380  1
  Ho  Ho11  1  0.934148  0.934148  0.566067  1
  Th  Th12  1  0.347836  0.347836  0.347836  1
  Th  Th13  1  0.348898  0.348898  0.954716  1
  Th  Th14  1  0.348898  0.954716  0.348898  1
  Th  Th15  1  0.954716  0.348898  0.348898  1
  Mg  Mg16  1  0.580718  0.580718  0.258036  1
  Mg  Mg17  1  0.580718  0.258036  0.580718  1
  Mg  Mg18  1  0.258036  0.580718  0.580718  1
  In  In19  1  0.581564  0.581564  0.581564  1
  Ir  Ir20  1  0.142558  0.142558  0.142558  1
  Ir  Ir21  1  0.142699  0.142699  0.571462  1
  Ir  Ir22  1  0.142699  0.571462  0.142699  1
  Ir  Ir23  1  0.571462  0.142699  0.142699  1
