# generated using pymatgen
data_Ho4BCl6
_symmetry_space_group_name_H-M   'P 1'
_cell_length_a   3.84573100
_cell_length_b   12.60728900
_cell_length_c   13.07276300
_cell_angle_alpha   90.00000000
_cell_angle_beta   90.00000000
_cell_angle_gamma   90.00000000
_symmetry_Int_Tables_number   1
_chemical_formula_structural   Ho4BCl6
_chemical_formula_sum   'Ho8 B2 Cl12'
_cell_volume   633.82300664
_cell_formula_units_Z   2
loop_
 _symmetry_equiv_pos_site_id
 _symmetry_equiv_pos_as_xyz
  1  'x, y, z'
loop_
 _atom_site_type_symbol
 _atom_site_label
 _atom_site_symmetry_multiplicity
 _atom_site_fract_x
 _atom_site_fract_y
 _atom_site_fract_z
 _atom_site_occupancy
  Ho  Ho0  1  0.000000  0.106139  0.084103  1
  Ho  Ho1  1  0.000000  0.893861  0.915897  1
  Ho  Ho2  1  0.000000  0.606139  0.415897  1
  Ho  Ho3  1  0.000000  0.393861  0.584103  1
  Ho  Ho4  1  0.500000  0.126282  0.851418  1
  Ho  Ho5  1  0.500000  0.873718  0.148582  1
  Ho  Ho6  1  0.500000  0.626282  0.648582  1
  Ho  Ho7  1  0.500000  0.373718  0.351418  1
  B  B8  1  0.500000  0.000000  0.000000  1
  B  B9  1  0.500000  0.500000  0.500000  1
  Cl  Cl10  1  0.500000  0.267905  0.682475  1
  Cl  Cl11  1  0.500000  0.732095  0.317525  1
  Cl  Cl12  1  0.500000  0.767905  0.817525  1
  Cl  Cl13  1  0.500000  0.232095  0.182475  1
  Cl  Cl14  1  0.000000  0.256189  0.929584  1
  Cl  Cl15  1  0.000000  0.743811  0.070416  1
  Cl  Cl16  1  0.000000  0.478357  0.243830  1
  Cl  Cl17  1  0.000000  0.521643  0.756170  1
  Cl  Cl18  1  0.000000  0.978357  0.256170  1
  Cl  Cl19  1  0.000000  0.021643  0.743830  1
  Cl  Cl20  1  0.000000  0.243811  0.429584  1
  Cl  Cl21  1  0.000000  0.756189  0.570416  1
