# generated using pymatgen
data_Lu4CrOs7
_symmetry_space_group_name_H-M   'P 1'
_cell_length_a   5.31301300
_cell_length_b   5.31301342
_cell_length_c   8.58769400
_cell_angle_alpha   90.00000000
_cell_angle_beta   90.00000000
_cell_angle_gamma   119.99999117
_symmetry_Int_Tables_number   1
_chemical_formula_structural   Lu4CrOs7
_chemical_formula_sum   'Lu4 Cr1 Os7'
_cell_volume   209.93701733
_cell_formula_units_Z   1
loop_
 _symmetry_equiv_pos_site_id
 _symmetry_equiv_pos_as_xyz
  1  'x, y, z'
loop_
 _atom_site_type_symbol
 _atom_site_label
 _atom_site_symmetry_multiplicity
 _atom_site_fract_x
 _atom_site_fract_y
 _atom_site_fract_z
 _atom_site_occupancy
  Lu  Lu0  1  0.333333  0.666667  0.436066  1
  Lu  Lu1  1  0.666667  0.333333  0.563934  1
  Lu  Lu2  1  0.666667  0.333333  0.931966  1
  Lu  Lu3  1  0.333333  0.666667  0.068034  1
  Cr  Cr4  1  0.000000  0.000000  0.000000  1
  Os  Os5  1  0.172093  0.344187  0.753360  1
  Os  Os6  1  0.172093  0.827907  0.753360  1
  Os  Os7  1  0.344187  0.172093  0.246640  1
  Os  Os8  1  0.827907  0.655813  0.246640  1
  Os  Os9  1  0.655813  0.827907  0.753360  1
  Os  Os10  1  0.827907  0.172093  0.246640  1
  Os  Os11  1  0.000000  0.000000  0.500000  1
