# generated using pymatgen
data_Y2MnCrC3
_symmetry_space_group_name_H-M   'P 1'
_cell_length_a   5.43522596
_cell_length_b   5.43522635
_cell_length_c   5.52483488
_cell_angle_alpha   75.37523365
_cell_angle_beta   75.37523243
_cell_angle_gamma   36.56716538
_symmetry_Int_Tables_number   1
_chemical_formula_structural   Y2MnCrC3
_chemical_formula_sum   'Y2 Mn1 Cr1 C3'
_cell_volume   93.73572006
_cell_formula_units_Z   1
loop_
 _symmetry_equiv_pos_site_id
 _symmetry_equiv_pos_as_xyz
  1  'x, y, z'
loop_
 _atom_site_type_symbol
 _atom_site_label
 _atom_site_symmetry_multiplicity
 _atom_site_fract_x
 _atom_site_fract_y
 _atom_site_fract_z
 _atom_site_occupancy
  Y  Y0  1  0.396841  0.396841  0.316658  1
  Y  Y1  1  0.606678  0.606678  0.685620  1
  Mn  Mn2  1  0.157856  0.157856  0.110027  1
  Cr  Cr3  1  0.843326  0.843326  0.893787  1
  C  C4  1  0.707759  0.707759  0.220546  1
  C  C5  1  0.287131  0.287131  0.772365  1
  C  C6  1  0.000409  0.000409  0.000998  1
