# generated using pymatgen
data_Dy2Tm2Pa(FeB3)2
_symmetry_space_group_name_H-M   'P 1'
_cell_length_a   5.41104611
_cell_length_b   5.41104482
_cell_length_c   7.89041034
_cell_angle_alpha   69.94710123
_cell_angle_beta   69.94710735
_cell_angle_gamma   59.99997953
_symmetry_Int_Tables_number   1
_chemical_formula_structural   Dy2Tm2Pa(FeB3)2
_chemical_formula_sum   'Dy2 Tm2 Pa1 Fe2 B6'
_cell_volume   183.72466689
_cell_formula_units_Z   1
loop_
 _symmetry_equiv_pos_site_id
 _symmetry_equiv_pos_as_xyz
  1  'x, y, z'
loop_
 _atom_site_type_symbol
 _atom_site_label
 _atom_site_symmetry_multiplicity
 _atom_site_fract_x
 _atom_site_fract_y
 _atom_site_fract_z
 _atom_site_occupancy
  Dy  Dy0  1  0.412149  0.412149  0.763553  1
  Dy  Dy1  1  0.587851  0.587851  0.236447  1
  Tm  Tm2  1  0.253002  0.253002  0.240997  1
  Tm  Tm3  1  0.746998  0.746998  0.759003  1
  Pa  Pa4  1  0.000000  0.000000  0.000000  1
  Fe  Fe5  1  0.107984  0.107984  0.676051  1
  Fe  Fe6  1  0.892016  0.892016  0.323949  1
  B  B7  1  0.166964  0.833036  0.500000  1
  B  B8  1  0.833036  0.500000  0.500000  1
  B  B9  1  0.500000  0.166964  0.500000  1
  B  B10  1  0.166964  0.500000  0.500000  1
  B  B11  1  0.500000  0.833036  0.500000  1
  B  B12  1  0.833036  0.166964  0.500000  1
