# generated using pymatgen
data_CeTh(ZnSi)2
_symmetry_space_group_name_H-M   'P 1'
_cell_length_a   4.16539600
_cell_length_b   4.16539671
_cell_length_c   8.37835100
_cell_angle_alpha   90.00000000
_cell_angle_beta   90.00000000
_cell_angle_gamma   120.00001021
_symmetry_Int_Tables_number   1
_chemical_formula_structural   CeTh(ZnSi)2
_chemical_formula_sum   'Ce1 Th1 Zn2 Si2'
_cell_volume   125.89306393
_cell_formula_units_Z   1
loop_
 _symmetry_equiv_pos_site_id
 _symmetry_equiv_pos_as_xyz
  1  'x, y, z'
loop_
 _atom_site_type_symbol
 _atom_site_label
 _atom_site_symmetry_multiplicity
 _atom_site_fract_x
 _atom_site_fract_y
 _atom_site_fract_z
 _atom_site_occupancy
  Ce  Ce0  1  0.000000  0.000000  0.000000  1
  Th  Th1  1  0.000000  0.000000  0.500000  1
  Zn  Zn2  1  0.666667  0.333333  0.245366  1
  Zn  Zn3  1  0.333333  0.666667  0.754634  1
  Si  Si4  1  0.333333  0.666667  0.247055  1
  Si  Si5  1  0.666667  0.333333  0.752945  1
