# generated using pymatgen
data_Pr4Al4Ir3Pt
_symmetry_space_group_name_H-M   'P 1'
_cell_length_a   4.39987800
_cell_length_b   7.10352602
_cell_length_c   8.05711200
_cell_angle_alpha   89.99384575
_cell_angle_beta   90.00000000
_cell_angle_gamma   90.00000000
_symmetry_Int_Tables_number   1
_chemical_formula_structural   Pr4Al4Ir3Pt
_chemical_formula_sum   'Pr4 Al4 Ir3 Pt1'
_cell_volume   251.82219701
_cell_formula_units_Z   1
loop_
 _symmetry_equiv_pos_site_id
 _symmetry_equiv_pos_as_xyz
  1  'x, y, z'
loop_
 _atom_site_type_symbol
 _atom_site_label
 _atom_site_symmetry_multiplicity
 _atom_site_fract_x
 _atom_site_fract_y
 _atom_site_fract_z
 _atom_site_occupancy
  Pr  Pr0  1  0.250000  0.532915  0.817608  1
  Pr  Pr1  1  0.250000  0.027324  0.679485  1
  Pr  Pr2  1  0.750000  0.971082  0.317040  1
  Pr  Pr3  1  0.750000  0.473994  0.185566  1
  Al  Al4  1  0.250000  0.138918  0.066679  1
  Al  Al5  1  0.750000  0.361582  0.561705  1
  Al  Al6  1  0.250000  0.640273  0.435492  1
  Al  Al7  1  0.750000  0.854973  0.935306  1
  Ir  Ir8  1  0.250000  0.778594  0.113494  1
  Ir  Ir9  1  0.250000  0.277837  0.385588  1
  Ir  Ir10  1  0.750000  0.722731  0.615020  1
  Pt  Pt11  1  0.750000  0.219776  0.887016  1
