# generated using pymatgen
data_Tm4Al5VTc2
_symmetry_space_group_name_H-M   'P 1'
_cell_length_a   5.46723892
_cell_length_b   5.54254555
_cell_length_c   8.76101800
_cell_angle_alpha   90.00000000
_cell_angle_beta   90.00000000
_cell_angle_gamma   120.45670751
_symmetry_Int_Tables_number   1
_chemical_formula_structural   Tm4Al5VTc2
_chemical_formula_sum   'Tm4 Al5 V1 Tc2'
_cell_volume   228.84710035
_cell_formula_units_Z   1
loop_
 _symmetry_equiv_pos_site_id
 _symmetry_equiv_pos_as_xyz
  1  'x, y, z'
loop_
 _atom_site_type_symbol
 _atom_site_label
 _atom_site_symmetry_multiplicity
 _atom_site_fract_x
 _atom_site_fract_y
 _atom_site_fract_z
 _atom_site_occupancy
  Tm  Tm0  1  0.336214  0.668108  0.444262  1
  Tm  Tm1  1  0.668301  0.334150  0.556111  1
  Tm  Tm2  1  0.668301  0.334150  0.943889  1
  Tm  Tm3  1  0.336214  0.668108  0.055738  1
  Al  Al4  1  0.833816  0.164277  0.250000  1
  Al  Al5  1  0.833816  0.669540  0.250000  1
  Al  Al6  1  0.321716  0.160858  0.250000  1
  Al  Al7  1  0.184362  0.844804  0.750000  1
  Al  Al8  1  0.184362  0.339558  0.750000  1
  V  V9  1  0.694592  0.847296  0.750000  1
  Tc  Tc10  1  0.969153  0.984576  0.509670  1
  Tc  Tc11  1  0.969153  0.984576  0.990330  1
