# generated using pymatgen
data_Cs3Rb3V2(IrBr9)2
_symmetry_space_group_name_H-M   'P 1'
_cell_length_a   7.70484100
_cell_length_b   7.70484158
_cell_length_c   19.07177400
_cell_angle_alpha   90.00000000
_cell_angle_beta   90.00000000
_cell_angle_gamma   119.99999320
_symmetry_Int_Tables_number   1
_chemical_formula_structural   Cs3Rb3V2(IrBr9)2
_chemical_formula_sum   'Cs3 Rb3 V2 Ir2 Br18'
_cell_volume   980.50349891
_cell_formula_units_Z   1
loop_
 _symmetry_equiv_pos_site_id
 _symmetry_equiv_pos_as_xyz
  1  'x, y, z'
loop_
 _atom_site_type_symbol
 _atom_site_label
 _atom_site_symmetry_multiplicity
 _atom_site_fract_x
 _atom_site_fract_y
 _atom_site_fract_z
 _atom_site_occupancy
  Cs  Cs0  1  0.666667  0.333333  0.570824  1
  Cs  Cs1  1  0.333333  0.666667  0.066430  1
  Cs  Cs2  1  0.333333  0.666667  0.429429  1
  Rb  Rb3  1  0.666667  0.333333  0.938178  1
  Rb  Rb4  1  0.000000  0.000000  0.249097  1
  Rb  Rb5  1  0.000000  0.000000  0.750870  1
  V  V6  1  0.333333  0.666667  0.831889  1
  V  V7  1  0.666667  0.333333  0.167589  1
  Ir  Ir8  1  0.333333  0.666667  0.671309  1
  Ir  Ir9  1  0.666667  0.333333  0.328584  1
  Br  Br10  1  0.820535  0.641069  0.403670  1
  Br  Br11  1  0.179450  0.820550  0.596192  1
  Br  Br12  1  0.641101  0.820550  0.596192  1
  Br  Br13  1  0.820535  0.179465  0.403670  1
  Br  Br14  1  0.358931  0.179465  0.403670  1
  Br  Br15  1  0.175754  0.351509  0.903633  1
  Br  Br16  1  0.021399  0.510700  0.747226  1
  Br  Br17  1  0.648491  0.824246  0.903633  1
  Br  Br18  1  0.823732  0.647464  0.095345  1
  Br  Br19  1  0.179450  0.358899  0.596192  1
  Br  Br20  1  0.489300  0.978601  0.747226  1
  Br  Br21  1  0.510836  0.489164  0.252534  1
  Br  Br22  1  0.489300  0.510700  0.747226  1
  Br  Br23  1  0.175754  0.824246  0.903633  1
  Br  Br24  1  0.352536  0.176268  0.095345  1
  Br  Br25  1  0.978327  0.489164  0.252534  1
  Br  Br26  1  0.510836  0.021673  0.252534  1
  Br  Br27  1  0.823732  0.176268  0.095345  1
