# generated using pymatgen
data_CaEu3Al8
_symmetry_space_group_name_H-M   'P 1'
_cell_length_a   9.85081192
_cell_length_b   9.85081186
_cell_length_c   9.85081280
_cell_angle_alpha   33.73888581
_cell_angle_beta   33.73888613
_cell_angle_gamma   33.73888260
_symmetry_Int_Tables_number   1
_chemical_formula_structural   CaEu3Al8
_chemical_formula_sum   'Ca1 Eu3 Al8'
_cell_volume   262.73307641
_cell_formula_units_Z   1
loop_
 _symmetry_equiv_pos_site_id
 _symmetry_equiv_pos_as_xyz
  1  'x, y, z'
loop_
 _atom_site_type_symbol
 _atom_site_label
 _atom_site_symmetry_multiplicity
 _atom_site_fract_x
 _atom_site_fract_y
 _atom_site_fract_z
 _atom_site_occupancy
  Ca  Ca0  1  0.062384  0.062384  0.062384  1
  Eu  Eu1  1  0.562176  0.562176  0.562176  1
  Eu  Eu2  1  0.437417  0.437417  0.437417  1
  Eu  Eu3  1  0.938048  0.938048  0.938048  1
  Al  Al4  1  0.750190  0.750190  0.750190  1
  Al  Al5  1  0.249893  0.249893  0.249893  1
  Al  Al6  1  0.001028  0.500090  0.500090  1
  Al  Al7  1  0.499750  0.999466  0.999466  1
  Al  Al8  1  0.500090  0.001028  0.500090  1
  Al  Al9  1  0.999466  0.499750  0.999466  1
  Al  Al10  1  0.500090  0.500090  0.001028  1
  Al  Al11  1  0.999466  0.999466  0.499750  1
