# generated using pymatgen
data_La8Cu(Si4Pt)3
_symmetry_space_group_name_H-M   'P 1'
_cell_length_a   8.28189900
_cell_length_b   8.28189968
_cell_length_c   8.83447500
_cell_angle_alpha   90.00000000
_cell_angle_beta   90.00000000
_cell_angle_gamma   119.99999329
_symmetry_Int_Tables_number   1
_chemical_formula_structural   La8Cu(Si4Pt)3
_chemical_formula_sum   'La8 Cu1 Si12 Pt3'
_cell_volume   524.77278303
_cell_formula_units_Z   1
loop_
 _symmetry_equiv_pos_site_id
 _symmetry_equiv_pos_as_xyz
  1  'x, y, z'
loop_
 _atom_site_type_symbol
 _atom_site_label
 _atom_site_symmetry_multiplicity
 _atom_site_fract_x
 _atom_site_fract_y
 _atom_site_fract_z
 _atom_site_occupancy
  La  La0  1  0.000000  0.000000  0.251144  1
  La  La1  1  0.000000  0.000000  0.748943  1
  La  La2  1  0.500947  0.499053  0.249785  1
  La  La3  1  0.500947  0.001896  0.249785  1
  La  La4  1  0.998104  0.499053  0.249785  1
  La  La5  1  0.499872  0.500128  0.750320  1
  La  La6  1  0.499872  0.999742  0.750320  1
  La  La7  1  0.000258  0.500128  0.750320  1
  Cu  Cu8  1  0.333333  0.666667  0.496985  1
  Si  Si9  1  0.168483  0.831517  0.500234  1
  Si  Si10  1  0.168483  0.336967  0.500234  1
  Si  Si11  1  0.663033  0.831517  0.500234  1
  Si  Si12  1  0.834473  0.165527  0.499963  1
  Si  Si13  1  0.834473  0.668947  0.499963  1
  Si  Si14  1  0.331053  0.165527  0.499963  1
  Si  Si15  1  0.833944  0.166056  0.000742  1
  Si  Si16  1  0.833944  0.667887  0.000742  1
  Si  Si17  1  0.332113  0.166056  0.000742  1
  Si  Si18  1  0.165819  0.834181  0.999222  1
  Si  Si19  1  0.165819  0.331640  0.999222  1
  Si  Si20  1  0.668360  0.834181  0.999222  1
  Pt  Pt21  1  0.666667  0.333333  0.501568  1
  Pt  Pt22  1  0.666667  0.333333  0.997507  1
  Pt  Pt23  1  0.333333  0.666667  0.003056  1
