# generated using pymatgen
data_Tm2Mn5P7Ir6W
_symmetry_space_group_name_H-M   'P 1'
_cell_length_a   9.38849520
_cell_length_b   9.37170114
_cell_length_c   3.83714100
_cell_angle_alpha   90.00000000
_cell_angle_beta   90.00000000
_cell_angle_gamma   119.61564885
_symmetry_Int_Tables_number   1
_chemical_formula_structural   Tm2Mn5P7Ir6W
_chemical_formula_sum   'Tm2 Mn5 P7 Ir6 W1'
_cell_volume   293.50927244
_cell_formula_units_Z   1
loop_
 _symmetry_equiv_pos_site_id
 _symmetry_equiv_pos_as_xyz
  1  'x, y, z'
loop_
 _atom_site_type_symbol
 _atom_site_label
 _atom_site_symmetry_multiplicity
 _atom_site_fract_x
 _atom_site_fract_y
 _atom_site_fract_z
 _atom_site_occupancy
  Tm  Tm0  1  0.000018  0.999450  0.000000  1
  Tm  Tm1  1  0.666045  0.333959  0.500000  1
  Mn  Mn2  1  0.221014  0.396849  0.000000  1
  Mn  Mn3  1  0.604722  0.829139  0.000000  1
  Mn  Mn4  1  0.176923  0.779499  0.000000  1
  Mn  Mn5  1  0.430920  0.880551  0.500000  1
  Mn  Mn6  1  0.119969  0.545801  0.500000  1
  P  P7  1  0.443663  0.369014  0.000000  1
  P  P8  1  0.633188  0.078546  0.000000  1
  P  P9  1  0.925558  0.556913  0.000000  1
  P  P10  1  0.054108  0.268069  0.500000  1
  P  P11  1  0.731589  0.786882  0.500000  1
  P  P12  1  0.213303  0.942667  0.500000  1
  P  P13  1  0.334589  0.666865  0.000000  1
  Ir  Ir14  1  0.696268  0.597345  0.000000  1
  Ir  Ir15  1  0.400136  0.096591  0.000000  1
  Ir  Ir16  1  0.904630  0.304215  0.000000  1
  Ir  Ir17  1  0.272093  0.218783  0.500000  1
  Ir  Ir18  1  0.777306  0.054051  0.500000  1
  Ir  Ir19  1  0.947209  0.722903  0.500000  1
  W  W20  1  0.446746  0.571908  0.500000  1
