# generated using pymatgen
data_Pr2ZnIn4CuIr16
_symmetry_space_group_name_H-M   'P 1'
_cell_length_a   8.80763909
_cell_length_b   8.80763909
_cell_length_c   5.27473200
_cell_angle_alpha   90.00000000
_cell_angle_beta   90.00000000
_cell_angle_gamma   90.01648427
_symmetry_Int_Tables_number   1
_chemical_formula_structural   Pr2ZnIn4CuIr16
_chemical_formula_sum   'Pr2 Zn1 In4 Cu1 Ir16'
_cell_volume   409.18471414
_cell_formula_units_Z   1
loop_
 _symmetry_equiv_pos_site_id
 _symmetry_equiv_pos_as_xyz
  1  'x, y, z'
loop_
 _atom_site_type_symbol
 _atom_site_label
 _atom_site_symmetry_multiplicity
 _atom_site_fract_x
 _atom_site_fract_y
 _atom_site_fract_z
 _atom_site_occupancy
  Pr  Pr0  1  0.000000  0.000000  0.000000  1
  Pr  Pr1  1  0.500000  0.500000  0.000000  1
  Zn  Zn2  1  0.500000  0.000000  0.500000  1
  In  In3  1  0.121287  0.621287  0.000000  1
  In  In4  1  0.878713  0.378713  0.000000  1
  In  In5  1  0.622906  0.877094  0.000000  1
  In  In6  1  0.377094  0.122906  0.000000  1
  Cu  Cu7  1  0.000000  0.500000  0.500000  1
  Ir  Ir8  1  0.205200  0.066524  0.500000  1
  Ir  Ir9  1  0.794800  0.933476  0.500000  1
  Ir  Ir10  1  0.065233  0.794318  0.500000  1
  Ir  Ir11  1  0.705682  0.434767  0.500000  1
  Ir  Ir12  1  0.934767  0.205682  0.500000  1
  Ir  Ir13  1  0.294318  0.565233  0.500000  1
  Ir  Ir14  1  0.566524  0.705200  0.500000  1
  Ir  Ir15  1  0.433476  0.294800  0.500000  1
  Ir  Ir16  1  0.677948  0.177948  0.237518  1
  Ir  Ir17  1  0.322052  0.822052  0.762482  1
  Ir  Ir18  1  0.322052  0.822052  0.237518  1
  Ir  Ir19  1  0.176466  0.323534  0.238020  1
  Ir  Ir20  1  0.176466  0.323534  0.761980  1
  Ir  Ir21  1  0.677948  0.177948  0.762482  1
  Ir  Ir22  1  0.823534  0.676466  0.761980  1
  Ir  Ir23  1  0.823534  0.676466  0.238020  1
