# generated using pymatgen
data_Dy3ThCu4As7P
_symmetry_space_group_name_H-M   'P 1'
_cell_length_a   3.92409600
_cell_length_b   3.92394064
_cell_length_c   19.66865486
_cell_angle_alpha   89.95840797
_cell_angle_beta   90.00000000
_cell_angle_gamma   90.00000000
_symmetry_Int_Tables_number   1
_chemical_formula_structural   Dy3ThCu4As7P
_chemical_formula_sum   'Dy3 Th1 Cu4 As7 P1'
_cell_volume   302.85629001
_cell_formula_units_Z   1
loop_
 _symmetry_equiv_pos_site_id
 _symmetry_equiv_pos_as_xyz
  1  'x, y, z'
loop_
 _atom_site_type_symbol
 _atom_site_label
 _atom_site_symmetry_multiplicity
 _atom_site_fract_x
 _atom_site_fract_y
 _atom_site_fract_z
 _atom_site_occupancy
  Dy  Dy0  1  0.750000  0.744378  0.383026  1
  Dy  Dy1  1  0.250000  0.256051  0.619077  1
  Dy  Dy2  1  0.750000  0.754949  0.880080  1
  Th  Th3  1  0.250000  0.245356  0.118639  1
  Cu  Cu4  1  0.750000  0.243131  0.249458  1
  Cu  Cu5  1  0.250000  0.743694  0.249523  1
  Cu  Cu6  1  0.750000  0.256919  0.749786  1
  Cu  Cu7  1  0.250000  0.756211  0.749748  1
  As  As8  1  0.250000  0.748417  0.997898  1
  As  As9  1  0.250000  0.243769  0.330316  1
  As  As10  1  0.750000  0.247527  0.500180  1
  As  As11  1  0.250000  0.752164  0.500187  1
  As  As12  1  0.750000  0.756650  0.669101  1
  As  As13  1  0.250000  0.255543  0.830169  1
  As  As14  1  0.750000  0.250825  0.997897  1
  P  P15  1  0.750000  0.744417  0.174917  1
