# generated using pymatgen
data_Nd7Sm(Si3Au)4
_symmetry_space_group_name_H-M   'P 1'
_cell_length_a   8.28391813
_cell_length_b   8.28391819
_cell_length_c   8.64379000
_cell_angle_alpha   90.00000000
_cell_angle_beta   90.00000000
_cell_angle_gamma   119.95807341
_symmetry_Int_Tables_number   1
_chemical_formula_structural   Nd7Sm(Si3Au)4
_chemical_formula_sum   'Nd7 Sm1 Si12 Au4'
_cell_volume   513.91318935
_cell_formula_units_Z   1
loop_
 _symmetry_equiv_pos_site_id
 _symmetry_equiv_pos_as_xyz
  1  'x, y, z'
loop_
 _atom_site_type_symbol
 _atom_site_label
 _atom_site_symmetry_multiplicity
 _atom_site_fract_x
 _atom_site_fract_y
 _atom_site_fract_z
 _atom_site_occupancy
  Nd  Nd0  1  0.500144  0.499856  0.250000  1
  Nd  Nd1  1  0.000324  0.500156  0.750000  1
  Nd  Nd2  1  0.999697  0.499859  0.250000  1
  Nd  Nd3  1  0.499844  0.999676  0.750000  1
  Nd  Nd4  1  0.500141  0.000303  0.250000  1
  Nd  Nd5  1  0.999993  0.000007  0.750000  1
  Nd  Nd6  1  0.999993  0.000007  0.250000  1
  Sm  Sm7  1  0.499857  0.500143  0.750000  1
  Si  Si8  1  0.836114  0.163886  0.999440  1
  Si  Si9  1  0.163878  0.836122  0.000766  1
  Si  Si10  1  0.327712  0.164043  0.998545  1
  Si  Si11  1  0.163878  0.836122  0.499234  1
  Si  Si12  1  0.672300  0.835964  0.999874  1
  Si  Si13  1  0.836114  0.163886  0.500560  1
  Si  Si14  1  0.835957  0.672288  0.998545  1
  Si  Si15  1  0.672300  0.835964  0.500126  1
  Si  Si16  1  0.164036  0.327700  0.999874  1
  Si  Si17  1  0.327712  0.164043  0.501455  1
  Si  Si18  1  0.164036  0.327700  0.500126  1
  Si  Si19  1  0.835957  0.672288  0.501455  1
  Au  Au20  1  0.666272  0.333728  0.998087  1
  Au  Au21  1  0.333735  0.666265  0.998314  1
  Au  Au22  1  0.333735  0.666265  0.501686  1
  Au  Au23  1  0.666272  0.333728  0.501913  1
