# generated using pymatgen
data_Pr3NdRe4F28
_symmetry_space_group_name_H-M   'P 1'
_cell_length_a   5.78753408
_cell_length_b   9.28252514
_cell_length_c   12.44708915
_cell_angle_alpha   62.00445235
_cell_angle_beta   90.01476822
_cell_angle_gamma   90.01754407
_symmetry_Int_Tables_number   1
_chemical_formula_structural   Pr3NdRe4F28
_chemical_formula_sum   'Pr3 Nd1 Re4 F28'
_cell_volume   590.44621221
_cell_formula_units_Z   1
loop_
 _symmetry_equiv_pos_site_id
 _symmetry_equiv_pos_as_xyz
  1  'x, y, z'
loop_
 _atom_site_type_symbol
 _atom_site_label
 _atom_site_symmetry_multiplicity
 _atom_site_fract_x
 _atom_site_fract_y
 _atom_site_fract_z
 _atom_site_occupancy
  Pr  Pr0  1  0.258293  0.187855  0.735416  1
  Pr  Pr1  1  0.241844  0.188595  0.235287  1
  Pr  Pr2  1  0.741824  0.811317  0.264665  1
  Nd  Nd3  1  0.758444  0.811724  0.764475  1
  Re  Re4  1  0.755997  0.274984  0.956906  1
  Re  Re5  1  0.256000  0.725915  0.543481  1
  Re  Re6  1  0.243890  0.725882  0.042130  1
  Re  Re7  1  0.744100  0.273702  0.457501  1
  F  F8  1  0.447652  0.709631  0.920253  1
  F  F9  1  0.946693  0.290801  0.579323  1
  F  F10  1  0.553511  0.290958  0.079180  1
  F  F11  1  0.053874  0.709154  0.421151  1
  F  F12  1  0.462627  0.284900  0.544887  1
  F  F13  1  0.962119  0.715641  0.954183  1
  F  F14  1  0.536792  0.714980  0.455442  1
  F  F15  1  0.037347  0.285124  0.044721  1
  F  F16  1  0.763113  0.516260  0.860013  1
  F  F17  1  0.263167  0.484857  0.639778  1
  F  F18  1  0.236783  0.485013  0.139566  1
  F  F19  1  0.736830  0.514685  0.360461  1
  F  F20  1  0.760946  0.033854  0.052007  1
  F  F21  1  0.260969  0.966735  0.447843  1
  F  F22  1  0.239117  0.966828  0.947605  1
  F  F23  1  0.739091  0.032636  0.553070  1
  F  F24  1  0.981540  0.732248  0.636665  1
  F  F25  1  0.481934  0.268230  0.863833  1
  F  F26  1  0.017951  0.268170  0.364006  1
  F  F27  1  0.517526  0.731726  0.135881  1
  F  F28  1  0.046243  0.742380  0.166500  1
  F  F29  1  0.546028  0.257501  0.333271  1
  F  F30  1  0.954128  0.257633  0.833139  1
  F  F31  1  0.455639  0.742962  0.667145  1
  F  F32  1  0.412489  0.968414  0.231018  1
  F  F33  1  0.912491  0.031642  0.268982  1
  F  F34  1  0.588366  0.029600  0.768854  1
  F  F35  1  0.084644  0.967463  0.731366  1
