# generated using pymatgen
data_Zr12AlGa3(Pd2N)4
_symmetry_space_group_name_H-M   'P 1'
_cell_length_a   8.64368786
_cell_length_b   8.64368758
_cell_length_c   8.64368762
_cell_angle_alpha   60.13215529
_cell_angle_beta   60.13215547
_cell_angle_gamma   60.13214998
_symmetry_Int_Tables_number   1
_chemical_formula_structural   Zr12AlGa3(Pd2N)4
_chemical_formula_sum   'Zr12 Al1 Ga3 Pd8 N4'
_cell_volume   458.01576536
_cell_formula_units_Z   1
loop_
 _symmetry_equiv_pos_site_id
 _symmetry_equiv_pos_as_xyz
  1  'x, y, z'
loop_
 _atom_site_type_symbol
 _atom_site_label
 _atom_site_symmetry_multiplicity
 _atom_site_fract_x
 _atom_site_fract_y
 _atom_site_fract_z
 _atom_site_occupancy
  Zr  Zr0  1  0.811789  0.811789  0.187868  1
  Zr  Zr1  1  0.188357  0.188357  0.811918  1
  Zr  Zr2  1  0.811789  0.187868  0.811789  1
  Zr  Zr3  1  0.188357  0.811918  0.188357  1
  Zr  Zr4  1  0.187868  0.811789  0.811789  1
  Zr  Zr5  1  0.811918  0.188357  0.188357  1
  Zr  Zr6  1  0.438211  0.438211  0.062132  1
  Zr  Zr7  1  0.061643  0.061643  0.438082  1
  Zr  Zr8  1  0.438211  0.062132  0.438211  1
  Zr  Zr9  1  0.061643  0.438082  0.061643  1
  Zr  Zr10  1  0.062132  0.438211  0.438211  1
  Zr  Zr11  1  0.438082  0.061643  0.061643  1
  Al  Al12  1  0.625000  0.625000  0.625000  1
  Ga  Ga13  1  0.125000  0.625000  0.625000  1
  Ga  Ga14  1  0.625000  0.125000  0.625000  1
  Ga  Ga15  1  0.625000  0.625000  0.125000  1
  Pd  Pd16  1  0.760204  0.414248  0.414248  1
  Pd  Pd17  1  0.414248  0.760204  0.414248  1
  Pd  Pd18  1  0.414248  0.414248  0.760204  1
  Pd  Pd19  1  0.413107  0.413107  0.413107  1
  Pd  Pd20  1  0.489796  0.835752  0.835752  1
  Pd  Pd21  1  0.835752  0.489796  0.835752  1
  Pd  Pd22  1  0.835752  0.835752  0.489796  1
  Pd  Pd23  1  0.836893  0.836893  0.836893  1
  N  N24  1  0.625000  0.125000  0.125000  1
  N  N25  1  0.125000  0.625000  0.125000  1
  N  N26  1  0.125000  0.125000  0.625000  1
  N  N27  1  0.125000  0.125000  0.125000  1
