# generated using pymatgen
data_Pr5Nd3(ErBi)12
_symmetry_space_group_name_H-M   'P 1'
_cell_length_a   8.33501286
_cell_length_b   9.52503900
_cell_length_c   12.22769900
_cell_angle_alpha   90.00000000
_cell_angle_beta   89.97396088
_cell_angle_gamma   90.00000000
_symmetry_Int_Tables_number   1
_chemical_formula_structural   Pr5Nd3(ErBi)12
_chemical_formula_sum   'Pr5 Nd3 Er12 Bi12'
_cell_volume   970.77309528
_cell_formula_units_Z   1
loop_
 _symmetry_equiv_pos_site_id
 _symmetry_equiv_pos_as_xyz
  1  'x, y, z'
loop_
 _atom_site_type_symbol
 _atom_site_label
 _atom_site_symmetry_multiplicity
 _atom_site_fract_x
 _atom_site_fract_y
 _atom_site_fract_z
 _atom_site_occupancy
  Pr  Pr0  1  0.183238  0.750000  0.719590  1
  Pr  Pr1  1  0.684448  0.750000  0.779118  1
  Pr  Pr2  1  0.816817  0.250000  0.280058  1
  Pr  Pr3  1  0.316397  0.250000  0.220410  1
  Pr  Pr4  1  0.353558  0.750000  0.215910  1
  Nd  Nd5  1  0.851823  0.750000  0.282862  1
  Nd  Nd6  1  0.647632  0.250000  0.783664  1
  Nd  Nd7  1  0.147945  0.250000  0.717016  1
  Er  Er8  1  0.023680  0.750000  0.987402  1
  Er  Er9  1  0.523879  0.750000  0.513089  1
  Er  Er10  1  0.975445  0.250000  0.011795  1
  Er  Er11  1  0.476202  0.250000  0.488681  1
  Er  Er12  1  0.308885  0.435399  0.941000  1
  Er  Er13  1  0.809549  0.064449  0.559776  1
  Er  Er14  1  0.690224  0.935136  0.057986  1
  Er  Er15  1  0.191173  0.564502  0.441287  1
  Er  Er16  1  0.690224  0.564864  0.057986  1
  Er  Er17  1  0.191173  0.935498  0.441287  1
  Er  Er18  1  0.308885  0.064601  0.941000  1
  Er  Er19  1  0.809549  0.435551  0.559776  1
  Bi  Bi20  1  0.434518  0.005719  0.668653  1
  Bi  Bi21  1  0.934444  0.494358  0.831628  1
  Bi  Bi22  1  0.566457  0.505021  0.333347  1
  Bi  Bi23  1  0.064761  0.994797  0.167638  1
  Bi  Bi24  1  0.566457  0.994979  0.333347  1
  Bi  Bi25  1  0.064761  0.505203  0.167638  1
  Bi  Bi26  1  0.434518  0.494281  0.668653  1
  Bi  Bi27  1  0.934444  0.005642  0.831628  1
  Bi  Bi28  1  0.403987  0.750000  0.956818  1
  Bi  Bi29  1  0.904764  0.750000  0.540416  1
  Bi  Bi30  1  0.594928  0.250000  0.041253  1
  Bi  Bi31  1  0.095235  0.250000  0.459284  1
