# generated using pymatgen
data_La9Ce(US10)2
_symmetry_space_group_name_H-M   'P 1'
_cell_length_a   7.60702510
_cell_length_b   8.28660700
_cell_length_c   12.05021614
_cell_angle_alpha   90.00000000
_cell_angle_beta   90.09397978
_cell_angle_gamma   90.00000000
_symmetry_Int_Tables_number   1
_chemical_formula_structural   La9Ce(US10)2
_chemical_formula_sum   'La9 Ce1 U2 S20'
_cell_volume   759.60155392
_cell_formula_units_Z   1
loop_
 _symmetry_equiv_pos_site_id
 _symmetry_equiv_pos_as_xyz
  1  'x, y, z'
loop_
 _atom_site_type_symbol
 _atom_site_label
 _atom_site_symmetry_multiplicity
 _atom_site_fract_x
 _atom_site_fract_y
 _atom_site_fract_z
 _atom_site_occupancy
  La  La0  1  0.529880  0.501874  0.325145  1
  La  La1  1  0.969928  0.997737  0.823424  1
  La  La2  1  0.475756  0.000298  0.675594  1
  La  La3  1  0.025529  0.499304  0.176289  1
  La  La4  1  0.475756  0.499702  0.675594  1
  La  La5  1  0.025529  0.000696  0.176289  1
  La  La6  1  0.529880  0.998126  0.325145  1
  La  La7  1  0.969928  0.502263  0.823424  1
  La  La8  1  0.426062  0.750000  0.990755  1
  Ce  Ce9  1  0.073999  0.750000  0.489895  1
  U  U10  1  0.940004  0.250000  0.507024  1
  U  U11  1  0.556474  0.250000  0.005852  1
  S  S12  1  0.839424  0.968930  0.592186  1
  S  S13  1  0.663308  0.522547  0.095870  1
  S  S14  1  0.164095  0.453634  0.407092  1
  S  S15  1  0.336115  0.053699  0.905365  1
  S  S16  1  0.164095  0.046366  0.407092  1
  S  S17  1  0.336115  0.446301  0.905365  1
  S  S18  1  0.839424  0.531070  0.592186  1
  S  S19  1  0.663308  0.977453  0.095870  1
  S  S20  1  0.831550  0.750000  0.308158  1
  S  S21  1  0.671655  0.750000  0.804053  1
  S  S22  1  0.161358  0.250000  0.684822  1
  S  S23  1  0.338044  0.250000  0.184045  1
  S  S24  1  0.458184  0.750000  0.499505  1
  S  S25  1  0.035352  0.750000  0.998921  1
  S  S26  1  0.551834  0.250000  0.501925  1
  S  S27  1  0.947580  0.250000  0.000644  1
  S  S28  1  0.194895  0.750000  0.717985  1
  S  S29  1  0.303796  0.750000  0.221727  1
  S  S30  1  0.813183  0.250000  0.292217  1
  S  S31  1  0.687963  0.250000  0.790544  1
