# generated using pymatgen
data_LuMn2PC
_symmetry_space_group_name_H-M   'P 1'
_cell_length_a   5.50748235
_cell_length_b   5.50748303
_cell_length_c   6.82029900
_cell_angle_alpha   90.00000000
_cell_angle_beta   90.00000000
_cell_angle_gamma   142.14002153
_symmetry_Int_Tables_number   1
_chemical_formula_structural   LuMn2PC
_chemical_formula_sum   'Lu2 Mn4 P2 C2'
_cell_volume   126.96668689
_cell_formula_units_Z   2
loop_
 _symmetry_equiv_pos_site_id
 _symmetry_equiv_pos_as_xyz
  1  'x, y, z'
loop_
 _atom_site_type_symbol
 _atom_site_label
 _atom_site_symmetry_multiplicity
 _atom_site_fract_x
 _atom_site_fract_y
 _atom_site_fract_z
 _atom_site_occupancy
  Lu  Lu0  1  0.541942  0.458058  0.250000  1
  Lu  Lu1  1  0.458058  0.541942  0.750000  1
  Mn  Mn2  1  0.829700  0.170300  0.057400  1
  Mn  Mn3  1  0.170300  0.829700  0.942600  1
  Mn  Mn4  1  0.170300  0.829700  0.557400  1
  Mn  Mn5  1  0.829700  0.170300  0.442600  1
  P  P6  1  0.264912  0.735088  0.250000  1
  P  P7  1  0.735088  0.264912  0.750000  1
  C  C8  1  0.000000  0.000000  0.000000  1
  C  C9  1  0.000000  0.000000  0.500000  1
