# generated using pymatgen
data_DyHfAgS4
_symmetry_space_group_name_H-M   'P 1'
_cell_length_a   7.77695716
_cell_length_b   7.77695687
_cell_length_c   7.77695703
_cell_angle_alpha   118.68896878
_cell_angle_beta   121.61358407
_cell_angle_gamma   89.75692922
_symmetry_Int_Tables_number   1
_chemical_formula_structural   DyHfAgS4
_chemical_formula_sum   'Dy2 Hf2 Ag2 S8'
_cell_volume   331.55837781
_cell_formula_units_Z   2
loop_
 _symmetry_equiv_pos_site_id
 _symmetry_equiv_pos_as_xyz
  1  'x, y, z'
loop_
 _atom_site_type_symbol
 _atom_site_label
 _atom_site_symmetry_multiplicity
 _atom_site_fract_x
 _atom_site_fract_y
 _atom_site_fract_z
 _atom_site_occupancy
  Dy  Dy0  1  0.000000  0.000000  0.500000  1
  Dy  Dy1  1  0.000000  0.500000  0.000000  1
  Hf  Hf2  1  0.000000  0.000000  0.000000  1
  Hf  Hf3  1  0.500000  0.000000  0.500000  1
  Ag  Ag4  1  0.373147  0.623147  0.750000  1
  Ag  Ag5  1  0.626853  0.376853  0.250000  1
  S  S6  1  0.249994  0.778268  0.028274  1
  S  S7  1  0.750006  0.778280  0.528274  1
  S  S8  1  0.222279  0.230014  0.992265  1
  S  S9  1  0.737748  0.230014  0.507735  1
  S  S10  1  0.777721  0.769986  0.007735  1
  S  S11  1  0.262252  0.769986  0.492265  1
  S  S12  1  0.750006  0.221732  0.971726  1
  S  S13  1  0.249994  0.221720  0.471726  1
