# generated using pymatgen
data_Rb8Li4DyLu3As8
_symmetry_space_group_name_H-M   'P 1'
_cell_length_a   10.55330343
_cell_length_b   10.55330386
_cell_length_c   6.80188653
_cell_angle_alpha   90.03443943
_cell_angle_beta   89.96556140
_cell_angle_gamma   99.89941940
_symmetry_Int_Tables_number   1
_chemical_formula_structural   Rb8Li4DyLu3As8
_chemical_formula_sum   'Rb8 Li4 Dy1 Lu3 As8'
_cell_volume   746.26197975
_cell_formula_units_Z   1
loop_
 _symmetry_equiv_pos_site_id
 _symmetry_equiv_pos_as_xyz
  1  'x, y, z'
loop_
 _atom_site_type_symbol
 _atom_site_label
 _atom_site_symmetry_multiplicity
 _atom_site_fract_x
 _atom_site_fract_y
 _atom_site_fract_z
 _atom_site_occupancy
  Rb  Rb0  1  0.568425  0.931981  0.750406  1
  Rb  Rb1  1  0.931981  0.568425  0.249594  1
  Rb  Rb2  1  0.432000  0.067162  0.249613  1
  Rb  Rb3  1  0.067162  0.432000  0.750387  1
  Rb  Rb4  1  0.678725  0.322141  0.790630  1
  Rb  Rb5  1  0.822032  0.177733  0.290314  1
  Rb  Rb6  1  0.322141  0.678725  0.209370  1
  Rb  Rb7  1  0.177733  0.822032  0.709686  1
  Li  Li8  1  0.619473  0.619473  0.000000  1
  Li  Li9  1  0.881121  0.881121  0.500000  1
  Li  Li10  1  0.381211  0.381211  0.000000  1
  Li  Li11  1  0.117484  0.117484  0.500000  1
  Dy  Dy12  1  0.367680  0.367680  0.500000  1
  Lu  Lu13  1  0.868455  0.868455  0.000000  1
  Lu  Lu14  1  0.632603  0.632603  0.500000  1
  Lu  Lu15  1  0.130588  0.130588  0.000000  1
  As  As16  1  0.341332  0.155706  0.753885  1
  As  As17  1  0.155706  0.341332  0.246115  1
  As  As18  1  0.659436  0.841131  0.250061  1
  As  As19  1  0.841131  0.659436  0.749939  1
  As  As20  1  0.910391  0.089024  0.767797  1
  As  As21  1  0.592210  0.411954  0.266239  1
  As  As22  1  0.089024  0.910391  0.232203  1
  As  As23  1  0.411954  0.592210  0.733761  1
