# generated using pymatgen
data_Dy7Er2Lu11Sn16
_symmetry_space_group_name_H-M   'P 1'
_cell_length_a   7.94614725
_cell_length_b   8.07189580
_cell_length_c   15.25649119
_cell_angle_alpha   90.03328864
_cell_angle_beta   90.01890933
_cell_angle_gamma   90.05638938
_symmetry_Int_Tables_number   1
_chemical_formula_structural   Dy7Er2Lu11Sn16
_chemical_formula_sum   'Dy7 Er2 Lu11 Sn16'
_cell_volume   978.55786266
_cell_formula_units_Z   1
loop_
 _symmetry_equiv_pos_site_id
 _symmetry_equiv_pos_as_xyz
  1  'x, y, z'
loop_
 _atom_site_type_symbol
 _atom_site_label
 _atom_site_symmetry_multiplicity
 _atom_site_fract_x
 _atom_site_fract_y
 _atom_site_fract_z
 _atom_site_occupancy
  Dy  Dy0  1  0.020640  0.178704  0.595632  1
  Dy  Dy1  1  0.479213  0.678431  0.403883  1
  Dy  Dy2  1  0.978762  0.822468  0.097413  1
  Dy  Dy3  1  0.480660  0.677879  0.096199  1
  Dy  Dy4  1  0.979455  0.821759  0.403461  1
  Dy  Dy5  1  0.519731  0.321166  0.595385  1
  Dy  Dy6  1  0.020400  0.178407  0.903700  1
  Er  Er7  1  0.866154  0.663497  0.877706  1
  Er  Er8  1  0.520496  0.321218  0.904148  1
  Lu  Lu9  1  0.364599  0.837498  0.876204  1
  Lu  Lu10  1  0.865217  0.661958  0.623078  1
  Lu  Lu11  1  0.634944  0.161580  0.376668  1
  Lu  Lu12  1  0.135010  0.337902  0.123648  1
  Lu  Lu13  1  0.633805  0.161993  0.124569  1
  Lu  Lu14  1  0.134681  0.337455  0.376603  1
  Lu  Lu15  1  0.365963  0.838123  0.622762  1
  Lu  Lu16  1  0.196916  0.504775  0.749742  1
  Lu  Lu17  1  0.696186  0.995681  0.749319  1
  Lu  Lu18  1  0.803587  0.494969  0.250390  1
  Lu  Lu19  1  0.303185  0.004727  0.250003  1
  Sn  Sn20  1  0.296508  0.039436  0.041492  1
  Sn  Sn21  1  0.796915  0.460647  0.458167  1
  Sn  Sn22  1  0.704186  0.960269  0.541229  1
  Sn  Sn23  1  0.206775  0.538094  0.958928  1
  Sn  Sn24  1  0.700980  0.963620  0.958619  1
  Sn  Sn25  1  0.202542  0.539617  0.541444  1
  Sn  Sn26  1  0.296529  0.039133  0.458332  1
  Sn  Sn27  1  0.796533  0.458981  0.042931  1
  Sn  Sn28  1  0.561873  0.620034  0.749032  1
  Sn  Sn29  1  0.062983  0.880859  0.749021  1
  Sn  Sn30  1  0.437639  0.379826  0.250706  1
  Sn  Sn31  1  0.937597  0.120310  0.250048  1
  Sn  Sn32  1  0.330742  0.149536  0.749681  1
  Sn  Sn33  1  0.830071  0.350482  0.749438  1
  Sn  Sn34  1  0.669069  0.849920  0.250246  1
  Sn  Sn35  1  0.169455  0.649046  0.250175  1
