# generated using pymatgen
data_Ho3Ga3Sn2
_symmetry_space_group_name_H-M   'P 1'
_cell_length_a   6.22347852
_cell_length_b   6.22347902
_cell_length_c   9.78106300
_cell_angle_alpha   90.00000000
_cell_angle_beta   90.00000000
_cell_angle_gamma   103.52354959
_symmetry_Int_Tables_number   1
_chemical_formula_structural   Ho3Ga3Sn2
_chemical_formula_sum   'Ho6 Ga6 Sn4'
_cell_volume   368.33340152
_cell_formula_units_Z   2
loop_
 _symmetry_equiv_pos_site_id
 _symmetry_equiv_pos_as_xyz
  1  'x, y, z'
loop_
 _atom_site_type_symbol
 _atom_site_label
 _atom_site_symmetry_multiplicity
 _atom_site_fract_x
 _atom_site_fract_y
 _atom_site_fract_z
 _atom_site_occupancy
  Ho  Ho0  1  0.638856  0.638856  0.250000  1
  Ho  Ho1  1  0.361144  0.361144  0.750000  1
  Ho  Ho2  1  0.195023  0.804977  0.500000  1
  Ho  Ho3  1  0.195023  0.804977  0.000000  1
  Ho  Ho4  1  0.804977  0.195023  0.500000  1
  Ho  Ho5  1  0.804977  0.195023  0.000000  1
  Ga  Ga6  1  0.024592  0.024592  0.250000  1
  Ga  Ga7  1  0.975408  0.975408  0.750000  1
  Ga  Ga8  1  0.309978  0.309978  0.043906  1
  Ga  Ga9  1  0.690022  0.690022  0.956094  1
  Ga  Ga10  1  0.309978  0.309978  0.456094  1
  Ga  Ga11  1  0.690022  0.690022  0.543906  1
  Sn  Sn12  1  0.492628  0.083761  0.250000  1
  Sn  Sn13  1  0.916239  0.507372  0.750000  1
  Sn  Sn14  1  0.507372  0.916239  0.750000  1
  Sn  Sn15  1  0.083761  0.492628  0.250000  1
