# generated using pymatgen
data_LiCa2OsN4
_symmetry_space_group_name_H-M   'P 1'
_cell_length_a   5.76983600
_cell_length_b   5.90324029
_cell_length_c   6.59529000
_cell_angle_alpha   73.82683468
_cell_angle_beta   90.00000000
_cell_angle_gamma   90.00000000
_symmetry_Int_Tables_number   1
_chemical_formula_structural   LiCa2OsN4
_chemical_formula_sum   'Li2 Ca4 Os2 N8'
_cell_volume   215.75006883
_cell_formula_units_Z   2
loop_
 _symmetry_equiv_pos_site_id
 _symmetry_equiv_pos_as_xyz
  1  'x, y, z'
loop_
 _atom_site_type_symbol
 _atom_site_label
 _atom_site_symmetry_multiplicity
 _atom_site_fract_x
 _atom_site_fract_y
 _atom_site_fract_z
 _atom_site_occupancy
  Li  Li0  1  0.750000  0.293706  0.309135  1
  Li  Li1  1  0.250000  0.706294  0.690865  1
  Ca  Ca2  1  0.250000  0.278394  0.056120  1
  Ca  Ca3  1  0.750000  0.721606  0.943880  1
  Ca  Ca4  1  0.750000  0.767484  0.428967  1
  Ca  Ca5  1  0.250000  0.232516  0.571033  1
  Os  Os6  1  0.250000  0.741856  0.192902  1
  Os  Os7  1  0.750000  0.258144  0.807098  1
  N  N8  1  0.502943  0.465867  0.755170  1
  N  N9  1  0.002943  0.534133  0.244830  1
  N  N10  1  0.497057  0.534133  0.244830  1
  N  N11  1  0.997057  0.465867  0.755170  1
  N  N12  1  0.750000  0.075871  0.622169  1
  N  N13  1  0.250000  0.924129  0.377831  1
  N  N14  1  0.750000  0.086508  0.083338  1
  N  N15  1  0.250000  0.913492  0.916662  1
