# generated using pymatgen
data_Ho6Er4Ga3NiBi2
_symmetry_space_group_name_H-M   'P 1'
_cell_length_a   8.52066853
_cell_length_b   8.52104200
_cell_length_c   8.71147942
_cell_angle_alpha   124.29385831
_cell_angle_beta   124.29259047
_cell_angle_gamma   81.25331473
_symmetry_Int_Tables_number   1
_chemical_formula_structural   Ho6Er4Ga3NiBi2
_chemical_formula_sum   'Ho6 Er4 Ga3 Ni1 Bi2'
_cell_volume   418.84473978
_cell_formula_units_Z   1
loop_
 _symmetry_equiv_pos_site_id
 _symmetry_equiv_pos_as_xyz
  1  'x, y, z'
loop_
 _atom_site_type_symbol
 _atom_site_label
 _atom_site_symmetry_multiplicity
 _atom_site_fract_x
 _atom_site_fract_y
 _atom_site_fract_z
 _atom_site_occupancy
  Ho  Ho0  1  0.515394  0.706827  0.500000  1
  Ho  Ho1  1  0.195743  0.041076  0.500000  1
  Ho  Ho2  1  0.002019  0.484163  0.205675  1
  Ho  Ho3  1  0.296344  0.778488  0.794325  1
  Ho  Ho4  1  0.459185  0.304133  0.500000  1
  Ho  Ho5  1  0.793111  0.984760  0.500000  1
  Er  Er6  1  0.996696  0.994302  0.991141  1
  Er  Er7  1  0.505554  0.503161  0.008859  1
  Er  Er8  1  0.015793  0.497851  0.793853  1
  Er  Er9  1  0.721940  0.203998  0.206147  1
  Ga  Ga10  1  0.351902  0.855028  0.207020  1
  Ga  Ga11  1  0.644882  0.148009  0.792980  1
  Ga  Ga12  1  0.865250  0.634541  0.500000  1
  Ni  Ni13  1  0.123891  0.375801  0.500000  1
  Bi  Bi14  1  0.756131  0.743915  0.999968  1
  Bi  Bi15  1  0.256164  0.243947  0.000032  1
