# generated using pymatgen
data_Zr3PaNi2
_symmetry_space_group_name_H-M   'P 1'
_cell_length_a   5.29231922
_cell_length_b   5.29231825
_cell_length_c   5.41792524
_cell_angle_alpha   103.76553025
_cell_angle_beta   103.76553498
_cell_angle_gamma   120.85096878
_symmetry_Int_Tables_number   1
_chemical_formula_structural   Zr3PaNi2
_chemical_formula_sum   'Zr3 Pa1 Ni2'
_cell_volume   114.13676744
_cell_formula_units_Z   1
loop_
 _symmetry_equiv_pos_site_id
 _symmetry_equiv_pos_as_xyz
  1  'x, y, z'
loop_
 _atom_site_type_symbol
 _atom_site_label
 _atom_site_symmetry_multiplicity
 _atom_site_fract_x
 _atom_site_fract_y
 _atom_site_fract_z
 _atom_site_occupancy
  Zr  Zr0  1  0.849055  0.349055  0.198111  1
  Zr  Zr1  1  0.333002  0.160451  0.493453  1
  Zr  Zr2  1  0.660451  0.833002  0.493453  1
  Pa  Pa3  1  0.168713  0.668713  0.837427  1
  Ni  Ni4  1  0.244389  0.244389  0.988779  1
  Ni  Ni5  1  0.744389  0.744389  0.988779  1
