# generated using pymatgen
data_Dy4LuBi2Sb
_symmetry_space_group_name_H-M   'P 1'
_cell_length_a   8.18061100
_cell_length_b   9.40063700
_cell_length_c   11.99699300
_cell_angle_alpha   90.00000000
_cell_angle_beta   90.00000000
_cell_angle_gamma   90.00000000
_symmetry_Int_Tables_number   1
_chemical_formula_structural   Dy4LuBi2Sb
_chemical_formula_sum   'Dy16 Lu4 Bi8 Sb4'
_cell_volume   922.60420621
_cell_formula_units_Z   4
loop_
 _symmetry_equiv_pos_site_id
 _symmetry_equiv_pos_as_xyz
  1  'x, y, z'
loop_
 _atom_site_type_symbol
 _atom_site_label
 _atom_site_symmetry_multiplicity
 _atom_site_fract_x
 _atom_site_fract_y
 _atom_site_fract_z
 _atom_site_occupancy
  Dy  Dy0  1  0.188374  0.563460  0.442328  1
  Dy  Dy1  1  0.688374  0.936540  0.057672  1
  Dy  Dy2  1  0.811626  0.063460  0.557672  1
  Dy  Dy3  1  0.311626  0.436540  0.942328  1
  Dy  Dy4  1  0.027437  0.749899  0.988356  1
  Dy  Dy5  1  0.527437  0.750101  0.511644  1
  Dy  Dy6  1  0.972563  0.249899  0.011644  1
  Dy  Dy7  1  0.472563  0.250101  0.488356  1
  Dy  Dy8  1  0.182654  0.750413  0.716813  1
  Dy  Dy9  1  0.682654  0.749587  0.783187  1
  Dy  Dy10  1  0.817346  0.250413  0.283187  1
  Dy  Dy11  1  0.317346  0.249587  0.216813  1
  Dy  Dy12  1  0.853962  0.750140  0.286014  1
  Dy  Dy13  1  0.353962  0.749860  0.213986  1
  Dy  Dy14  1  0.146038  0.250140  0.713986  1
  Dy  Dy15  1  0.646038  0.249860  0.786014  1
  Lu  Lu16  1  0.812557  0.434485  0.557702  1
  Lu  Lu17  1  0.312557  0.065515  0.942298  1
  Lu  Lu18  1  0.187443  0.934485  0.442298  1
  Lu  Lu19  1  0.687443  0.565515  0.057702  1
  Bi  Bi20  1  0.933785  0.496034  0.825177  1
  Bi  Bi21  1  0.433785  0.003966  0.674823  1
  Bi  Bi22  1  0.066215  0.996034  0.174823  1
  Bi  Bi23  1  0.566215  0.503966  0.325177  1
  Bi  Bi24  1  0.065995  0.503688  0.174895  1
  Bi  Bi25  1  0.565995  0.996312  0.325105  1
  Bi  Bi26  1  0.934005  0.003688  0.825105  1
  Bi  Bi27  1  0.434005  0.496312  0.674895  1
  Sb  Sb28  1  0.905588  0.748267  0.541872  1
  Sb  Sb29  1  0.405588  0.751733  0.958128  1
  Sb  Sb30  1  0.094412  0.248267  0.458128  1
  Sb  Sb31  1  0.594412  0.251733  0.041872  1
