# generated using pymatgen
data_CaCd3CuOs3O14
_symmetry_space_group_name_H-M   'P 1'
_cell_length_a   7.30311825
_cell_length_b   7.17070022
_cell_length_c   7.37521023
_cell_angle_alpha   60.03747691
_cell_angle_beta   60.32283238
_cell_angle_gamma   59.38722713
_symmetry_Int_Tables_number   1
_chemical_formula_structural   CaCd3CuOs3O14
_chemical_formula_sum   'Ca1 Cd3 Cu1 Os3 O14'
_cell_volume   272.54527352
_cell_formula_units_Z   1
loop_
 _symmetry_equiv_pos_site_id
 _symmetry_equiv_pos_as_xyz
  1  'x, y, z'
loop_
 _atom_site_type_symbol
 _atom_site_label
 _atom_site_symmetry_multiplicity
 _atom_site_fract_x
 _atom_site_fract_y
 _atom_site_fract_z
 _atom_site_occupancy
  Ca  Ca0  1  0.125000  0.125000  0.625000  1
  Cd  Cd1  1  0.125000  0.125000  0.125000  1
  Cd  Cd2  1  0.625000  0.125000  0.125000  1
  Cd  Cd3  1  0.125000  0.625000  0.125000  1
  Cu  Cu4  1  0.625000  0.125000  0.625000  1
  Os  Os5  1  0.625000  0.625000  0.625000  1
  Os  Os6  1  0.125000  0.625000  0.625000  1
  Os  Os7  1  0.625000  0.625000  0.125000  1
  O  O8  1  0.256658  0.247996  0.238688  1
  O  O9  1  0.993342  0.002004  0.011312  1
  O  O10  1  0.549805  0.937586  0.554906  1
  O  O11  1  0.307334  0.684927  0.309142  1
  O  O12  1  0.551402  0.565073  0.940858  1
  O  O13  1  0.945660  0.561027  0.547654  1
  O  O14  1  0.552863  0.934757  0.959515  1
  O  O15  1  0.957702  0.937586  0.554906  1
  O  O16  1  0.942666  0.565073  0.940858  1
  O  O17  1  0.697137  0.315243  0.290485  1
  O  O18  1  0.304340  0.688973  0.702346  1
  O  O19  1  0.700195  0.312414  0.695094  1
  O  O20  1  0.292298  0.312414  0.695094  1
  O  O21  1  0.698598  0.684927  0.309142  1
