# generated using pymatgen
data_Cs2NaNdSb2
_symmetry_space_group_name_H-M   'P 1'
_cell_length_a   11.78451191
_cell_length_b   11.78451154
_cell_length_c   7.68857500
_cell_angle_alpha   90.00000000
_cell_angle_beta   90.00000000
_cell_angle_gamma   98.96749630
_symmetry_Int_Tables_number   1
_chemical_formula_structural   Cs2NaNdSb2
_chemical_formula_sum   'Cs8 Na4 Nd4 Sb8'
_cell_volume   1054.69750342
_cell_formula_units_Z   4
loop_
 _symmetry_equiv_pos_site_id
 _symmetry_equiv_pos_as_xyz
  1  'x, y, z'
loop_
 _atom_site_type_symbol
 _atom_site_label
 _atom_site_symmetry_multiplicity
 _atom_site_fract_x
 _atom_site_fract_y
 _atom_site_fract_z
 _atom_site_occupancy
  Cs  Cs0  1  0.069723  0.430277  0.250000  1
  Cs  Cs1  1  0.430277  0.069723  0.750000  1
  Cs  Cs2  1  0.930277  0.569723  0.750000  1
  Cs  Cs3  1  0.569723  0.930277  0.250000  1
  Cs  Cs4  1  0.677433  0.322567  0.212970  1
  Cs  Cs5  1  0.822567  0.177433  0.712970  1
  Cs  Cs6  1  0.322567  0.677433  0.787030  1
  Cs  Cs7  1  0.177433  0.822567  0.287030  1
  Na  Na8  1  0.381899  0.381899  0.000000  1
  Na  Na9  1  0.118101  0.118101  0.500000  1
  Na  Na10  1  0.618101  0.618101  0.000000  1
  Na  Na11  1  0.881899  0.881899  0.500000  1
  Nd  Nd12  1  0.132465  0.132465  0.000000  1
  Nd  Nd13  1  0.367535  0.367535  0.500000  1
  Nd  Nd14  1  0.867535  0.867535  0.000000  1
  Nd  Nd15  1  0.632465  0.632465  0.500000  1
  Sb  Sb16  1  0.844723  0.655276  0.250000  1
  Sb  Sb17  1  0.655276  0.844723  0.750000  1
  Sb  Sb18  1  0.155276  0.344723  0.750000  1
  Sb  Sb19  1  0.344723  0.155276  0.250000  1
  Sb  Sb20  1  0.903794  0.096206  0.215549  1
  Sb  Sb21  1  0.596206  0.403794  0.715549  1
  Sb  Sb22  1  0.096206  0.903794  0.784451  1
  Sb  Sb23  1  0.403794  0.596206  0.284451  1
