# generated using pymatgen
data_Nd6Cd23As
_symmetry_space_group_name_H-M   'P 1'
_cell_length_a   10.07533383
_cell_length_b   10.07533326
_cell_length_c   10.07533300
_cell_angle_alpha   59.99999758
_cell_angle_beta   59.99999944
_cell_angle_gamma   59.99999966
_symmetry_Int_Tables_number   1
_chemical_formula_structural   Nd6Cd23As
_chemical_formula_sum   'Nd6 Cd23 As1'
_cell_volume   723.20807255
_cell_formula_units_Z   1
loop_
 _symmetry_equiv_pos_site_id
 _symmetry_equiv_pos_as_xyz
  1  'x, y, z'
loop_
 _atom_site_type_symbol
 _atom_site_label
 _atom_site_symmetry_multiplicity
 _atom_site_fract_x
 _atom_site_fract_y
 _atom_site_fract_z
 _atom_site_occupancy
  Nd  Nd0  1  0.793232  0.793232  0.206768  1
  Nd  Nd1  1  0.206768  0.793232  0.206768  1
  Nd  Nd2  1  0.793232  0.206768  0.206768  1
  Nd  Nd3  1  0.206768  0.206768  0.793232  1
  Nd  Nd4  1  0.793232  0.206768  0.793232  1
  Nd  Nd5  1  0.206768  0.793232  0.793232  1
  Cd  Cd6  1  0.833480  0.833480  0.499561  1
  Cd  Cd7  1  0.833480  0.499561  0.833480  1
  Cd  Cd8  1  0.499561  0.833480  0.833480  1
  Cd  Cd9  1  0.833480  0.833480  0.833480  1
  Cd  Cd10  1  0.166520  0.166520  0.500439  1
  Cd  Cd11  1  0.166520  0.500439  0.166520  1
  Cd  Cd12  1  0.500439  0.166520  0.166520  1
  Cd  Cd13  1  0.166520  0.166520  0.166520  1
  Cd  Cd14  1  0.621724  0.621724  0.134828  1
  Cd  Cd15  1  0.621724  0.134828  0.621724  1
  Cd  Cd16  1  0.134828  0.621724  0.621724  1
  Cd  Cd17  1  0.621724  0.621724  0.621724  1
  Cd  Cd18  1  0.378276  0.378276  0.865172  1
  Cd  Cd19  1  0.378276  0.865172  0.378276  1
  Cd  Cd20  1  0.865172  0.378276  0.378276  1
  Cd  Cd21  1  0.378276  0.378276  0.378276  1
  Cd  Cd22  1  0.000000  0.000000  0.500000  1
  Cd  Cd23  1  0.500000  0.000000  0.500000  1
  Cd  Cd24  1  0.000000  0.500000  0.500000  1
  Cd  Cd25  1  0.500000  0.500000  0.000000  1
  Cd  Cd26  1  0.000000  0.500000  0.000000  1
  Cd  Cd27  1  0.500000  0.000000  0.000000  1
  Cd  Cd28  1  0.500000  0.500000  0.500000  1
  As  As29  1  0.000000  0.000000  0.000000  1
