# generated using pymatgen
data_Cs3TbSb2
_symmetry_space_group_name_H-M   'P 1'
_cell_length_a   10.48757369
_cell_length_b   10.48757466
_cell_length_c   10.48757472
_cell_angle_alpha   127.43107836
_cell_angle_beta   71.14753025
_cell_angle_gamma   135.66991647
_symmetry_Int_Tables_number   1
_chemical_formula_structural   Cs3TbSb2
_chemical_formula_sum   'Cs6 Tb2 Sb4'
_cell_volume   626.99761232
_cell_formula_units_Z   2
loop_
 _symmetry_equiv_pos_site_id
 _symmetry_equiv_pos_as_xyz
  1  'x, y, z'
loop_
 _atom_site_type_symbol
 _atom_site_label
 _atom_site_symmetry_multiplicity
 _atom_site_fract_x
 _atom_site_fract_y
 _atom_site_fract_z
 _atom_site_occupancy
  Cs  Cs0  1  0.250000  0.250000  0.000000  1
  Cs  Cs1  1  0.750000  0.750000  0.000000  1
  Cs  Cs2  1  0.815524  0.295061  0.110586  1
  Cs  Cs3  1  0.684475  0.795062  0.479537  1
  Cs  Cs4  1  0.315524  0.204939  0.520463  1
  Cs  Cs5  1  0.184475  0.704939  0.889414  1
  Tb  Tb6  1  0.750000  0.250000  0.500000  1
  Tb  Tb7  1  0.250000  0.750000  0.500000  1
  Sb  Sb8  1  0.405429  0.813960  0.219389  1
  Sb  Sb9  1  0.094571  0.313960  0.408530  1
  Sb  Sb10  1  0.905429  0.686040  0.591471  1
  Sb  Sb11  1  0.594571  0.186040  0.780611  1
