# generated using pymatgen
data_Tb2Y4Mn(CrC4)3
_symmetry_space_group_name_H-M   'P 1'
_cell_length_a   8.13321300
_cell_length_b   8.13295461
_cell_length_c   5.01674800
_cell_angle_alpha   90.00000000
_cell_angle_beta   90.00000000
_cell_angle_gamma   120.00104689
_symmetry_Int_Tables_number   1
_chemical_formula_structural   Tb2Y4Mn(CrC4)3
_chemical_formula_sum   'Tb2 Y4 Mn1 Cr3 C12'
_cell_volume   287.38151582
_cell_formula_units_Z   1
loop_
 _symmetry_equiv_pos_site_id
 _symmetry_equiv_pos_as_xyz
  1  'x, y, z'
loop_
 _atom_site_type_symbol
 _atom_site_label
 _atom_site_symmetry_multiplicity
 _atom_site_fract_x
 _atom_site_fract_y
 _atom_site_fract_z
 _atom_site_occupancy
  Tb  Tb0  1  0.314439  0.935832  0.750000  1
  Tb  Tb1  1  0.064172  0.378534  0.750000  1
  Y  Y2  1  0.621620  0.685703  0.750000  1
  Y  Y3  1  0.934645  0.619374  0.250000  1
  Y  Y4  1  0.684713  0.065331  0.250000  1
  Y  Y5  1  0.380655  0.315349  0.250000  1
  Mn  Mn6  1  0.333334  0.666635  0.250000  1
  Cr  Cr7  1  0.000027  0.000021  0.501632  1
  Cr  Cr8  1  0.000027  0.000021  0.998368  1
  Cr  Cr9  1  0.666652  0.333336  0.750000  1
  C  C10  1  0.963339  0.775453  0.750000  1
  C  C11  1  0.191776  0.962398  0.250000  1
  C  C12  1  0.770603  0.808202  0.250000  1
  C  C13  1  0.224417  0.187717  0.750000  1
  C  C14  1  0.811972  0.036512  0.750000  1
  C  C15  1  0.037566  0.229387  0.250000  1
  C  C16  1  0.865247  0.579782  0.750000  1
  C  C17  1  0.286857  0.863182  0.250000  1
  C  C18  1  0.576390  0.713017  0.250000  1
  C  C19  1  0.420219  0.285721  0.750000  1
  C  C20  1  0.136803  0.423681  0.250000  1
  C  C21  1  0.714525  0.134814  0.750000  1
