# generated using pymatgen
data_ReSbS
_symmetry_space_group_name_H-M   'P 1'
_cell_length_a   7.24594437
_cell_length_b   7.24594445
_cell_length_c   7.24594400
_cell_angle_alpha   60.00000204
_cell_angle_beta   60.00000167
_cell_angle_gamma   60.00000149
_symmetry_Int_Tables_number   1
_chemical_formula_structural   ReSbS
_chemical_formula_sum   'Re4 Sb4 S4'
_cell_volume   269.01096834
_cell_formula_units_Z   4
loop_
 _symmetry_equiv_pos_site_id
 _symmetry_equiv_pos_as_xyz
  1  'x, y, z'
loop_
 _atom_site_type_symbol
 _atom_site_label
 _atom_site_symmetry_multiplicity
 _atom_site_fract_x
 _atom_site_fract_y
 _atom_site_fract_z
 _atom_site_occupancy
  Re  Re0  1  0.154743  0.154743  0.154743  1
  Re  Re1  1  0.535772  0.154743  0.154743  1
  Re  Re2  1  0.154743  0.154743  0.535772  1
  Re  Re3  1  0.154743  0.535772  0.154743  1
  Sb  Sb4  1  0.884947  0.345158  0.884947  1
  Sb  Sb5  1  0.884947  0.884947  0.345158  1
  Sb  Sb6  1  0.345158  0.884947  0.884947  1
  Sb  Sb7  1  0.884947  0.884947  0.884947  1
  S  S8  1  0.378592  0.378592  0.378592  1
  S  S9  1  0.864226  0.378592  0.378592  1
  S  S10  1  0.378592  0.378592  0.864226  1
  S  S11  1  0.378592  0.864226  0.378592  1
