# generated using pymatgen
data_Tm12InCo4Cu
_symmetry_space_group_name_H-M   'P 1'
_cell_length_a   8.18625839
_cell_length_b   8.18625838
_cell_length_c   8.18625819
_cell_angle_alpha   111.06802402
_cell_angle_beta   110.97981312
_cell_angle_gamma   106.40857444
_symmetry_Int_Tables_number   1
_chemical_formula_structural   Tm12InCo4Cu
_chemical_formula_sum   'Tm12 In1 Co4 Cu1'
_cell_volume   421.41386203
_cell_formula_units_Z   1
loop_
 _symmetry_equiv_pos_site_id
 _symmetry_equiv_pos_as_xyz
  1  'x, y, z'
loop_
 _atom_site_type_symbol
 _atom_site_label
 _atom_site_symmetry_multiplicity
 _atom_site_fract_x
 _atom_site_fract_y
 _atom_site_fract_z
 _atom_site_occupancy
  Tm  Tm0  1  0.419842  0.220547  0.199295  1
  Tm  Tm1  1  0.580158  0.779453  0.800705  1
  Tm  Tm2  1  0.021253  0.220547  0.800705  1
  Tm  Tm3  1  0.978747  0.779453  0.199295  1
  Tm  Tm4  1  0.185484  0.288292  0.473776  1
  Tm  Tm5  1  0.814516  0.711708  0.526224  1
  Tm  Tm6  1  0.185484  0.711708  0.897192  1
  Tm  Tm7  1  0.814516  0.288292  0.102808  1
  Tm  Tm8  1  0.315548  0.620006  0.304459  1
  Tm  Tm9  1  0.684452  0.379994  0.695541  1
  Tm  Tm10  1  0.315548  0.011089  0.695541  1
  Tm  Tm11  1  0.684452  0.988911  0.304459  1
  In  In12  1  0.500000  0.500000  0.000000  1
  Co  Co13  1  0.374691  0.000000  0.374691  1
  Co  Co14  1  0.625309  0.000000  0.625309  1
  Co  Co15  1  0.113500  0.613500  0.500000  1
  Co  Co16  1  0.886500  0.386500  0.500000  1
  Cu  Cu17  1  0.000000  0.000000  0.000000  1
