# generated using pymatgen
data_Er3Mn2Sb3O14
_symmetry_space_group_name_H-M   'P 1'
_cell_length_a   7.15257630
_cell_length_b   7.16217697
_cell_length_c   7.13720700
_cell_angle_alpha   117.67871501
_cell_angle_beta   62.27599640
_cell_angle_gamma   117.62324195
_symmetry_Int_Tables_number   1
_chemical_formula_structural   Er3Mn2Sb3O14
_chemical_formula_sum   'Er3 Mn2 Sb3 O14'
_cell_volume   271.94674630
_cell_formula_units_Z   1
loop_
 _symmetry_equiv_pos_site_id
 _symmetry_equiv_pos_as_xyz
  1  'x, y, z'
loop_
 _atom_site_type_symbol
 _atom_site_label
 _atom_site_symmetry_multiplicity
 _atom_site_fract_x
 _atom_site_fract_y
 _atom_site_fract_z
 _atom_site_occupancy
  Er  Er0  1  0.999941  0.499954  0.000039  1
  Er  Er1  1  0.499963  0.000053  0.999943  1
  Er  Er2  1  0.499993  0.500013  0.499959  1
  Mn  Mn3  1  0.499899  0.500491  0.000243  1
  Mn  Mn4  1  0.000619  0.000065  0.499918  1
  Sb  Sb5  1  0.500019  0.999957  0.500008  1
  Sb  Sb6  1  0.999952  0.499921  0.500037  1
  Sb  Sb7  1  0.999963  0.999952  0.000033  1
  O  O8  1  0.620657  0.378935  0.120093  1
  O  O9  1  0.379209  0.621128  0.879850  1
  O  O10  1  0.082914  0.324695  0.174607  1
  O  O11  1  0.674989  0.917598  0.174629  1
  O  O12  1  0.674812  0.324846  0.584206  1
  O  O13  1  0.917038  0.675234  0.825403  1
  O  O14  1  0.324856  0.082207  0.825315  1
  O  O15  1  0.325083  0.675092  0.415739  1
  O  O16  1  0.643007  0.901551  0.597358  1
  O  O17  1  0.098401  0.357383  0.597750  1
  O  O18  1  0.097452  0.902102  0.143453  1
  O  O19  1  0.357179  0.098429  0.402567  1
  O  O20  1  0.901581  0.642555  0.402269  1
  O  O21  1  0.902474  0.097840  0.856579  1
