# generated using pymatgen
data_V12Si3Pt
_symmetry_space_group_name_H-M   'P 1'
_cell_length_a   4.73605400
_cell_length_b   4.72834100
_cell_length_c   9.48497200
_cell_angle_alpha   90.00000000
_cell_angle_beta   90.00000000
_cell_angle_gamma   90.00000000
_symmetry_Int_Tables_number   1
_chemical_formula_structural   V12Si3Pt
_chemical_formula_sum   'V12 Si3 Pt1'
_cell_volume   212.40341171
_cell_formula_units_Z   1
loop_
 _symmetry_equiv_pos_site_id
 _symmetry_equiv_pos_as_xyz
  1  'x, y, z'
loop_
 _atom_site_type_symbol
 _atom_site_label
 _atom_site_symmetry_multiplicity
 _atom_site_fract_x
 _atom_site_fract_y
 _atom_site_fract_z
 _atom_site_occupancy
  V  V0  1  0.000000  0.500000  0.122951  1
  V  V1  1  0.000000  0.500000  0.629421  1
  V  V2  1  0.500000  0.246922  0.745596  1
  V  V3  1  0.500000  0.246922  0.254404  1
  V  V4  1  0.752528  0.000000  0.000000  1
  V  V5  1  0.752499  0.000000  0.500000  1
  V  V6  1  0.000000  0.500000  0.877049  1
  V  V7  1  0.000000  0.500000  0.370579  1
  V  V8  1  0.500000  0.753078  0.745596  1
  V  V9  1  0.500000  0.753078  0.254404  1
  V  V10  1  0.247472  0.000000  0.000000  1
  V  V11  1  0.247501  0.000000  0.500000  1
  Si  Si12  1  0.500000  0.500000  0.500000  1
  Si  Si13  1  0.000000  0.000000  0.747265  1
  Si  Si14  1  0.000000  0.000000  0.252735  1
  Pt  Pt15  1  0.500000  0.500000  0.000000  1
