# generated using pymatgen
data_LaHoHf2(NiAs)4
_symmetry_space_group_name_H-M   'P 1'
_cell_length_a   4.01442300
_cell_length_b   4.01442299
_cell_length_c   15.07988400
_cell_angle_alpha   90.00000000
_cell_angle_beta   90.00000000
_cell_angle_gamma   120.00000832
_symmetry_Int_Tables_number   1
_chemical_formula_structural   LaHoHf2(NiAs)4
_chemical_formula_sum   'La1 Ho1 Hf2 Ni4 As4'
_cell_volume   210.46256521
_cell_formula_units_Z   1
loop_
 _symmetry_equiv_pos_site_id
 _symmetry_equiv_pos_as_xyz
  1  'x, y, z'
loop_
 _atom_site_type_symbol
 _atom_site_label
 _atom_site_symmetry_multiplicity
 _atom_site_fract_x
 _atom_site_fract_y
 _atom_site_fract_z
 _atom_site_occupancy
  La  La0  1  0.000000  0.000000  0.000000  1
  Ho  Ho1  1  0.000000  0.000000  0.500000  1
  Hf  Hf2  1  0.000000  0.000000  0.255727  1
  Hf  Hf3  1  0.000000  0.000000  0.744273  1
  Ni  Ni4  1  0.333333  0.666667  0.168467  1
  Ni  Ni5  1  0.666667  0.333333  0.831533  1
  Ni  Ni6  1  0.666667  0.333333  0.650682  1
  Ni  Ni7  1  0.333333  0.666667  0.349318  1
  As  As8  1  0.333333  0.666667  0.618247  1
  As  As9  1  0.666667  0.333333  0.381753  1
  As  As10  1  0.666667  0.333333  0.132514  1
  As  As11  1  0.333333  0.666667  0.867486  1
