# generated using pymatgen
data_Y2Ho3Tm5(In2Pt)4
_symmetry_space_group_name_H-M   'P 1'
_cell_length_a   3.59591000
_cell_length_b   8.14142718
_cell_length_c   18.17704564
_cell_angle_alpha   89.93823957
_cell_angle_beta   90.00000000
_cell_angle_gamma   90.00000000
_symmetry_Int_Tables_number   1
_chemical_formula_structural   Y2Ho3Tm5(In2Pt)4
_chemical_formula_sum   'Y2 Ho3 Tm5 In8 Pt4'
_cell_volume   532.14796013
_cell_formula_units_Z   1
loop_
 _symmetry_equiv_pos_site_id
 _symmetry_equiv_pos_as_xyz
  1  'x, y, z'
loop_
 _atom_site_type_symbol
 _atom_site_label
 _atom_site_symmetry_multiplicity
 _atom_site_fract_x
 _atom_site_fract_y
 _atom_site_fract_z
 _atom_site_occupancy
  Y  Y0  1  0.000000  0.999956  0.000016  1
  Y  Y1  1  0.000000  0.500013  0.499941  1
  Ho  Ho2  1  0.000000  0.757269  0.779892  1
  Ho  Ho3  1  0.000000  0.257233  0.720071  1
  Ho  Ho4  1  0.000000  0.742819  0.279873  1
  Tm  Tm5  1  0.000000  0.116870  0.414144  1
  Tm  Tm6  1  0.000000  0.883164  0.585698  1
  Tm  Tm7  1  0.000000  0.383169  0.914291  1
  Tm  Tm8  1  0.000000  0.616663  0.085847  1
  Tm  Tm9  1  0.000000  0.243078  0.220375  1
  In  In10  1  0.500000  0.422056  0.350617  1
  In  In11  1  0.500000  0.577680  0.649167  1
  In  In12  1  0.500000  0.077654  0.850824  1
  In  In13  1  0.500000  0.922839  0.149281  1
  In  In14  1  0.500000  0.293971  0.066697  1
  In  In15  1  0.500000  0.705771  0.933677  1
  In  In16  1  0.500000  0.205799  0.566310  1
  In  In17  1  0.500000  0.794345  0.433648  1
  Pt  Pt18  1  0.500000  0.026535  0.303550  1
  Pt  Pt19  1  0.500000  0.974750  0.695940  1
  Pt  Pt20  1  0.500000  0.474696  0.804044  1
  Pt  Pt21  1  0.500000  0.523671  0.196096  1
