# generated using pymatgen
data_Sr4Ca3CdPt4
_symmetry_space_group_name_H-M   'P 1'
_cell_length_a   4.56871500
_cell_length_b   7.90877195
_cell_length_c   9.25133897
_cell_angle_alpha   90.65720773
_cell_angle_beta   90.00000000
_cell_angle_gamma   90.00000000
_symmetry_Int_Tables_number   1
_chemical_formula_structural   Sr4Ca3CdPt4
_chemical_formula_sum   'Sr4 Ca3 Cd1 Pt4'
_cell_volume   334.25594703
_cell_formula_units_Z   1
loop_
 _symmetry_equiv_pos_site_id
 _symmetry_equiv_pos_as_xyz
  1  'x, y, z'
loop_
 _atom_site_type_symbol
 _atom_site_label
 _atom_site_symmetry_multiplicity
 _atom_site_fract_x
 _atom_site_fract_y
 _atom_site_fract_z
 _atom_site_occupancy
  Sr  Sr0  1  0.250000  0.043169  0.332268  1
  Sr  Sr1  1  0.250000  0.520097  0.183543  1
  Sr  Sr2  1  0.750000  0.977377  0.665501  1
  Sr  Sr3  1  0.750000  0.469782  0.821390  1
  Ca  Ca4  1  0.250000  0.142466  0.934757  1
  Ca  Ca5  1  0.250000  0.632672  0.559492  1
  Ca  Ca6  1  0.750000  0.855398  0.066299  1
  Cd  Cd7  1  0.750000  0.358134  0.435109  1
  Pt  Pt8  1  0.250000  0.267950  0.624517  1
  Pt  Pt9  1  0.250000  0.767968  0.875421  1
  Pt  Pt10  1  0.750000  0.731272  0.378095  1
  Pt  Pt11  1  0.750000  0.233714  0.123608  1
