# generated using pymatgen
data_TbY3Sc6Ga7Si
_symmetry_space_group_name_H-M   'P 1'
_cell_length_a   7.28354213
_cell_length_b   7.48349029
_cell_length_c   14.49968976
_cell_angle_alpha   89.95445749
_cell_angle_beta   90.03353668
_cell_angle_gamma   90.29822027
_symmetry_Int_Tables_number   1
_chemical_formula_structural   TbY3Sc6Ga7Si
_chemical_formula_sum   'Tb2 Y6 Sc12 Ga14 Si2'
_cell_volume   790.31359556
_cell_formula_units_Z   2
loop_
 _symmetry_equiv_pos_site_id
 _symmetry_equiv_pos_as_xyz
  1  'x, y, z'
loop_
 _atom_site_type_symbol
 _atom_site_label
 _atom_site_symmetry_multiplicity
 _atom_site_fract_x
 _atom_site_fract_y
 _atom_site_fract_z
 _atom_site_occupancy
  Tb  Tb0  1  0.510728  0.322980  0.403794  1
  Tb  Tb1  1  0.489272  0.677020  0.596206  1
  Y  Y2  1  0.013069  0.177800  0.096789  1
  Y  Y3  1  0.986931  0.822200  0.903211  1
  Y  Y4  1  0.489361  0.677001  0.903848  1
  Y  Y5  1  0.986864  0.822173  0.596859  1
  Y  Y6  1  0.510639  0.322999  0.096152  1
  Y  Y7  1  0.013136  0.177827  0.403141  1
  Sc  Sc8  1  0.160621  0.502736  0.750064  1
  Sc  Sc9  1  0.839379  0.497264  0.249936  1
  Sc  Sc10  1  0.336514  0.004922  0.250031  1
  Sc  Sc11  1  0.663486  0.995078  0.749969  1
  Sc  Sc12  1  0.331038  0.174108  0.622752  1
  Sc  Sc13  1  0.668962  0.825892  0.377248  1
  Sc  Sc14  1  0.170578  0.670922  0.376079  1
  Sc  Sc15  1  0.668781  0.825805  0.122697  1
  Sc  Sc16  1  0.829422  0.329078  0.623921  1
  Sc  Sc17  1  0.331219  0.174195  0.877303  1
  Sc  Sc18  1  0.829148  0.328837  0.876230  1
  Sc  Sc19  1  0.170852  0.671163  0.123770  1
  Ga  Ga20  1  0.032790  0.120134  0.750062  1
  Ga  Ga21  1  0.967210  0.879866  0.249938  1
  Ga  Ga22  1  0.467355  0.614923  0.249890  1
  Ga  Ga23  1  0.532645  0.385077  0.750110  1
  Ga  Ga24  1  0.285621  0.873255  0.749975  1
  Ga  Ga25  1  0.714379  0.126745  0.250025  1
  Ga  Ga26  1  0.158369  0.464241  0.540670  1
  Ga  Ga27  1  0.841631  0.535759  0.459330  1
  Ga  Ga28  1  0.339249  0.963537  0.459279  1
  Ga  Ga29  1  0.841396  0.535751  0.040698  1
  Ga  Ga30  1  0.660751  0.036463  0.540721  1
  Ga  Ga31  1  0.158604  0.464249  0.959302  1
  Ga  Ga32  1  0.660582  0.036108  0.959279  1
  Ga  Ga33  1  0.339418  0.963892  0.040721  1
  Si  Si34  1  0.215265  0.375765  0.249850  1
  Si  Si35  1  0.784735  0.624235  0.750150  1
