# generated using pymatgen
data_Rb2In2Se3
_symmetry_space_group_name_H-M   'P 1'
_cell_length_a   7.61923228
_cell_length_b   7.61923298
_cell_length_c   10.12758320
_cell_angle_alpha   82.80090932
_cell_angle_beta   82.80091134
_cell_angle_gamma   120.07210149
_symmetry_Int_Tables_number   1
_chemical_formula_structural   Rb2In2Se3
_chemical_formula_sum   'Rb4 In4 Se6'
_cell_volume   492.51917184
_cell_formula_units_Z   2
loop_
 _symmetry_equiv_pos_site_id
 _symmetry_equiv_pos_as_xyz
  1  'x, y, z'
loop_
 _atom_site_type_symbol
 _atom_site_label
 _atom_site_symmetry_multiplicity
 _atom_site_fract_x
 _atom_site_fract_y
 _atom_site_fract_z
 _atom_site_occupancy
  Rb  Rb0  1  0.660469  0.339531  0.000000  1
  Rb  Rb1  1  0.339531  0.660469  0.000000  1
  Rb  Rb2  1  0.000000  0.000000  0.000000  1
  Rb  Rb3  1  0.500000  0.500000  0.500000  1
  In  In4  1  0.880214  0.214100  0.356492  1
  In  In5  1  0.785900  0.119786  0.643508  1
  In  In6  1  0.214100  0.880214  0.356492  1
  In  In7  1  0.119786  0.785900  0.643508  1
  Se  Se8  1  0.415347  0.064242  0.754265  1
  Se  Se9  1  0.064242  0.415347  0.754265  1
  Se  Se10  1  0.935758  0.584653  0.245735  1
  Se  Se11  1  0.765852  0.765852  0.752181  1
  Se  Se12  1  0.584653  0.935758  0.245735  1
  Se  Se13  1  0.234148  0.234148  0.247819  1
