# generated using pymatgen
data_Mn3Nb16GeTe16
_symmetry_space_group_name_H-M   'P 1'
_cell_length_a   4.86519500
_cell_length_b   10.82441642
_cell_length_c   18.81161100
_cell_angle_alpha   90.01591135
_cell_angle_beta   90.00000000
_cell_angle_gamma   90.00000000
_symmetry_Int_Tables_number   1
_chemical_formula_structural   Mn3Nb16GeTe16
_chemical_formula_sum   'Mn3 Nb16 Ge1 Te16'
_cell_volume   990.67388737
_cell_formula_units_Z   1
loop_
 _symmetry_equiv_pos_site_id
 _symmetry_equiv_pos_as_xyz
  1  'x, y, z'
loop_
 _atom_site_type_symbol
 _atom_site_label
 _atom_site_symmetry_multiplicity
 _atom_site_fract_x
 _atom_site_fract_y
 _atom_site_fract_z
 _atom_site_occupancy
  Mn  Mn0  1  0.750110  0.000000  0.000000  1
  Mn  Mn1  1  0.749697  0.500000  0.500000  1
  Mn  Mn2  1  0.250078  0.000000  0.000000  1
  Nb  Nb3  1  0.501299  0.565794  0.380276  1
  Nb  Nb4  1  0.501299  0.434206  0.619724  1
  Nb  Nb5  1  0.500105  0.065330  0.118743  1
  Nb  Nb6  1  0.500105  0.934670  0.881257  1
  Nb  Nb7  1  0.500666  0.709200  0.537569  1
  Nb  Nb8  1  0.500666  0.290800  0.462431  1
  Nb  Nb9  1  0.499817  0.207481  0.962617  1
  Nb  Nb10  1  0.499817  0.792519  0.037383  1
  Nb  Nb11  1  0.999119  0.694353  0.441517  1
  Nb  Nb12  1  0.999119  0.305647  0.558483  1
  Nb  Nb13  1  0.000290  0.192903  0.058088  1
  Nb  Nb14  1  0.000290  0.807097  0.941912  1
  Nb  Nb15  1  0.998697  0.398855  0.388674  1
  Nb  Nb16  1  0.998697  0.601145  0.611326  1
  Nb  Nb17  1  0.999989  0.899782  0.110370  1
  Nb  Nb18  1  0.999989  0.100218  0.889630  1
  Ge  Ge19  1  0.249652  0.500000  0.500000  1
  Te  Te20  1  0.994210  0.851679  0.563726  1
  Te  Te21  1  0.994210  0.148321  0.436274  1
  Te  Te22  1  0.000072  0.351098  0.936479  1
  Te  Te23  1  0.000072  0.648902  0.063521  1
  Te  Te24  1  0.505046  0.330215  0.312639  1
  Te  Te25  1  0.505046  0.669785  0.687361  1
  Te  Te26  1  0.499876  0.830515  0.187087  1
  Te  Te27  1  0.499876  0.169485  0.812913  1
  Te  Te28  1  0.505788  0.827530  0.401893  1
  Te  Te29  1  0.505788  0.172470  0.598107  1
  Te  Te30  1  0.500088  0.327137  0.097878  1
  Te  Te31  1  0.500088  0.672863  0.902122  1
  Te  Te32  1  0.994915  0.609828  0.297865  1
  Te  Te33  1  0.994915  0.390172  0.702135  1
  Te  Te34  1  0.000256  0.109819  0.201787  1
  Te  Te35  1  0.000256  0.890181  0.798213  1
