# generated using pymatgen
data_Hf8Nb2CuSiSn6
_symmetry_space_group_name_H-M   'P 1'
_cell_length_a   8.56681700
_cell_length_b   8.56681748
_cell_length_c   5.72913400
_cell_angle_alpha   90.00000000
_cell_angle_beta   90.00000000
_cell_angle_gamma   119.99999427
_symmetry_Int_Tables_number   1
_chemical_formula_structural   Hf8Nb2CuSiSn6
_chemical_formula_sum   'Hf8 Nb2 Cu1 Si1 Sn6'
_cell_volume   364.13182785
_cell_formula_units_Z   1
loop_
 _symmetry_equiv_pos_site_id
 _symmetry_equiv_pos_as_xyz
  1  'x, y, z'
loop_
 _atom_site_type_symbol
 _atom_site_label
 _atom_site_symmetry_multiplicity
 _atom_site_fract_x
 _atom_site_fract_y
 _atom_site_fract_z
 _atom_site_occupancy
  Hf  Hf0  1  0.666667  0.333333  0.000000  1
  Hf  Hf1  1  0.333333  0.666667  0.500000  1
  Hf  Hf2  1  0.262483  0.999805  0.247008  1
  Hf  Hf3  1  0.262483  0.262678  0.752992  1
  Hf  Hf4  1  0.000195  0.737517  0.752992  1
  Hf  Hf5  1  0.000195  0.262678  0.247008  1
  Hf  Hf6  1  0.737322  0.737517  0.247008  1
  Hf  Hf7  1  0.737322  0.999805  0.752992  1
  Nb  Nb8  1  0.333333  0.666667  0.000000  1
  Nb  Nb9  1  0.666667  0.333333  0.500000  1
  Cu  Cu10  1  0.000000  0.000000  0.500000  1
  Si  Si11  1  0.000000  0.000000  0.000000  1
  Sn  Sn12  1  0.609667  0.000379  0.253111  1
  Sn  Sn13  1  0.609667  0.609287  0.746889  1
  Sn  Sn14  1  0.999621  0.390333  0.746889  1
  Sn  Sn15  1  0.999621  0.609287  0.253111  1
  Sn  Sn16  1  0.390713  0.390333  0.253111  1
  Sn  Sn17  1  0.390713  0.000379  0.746889  1
