# generated using pymatgen
data_Na4USbS6
_symmetry_space_group_name_H-M   'P 1'
_cell_length_a   6.97349226
_cell_length_b   6.97349297
_cell_length_c   6.98704631
_cell_angle_alpha   80.31737384
_cell_angle_beta   80.31737333
_cell_angle_gamma   120.04527513
_symmetry_Int_Tables_number   1
_chemical_formula_structural   Na4USbS6
_chemical_formula_sum   'Na4 U1 Sb1 S6'
_cell_volume   276.95755746
_cell_formula_units_Z   1
loop_
 _symmetry_equiv_pos_site_id
 _symmetry_equiv_pos_as_xyz
  1  'x, y, z'
loop_
 _atom_site_type_symbol
 _atom_site_label
 _atom_site_symmetry_multiplicity
 _atom_site_fract_x
 _atom_site_fract_y
 _atom_site_fract_z
 _atom_site_occupancy
  Na  Na0  1  0.000016  0.999984  0.000000  1
  Na  Na1  1  0.501172  0.498828  0.500000  1
  Na  Na2  1  0.838920  0.161080  0.500000  1
  Na  Na3  1  0.159935  0.840065  0.500000  1
  U  U4  1  0.332887  0.667113  0.000000  1
  Sb  Sb5  1  0.668391  0.331609  0.000000  1
  S  S6  1  0.273715  0.285586  0.227690  1
  S  S7  1  0.426641  0.064735  0.773771  1
  S  S8  1  0.086595  0.437951  0.775181  1
  S  S9  1  0.714414  0.726285  0.772310  1
  S  S10  1  0.562049  0.913405  0.224819  1
  S  S11  1  0.935265  0.573359  0.226229  1
