# generated using pymatgen
data_Dy5Pa3(Si3Ni)4
_symmetry_space_group_name_H-M   'P 1'
_cell_length_a   7.93488300
_cell_length_b   7.93488250
_cell_length_c   8.01597200
_cell_angle_alpha   90.00000000
_cell_angle_beta   90.00000000
_cell_angle_gamma   120.00473390
_symmetry_Int_Tables_number   1
_chemical_formula_structural   Dy5Pa3(Si3Ni)4
_chemical_formula_sum   'Dy5 Pa3 Si12 Ni4'
_cell_volume   437.06610946
_cell_formula_units_Z   1
loop_
 _symmetry_equiv_pos_site_id
 _symmetry_equiv_pos_as_xyz
  1  'x, y, z'
loop_
 _atom_site_type_symbol
 _atom_site_label
 _atom_site_symmetry_multiplicity
 _atom_site_fract_x
 _atom_site_fract_y
 _atom_site_fract_z
 _atom_site_occupancy
  Dy  Dy0  1  0.500003  0.999992  0.250002  1
  Dy  Dy1  1  0.500030  0.000058  0.750009  1
  Dy  Dy2  1  0.000008  0.499997  0.250002  1
  Dy  Dy3  1  0.999942  0.499970  0.750009  1
  Dy  Dy4  1  0.499999  0.500001  0.250000  1
  Pa  Pa5  1  0.499931  0.500069  0.749998  1
  Pa  Pa6  1  0.000004  0.999996  0.250000  1
  Pa  Pa7  1  0.000011  0.999989  0.749999  1
  Si  Si8  1  0.169472  0.339576  0.000517  1
  Si  Si9  1  0.830474  0.660374  0.000486  1
  Si  Si10  1  0.660424  0.830528  0.000517  1
  Si  Si11  1  0.830453  0.660340  0.499525  1
  Si  Si12  1  0.339626  0.169526  0.000486  1
  Si  Si13  1  0.169455  0.339541  0.499485  1
  Si  Si14  1  0.171442  0.828558  0.999902  1
  Si  Si15  1  0.339660  0.169547  0.499525  1
  Si  Si16  1  0.828571  0.171429  0.999913  1
  Si  Si17  1  0.660459  0.830545  0.499485  1
  Si  Si18  1  0.828553  0.171447  0.500094  1
  Si  Si19  1  0.171406  0.828594  0.500096  1
  Ni  Ni20  1  0.334882  0.665118  0.994188  1
  Ni  Ni21  1  0.665163  0.334837  0.994288  1
  Ni  Ni22  1  0.665163  0.334837  0.505794  1
  Ni  Ni23  1  0.334868  0.665132  0.505680  1
