# generated using pymatgen
data_Dy3(Zn2Si)2
_symmetry_space_group_name_H-M   'P 1'
_cell_length_a   6.83686000
_cell_length_b   6.83686048
_cell_length_c   4.27346700
_cell_angle_alpha   90.00000000
_cell_angle_beta   90.00000000
_cell_angle_gamma   119.99999766
_symmetry_Int_Tables_number   1
_chemical_formula_structural   Dy3(Zn2Si)2
_chemical_formula_sum   'Dy3 Zn4 Si2'
_cell_volume   172.99135521
_cell_formula_units_Z   1
loop_
 _symmetry_equiv_pos_site_id
 _symmetry_equiv_pos_as_xyz
  1  'x, y, z'
loop_
 _atom_site_type_symbol
 _atom_site_label
 _atom_site_symmetry_multiplicity
 _atom_site_fract_x
 _atom_site_fract_y
 _atom_site_fract_z
 _atom_site_occupancy
  Dy  Dy0  1  0.421244  0.421244  0.500000  1
  Dy  Dy1  1  0.578756  0.000000  0.500000  1
  Dy  Dy2  1  0.000000  0.578756  0.500000  1
  Zn  Zn3  1  0.000000  0.000000  0.500000  1
  Zn  Zn4  1  0.755662  0.755662  0.000000  1
  Zn  Zn5  1  0.244338  0.000000  0.000000  1
  Zn  Zn6  1  0.000000  0.244338  0.000000  1
  Si  Si7  1  0.666667  0.333333  0.000000  1
  Si  Si8  1  0.333333  0.666667  0.000000  1
