# generated using pymatgen
data_TaMnRh3S8
_symmetry_space_group_name_H-M   'P 1'
_cell_length_a   6.86709045
_cell_length_b   6.86708948
_cell_length_c   6.86709091
_cell_angle_alpha   63.18507228
_cell_angle_beta   63.18506320
_cell_angle_gamma   63.18507059
_symmetry_Int_Tables_number   1
_chemical_formula_structural   TaMnRh3S8
_chemical_formula_sum   'Ta1 Mn1 Rh3 S8'
_cell_volume   245.15112258
_cell_formula_units_Z   1
loop_
 _symmetry_equiv_pos_site_id
 _symmetry_equiv_pos_as_xyz
  1  'x, y, z'
loop_
 _atom_site_type_symbol
 _atom_site_label
 _atom_site_symmetry_multiplicity
 _atom_site_fract_x
 _atom_site_fract_y
 _atom_site_fract_z
 _atom_site_occupancy
  Ta  Ta0  1  0.595562  0.595562  0.595562  1
  Mn  Mn1  1  0.013206  0.013206  0.013206  1
  Rh  Rh2  1  0.626099  0.626099  0.136874  1
  Rh  Rh3  1  0.626099  0.136874  0.626099  1
  Rh  Rh4  1  0.136874  0.626099  0.626099  1
  S  S5  1  0.364776  0.364776  0.876848  1
  S  S6  1  0.364776  0.876848  0.364776  1
  S  S7  1  0.876848  0.364776  0.364776  1
  S  S8  1  0.387504  0.387504  0.387504  1
  S  S9  1  0.859451  0.859451  0.419441  1
  S  S10  1  0.859451  0.419441  0.859451  1
  S  S11  1  0.419441  0.859451  0.859451  1
  S  S12  1  0.869910  0.869910  0.869910  1
