# generated using pymatgen
data_Cs2Ba(SnSe3)2
_symmetry_space_group_name_H-M   'P 1'
_cell_length_a   9.54264605
_cell_length_b   9.54264559
_cell_length_c   10.34372931
_cell_angle_alpha   90.06772255
_cell_angle_beta   90.06771346
_cell_angle_gamma   112.49109268
_symmetry_Int_Tables_number   1
_chemical_formula_structural   Cs2Ba(SnSe3)2
_chemical_formula_sum   'Cs4 Ba2 Sn4 Se12'
_cell_volume   870.27614695
_cell_formula_units_Z   2
loop_
 _symmetry_equiv_pos_site_id
 _symmetry_equiv_pos_as_xyz
  1  'x, y, z'
loop_
 _atom_site_type_symbol
 _atom_site_label
 _atom_site_symmetry_multiplicity
 _atom_site_fract_x
 _atom_site_fract_y
 _atom_site_fract_z
 _atom_site_occupancy
  Cs  Cs0  1  0.266882  0.540965  0.516596  1
  Cs  Cs1  1  0.733118  0.459035  0.483404  1
  Cs  Cs2  1  0.459035  0.733118  0.983404  1
  Cs  Cs3  1  0.540965  0.266882  0.016596  1
  Ba  Ba4  1  0.967932  0.032068  0.250000  1
  Ba  Ba5  1  0.032068  0.967932  0.750000  1
  Sn  Sn6  1  0.976728  0.660180  0.070658  1
  Sn  Sn7  1  0.023272  0.339820  0.929342  1
  Sn  Sn8  1  0.339820  0.023272  0.429342  1
  Sn  Sn9  1  0.660180  0.976728  0.570658  1
  Se  Se10  1  0.661279  0.743884  0.680866  1
  Se  Se11  1  0.908332  0.531005  0.839490  1
  Se  Se12  1  0.256116  0.338721  0.819134  1
  Se  Se13  1  0.531005  0.908332  0.339490  1
  Se  Se14  1  0.338721  0.256116  0.319134  1
  Se  Se15  1  0.920424  0.178389  0.540625  1
  Se  Se16  1  0.821611  0.079576  0.959375  1
  Se  Se17  1  0.178389  0.920424  0.040625  1
  Se  Se18  1  0.091668  0.468995  0.160510  1
  Se  Se19  1  0.468995  0.091668  0.660510  1
  Se  Se20  1  0.079576  0.821611  0.459375  1
  Se  Se21  1  0.743884  0.661279  0.180866  1
