# generated using pymatgen
data_Lu3In4PdPt
_symmetry_space_group_name_H-M   'P 1'
_cell_length_a   7.92497000
_cell_length_b   7.92496920
_cell_length_c   3.66519800
_cell_angle_alpha   90.00000000
_cell_angle_beta   90.00000000
_cell_angle_gamma   119.99999498
_symmetry_Int_Tables_number   1
_chemical_formula_structural   Lu3In4PdPt
_chemical_formula_sum   'Lu3 In4 Pd1 Pt1'
_cell_volume   199.35324281
_cell_formula_units_Z   1
loop_
 _symmetry_equiv_pos_site_id
 _symmetry_equiv_pos_as_xyz
  1  'x, y, z'
loop_
 _atom_site_type_symbol
 _atom_site_label
 _atom_site_symmetry_multiplicity
 _atom_site_fract_x
 _atom_site_fract_y
 _atom_site_fract_z
 _atom_site_occupancy
  Lu  Lu0  1  0.376461  0.412407  0.000000  1
  Lu  Lu1  1  0.035946  0.623538  0.000000  1
  Lu  Lu2  1  0.587593  0.964055  0.000000  1
  In  In3  1  0.994252  0.259337  0.500000  1
  In  In4  1  0.666666  0.333334  0.500000  1
  In  In5  1  0.740664  0.734915  0.500000  1
  In  In6  1  0.265085  0.005749  0.500000  1
  Pd  Pd7  1  0.000000  0.000000  0.000000  1
  Pt  Pt8  1  0.333333  0.666666  0.500000  1
