# generated using pymatgen
data_LiLu(ThSi)4
_symmetry_space_group_name_H-M   'P 1'
_cell_length_a   7.50435300
_cell_length_b   7.50435300
_cell_length_c   4.26254800
_cell_angle_alpha   90.00000000
_cell_angle_beta   90.00000000
_cell_angle_gamma   90.00000000
_symmetry_Int_Tables_number   1
_chemical_formula_structural   LiLu(ThSi)4
_chemical_formula_sum   'Li1 Lu1 Th4 Si4'
_cell_volume   240.04672884
_cell_formula_units_Z   1
loop_
 _symmetry_equiv_pos_site_id
 _symmetry_equiv_pos_as_xyz
  1  'x, y, z'
loop_
 _atom_site_type_symbol
 _atom_site_label
 _atom_site_symmetry_multiplicity
 _atom_site_fract_x
 _atom_site_fract_y
 _atom_site_fract_z
 _atom_site_occupancy
  Li  Li0  1  0.000000  0.000000  0.000000  1
  Lu  Lu1  1  0.500000  0.500000  0.000000  1
  Th  Th2  1  0.689000  0.169808  0.500000  1
  Th  Th3  1  0.311000  0.830192  0.500000  1
  Th  Th4  1  0.169808  0.311000  0.500000  1
  Th  Th5  1  0.830192  0.689000  0.500000  1
  Si  Si6  1  0.124083  0.606566  0.000000  1
  Si  Si7  1  0.875917  0.393434  0.000000  1
  Si  Si8  1  0.606566  0.875917  0.000000  1
  Si  Si9  1  0.393434  0.124083  0.000000  1
