# generated using pymatgen
data_TbEr14Lu(Tl3Co)2
_symmetry_space_group_name_H-M   'P 1'
_cell_length_a   10.24780005
_cell_length_b   10.24095806
_cell_length_c   7.03211201
_cell_angle_alpha   89.97929670
_cell_angle_beta   89.99856650
_cell_angle_gamma   120.00018957
_symmetry_Int_Tables_number   1
_chemical_formula_structural   TbEr14Lu(Tl3Co)2
_chemical_formula_sum   'Tb1 Er14 Lu1 Tl6 Co2'
_cell_volume   639.12642135
_cell_formula_units_Z   1
loop_
 _symmetry_equiv_pos_site_id
 _symmetry_equiv_pos_as_xyz
  1  'x, y, z'
loop_
 _atom_site_type_symbol
 _atom_site_label
 _atom_site_symmetry_multiplicity
 _atom_site_fract_x
 _atom_site_fract_y
 _atom_site_fract_z
 _atom_site_occupancy
  Tb  Tb0  1  0.926755  0.463451  0.792284  1
  Er  Er1  1  0.536823  0.462793  0.792795  1
  Er  Er2  1  0.463191  0.926326  0.293334  1
  Er  Er3  1  0.074852  0.537368  0.292671  1
  Er  Er4  1  0.462947  0.537221  0.293172  1
  Er  Er5  1  0.821148  0.643235  0.494692  1
  Er  Er6  1  0.357034  0.178000  0.496173  1
  Er  Er7  1  0.820859  0.177765  0.495732  1
  Er  Er8  1  0.178743  0.356197  0.996490  1
  Er  Er9  1  0.642589  0.821947  0.995269  1
  Er  Er10  1  0.179572  0.822734  0.995807  1
  Er  Er11  1  0.665841  0.332591  0.183853  1
  Er  Er12  1  0.334078  0.667417  0.684132  1
  Er  Er13  1  0.000111  0.999891  0.777433  1
  Er  Er14  1  0.999779  0.999784  0.277513  1
  Lu  Lu15  1  0.537364  0.074842  0.793385  1
  Tl  Tl16  1  0.837009  0.674820  0.042173  1
  Tl  Tl17  1  0.326753  0.163056  0.040855  1
  Tl  Tl18  1  0.836488  0.162538  0.041858  1
  Tl  Tl19  1  0.163149  0.326034  0.541688  1
  Tl  Tl20  1  0.674211  0.837117  0.542321  1
  Tl  Tl21  1  0.162716  0.836714  0.541567  1
  Co  Co22  1  0.664732  0.331562  0.565121  1
  Co  Co23  1  0.333259  0.666594  0.065586  1
