# generated using pymatgen
data_Nd2HfTh6Se17
_symmetry_space_group_name_H-M   'P 1'
_cell_length_a   8.45129021
_cell_length_b   8.45129117
_cell_length_c   11.19407000
_cell_angle_alpha   80.70200562
_cell_angle_beta   80.70201142
_cell_angle_gamma   65.32746085
_symmetry_Int_Tables_number   1
_chemical_formula_structural   Nd2HfTh6Se17
_chemical_formula_sum   'Nd2 Hf1 Th6 Se17'
_cell_volume   713.03239176
_cell_formula_units_Z   1
loop_
 _symmetry_equiv_pos_site_id
 _symmetry_equiv_pos_as_xyz
  1  'x, y, z'
loop_
 _atom_site_type_symbol
 _atom_site_label
 _atom_site_symmetry_multiplicity
 _atom_site_fract_x
 _atom_site_fract_y
 _atom_site_fract_z
 _atom_site_occupancy
  Nd  Nd0  1  0.813356  0.305399  0.298362  1
  Nd  Nd1  1  0.305399  0.813356  0.298362  1
  Hf  Hf2  1  0.002480  0.002480  0.005217  1
  Th  Th3  1  0.185666  0.696960  0.699510  1
  Th  Th4  1  0.696960  0.185666  0.699510  1
  Th  Th5  1  0.204433  0.204433  0.537746  1
  Th  Th6  1  0.793099  0.793099  0.459129  1
  Th  Th7  1  0.679734  0.679734  0.984117  1
  Th  Th8  1  0.320363  0.320363  0.021526  1
  Se  Se9  1  0.822153  0.431247  0.537787  1
  Se  Se10  1  0.431247  0.822153  0.537787  1
  Se  Se11  1  0.174649  0.567891  0.468714  1
  Se  Se12  1  0.567891  0.174649  0.468714  1
  Se  Se13  1  0.945644  0.327874  0.023810  1
  Se  Se14  1  0.327874  0.945644  0.023810  1
  Se  Se15  1  0.057865  0.675594  0.969657  1
  Se  Se16  1  0.675594  0.057865  0.969657  1
  Se  Se17  1  0.211078  0.211078  0.275466  1
  Se  Se18  1  0.789716  0.789716  0.725814  1
  Se  Se19  1  0.060218  0.060218  0.769783  1
  Se  Se20  1  0.936509  0.936509  0.231469  1
  Se  Se21  1  0.303155  0.303155  0.753989  1
  Se  Se22  1  0.697951  0.697951  0.244102  1
  Se  Se23  1  0.519691  0.519691  0.831650  1
  Se  Se24  1  0.480181  0.480181  0.159778  1
  Se  Se25  1  0.997098  0.997098  0.504535  1
