# generated using pymatgen
data_Er3UZn4Ir3Rh
_symmetry_space_group_name_H-M   'P 1'
_cell_length_a   3.88108800
_cell_length_b   7.02352593
_cell_length_c   8.25765534
_cell_angle_alpha   90.53477547
_cell_angle_beta   90.00000000
_cell_angle_gamma   90.00000000
_symmetry_Int_Tables_number   1
_chemical_formula_structural   Er3UZn4Ir3Rh
_chemical_formula_sum   'Er3 U1 Zn4 Ir3 Rh1'
_cell_volume   225.08497994
_cell_formula_units_Z   1
loop_
 _symmetry_equiv_pos_site_id
 _symmetry_equiv_pos_as_xyz
  1  'x, y, z'
loop_
 _atom_site_type_symbol
 _atom_site_label
 _atom_site_symmetry_multiplicity
 _atom_site_fract_x
 _atom_site_fract_y
 _atom_site_fract_z
 _atom_site_occupancy
  Er  Er0  1  0.750000  0.449814  0.811636  1
  Er  Er1  1  0.750000  0.942932  0.685635  1
  Er  Er2  1  0.250000  0.049048  0.319663  1
  U  U3  1  0.250000  0.548606  0.180148  1
  Zn  Zn4  1  0.250000  0.622819  0.563627  1
  Zn  Zn5  1  0.750000  0.365341  0.443492  1
  Zn  Zn6  1  0.750000  0.888962  0.063265  1
  Zn  Zn7  1  0.250000  0.132884  0.935001  1
  Ir  Ir8  1  0.250000  0.744790  0.886216  1
  Ir  Ir9  1  0.750000  0.279371  0.130236  1
  Ir  Ir10  1  0.750000  0.737833  0.356173  1
  Rh  Rh11  1  0.250000  0.237599  0.624910  1
