# generated using pymatgen
data_Er5Ge5P7Ir10Rh9
_symmetry_space_group_name_H-M   'P 1'
_cell_length_a   12.88316764
_cell_length_b   12.90540413
_cell_length_c   3.96156800
_cell_angle_alpha   90.00000000
_cell_angle_beta   90.00000000
_cell_angle_gamma   120.17242293
_symmetry_Int_Tables_number   1
_chemical_formula_structural   Er5Ge5P7Ir10Rh9
_chemical_formula_sum   'Er5 Ge5 P7 Ir10 Rh9'
_cell_volume   569.42276325
_cell_formula_units_Z   1
loop_
 _symmetry_equiv_pos_site_id
 _symmetry_equiv_pos_as_xyz
  1  'x, y, z'
loop_
 _atom_site_type_symbol
 _atom_site_label
 _atom_site_symmetry_multiplicity
 _atom_site_fract_x
 _atom_site_fract_y
 _atom_site_fract_z
 _atom_site_occupancy
  Er  Er0  1  0.665318  0.330708  0.000000  1
  Er  Er1  1  0.333025  0.668466  0.000000  1
  Er  Er2  1  0.819838  0.816818  0.500000  1
  Er  Er3  1  0.180568  0.003577  0.500000  1
  Er  Er4  1  0.000259  0.180220  0.500000  1
  Ge  Ge5  1  0.677449  0.156326  0.500000  1
  Ge  Ge6  1  0.838686  0.517171  0.500000  1
  Ge  Ge7  1  0.636382  0.637724  0.000000  1
  Ge  Ge8  1  0.360201  0.999920  0.000000  1
  Ge  Ge9  1  0.001127  0.362289  0.000000  1
  P  P10  1  0.479866  0.316173  0.500000  1
  P  P11  1  0.173619  0.692002  0.500000  1
  P  P12  1  0.517449  0.826588  0.500000  1
  P  P13  1  0.308255  0.485262  0.500000  1
  P  P14  1  0.179286  0.184487  0.000000  1
  P  P15  1  0.820999  0.993656  0.000000  1
  P  P16  1  0.003031  0.823308  0.000000  1
  Ir  Ir17  1  0.280326  0.285157  0.500000  1
  Ir  Ir18  1  0.723517  0.989648  0.500000  1
  Ir  Ir19  1  0.007669  0.730576  0.500000  1
  Ir  Ir20  1  0.870414  0.347864  0.500000  1
  Ir  Ir21  1  0.639885  0.505552  0.500000  1
  Ir  Ir22  1  0.478389  0.134040  0.500000  1
  Ir  Ir23  1  0.364888  0.867926  0.500000  1
  Ir  Ir24  1  0.502289  0.636540  0.500000  1
  Ir  Ir25  1  0.132634  0.498253  0.500000  1
  Ir  Ir26  1  0.004086  0.002421  0.000000  1
  Rh  Rh27  1  0.810161  0.168856  0.000000  1
  Rh  Rh28  1  0.825430  0.635112  0.000000  1
  Rh  Rh29  1  0.371027  0.201231  0.000000  1
  Rh  Rh30  1  0.178557  0.795685  0.000000  1
  Rh  Rh31  1  0.615363  0.820399  0.000000  1
  Rh  Rh32  1  0.204729  0.383429  0.000000  1
  Rh  Rh33  1  0.450337  0.446791  0.000000  1
  Rh  Rh34  1  0.554154  0.009073  0.000000  1
  Rh  Rh35  1  0.990790  0.546752  0.000000  1
