# generated using pymatgen
data_Th8Si12Ir3Au
_symmetry_space_group_name_H-M   'P 1'
_cell_length_a   8.25329500
_cell_length_b   8.25329377
_cell_length_c   8.52157600
_cell_angle_alpha   90.00000000
_cell_angle_beta   90.00000000
_cell_angle_gamma   120.00000093
_symmetry_Int_Tables_number   1
_chemical_formula_structural   Th8Si12Ir3Au
_chemical_formula_sum   'Th8 Si12 Ir3 Au1'
_cell_volume   502.69575906
_cell_formula_units_Z   1
loop_
 _symmetry_equiv_pos_site_id
 _symmetry_equiv_pos_as_xyz
  1  'x, y, z'
loop_
 _atom_site_type_symbol
 _atom_site_label
 _atom_site_symmetry_multiplicity
 _atom_site_fract_x
 _atom_site_fract_y
 _atom_site_fract_z
 _atom_site_occupancy
  Th  Th0  1  0.000000  0.000000  0.748594  1
  Th  Th1  1  0.000000  0.000000  0.251471  1
  Th  Th2  1  0.496252  0.503748  0.745165  1
  Th  Th3  1  0.496252  0.992504  0.745165  1
  Th  Th4  1  0.007496  0.503748  0.745165  1
  Th  Th5  1  0.497130  0.502870  0.254508  1
  Th  Th6  1  0.005739  0.502870  0.254508  1
  Th  Th7  1  0.497130  0.994261  0.254508  1
  Si  Si8  1  0.837372  0.162628  0.000079  1
  Si  Si9  1  0.837372  0.674743  0.000079  1
  Si  Si10  1  0.325257  0.162628  0.000079  1
  Si  Si11  1  0.833269  0.166731  0.500483  1
  Si  Si12  1  0.833269  0.666538  0.500483  1
  Si  Si13  1  0.333462  0.166731  0.500483  1
  Si  Si14  1  0.165278  0.834722  0.499466  1
  Si  Si15  1  0.669442  0.834722  0.499466  1
  Si  Si16  1  0.165278  0.330558  0.499466  1
  Si  Si17  1  0.167319  0.832681  0.000211  1
  Si  Si18  1  0.665360  0.832681  0.000211  1
  Si  Si19  1  0.167319  0.334640  0.000211  1
  Ir  Ir20  1  0.666667  0.333333  0.501972  1
  Ir  Ir21  1  0.333333  0.666667  0.498811  1
  Ir  Ir22  1  0.333333  0.666667  0.001812  1
  Au  Au23  1  0.666667  0.333333  0.997608  1
