# generated using pymatgen
data_NdHoTcB6
_symmetry_space_group_name_H-M   'P 1'
_cell_length_a   3.73344300
_cell_length_b   9.23182200
_cell_length_c   11.67743500
_cell_angle_alpha   90.00000000
_cell_angle_beta   90.00000000
_cell_angle_gamma   90.00000000
_symmetry_Int_Tables_number   1
_chemical_formula_structural   NdHoTcB6
_chemical_formula_sum   'Nd4 Ho4 Tc4 B24'
_cell_volume   402.48009416
_cell_formula_units_Z   4
loop_
 _symmetry_equiv_pos_site_id
 _symmetry_equiv_pos_as_xyz
  1  'x, y, z'
loop_
 _atom_site_type_symbol
 _atom_site_label
 _atom_site_symmetry_multiplicity
 _atom_site_fract_x
 _atom_site_fract_y
 _atom_site_fract_z
 _atom_site_occupancy
  Nd  Nd0  1  0.000000  0.323464  0.414593  1
  Nd  Nd1  1  0.000000  0.676536  0.585407  1
  Nd  Nd2  1  0.000000  0.823464  0.085407  1
  Nd  Nd3  1  0.000000  0.176536  0.914593  1
  Ho  Ho4  1  0.000000  0.942897  0.368799  1
  Ho  Ho5  1  0.000000  0.057103  0.631201  1
  Ho  Ho6  1  0.000000  0.442897  0.131201  1
  Ho  Ho7  1  0.000000  0.557103  0.868799  1
  Tc  Tc8  1  0.000000  0.640212  0.318971  1
  Tc  Tc9  1  0.000000  0.359788  0.681029  1
  Tc  Tc10  1  0.000000  0.140212  0.181029  1
  Tc  Tc11  1  0.000000  0.859788  0.818971  1
  B  B12  1  0.500000  0.555426  0.430452  1
  B  B13  1  0.500000  0.444574  0.569548  1
  B  B14  1  0.500000  0.055426  0.069548  1
  B  B15  1  0.500000  0.944574  0.930452  1
  B  B16  1  0.500000  0.750062  0.415912  1
  B  B17  1  0.500000  0.249938  0.584088  1
  B  B18  1  0.500000  0.250062  0.084088  1
  B  B19  1  0.500000  0.749938  0.915912  1
  B  B20  1  0.500000  0.791812  0.265976  1
  B  B21  1  0.500000  0.208188  0.734024  1
  B  B22  1  0.500000  0.291812  0.234024  1
  B  B23  1  0.500000  0.708188  0.765976  1
  B  B24  1  0.500000  0.630111  0.186228  1
  B  B25  1  0.500000  0.369889  0.813772  1
  B  B26  1  0.500000  0.130111  0.313772  1
  B  B27  1  0.500000  0.869889  0.686228  1
  B  B28  1  0.500000  0.984341  0.213114  1
  B  B29  1  0.500000  0.015659  0.786886  1
  B  B30  1  0.500000  0.484341  0.286886  1
  B  B31  1  0.500000  0.515659  0.713114  1
  B  B32  1  0.500000  0.596250  0.026500  1
  B  B33  1  0.500000  0.403750  0.973500  1
  B  B34  1  0.500000  0.096250  0.473500  1
  B  B35  1  0.500000  0.903750  0.526500  1
