# generated using pymatgen
data_Er2Pa2Al24Pt8Rh
_symmetry_space_group_name_H-M   'P 1'
_cell_length_a   7.54631337
_cell_length_b   7.54746425
_cell_length_c   13.08136802
_cell_angle_alpha   84.51517225
_cell_angle_beta   101.04144000
_cell_angle_gamma   119.88629021
_symmetry_Int_Tables_number   1
_chemical_formula_structural   Er2Pa2Al24Pt8Rh
_chemical_formula_sum   'Er2 Pa2 Al24 Pt8 Rh1'
_cell_volume   634.01797777
_cell_formula_units_Z   1
loop_
 _symmetry_equiv_pos_site_id
 _symmetry_equiv_pos_as_xyz
  1  'x, y, z'
loop_
 _atom_site_type_symbol
 _atom_site_label
 _atom_site_symmetry_multiplicity
 _atom_site_fract_x
 _atom_site_fract_y
 _atom_site_fract_z
 _atom_site_occupancy
  Er  Er0  1  0.062156  0.667664  0.191611  1
  Er  Er1  1  0.937844  0.332336  0.808389  1
  Pa  Pa2  1  0.733560  0.999111  0.194892  1
  Pa  Pa3  1  0.266440  0.000889  0.805108  1
  Al  Al4  1  0.810212  0.870049  0.818197  1
  Al  Al5  1  0.189788  0.129951  0.181803  1
  Al  Al6  1  0.982014  0.668662  0.944883  1
  Al  Al7  1  0.017986  0.331338  0.055117  1
  Al  Al8  1  0.400045  0.664700  0.817806  1
  Al  Al9  1  0.599955  0.335300  0.182194  1
  Al  Al10  1  0.879400  0.662750  0.670607  1
  Al  Al11  1  0.120600  0.337250  0.329393  1
  Al  Al12  1  0.601476  0.459243  0.817242  1
  Al  Al13  1  0.398524  0.540757  0.182758  1
  Al  Al14  1  0.229541  0.343046  0.668486  1
  Al  Al15  1  0.770459  0.656954  0.331514  1
  Al  Al16  1  0.852807  0.334386  0.558880  1
  Al  Al17  1  0.186581  0.999319  0.558019  1
  Al  Al18  1  0.813419  0.000681  0.441981  1
  Al  Al19  1  0.347681  0.998584  0.054758  1
  Al  Al20  1  0.652319  0.001416  0.945242  1
  Al  Al21  1  0.558631  0.993498  0.669678  1
  Al  Al22  1  0.441369  0.006502  0.330322  1
  Al  Al23  1  0.520106  0.666380  0.561537  1
  Al  Al24  1  0.479894  0.333620  0.438463  1
  Al  Al25  1  0.687558  0.671487  0.046730  1
  Al  Al26  1  0.312442  0.328513  0.953270  1
  Al  Al27  1  0.147193  0.665614  0.441120  1
  Pt  Pt28  1  0.327653  0.671247  0.000165  1
  Pt  Pt29  1  0.545463  0.323892  0.638323  1
  Pt  Pt30  1  0.454537  0.676108  0.361677  1
  Pt  Pt31  1  0.889173  0.009092  0.639787  1
  Pt  Pt32  1  0.110827  0.990908  0.360213  1
  Pt  Pt33  1  0.672347  0.328753  0.999835  1
  Pt  Pt34  1  0.203961  0.667355  0.639894  1
  Pt  Pt35  1  0.796039  0.332645  0.360106  1
  Rh  Rh36  1  0.000000  0.000000  0.000000  1
