# generated using pymatgen
data_SmDy9(Bi3C)2
_symmetry_space_group_name_H-M   'P 1'
_cell_length_a   9.17853600
_cell_length_b   9.17853347
_cell_length_c   6.50945200
_cell_angle_alpha   90.00000000
_cell_angle_beta   90.00000000
_cell_angle_gamma   120.00000191
_symmetry_Int_Tables_number   1
_chemical_formula_structural   SmDy9(Bi3C)2
_chemical_formula_sum   'Sm1 Dy9 Bi6 C2'
_cell_volume   474.92142665
_cell_formula_units_Z   1
loop_
 _symmetry_equiv_pos_site_id
 _symmetry_equiv_pos_as_xyz
  1  'x, y, z'
loop_
 _atom_site_type_symbol
 _atom_site_label
 _atom_site_symmetry_multiplicity
 _atom_site_fract_x
 _atom_site_fract_y
 _atom_site_fract_z
 _atom_site_occupancy
  Sm  Sm0  1  0.666667  0.333333  0.000000  1
  Dy  Dy1  1  0.333333  0.666667  0.000000  1
  Dy  Dy2  1  0.333333  0.666667  0.500000  1
  Dy  Dy3  1  0.666667  0.333333  0.500000  1
  Dy  Dy4  1  0.793100  0.792983  0.749749  1
  Dy  Dy5  1  0.207017  0.000117  0.749749  1
  Dy  Dy6  1  0.999883  0.206900  0.749749  1
  Dy  Dy7  1  0.207017  0.206900  0.250251  1
  Dy  Dy8  1  0.793100  0.000117  0.250251  1
  Dy  Dy9  1  0.999883  0.792983  0.250251  1
  Bi  Bi10  1  0.399995  0.401899  0.748267  1
  Bi  Bi11  1  0.598101  0.998096  0.748267  1
  Bi  Bi12  1  0.001904  0.600005  0.748267  1
  Bi  Bi13  1  0.598101  0.600005  0.251733  1
  Bi  Bi14  1  0.399995  0.998096  0.251733  1
  Bi  Bi15  1  0.001904  0.401899  0.251733  1
  C  C16  1  0.000000  0.000000  0.000000  1
  C  C17  1  0.000000  0.000000  0.500000  1
