# generated using pymatgen
data_Ta7TiCr2(B2P)2
_symmetry_space_group_name_H-M   'P 1'
_cell_length_a   6.00632890
_cell_length_b   6.00632917
_cell_length_c   7.10877559
_cell_angle_alpha   114.87107833
_cell_angle_beta   114.87107577
_cell_angle_gamma   89.90415741
_symmetry_Int_Tables_number   1
_chemical_formula_structural   Ta7TiCr2(B2P)2
_chemical_formula_sum   'Ta7 Ti1 Cr2 B4 P2'
_cell_volume   206.25472877
_cell_formula_units_Z   1
loop_
 _symmetry_equiv_pos_site_id
 _symmetry_equiv_pos_as_xyz
  1  'x, y, z'
loop_
 _atom_site_type_symbol
 _atom_site_label
 _atom_site_symmetry_multiplicity
 _atom_site_fract_x
 _atom_site_fract_y
 _atom_site_fract_z
 _atom_site_occupancy
  Ta  Ta0  1  0.692954  0.192954  0.722237  1
  Ta  Ta1  1  0.191780  0.031269  0.724135  1
  Ta  Ta2  1  0.531269  0.691780  0.724135  1
  Ta  Ta3  1  0.967749  0.467749  0.277218  1
  Ta  Ta4  1  0.308801  0.808801  0.276571  1
  Ta  Ta5  1  0.807928  0.967445  0.276143  1
  Ta  Ta6  1  0.467445  0.307928  0.276143  1
  Ti  Ti7  1  0.033294  0.533294  0.724935  1
  Cr  Cr8  1  0.498057  0.499677  0.997914  1
  Cr  Cr9  1  0.999677  0.998057  0.997914  1
  B  B10  1  0.377494  0.877494  0.998357  1
  B  B11  1  0.621271  0.121271  0.999949  1
  B  B12  1  0.118422  0.382260  0.998130  1
  B  B13  1  0.882260  0.618422  0.998130  1
  P  P14  1  0.248253  0.253345  0.504044  1
  P  P15  1  0.753345  0.748253  0.504044  1
