# generated using pymatgen
data_TbY5P13Rh20
_symmetry_space_group_name_H-M   'P 1'
_cell_length_a   13.34533300
_cell_length_b   13.34673534
_cell_length_c   3.92970300
_cell_angle_alpha   89.99964950
_cell_angle_beta   89.99766580
_cell_angle_gamma   119.99593749
_symmetry_Int_Tables_number   1
_chemical_formula_structural   TbY5P13Rh20
_chemical_formula_sum   'Tb1 Y5 P13 Rh20'
_cell_volume   606.19534973
_cell_formula_units_Z   1
loop_
 _symmetry_equiv_pos_site_id
 _symmetry_equiv_pos_as_xyz
  1  'x, y, z'
loop_
 _atom_site_type_symbol
 _atom_site_label
 _atom_site_symmetry_multiplicity
 _atom_site_fract_x
 _atom_site_fract_y
 _atom_site_fract_z
 _atom_site_occupancy
  Tb  Tb0  1  0.529438  0.717332  0.248287  1
  Y  Y1  1  0.282726  0.812190  0.248314  1
  Y  Y2  1  0.187816  0.470546  0.248325  1
  Y  Y3  1  0.470600  0.282764  0.751675  1
  Y  Y4  1  0.717254  0.187862  0.751688  1
  Y  Y5  1  0.812132  0.529409  0.751678  1
  P  P6  1  0.525862  0.139195  0.250297  1
  P  P7  1  0.860809  0.386660  0.250302  1
  P  P8  1  0.613303  0.474129  0.250307  1
  P  P9  1  0.945355  0.715115  0.254548  1
  P  P10  1  0.284928  0.230254  0.254565  1
  P  P11  1  0.769743  0.054682  0.254522  1
  P  P12  1  0.386702  0.525714  0.749693  1
  P  P13  1  0.474224  0.860931  0.749705  1
  P  P14  1  0.139137  0.613319  0.749708  1
  P  P15  1  0.715136  0.769719  0.745425  1
  P  P16  1  0.230244  0.945345  0.745443  1
  P  P17  1  0.054680  0.284918  0.745445  1
  P  P18  1  0.000032  0.000000  0.999928  1
  Rh  Rh19  1  0.333255  0.666663  0.751685  1
  Rh  Rh20  1  0.921522  0.250194  0.254156  1
  Rh  Rh21  1  0.749824  0.671314  0.254153  1
  Rh  Rh22  1  0.328665  0.078474  0.254141  1
  Rh  Rh23  1  0.438611  0.022671  0.751473  1
  Rh  Rh24  1  0.977317  0.415929  0.751483  1
  Rh  Rh25  1  0.584079  0.561300  0.751506  1
  Rh  Rh26  1  0.666691  0.333325  0.248301  1
  Rh  Rh27  1  0.094141  0.186659  0.247130  1
  Rh  Rh28  1  0.813273  0.907478  0.247209  1
  Rh  Rh29  1  0.092486  0.905841  0.247119  1
  Rh  Rh30  1  0.022700  0.584071  0.248520  1
  Rh  Rh31  1  0.415860  0.438599  0.248532  1
  Rh  Rh32  1  0.561352  0.977294  0.248521  1
  Rh  Rh33  1  0.671464  0.921680  0.745894  1
  Rh  Rh34  1  0.078487  0.749793  0.745855  1
  Rh  Rh35  1  0.250159  0.328644  0.745856  1
  Rh  Rh36  1  0.905902  0.813365  0.752887  1
  Rh  Rh37  1  0.186607  0.092490  0.752825  1
  Rh  Rh38  1  0.907482  0.094131  0.752899  1
