# generated using pymatgen
data_Tb8Yb12Si15Pt
_symmetry_space_group_name_H-M   'P 1'
_cell_length_a   7.41799600
_cell_length_b   7.83280899
_cell_length_c   15.19467700
_cell_angle_alpha   90.00000000
_cell_angle_beta   90.00000000
_cell_angle_gamma   89.95915391
_symmetry_Int_Tables_number   1
_chemical_formula_structural   Tb8Yb12Si15Pt
_chemical_formula_sum   'Tb8 Yb12 Si15 Pt1'
_cell_volume   882.86742496
_cell_formula_units_Z   1
loop_
 _symmetry_equiv_pos_site_id
 _symmetry_equiv_pos_as_xyz
  1  'x, y, z'
loop_
 _atom_site_type_symbol
 _atom_site_label
 _atom_site_symmetry_multiplicity
 _atom_site_fract_x
 _atom_site_fract_y
 _atom_site_fract_z
 _atom_site_occupancy
  Tb  Tb0  1  0.316398  0.177873  0.123425  1
  Tb  Tb1  1  0.814945  0.320406  0.378041  1
  Tb  Tb2  1  0.183718  0.677909  0.879061  1
  Tb  Tb3  1  0.683931  0.822385  0.621498  1
  Tb  Tb4  1  0.316398  0.177873  0.376575  1
  Tb  Tb5  1  0.814945  0.320406  0.121959  1
  Tb  Tb6  1  0.183718  0.677909  0.620939  1
  Tb  Tb7  1  0.683931  0.822385  0.878502  1
  Yb  Yb8  1  0.976659  0.818481  0.400884  1
  Yb  Yb9  1  0.475194  0.680937  0.097265  1
  Yb  Yb10  1  0.524402  0.316381  0.595783  1
  Yb  Yb11  1  0.024897  0.184092  0.904676  1
  Yb  Yb12  1  0.024897  0.184092  0.595324  1
  Yb  Yb13  1  0.524402  0.316381  0.904217  1
  Yb  Yb14  1  0.475194  0.680937  0.402735  1
  Yb  Yb15  1  0.976659  0.818481  0.099116  1
  Yb  Yb16  1  0.350511  0.021314  0.750000  1
  Yb  Yb17  1  0.851007  0.479201  0.750000  1
  Yb  Yb18  1  0.141672  0.524999  0.250000  1
  Yb  Yb19  1  0.653263  0.973935  0.250000  1
  Si  Si20  1  0.857097  0.534370  0.535964  1
  Si  Si21  1  0.358771  0.966454  0.962121  1
  Si  Si22  1  0.642134  0.033159  0.462131  1
  Si  Si23  1  0.142668  0.467077  0.037966  1
  Si  Si24  1  0.142668  0.467077  0.462034  1
  Si  Si25  1  0.642134  0.033159  0.037869  1
  Si  Si26  1  0.358771  0.966454  0.537879  1
  Si  Si27  1  0.857097  0.534370  0.964036  1
  Si  Si28  1  0.975296  0.885744  0.750000  1
  Si  Si29  1  0.475156  0.614325  0.750000  1
  Si  Si30  1  0.522746  0.382251  0.250000  1
  Si  Si31  1  0.025740  0.112893  0.250000  1
  Si  Si32  1  0.246050  0.394639  0.750000  1
  Si  Si33  1  0.746741  0.106699  0.750000  1
  Si  Si34  1  0.257916  0.894724  0.250000  1
  Pt  Pt35  1  0.752275  0.610225  0.250000  1
