# generated using pymatgen
data_Mg4Zn6NiRh
_symmetry_space_group_name_H-M   'P 1'
_cell_length_a   5.08940586
_cell_length_b   5.18139326
_cell_length_c   8.32026600
_cell_angle_alpha   90.00000000
_cell_angle_beta   90.00000000
_cell_angle_gamma   119.55554065
_symmetry_Int_Tables_number   1
_chemical_formula_structural   Mg4Zn6NiRh
_chemical_formula_sum   'Mg4 Zn6 Ni1 Rh1'
_cell_volume   190.85747495
_cell_formula_units_Z   1
loop_
 _symmetry_equiv_pos_site_id
 _symmetry_equiv_pos_as_xyz
  1  'x, y, z'
loop_
 _atom_site_type_symbol
 _atom_site_label
 _atom_site_symmetry_multiplicity
 _atom_site_fract_x
 _atom_site_fract_y
 _atom_site_fract_z
 _atom_site_occupancy
  Mg  Mg0  1  0.324333  0.652174  0.064107  1
  Mg  Mg1  1  0.671865  0.333173  0.568083  1
  Mg  Mg2  1  0.671865  0.333173  0.931917  1
  Mg  Mg3  1  0.324333  0.652174  0.435893  1
  Zn  Zn4  1  0.997897  0.022026  0.005066  1
  Zn  Zn5  1  0.997897  0.022026  0.494934  1
  Zn  Zn6  1  0.348651  0.159329  0.250000  1
  Zn  Zn7  1  0.661763  0.827881  0.750000  1
  Zn  Zn8  1  0.168286  0.832248  0.750000  1
  Zn  Zn9  1  0.832576  0.658355  0.250000  1
  Ni  Ni10  1  0.825276  0.163883  0.250000  1
  Rh  Rh11  1  0.175261  0.343559  0.750000  1
