# generated using pymatgen
data_LiY15HoCd3Pt4
_symmetry_space_group_name_H-M   'P 1'
_cell_length_a   9.73158541
_cell_length_b   9.73158550
_cell_length_c   9.73158622
_cell_angle_alpha   59.79391135
_cell_angle_beta   59.79391032
_cell_angle_gamma   59.79390806
_symmetry_Int_Tables_number   1
_chemical_formula_structural   LiY15HoCd3Pt4
_chemical_formula_sum   'Li1 Y15 Ho1 Cd3 Pt4'
_cell_volume   648.63320942
_cell_formula_units_Z   1
loop_
 _symmetry_equiv_pos_site_id
 _symmetry_equiv_pos_as_xyz
  1  'x, y, z'
loop_
 _atom_site_type_symbol
 _atom_site_label
 _atom_site_symmetry_multiplicity
 _atom_site_fract_x
 _atom_site_fract_y
 _atom_site_fract_z
 _atom_site_occupancy
  Li  Li0  1  0.571351  0.571351  0.571351  1
  Y  Y1  1  0.352445  0.352445  0.943687  1
  Y  Y2  1  0.352445  0.943687  0.352445  1
  Y  Y3  1  0.943687  0.352445  0.352445  1
  Y  Y4  1  0.809324  0.192371  0.192371  1
  Y  Y5  1  0.188295  0.812460  0.812460  1
  Y  Y6  1  0.192371  0.809324  0.192371  1
  Y  Y7  1  0.812460  0.188295  0.812460  1
  Y  Y8  1  0.192371  0.192371  0.809324  1
  Y  Y9  1  0.812460  0.812460  0.188295  1
  Y  Y10  1  0.937238  0.564646  0.564646  1
  Y  Y11  1  0.563541  0.936074  0.936074  1
  Y  Y12  1  0.564646  0.937238  0.564646  1
  Y  Y13  1  0.936074  0.563541  0.936074  1
  Y  Y14  1  0.564646  0.564646  0.937238  1
  Y  Y15  1  0.936074  0.936074  0.563541  1
  Ho  Ho16  1  0.350748  0.350748  0.350748  1
  Cd  Cd17  1  0.581888  0.581888  0.253893  1
  Cd  Cd18  1  0.581888  0.253893  0.581888  1
  Cd  Cd19  1  0.253893  0.581888  0.581888  1
  Pt  Pt20  1  0.143871  0.143871  0.143871  1
  Pt  Pt21  1  0.143940  0.143940  0.570402  1
  Pt  Pt22  1  0.143940  0.570402  0.143940  1
  Pt  Pt23  1  0.570402  0.143940  0.143940  1
