# generated using pymatgen
data_Hf18Ta5Re3AsP
_symmetry_space_group_name_H-M   'P 1'
_cell_length_a   8.69032706
_cell_length_b   8.75395454
_cell_length_c   8.77816300
_cell_angle_alpha   90.00000000
_cell_angle_beta   90.00000000
_cell_angle_gamma   120.24248885
_symmetry_Int_Tables_number   1
_chemical_formula_structural   Hf18Ta5Re3AsP
_chemical_formula_sum   'Hf18 Ta5 Re3 As1 P1'
_cell_volume   576.91030607
_cell_formula_units_Z   1
loop_
 _symmetry_equiv_pos_site_id
 _symmetry_equiv_pos_as_xyz
  1  'x, y, z'
loop_
 _atom_site_type_symbol
 _atom_site_label
 _atom_site_symmetry_multiplicity
 _atom_site_fract_x
 _atom_site_fract_y
 _atom_site_fract_z
 _atom_site_occupancy
  Hf  Hf0  1  0.196295  0.804529  0.454936  1
  Hf  Hf1  1  0.196295  0.391765  0.454936  1
  Hf  Hf2  1  0.611053  0.805526  0.457336  1
  Hf  Hf3  1  0.802284  0.196878  0.551430  1
  Hf  Hf4  1  0.802284  0.605407  0.551430  1
  Hf  Hf5  1  0.395155  0.197578  0.550236  1
  Hf  Hf6  1  0.802284  0.196878  0.948570  1
  Hf  Hf7  1  0.802284  0.605407  0.948570  1
  Hf  Hf8  1  0.395155  0.197578  0.949764  1
  Hf  Hf9  1  0.196295  0.804529  0.045064  1
  Hf  Hf10  1  0.196295  0.391765  0.045064  1
  Hf  Hf11  1  0.611053  0.805526  0.042664  1
  Hf  Hf12  1  0.539360  0.461806  0.250000  1
  Hf  Hf13  1  0.539360  0.077554  0.250000  1
  Hf  Hf14  1  0.921505  0.460753  0.250000  1
  Hf  Hf15  1  0.463336  0.541669  0.750000  1
  Hf  Hf16  1  0.463336  0.921666  0.750000  1
  Hf  Hf17  1  0.076613  0.538307  0.750000  1
  Ta  Ta18  1  0.889146  0.110359  0.250000  1
  Ta  Ta19  1  0.889146  0.778785  0.250000  1
  Ta  Ta20  1  0.221918  0.110958  0.250000  1
  Ta  Ta21  1  0.105432  0.887829  0.750000  1
  Ta  Ta22  1  0.105432  0.217603  0.750000  1
  Re  Re23  1  0.777109  0.888554  0.750000  1
  Re  Re24  1  0.999383  0.999691  0.498762  1
  Re  Re25  1  0.999383  0.999691  0.001238  1
  As  As26  1  0.334615  0.667308  0.250000  1
  P  P27  1  0.668198  0.334098  0.750000  1
