# generated using pymatgen
data_ZrSc2(InCu2)3
_symmetry_space_group_name_H-M   'P 1'
_cell_length_a   4.55622467
_cell_length_b   6.31776500
_cell_length_c   13.74375633
_cell_angle_alpha   90.00000000
_cell_angle_beta   90.27732978
_cell_angle_gamma   90.00000000
_symmetry_Int_Tables_number   1
_chemical_formula_structural   ZrSc2(InCu2)3
_chemical_formula_sum   'Zr2 Sc4 In6 Cu12'
_cell_volume   395.61154603
_cell_formula_units_Z   2
loop_
 _symmetry_equiv_pos_site_id
 _symmetry_equiv_pos_as_xyz
  1  'x, y, z'
loop_
 _atom_site_type_symbol
 _atom_site_label
 _atom_site_symmetry_multiplicity
 _atom_site_fract_x
 _atom_site_fract_y
 _atom_site_fract_z
 _atom_site_occupancy
  Zr  Zr0  1  0.000931  0.499999  0.000027  1
  Zr  Zr1  1  0.499569  0.000000  0.166249  1
  Sc  Sc2  1  0.999530  0.499999  0.333524  1
  Sc  Sc3  1  0.499726  0.000000  0.499667  1
  Sc  Sc4  1  0.000403  0.499999  0.667191  1
  Sc  Sc5  1  0.499992  0.000000  0.833300  1
  In  In6  1  0.000303  0.000000  0.999250  1
  In  In7  1  0.500546  0.499999  0.167411  1
  In  In8  1  0.999590  0.000000  0.334352  1
  In  In9  1  0.499984  0.499999  0.499244  1
  In  In10  1  0.000789  0.000000  0.667206  1
  In  In11  1  0.499973  0.499999  0.832466  1
  Cu  Cu12  1  0.500779  0.250611  0.998889  1
  Cu  Cu13  1  0.500779  0.749388  0.998889  1
  Cu  Cu14  1  0.999722  0.250462  0.167736  1
  Cu  Cu15  1  0.999722  0.749539  0.167736  1
  Cu  Cu16  1  0.499200  0.250990  0.333346  1
  Cu  Cu17  1  0.499200  0.749009  0.333346  1
  Cu  Cu18  1  0.999583  0.249533  0.500960  1
  Cu  Cu19  1  0.999583  0.750468  0.500960  1
  Cu  Cu20  1  0.500771  0.252755  0.666094  1
  Cu  Cu21  1  0.500771  0.747244  0.666094  1
  Cu  Cu22  1  0.999276  0.249024  0.833033  1
  Cu  Cu23  1  0.999276  0.750977  0.833033  1
