# generated using pymatgen
data_Nd5DyTiAl23Ru8
_symmetry_space_group_name_H-M   'P 1'
_cell_length_a   8.88610500
_cell_length_b   8.91502916
_cell_length_c   9.66740936
_cell_angle_alpha   90.05273873
_cell_angle_beta   90.00000000
_cell_angle_gamma   119.89273684
_symmetry_Int_Tables_number   1
_chemical_formula_structural   Nd5DyTiAl23Ru8
_chemical_formula_sum   'Nd5 Dy1 Ti1 Al23 Ru8'
_cell_volume   663.96180976
_cell_formula_units_Z   1
loop_
 _symmetry_equiv_pos_site_id
 _symmetry_equiv_pos_as_xyz
  1  'x, y, z'
loop_
 _atom_site_type_symbol
 _atom_site_label
 _atom_site_symmetry_multiplicity
 _atom_site_fract_x
 _atom_site_fract_y
 _atom_site_fract_z
 _atom_site_occupancy
  Nd  Nd0  1  0.807357  0.614716  0.748996  1
  Nd  Nd1  1  0.614340  0.807411  0.250475  1
  Nd  Nd2  1  0.384926  0.192372  0.748685  1
  Nd  Nd3  1  0.193073  0.807411  0.250475  1
  Nd  Nd4  1  0.807444  0.192372  0.748685  1
  Dy  Dy5  1  0.193257  0.386513  0.250325  1
  Ti  Ti6  1  0.332798  0.665597  0.990845  1
  Al  Al7  1  0.666684  0.333367  0.990104  1
  Al  Al8  1  0.666543  0.333085  0.508544  1
  Al  Al9  1  0.332768  0.665536  0.487826  1
  Al  Al10  1  0.161848  0.323696  0.574380  1
  Al  Al11  1  0.837805  0.675611  0.423286  1
  Al  Al12  1  0.676033  0.837968  0.575819  1
  Al  Al13  1  0.837355  0.674708  0.077447  1
  Al  Al14  1  0.323789  0.163238  0.422791  1
  Al  Al15  1  0.158807  0.317614  0.926640  1
  Al  Al16  1  0.161934  0.837968  0.575819  1
  Al  Al17  1  0.324557  0.163340  0.077787  1
  Al  Al18  1  0.839449  0.163238  0.422791  1
  Al  Al19  1  0.682048  0.841223  0.924905  1
  Al  Al20  1  0.838784  0.163340  0.077787  1
  Al  Al21  1  0.159176  0.841223  0.924905  1
  Al  Al22  1  0.563213  0.126426  0.252066  1
  Al  Al23  1  0.438582  0.877164  0.749790  1
  Al  Al24  1  0.876047  0.436791  0.252265  1
  Al  Al25  1  0.122851  0.561076  0.749511  1
  Al  Al26  1  0.560745  0.436791  0.252265  1
  Al  Al27  1  0.438223  0.561076  0.749511  1
  Al  Al28  1  0.001518  0.003035  0.249880  1
  Al  Al29  1  0.999876  0.999753  0.749199  1
  Ru  Ru30  1  0.497805  0.995609  0.003023  1
  Ru  Ru31  1  0.005236  0.501489  0.003779  1
  Ru  Ru32  1  0.499243  0.998486  0.502340  1
  Ru  Ru33  1  0.496255  0.501489  0.003779  1
  Ru  Ru34  1  0.001426  0.499784  0.501909  1
  Ru  Ru35  1  0.498358  0.499784  0.501909  1
  Ru  Ru36  1  0.999877  0.999754  0.000663  1
  Ru  Ru37  1  0.999971  0.999943  0.498796  1
