# generated using pymatgen
data_CaSm(Al5Os)4
_symmetry_space_group_name_H-M   'P 1'
_cell_length_a   6.88068515
_cell_length_b   6.88055793
_cell_length_c   9.17946400
_cell_angle_alpha   90.00000000
_cell_angle_beta   90.00000000
_cell_angle_gamma   96.61725673
_symmetry_Int_Tables_number   1
_chemical_formula_structural   CaSm(Al5Os)4
_chemical_formula_sum   'Ca1 Sm1 Al20 Os4'
_cell_volume   431.68778334
_cell_formula_units_Z   1
loop_
 _symmetry_equiv_pos_site_id
 _symmetry_equiv_pos_as_xyz
  1  'x, y, z'
loop_
 _atom_site_type_symbol
 _atom_site_label
 _atom_site_symmetry_multiplicity
 _atom_site_fract_x
 _atom_site_fract_y
 _atom_site_fract_z
 _atom_site_occupancy
  Ca  Ca0  1  0.872311  0.127686  0.750000  1
  Sm  Sm1  1  0.125803  0.874206  0.250000  1
  Al  Al2  1  0.523649  0.783964  0.750000  1
  Al  Al3  1  0.781226  0.519602  0.250000  1
  Al  Al4  1  0.480399  0.218782  0.250000  1
  Al  Al5  1  0.216024  0.476351  0.750000  1
  Al  Al6  1  0.623508  0.376492  0.959667  1
  Al  Al7  1  0.376904  0.623094  0.047968  1
  Al  Al8  1  0.623508  0.376492  0.540333  1
  Al  Al9  1  0.376904  0.623094  0.452032  1
  Al  Al10  1  0.413276  0.145156  0.750000  1
  Al  Al11  1  0.144330  0.414106  0.250000  1
  Al  Al12  1  0.585895  0.855660  0.250000  1
  Al  Al13  1  0.854846  0.586727  0.750000  1
  Al  Al14  1  0.845206  0.154791  0.400216  1
  Al  Al15  1  0.158758  0.841251  0.601560  1
  Al  Al16  1  0.845206  0.154791  0.099784  1
  Al  Al17  1  0.158758  0.841251  0.898440  1
  Al  Al18  1  0.774694  0.775911  0.999953  1
  Al  Al19  1  0.774694  0.775911  0.500047  1
  Al  Al20  1  0.224095  0.225298  0.999948  1
  Al  Al21  1  0.224095  0.225298  0.500052  1
  Os  Os22  1  0.498509  0.000554  0.999893  1
  Os  Os23  1  0.999447  0.501490  0.999894  1
  Os  Os24  1  0.498509  0.000554  0.500107  1
  Os  Os25  1  0.999447  0.501490  0.500106  1
