# generated using pymatgen
data_Ho7ErRe2(B12Ru)2
_symmetry_space_group_name_H-M   'P 1'
_cell_length_a   3.65864500
_cell_length_b   9.13040514
_cell_length_c   11.51402501
_cell_angle_alpha   90.21154849
_cell_angle_beta   90.00000000
_cell_angle_gamma   90.00000000
_symmetry_Int_Tables_number   1
_chemical_formula_structural   Ho7ErRe2(B12Ru)2
_chemical_formula_sum   'Ho7 Er1 Re2 B24 Ru2'
_cell_volume   384.62236027
_cell_formula_units_Z   1
loop_
 _symmetry_equiv_pos_site_id
 _symmetry_equiv_pos_as_xyz
  1  'x, y, z'
loop_
 _atom_site_type_symbol
 _atom_site_label
 _atom_site_symmetry_multiplicity
 _atom_site_fract_x
 _atom_site_fract_y
 _atom_site_fract_z
 _atom_site_occupancy
  Ho  Ho0  1  0.000000  0.320974  0.412548  1
  Ho  Ho1  1  0.000000  0.679001  0.587519  1
  Ho  Ho2  1  0.000000  0.824597  0.084457  1
  Ho  Ho3  1  0.000000  0.175400  0.915480  1
  Ho  Ho4  1  0.000000  0.942908  0.370525  1
  Ho  Ho5  1  0.000000  0.057084  0.629505  1
  Ho  Ho6  1  0.000000  0.443122  0.129206  1
  Er  Er7  1  0.000000  0.556956  0.870627  1
  Re  Re8  1  0.000000  0.138538  0.179571  1
  Re  Re9  1  0.000000  0.861201  0.820427  1
  B  B10  1  0.500000  0.553997  0.433145  1
  B  B11  1  0.500000  0.446013  0.566895  1
  B  B12  1  0.500000  0.053206  0.066691  1
  B  B13  1  0.500000  0.946737  0.933286  1
  B  B14  1  0.500000  0.748753  0.419032  1
  B  B15  1  0.500000  0.251270  0.580978  1
  B  B16  1  0.500000  0.249198  0.080870  1
  B  B17  1  0.500000  0.750560  0.919116  1
  B  B18  1  0.500000  0.790796  0.265708  1
  B  B19  1  0.500000  0.209267  0.734311  1
  B  B20  1  0.500000  0.292041  0.234938  1
  B  B21  1  0.500000  0.707742  0.765137  1
  B  B22  1  0.500000  0.631121  0.185902  1
  B  B23  1  0.500000  0.369091  0.814195  1
  B  B24  1  0.500000  0.131415  0.314999  1
  B  B25  1  0.500000  0.868542  0.685036  1
  B  B26  1  0.500000  0.982528  0.212317  1
  B  B27  1  0.500000  0.017457  0.787688  1
  B  B28  1  0.500000  0.483326  0.288220  1
  B  B29  1  0.500000  0.516781  0.711944  1
  B  B30  1  0.500000  0.602981  0.028415  1
  B  B31  1  0.500000  0.397237  0.971161  1
  B  B32  1  0.500000  0.103554  0.471489  1
  B  B33  1  0.500000  0.896441  0.528523  1
  Ru  Ru34  1  0.000000  0.637885  0.321566  1
  Ru  Ru35  1  0.000000  0.362280  0.678571  1
