# generated using pymatgen
data_Nd2ZnCd2Cu9
_symmetry_space_group_name_H-M   'P 1'
_cell_length_a   5.09543600
_cell_length_b   8.45315600
_cell_length_c   10.60165900
_cell_angle_alpha   90.00000000
_cell_angle_beta   90.00000000
_cell_angle_gamma   90.00000000
_symmetry_Int_Tables_number   1
_chemical_formula_structural   Nd2ZnCd2Cu9
_chemical_formula_sum   'Nd4 Zn2 Cd4 Cu18'
_cell_volume   456.64012050
_cell_formula_units_Z   2
loop_
 _symmetry_equiv_pos_site_id
 _symmetry_equiv_pos_as_xyz
  1  'x, y, z'
loop_
 _atom_site_type_symbol
 _atom_site_label
 _atom_site_symmetry_multiplicity
 _atom_site_fract_x
 _atom_site_fract_y
 _atom_site_fract_z
 _atom_site_occupancy
  Nd  Nd0  1  0.250000  0.254498  0.564274  1
  Nd  Nd1  1  0.250000  0.754498  0.935726  1
  Nd  Nd2  1  0.750000  0.744700  0.443105  1
  Nd  Nd3  1  0.750000  0.244700  0.056895  1
  Zn  Zn4  1  0.250000  0.815119  0.256734  1
  Zn  Zn5  1  0.250000  0.315119  0.243266  1
  Cd  Cd6  1  0.250000  0.137481  0.862688  1
  Cd  Cd7  1  0.250000  0.637481  0.637312  1
  Cd  Cd8  1  0.750000  0.865097  0.136102  1
  Cd  Cd9  1  0.750000  0.365097  0.363898  1
  Cu  Cu10  1  0.750000  0.183520  0.743884  1
  Cu  Cu11  1  0.750000  0.683520  0.756116  1
  Cu  Cu12  1  0.250000  0.557070  0.392668  1
  Cu  Cu13  1  0.250000  0.057070  0.107332  1
  Cu  Cu14  1  0.750000  0.443638  0.609375  1
  Cu  Cu15  1  0.750000  0.943638  0.890625  1
  Cu  Cu16  1  0.250000  0.915158  0.484287  1
  Cu  Cu17  1  0.250000  0.415158  0.015713  1
  Cu  Cu18  1  0.750000  0.084322  0.517486  1
  Cu  Cu19  1  0.750000  0.584322  0.982514  1
  Cu  Cu20  1  0.000564  0.432630  0.813170  1
  Cu  Cu21  1  0.499436  0.932630  0.686830  1
  Cu  Cu22  1  0.503017  0.567068  0.185583  1
  Cu  Cu23  1  0.996983  0.067068  0.314417  1
  Cu  Cu24  1  0.996983  0.567068  0.185583  1
  Cu  Cu25  1  0.503017  0.067068  0.314417  1
  Cu  Cu26  1  0.499436  0.432630  0.813170  1
  Cu  Cu27  1  0.000564  0.932630  0.686830  1
