# generated using pymatgen
data_ZrNb3(AlRh5)2
_symmetry_space_group_name_H-M   'P 1'
_cell_length_a   5.51316339
_cell_length_b   5.51316305
_cell_length_c   8.08031200
_cell_angle_alpha   89.99983686
_cell_angle_beta   89.99983187
_cell_angle_gamma   97.73342503
_symmetry_Int_Tables_number   1
_chemical_formula_structural   ZrNb3(AlRh5)2
_chemical_formula_sum   'Zr1 Nb3 Al2 Rh10'
_cell_volume   243.36705827
_cell_formula_units_Z   1
loop_
 _symmetry_equiv_pos_site_id
 _symmetry_equiv_pos_as_xyz
  1  'x, y, z'
loop_
 _atom_site_type_symbol
 _atom_site_label
 _atom_site_symmetry_multiplicity
 _atom_site_fract_x
 _atom_site_fract_y
 _atom_site_fract_z
 _atom_site_occupancy
  Zr  Zr0  1  0.778847  0.221153  0.000000  1
  Nb  Nb1  1  0.781070  0.218930  0.500000  1
  Nb  Nb2  1  0.216524  0.783476  0.000000  1
  Nb  Nb3  1  0.217398  0.782602  0.500000  1
  Al  Al4  1  0.498624  0.501873  0.749033  1
  Al  Al5  1  0.498127  0.501376  0.250967  1
  Rh  Rh6  1  0.717585  0.716053  0.000085  1
  Rh  Rh7  1  0.715738  0.714700  0.499916  1
  Rh  Rh8  1  0.283947  0.282415  0.999915  1
  Rh  Rh9  1  0.285300  0.284262  0.500084  1
  Rh  Rh10  1  0.497850  0.996216  0.746312  1
  Rh  Rh11  1  0.497839  0.996121  0.253680  1
  Rh  Rh12  1  0.001778  0.998288  0.254705  1
  Rh  Rh13  1  0.001712  0.998222  0.745295  1
  Rh  Rh14  1  0.003879  0.502161  0.746320  1
  Rh  Rh15  1  0.003784  0.502150  0.253688  1
