# generated using pymatgen
data_Sc4Be4Al2Ir9Rh
_symmetry_space_group_name_H-M   'P 1'
_cell_length_a   9.49596167
_cell_length_b   9.50954767
_cell_length_c   3.08958300
_cell_angle_alpha   90.00000000
_cell_angle_beta   90.00000000
_cell_angle_gamma   90.06793314
_symmetry_Int_Tables_number   1
_chemical_formula_structural   Sc4Be4Al2Ir9Rh
_chemical_formula_sum   'Sc4 Be4 Al2 Ir9 Rh1'
_cell_volume   278.99625536
_cell_formula_units_Z   1
loop_
 _symmetry_equiv_pos_site_id
 _symmetry_equiv_pos_as_xyz
  1  'x, y, z'
loop_
 _atom_site_type_symbol
 _atom_site_label
 _atom_site_symmetry_multiplicity
 _atom_site_fract_x
 _atom_site_fract_y
 _atom_site_fract_z
 _atom_site_occupancy
  Sc  Sc0  1  0.675740  0.175209  0.000000  1
  Sc  Sc1  1  0.325454  0.823207  0.000000  1
  Sc  Sc2  1  0.175506  0.325748  0.000000  1
  Sc  Sc3  1  0.824639  0.675651  0.000000  1
  Be  Be4  1  0.123922  0.624150  0.000000  1
  Be  Be5  1  0.876134  0.375850  0.000000  1
  Be  Be6  1  0.623887  0.876114  0.000000  1
  Be  Be7  1  0.376069  0.123978  0.000000  1
  Al  Al8  1  0.999872  0.000080  0.000000  1
  Al  Al9  1  0.499778  0.499995  0.000000  1
  Ir  Ir10  1  0.790774  0.932616  0.500000  1
  Ir  Ir11  1  0.067473  0.791194  0.500000  1
  Ir  Ir12  1  0.708983  0.433095  0.500000  1
  Ir  Ir13  1  0.932800  0.208828  0.500000  1
  Ir  Ir14  1  0.290945  0.567187  0.500000  1
  Ir  Ir15  1  0.567343  0.709122  0.500000  1
  Ir  Ir16  1  0.432308  0.290568  0.500000  1
  Ir  Ir17  1  0.499459  0.000266  0.500000  1
  Ir  Ir18  1  0.000161  0.499750  0.500000  1
  Rh  Rh19  1  0.208752  0.067394  0.500000  1
