# generated using pymatgen
data_LiEr4MnC8
_symmetry_space_group_name_H-M   'P 1'
_cell_length_a   6.57233489
_cell_length_b   6.57233520
_cell_length_c   6.57233383
_cell_angle_alpha   134.11774771
_cell_angle_beta   109.60222932
_cell_angle_gamma   88.18780832
_symmetry_Int_Tables_number   1
_chemical_formula_structural   LiEr4MnC8
_chemical_formula_sum   'Li1 Er4 Mn1 C8'
_cell_volume   183.24246912
_cell_formula_units_Z   1
loop_
 _symmetry_equiv_pos_site_id
 _symmetry_equiv_pos_as_xyz
  1  'x, y, z'
loop_
 _atom_site_type_symbol
 _atom_site_label
 _atom_site_symmetry_multiplicity
 _atom_site_fract_x
 _atom_site_fract_y
 _atom_site_fract_z
 _atom_site_occupancy
  Li  Li0  1  0.000000  0.250000  0.250000  1
  Er  Er1  1  0.199614  0.354101  0.843553  1
  Er  Er2  1  0.800386  0.643939  0.154488  1
  Er  Er3  1  0.510547  0.856061  0.656447  1
  Er  Er4  1  0.489453  0.145899  0.345512  1
  Mn  Mn5  1  0.000000  0.750000  0.750000  1
  C  C6  1  0.785585  0.131582  0.658726  1
  C  C7  1  0.214415  0.873140  0.345996  1
  C  C8  1  0.472855  0.626860  0.841274  1
  C  C9  1  0.527145  0.368418  0.154004  1
  C  C10  1  0.903534  0.026765  0.762948  1
  C  C11  1  0.096466  0.859414  0.123231  1
  C  C12  1  0.263816  0.640586  0.737052  1
  C  C13  1  0.736184  0.473235  0.376769  1
