# generated using pymatgen
data_Na4(GaSn3)3
_symmetry_space_group_name_H-M   'P 1'
_cell_length_a   6.21823828
_cell_length_b   6.57044290
_cell_length_c   11.47035317
_cell_angle_alpha   89.71659520
_cell_angle_beta   90.12226613
_cell_angle_gamma   90.01749337
_symmetry_Int_Tables_number   1
_chemical_formula_structural   Na4(GaSn3)3
_chemical_formula_sum   'Na4 Ga3 Sn9'
_cell_volume   468.63257654
_cell_formula_units_Z   1
loop_
 _symmetry_equiv_pos_site_id
 _symmetry_equiv_pos_as_xyz
  1  'x, y, z'
loop_
 _atom_site_type_symbol
 _atom_site_label
 _atom_site_symmetry_multiplicity
 _atom_site_fract_x
 _atom_site_fract_y
 _atom_site_fract_z
 _atom_site_occupancy
  Na  Na0  1  0.886268  0.625084  0.064430  1
  Na  Na1  1  0.614122  0.374981  0.566289  1
  Na  Na2  1  0.386083  0.876677  0.931286  1
  Na  Na3  1  0.118423  0.128328  0.437988  1
  Ga  Ga4  1  0.600864  0.908366  0.394629  1
  Ga  Ga5  1  0.901658  0.086321  0.886628  1
  Ga  Ga6  1  0.100808  0.589384  0.610271  1
  Sn  Sn7  1  0.397795  0.411561  0.108363  1
  Sn  Sn8  1  0.791188  0.740698  0.762216  1
  Sn  Sn9  1  0.720681  0.258981  0.273744  1
  Sn  Sn10  1  0.282828  0.776530  0.241627  1
  Sn  Sn11  1  0.210842  0.236146  0.733144  1
  Sn  Sn12  1  0.926848  0.620060  0.385761  1
  Sn  Sn13  1  0.582181  0.378872  0.871829  1
  Sn  Sn14  1  0.426431  0.881244  0.617427  1
  Sn  Sn15  1  0.052980  0.106768  0.114370  1
