# generated using pymatgen
data_Lu2Fe9Re3P7
_symmetry_space_group_name_H-M   'P 1'
_cell_length_a   8.98428600
_cell_length_b   8.98428608
_cell_length_c   3.71265600
_cell_angle_alpha   90.00000000
_cell_angle_beta   90.00000000
_cell_angle_gamma   119.99999972
_symmetry_Int_Tables_number   1
_chemical_formula_structural   Lu2Fe9Re3P7
_chemical_formula_sum   'Lu2 Fe9 Re3 P7'
_cell_volume   259.52696311
_cell_formula_units_Z   1
loop_
 _symmetry_equiv_pos_site_id
 _symmetry_equiv_pos_as_xyz
  1  'x, y, z'
loop_
 _atom_site_type_symbol
 _atom_site_label
 _atom_site_symmetry_multiplicity
 _atom_site_fract_x
 _atom_site_fract_y
 _atom_site_fract_z
 _atom_site_occupancy
  Lu  Lu0  1  0.666667  0.333333  0.000000  1
  Lu  Lu1  1  0.000000  0.000000  0.500000  1
  Fe  Fe2  1  0.762204  0.723174  0.000000  1
  Fe  Fe3  1  0.276826  0.039031  0.000000  1
  Fe  Fe4  1  0.960969  0.237796  0.000000  1
  Fe  Fe5  1  0.490644  0.942977  0.000000  1
  Fe  Fe6  1  0.057023  0.547666  0.000000  1
  Fe  Fe7  1  0.452334  0.509356  0.000000  1
  Fe  Fe8  1  0.720911  0.103644  0.500000  1
  Fe  Fe9  1  0.896356  0.617268  0.500000  1
  Fe  Fe10  1  0.382732  0.279089  0.500000  1
  Re  Re11  1  0.552438  0.765215  0.500000  1
  Re  Re12  1  0.234785  0.787225  0.500000  1
  Re  Re13  1  0.212775  0.447562  0.500000  1
  P  P14  1  0.454866  0.076989  0.500000  1
  P  P15  1  0.923011  0.377877  0.500000  1
  P  P16  1  0.622123  0.545134  0.500000  1
  P  P17  1  0.747996  0.967178  0.000000  1
  P  P18  1  0.032822  0.780819  0.000000  1
  P  P19  1  0.219181  0.252004  0.000000  1
  P  P20  1  0.333333  0.666667  0.000000  1
