# generated using pymatgen
data_Lu3SiPt5
_symmetry_space_group_name_H-M   'P 1'
_cell_length_a   8.13142343
_cell_length_b   8.13142335
_cell_length_c   8.13142292
_cell_angle_alpha   128.10914870
_cell_angle_beta   125.92110660
_cell_angle_gamma   78.23885078
_symmetry_Int_Tables_number   1
_chemical_formula_structural   Lu3SiPt5
_chemical_formula_sum   'Lu6 Si2 Pt10'
_cell_volume   331.85897144
_cell_formula_units_Z   2
loop_
 _symmetry_equiv_pos_site_id
 _symmetry_equiv_pos_as_xyz
  1  'x, y, z'
loop_
 _atom_site_type_symbol
 _atom_site_label
 _atom_site_symmetry_multiplicity
 _atom_site_fract_x
 _atom_site_fract_y
 _atom_site_fract_z
 _atom_site_occupancy
  Lu  Lu0  1  0.829671  0.548970  0.280701  1
  Lu  Lu1  1  0.612353  0.250000  0.362353  1
  Lu  Lu2  1  0.170329  0.451030  0.719299  1
  Lu  Lu3  1  0.387647  0.750000  0.637647  1
  Lu  Lu4  1  0.231731  0.951030  0.280701  1
  Lu  Lu5  1  0.768269  0.048970  0.719299  1
  Si  Si6  1  0.224659  0.250000  0.974659  1
  Si  Si7  1  0.775341  0.750000  0.025341  1
  Pt  Pt8  1  0.167940  0.895387  0.852487  1
  Pt  Pt9  1  0.832060  0.104613  0.147513  1
  Pt  Pt10  1  0.457100  0.184547  0.852487  1
  Pt  Pt11  1  0.542900  0.395387  0.727447  1
  Pt  Pt12  1  0.832060  0.684547  0.727447  1
  Pt  Pt13  1  0.457100  0.604613  0.272553  1
  Pt  Pt14  1  0.542900  0.815453  0.147513  1
  Pt  Pt15  1  0.167940  0.315453  0.272553  1
  Pt  Pt16  1  0.000000  0.000000  0.500000  1
  Pt  Pt17  1  0.000000  0.500000  0.000000  1
