# generated using pymatgen
data_Cu5Ag2Pt3O10
_symmetry_space_group_name_H-M   'P 1'
_cell_length_a   2.91053200
_cell_length_b   6.16989414
_cell_length_c   14.56455323
_cell_angle_alpha   78.50241826
_cell_angle_beta   90.00000000
_cell_angle_gamma   90.00000000
_symmetry_Int_Tables_number   1
_chemical_formula_structural   Cu5Ag2Pt3O10
_chemical_formula_sum   'Cu5 Ag2 Pt3 O10'
_cell_volume   256.29710111
_cell_formula_units_Z   1
loop_
 _symmetry_equiv_pos_site_id
 _symmetry_equiv_pos_as_xyz
  1  'x, y, z'
loop_
 _atom_site_type_symbol
 _atom_site_label
 _atom_site_symmetry_multiplicity
 _atom_site_fract_x
 _atom_site_fract_y
 _atom_site_fract_z
 _atom_site_occupancy
  Cu  Cu0  1  0.500000  0.705848  0.703218  1
  Cu  Cu1  1  0.500000  0.082194  0.091058  1
  Cu  Cu2  1  0.500000  0.294152  0.296782  1
  Cu  Cu3  1  0.500000  0.917806  0.908942  1
  Cu  Cu4  1  0.500000  0.500000  0.500000  1
  Ag  Ag5  1  0.000000  0.205756  0.702438  1
  Ag  Ag6  1  0.000000  0.794244  0.297562  1
  Pt  Pt7  1  0.000000  0.000000  0.500000  1
  Pt  Pt8  1  0.000000  0.587686  0.094109  1
  Pt  Pt9  1  0.000000  0.412314  0.905891  1
  O  O10  1  0.000000  0.870074  0.637945  1
  O  O11  1  0.000000  0.129926  0.362055  1
  O  O12  1  0.000000  0.541007  0.768730  1
  O  O13  1  0.000000  0.703578  0.462521  1
  O  O14  1  0.000000  0.882618  0.131962  1
  O  O15  1  0.000000  0.117382  0.868038  1
  O  O16  1  0.000000  0.296422  0.537479  1
  O  O17  1  0.000000  0.458993  0.231270  1
  O  O18  1  0.000000  0.707900  0.950422  1
  O  O19  1  0.000000  0.292100  0.049578  1
