# generated using pymatgen
data_Tb3Tm5(Si3Rh)4
_symmetry_space_group_name_H-M   'P 1'
_cell_length_a   8.14080100
_cell_length_b   8.14289671
_cell_length_c   7.78173200
_cell_angle_alpha   90.00000000
_cell_angle_beta   90.00000000
_cell_angle_gamma   119.99149080
_symmetry_Int_Tables_number   1
_chemical_formula_structural   Tb3Tm5(Si3Rh)4
_chemical_formula_sum   'Tb3 Tm5 Si12 Rh4'
_cell_volume   446.77637291
_cell_formula_units_Z   1
loop_
 _symmetry_equiv_pos_site_id
 _symmetry_equiv_pos_as_xyz
  1  'x, y, z'
loop_
 _atom_site_type_symbol
 _atom_site_label
 _atom_site_symmetry_multiplicity
 _atom_site_fract_x
 _atom_site_fract_y
 _atom_site_fract_z
 _atom_site_occupancy
  Tb  Tb0  1  0.509539  0.019078  0.250000  1
  Tb  Tb1  1  0.000151  0.000301  0.750000  1
  Tb  Tb2  1  0.999820  0.999639  0.250000  1
  Tm  Tm3  1  0.982043  0.491305  0.250000  1
  Tm  Tm4  1  0.509261  0.491305  0.250000  1
  Tm  Tm5  1  0.490721  0.981443  0.750000  1
  Tm  Tm6  1  0.018455  0.509176  0.750000  1
  Tm  Tm7  1  0.490722  0.509176  0.750000  1
  Si  Si8  1  0.167016  0.832476  0.500631  1
  Si  Si9  1  0.167164  0.334326  0.500409  1
  Si  Si10  1  0.665461  0.832476  0.500631  1
  Si  Si11  1  0.334579  0.167732  0.999068  1
  Si  Si12  1  0.832625  0.665251  0.499917  1
  Si  Si13  1  0.833152  0.167732  0.999068  1
  Si  Si14  1  0.832625  0.665251  0.000083  1
  Si  Si15  1  0.167164  0.334326  0.999591  1
  Si  Si16  1  0.665461  0.832476  0.999369  1
  Si  Si17  1  0.334579  0.167732  0.500932  1
  Si  Si18  1  0.833152  0.167732  0.500932  1
  Si  Si19  1  0.167016  0.832476  0.999369  1
  Rh  Rh20  1  0.332542  0.665084  0.033092  1
  Rh  Rh21  1  0.667105  0.334209  0.963078  1
  Rh  Rh22  1  0.667105  0.334209  0.536922  1
  Rh  Rh23  1  0.332542  0.665084  0.466908  1
