# generated using pymatgen
data_Ti12Ga3Cu5O4
_symmetry_space_group_name_H-M   'P 1'
_cell_length_a   6.78575894
_cell_length_b   6.78575883
_cell_length_c   6.78575805
_cell_angle_alpha   90.05682160
_cell_angle_beta   89.94317540
_cell_angle_gamma   89.94318201
_symmetry_Int_Tables_number   1
_chemical_formula_structural   Ti12Ga3Cu5O4
_chemical_formula_sum   'Ti12 Ga3 Cu5 O4'
_cell_volume   312.46010702
_cell_formula_units_Z   1
loop_
 _symmetry_equiv_pos_site_id
 _symmetry_equiv_pos_as_xyz
  1  'x, y, z'
loop_
 _atom_site_type_symbol
 _atom_site_label
 _atom_site_symmetry_multiplicity
 _atom_site_fract_x
 _atom_site_fract_y
 _atom_site_fract_z
 _atom_site_occupancy
  Ti  Ti0  1  0.790390  0.958668  0.375217  1
  Ti  Ti1  1  0.710001  0.043360  0.876602  1
  Ti  Ti2  1  0.210798  0.458135  0.123643  1
  Ti  Ti3  1  0.293056  0.538697  0.628722  1
  Ti  Ti4  1  0.956640  0.376602  0.789999  1
  Ti  Ti5  1  0.041332  0.875217  0.709610  1
  Ti  Ti6  1  0.461303  0.128722  0.206944  1
  Ti  Ti7  1  0.541865  0.623643  0.289202  1
  Ti  Ti8  1  0.376357  0.789202  0.958135  1
  Ti  Ti9  1  0.871278  0.706944  0.038697  1
  Ti  Ti10  1  0.124783  0.209610  0.458668  1
  Ti  Ti11  1  0.623398  0.289999  0.543360  1
  Ga  Ga12  1  0.426751  0.927015  0.572013  1
  Ga  Ga13  1  0.927987  0.573249  0.427015  1
  Ga  Ga14  1  0.072985  0.072013  0.073249  1
  Cu  Cu15  1  0.179607  0.820393  0.320393  1
  Cu  Cu16  1  0.321573  0.179305  0.821527  1
  Cu  Cu17  1  0.820695  0.321527  0.178427  1
  Cu  Cu18  1  0.678473  0.678427  0.679305  1
  Cu  Cu19  1  0.571819  0.428181  0.928181  1
  O  O20  1  0.874935  0.125065  0.625065  1
  O  O21  1  0.623171  0.875433  0.123763  1
  O  O22  1  0.124567  0.623763  0.876829  1
  O  O23  1  0.376237  0.376829  0.375433  1
