# generated using pymatgen
data_Ba(HgPd)6
_symmetry_space_group_name_H-M   'P 1'
_cell_length_a   5.78428200
_cell_length_b   5.78428187
_cell_length_c   9.41512200
_cell_angle_alpha   90.00000000
_cell_angle_beta   90.00000000
_cell_angle_gamma   120.00000077
_symmetry_Int_Tables_number   1
_chemical_formula_structural   Ba(HgPd)6
_chemical_formula_sum   'Ba1 Hg6 Pd6'
_cell_volume   272.80698505
_cell_formula_units_Z   1
loop_
 _symmetry_equiv_pos_site_id
 _symmetry_equiv_pos_as_xyz
  1  'x, y, z'
loop_
 _atom_site_type_symbol
 _atom_site_label
 _atom_site_symmetry_multiplicity
 _atom_site_fract_x
 _atom_site_fract_y
 _atom_site_fract_z
 _atom_site_occupancy
  Ba  Ba0  1  0.000000  0.000000  0.000000  1
  Hg  Hg1  1  0.666667  0.333333  0.000000  1
  Hg  Hg2  1  0.333333  0.666667  0.000000  1
  Hg  Hg3  1  0.000000  0.000000  0.342716  1
  Hg  Hg4  1  0.666667  0.333333  0.500000  1
  Hg  Hg5  1  0.333333  0.666667  0.500000  1
  Hg  Hg6  1  0.000000  0.000000  0.657284  1
  Pd  Pd7  1  0.500001  0.000000  0.248572  1
  Pd  Pd8  1  0.000000  0.499999  0.248572  1
  Pd  Pd9  1  0.500000  0.499999  0.248572  1
  Pd  Pd10  1  0.500001  0.000000  0.751428  1
  Pd  Pd11  1  0.000000  0.499999  0.751428  1
  Pd  Pd12  1  0.500000  0.499999  0.751428  1
