# generated using pymatgen
data_Er3Zr(Co4P3)2
_symmetry_space_group_name_H-M   'P 1'
_cell_length_a   3.70869300
_cell_length_b   10.67014800
_cell_length_c   12.37406200
_cell_angle_alpha   90.00000000
_cell_angle_beta   90.00000000
_cell_angle_gamma   90.00000000
_symmetry_Int_Tables_number   1
_chemical_formula_structural   Er3Zr(Co4P3)2
_chemical_formula_sum   'Er6 Zr2 Co16 P12'
_cell_volume   489.67013324
_cell_formula_units_Z   2
loop_
 _symmetry_equiv_pos_site_id
 _symmetry_equiv_pos_as_xyz
  1  'x, y, z'
loop_
 _atom_site_type_symbol
 _atom_site_label
 _atom_site_symmetry_multiplicity
 _atom_site_fract_x
 _atom_site_fract_y
 _atom_site_fract_z
 _atom_site_occupancy
  Er  Er0  1  0.750000  0.250000  0.470595  1
  Er  Er1  1  0.250000  0.750000  0.529405  1
  Er  Er2  1  0.250000  0.928075  0.795186  1
  Er  Er3  1  0.250000  0.571925  0.795186  1
  Er  Er4  1  0.750000  0.071925  0.204814  1
  Er  Er5  1  0.750000  0.428075  0.204814  1
  Zr  Zr6  1  0.250000  0.250000  0.841553  1
  Zr  Zr7  1  0.750000  0.750000  0.158447  1
  Co  Co8  1  0.250000  0.250000  0.297322  1
  Co  Co9  1  0.750000  0.750000  0.702678  1
  Co  Co10  1  0.750000  0.250000  0.014630  1
  Co  Co11  1  0.250000  0.750000  0.985370  1
  Co  Co12  1  0.250000  0.417906  0.007427  1
  Co  Co13  1  0.250000  0.082094  0.007427  1
  Co  Co14  1  0.750000  0.582094  0.992573  1
  Co  Co15  1  0.750000  0.917906  0.992573  1
  Co  Co16  1  0.250000  0.454900  0.566497  1
  Co  Co17  1  0.250000  0.045100  0.566497  1
  Co  Co18  1  0.750000  0.545100  0.433503  1
  Co  Co19  1  0.750000  0.954900  0.433503  1
  Co  Co20  1  0.250000  0.873071  0.298819  1
  Co  Co21  1  0.250000  0.626929  0.298819  1
  Co  Co22  1  0.750000  0.126929  0.701181  1
  Co  Co23  1  0.750000  0.373071  0.701181  1
  P  P24  1  0.250000  0.250000  0.117375  1
  P  P25  1  0.750000  0.750000  0.882625  1
  P  P26  1  0.250000  0.250000  0.636023  1
  P  P27  1  0.750000  0.750000  0.363977  1
  P  P28  1  0.250000  0.439011  0.384072  1
  P  P29  1  0.250000  0.060989  0.384072  1
  P  P30  1  0.750000  0.560989  0.615928  1
  P  P31  1  0.750000  0.939011  0.615928  1
  P  P32  1  0.250000  0.912331  0.106615  1
  P  P33  1  0.250000  0.587669  0.106615  1
  P  P34  1  0.750000  0.087669  0.893385  1
  P  P35  1  0.750000  0.412331  0.893385  1
