# generated using pymatgen
data_SrLi6(PaN3)2
_symmetry_space_group_name_H-M   'P 1'
_cell_length_a   6.30363400
_cell_length_b   6.30363384
_cell_length_c   5.48920100
_cell_angle_alpha   90.00000000
_cell_angle_beta   90.00000000
_cell_angle_gamma   120.00000082
_symmetry_Int_Tables_number   1
_chemical_formula_structural   SrLi6(PaN3)2
_chemical_formula_sum   'Sr1 Li6 Pa2 N6'
_cell_volume   188.89555124
_cell_formula_units_Z   1
loop_
 _symmetry_equiv_pos_site_id
 _symmetry_equiv_pos_as_xyz
  1  'x, y, z'
loop_
 _atom_site_type_symbol
 _atom_site_label
 _atom_site_symmetry_multiplicity
 _atom_site_fract_x
 _atom_site_fract_y
 _atom_site_fract_z
 _atom_site_occupancy
  Sr  Sr0  1  0.000000  0.000000  0.000000  1
  Li  Li1  1  0.911382  0.606924  0.585242  1
  Li  Li2  1  0.393076  0.304458  0.585242  1
  Li  Li3  1  0.695542  0.088618  0.585242  1
  Li  Li4  1  0.088618  0.393076  0.414758  1
  Li  Li5  1  0.606924  0.695542  0.414758  1
  Li  Li6  1  0.304458  0.911382  0.414758  1
  Pa  Pa7  1  0.333333  0.666667  0.971111  1
  Pa  Pa8  1  0.666667  0.333333  0.028889  1
  N  N9  1  0.013735  0.629668  0.225928  1
  N  N10  1  0.370332  0.384068  0.225928  1
  N  N11  1  0.615932  0.986265  0.225928  1
  N  N12  1  0.986265  0.370332  0.774072  1
  N  N13  1  0.629668  0.615932  0.774072  1
  N  N14  1  0.384068  0.013735  0.774072  1
