# generated using pymatgen
data_TbEu3(Co5P3)4
_symmetry_space_group_name_H-M   'P 1'
_cell_length_a   3.65849100
_cell_length_b   10.36427106
_cell_length_c   11.80017237
_cell_angle_alpha   89.93452115
_cell_angle_beta   90.00000000
_cell_angle_gamma   90.00000000
_symmetry_Int_Tables_number   1
_chemical_formula_structural   TbEu3(Co5P3)4
_chemical_formula_sum   'Tb1 Eu3 Co20 P12'
_cell_volume   447.43383360
_cell_formula_units_Z   1
loop_
 _symmetry_equiv_pos_site_id
 _symmetry_equiv_pos_as_xyz
  1  'x, y, z'
loop_
 _atom_site_type_symbol
 _atom_site_label
 _atom_site_symmetry_multiplicity
 _atom_site_fract_x
 _atom_site_fract_y
 _atom_site_fract_z
 _atom_site_occupancy
  Tb  Tb0  1  0.750000  0.083256  0.797350  1
  Eu  Eu1  1  0.250000  0.584012  0.703370  1
  Eu  Eu2  1  0.250000  0.916293  0.203074  1
  Eu  Eu3  1  0.750000  0.416005  0.296838  1
  Co  Co4  1  0.250000  0.713783  0.988394  1
  Co  Co5  1  0.250000  0.785998  0.490435  1
  Co  Co6  1  0.750000  0.285732  0.009904  1
  Co  Co7  1  0.750000  0.213877  0.510967  1
  Co  Co8  1  0.250000  0.405637  0.490733  1
  Co  Co9  1  0.250000  0.094767  0.986271  1
  Co  Co10  1  0.750000  0.594114  0.509925  1
  Co  Co11  1  0.750000  0.907365  0.008865  1
  Co  Co12  1  0.250000  0.218936  0.174513  1
  Co  Co13  1  0.250000  0.277572  0.676357  1
  Co  Co14  1  0.750000  0.780983  0.823946  1
  Co  Co15  1  0.750000  0.720081  0.325162  1
  Co  Co16  1  0.250000  0.883987  0.698516  1
  Co  Co17  1  0.250000  0.619169  0.197119  1
  Co  Co18  1  0.750000  0.118714  0.303124  1
  Co  Co19  1  0.750000  0.379288  0.802564  1
  Co  Co20  1  0.250000  0.466259  0.932998  1
  Co  Co21  1  0.250000  0.032978  0.434209  1
  Co  Co22  1  0.750000  0.533048  0.066408  1
  Co  Co23  1  0.750000  0.967884  0.568591  1
  P  P24  1  0.250000  0.418784  0.111549  1
  P  P25  1  0.250000  0.081175  0.612566  1
  P  P26  1  0.750000  0.581094  0.888126  1
  P  P27  1  0.750000  0.919137  0.389259  1
  P  P28  1  0.250000  0.271503  0.869415  1
  P  P29  1  0.250000  0.227167  0.369845  1
  P  P30  1  0.750000  0.727785  0.129783  1
  P  P31  1  0.750000  0.772604  0.629859  1
  P  P32  1  0.250000  0.603648  0.392182  1
  P  P33  1  0.250000  0.897411  0.891850  1
  P  P34  1  0.750000  0.396428  0.608150  1
  P  P35  1  0.750000  0.103530  0.107780  1
