# generated using pymatgen
data_DyLu3(WO6)2
_symmetry_space_group_name_H-M   'P 1'
_cell_length_a   5.32666400
_cell_length_b   7.60481904
_cell_length_c   11.33858042
_cell_angle_alpha   75.21916931
_cell_angle_beta   90.00000000
_cell_angle_gamma   90.00000000
_symmetry_Int_Tables_number   1
_chemical_formula_structural   DyLu3(WO6)2
_chemical_formula_sum   'Dy2 Lu6 W4 O24'
_cell_volume   444.10778278
_cell_formula_units_Z   2
loop_
 _symmetry_equiv_pos_site_id
 _symmetry_equiv_pos_as_xyz
  1  'x, y, z'
loop_
 _atom_site_type_symbol
 _atom_site_label
 _atom_site_symmetry_multiplicity
 _atom_site_fract_x
 _atom_site_fract_y
 _atom_site_fract_z
 _atom_site_occupancy
  Dy  Dy0  1  0.685193  0.500000  0.750000  1
  Dy  Dy1  1  0.314807  0.500000  0.250000  1
  Lu  Lu2  1  0.739601  0.000000  0.750000  1
  Lu  Lu3  1  0.260399  0.000000  0.250000  1
  Lu  Lu4  1  0.186471  0.797382  0.578466  1
  Lu  Lu5  1  0.813529  0.797382  0.078466  1
  Lu  Lu6  1  0.186471  0.202618  0.921534  1
  Lu  Lu7  1  0.813529  0.202618  0.421534  1
  W  W8  1  0.254552  0.724276  0.885920  1
  W  W9  1  0.745448  0.724276  0.385920  1
  W  W10  1  0.254552  0.275724  0.614080  1
  W  W11  1  0.745448  0.275724  0.114080  1
  O  O12  1  0.037840  0.942747  0.895251  1
  O  O13  1  0.535715  0.850195  0.931149  1
  O  O14  1  0.962160  0.942747  0.395251  1
  O  O15  1  0.461650  0.793084  0.725657  1
  O  O16  1  0.464285  0.850195  0.431149  1
  O  O17  1  0.982884  0.713614  0.769061  1
  O  O18  1  0.538350  0.793084  0.225657  1
  O  O19  1  0.856919  0.636127  0.549723  1
  O  O20  1  0.359258  0.486645  0.888049  1
  O  O21  1  0.017116  0.713614  0.269061  1
  O  O22  1  0.359258  0.513355  0.611951  1
  O  O23  1  0.856919  0.363873  0.950277  1
  O  O24  1  0.143081  0.636127  0.049723  1
  O  O25  1  0.640742  0.486645  0.388049  1
  O  O26  1  0.982884  0.286386  0.730939  1
  O  O27  1  0.640742  0.513355  0.111951  1
  O  O28  1  0.143081  0.363873  0.450277  1
  O  O29  1  0.461650  0.206916  0.774343  1
  O  O30  1  0.017116  0.286386  0.230939  1
  O  O31  1  0.535715  0.149805  0.568851  1
  O  O32  1  0.538350  0.206916  0.274343  1
  O  O33  1  0.037840  0.057253  0.604749  1
  O  O34  1  0.464285  0.149805  0.068851  1
  O  O35  1  0.962160  0.057253  0.104749  1
