# generated using pymatgen
data_Pa2Ta4Nb4Al5
_symmetry_space_group_name_H-M   'P 1'
_cell_length_a   9.98729500
_cell_length_b   9.98729500
_cell_length_c   5.49062400
_cell_angle_alpha   90.00000000
_cell_angle_beta   90.00000000
_cell_angle_gamma   90.00000000
_symmetry_Int_Tables_number   1
_chemical_formula_structural   Pa2Ta4Nb4Al5
_chemical_formula_sum   'Pa4 Ta8 Nb8 Al10'
_cell_volume   547.66811872
_cell_formula_units_Z   2
loop_
 _symmetry_equiv_pos_site_id
 _symmetry_equiv_pos_as_xyz
  1  'x, y, z'
loop_
 _atom_site_type_symbol
 _atom_site_label
 _atom_site_symmetry_multiplicity
 _atom_site_fract_x
 _atom_site_fract_y
 _atom_site_fract_z
 _atom_site_occupancy
  Pa  Pa0  1  0.396277  0.396277  0.000000  1
  Pa  Pa1  1  0.896277  0.103723  0.500000  1
  Pa  Pa2  1  0.103723  0.896277  0.500000  1
  Pa  Pa3  1  0.603723  0.603723  0.000000  1
  Ta  Ta4  1  0.183760  0.183760  0.250377  1
  Ta  Ta5  1  0.683760  0.316240  0.750377  1
  Ta  Ta6  1  0.316240  0.683760  0.750377  1
  Ta  Ta7  1  0.816240  0.816240  0.250377  1
  Ta  Ta8  1  0.316240  0.683760  0.249623  1
  Ta  Ta9  1  0.683760  0.316240  0.249623  1
  Ta  Ta10  1  0.183760  0.183760  0.749623  1
  Ta  Ta11  1  0.816240  0.816240  0.749623  1
  Nb  Nb12  1  0.135313  0.462168  0.000000  1
  Nb  Nb13  1  0.962168  0.364687  0.500000  1
  Nb  Nb14  1  0.037832  0.635313  0.500000  1
  Nb  Nb15  1  0.864687  0.537832  0.000000  1
  Nb  Nb16  1  0.364687  0.962168  0.500000  1
  Nb  Nb17  1  0.635313  0.037832  0.500000  1
  Nb  Nb18  1  0.462168  0.135313  0.000000  1
  Nb  Nb19  1  0.537832  0.864687  0.000000  1
  Al  Al20  1  0.000000  0.000000  0.000000  1
  Al  Al21  1  0.500000  0.500000  0.500000  1
  Al  Al22  1  0.268723  0.935947  0.000000  1
  Al  Al23  1  0.435947  0.231277  0.500000  1
  Al  Al24  1  0.564053  0.768723  0.500000  1
  Al  Al25  1  0.731277  0.064053  0.000000  1
  Al  Al26  1  0.231277  0.435947  0.500000  1
  Al  Al27  1  0.768723  0.564053  0.500000  1
  Al  Al28  1  0.935947  0.268723  0.000000  1
  Al  Al29  1  0.064053  0.731277  0.000000  1
