# generated using pymatgen
data_HoTm2TaIn2Ir3
_symmetry_space_group_name_H-M   'P 1'
_cell_length_a   7.33511215
_cell_length_b   7.10064152
_cell_length_c   4.17997800
_cell_angle_alpha   90.00000000
_cell_angle_beta   90.00000000
_cell_angle_gamma   118.94810216
_symmetry_Int_Tables_number   1
_chemical_formula_structural   HoTm2TaIn2Ir3
_chemical_formula_sum   'Ho1 Tm2 Ta1 In2 Ir3'
_cell_volume   190.50896676
_cell_formula_units_Z   1
loop_
 _symmetry_equiv_pos_site_id
 _symmetry_equiv_pos_as_xyz
  1  'x, y, z'
loop_
 _atom_site_type_symbol
 _atom_site_label
 _atom_site_symmetry_multiplicity
 _atom_site_fract_x
 _atom_site_fract_y
 _atom_site_fract_z
 _atom_site_occupancy
  Ho  Ho0  1  0.000000  0.401120  0.000000  1
  Tm  Tm1  1  0.590035  0.587197  0.000000  1
  Tm  Tm2  1  0.409965  0.997163  0.000000  1
  Ta  Ta3  1  0.000000  0.751454  0.500000  1
  In  In4  1  0.253219  0.253588  0.500000  1
  In  In5  1  0.746781  0.000369  0.500000  1
  Ir  Ir6  1  0.000000  0.962553  0.000000  1
  Ir  Ir7  1  0.687335  0.366944  0.500000  1
  Ir  Ir8  1  0.312665  0.679612  0.500000  1
