# generated using pymatgen
data_La2Al20ReIrRu2
_symmetry_space_group_name_H-M   'P 1'
_cell_length_a   6.92277005
_cell_length_b   6.90714268
_cell_length_c   9.23964784
_cell_angle_alpha   90.37335784
_cell_angle_beta   90.06888005
_cell_angle_gamma   96.72727703
_symmetry_Int_Tables_number   1
_chemical_formula_structural   La2Al20ReIrRu2
_chemical_formula_sum   'La2 Al20 Re1 Ir1 Ru2'
_cell_volume   438.75615273
_cell_formula_units_Z   1
loop_
 _symmetry_equiv_pos_site_id
 _symmetry_equiv_pos_as_xyz
  1  'x, y, z'
loop_
 _atom_site_type_symbol
 _atom_site_label
 _atom_site_symmetry_multiplicity
 _atom_site_fract_x
 _atom_site_fract_y
 _atom_site_fract_z
 _atom_site_occupancy
  La  La0  1  0.877167  0.124303  0.750785  1
  La  La1  1  0.122833  0.875697  0.249215  1
  Al  Al2  1  0.619455  0.377159  0.551243  1
  Al  Al3  1  0.380545  0.622841  0.448757  1
  Al  Al4  1  0.377703  0.621970  0.049930  1
  Al  Al5  1  0.622297  0.378030  0.950070  1
  Al  Al6  1  0.229021  0.226173  0.499224  1
  Al  Al7  1  0.770979  0.773827  0.500776  1
  Al  Al8  1  0.770999  0.772851  0.000694  1
  Al  Al9  1  0.229001  0.227149  0.999306  1
  Al  Al10  1  0.837440  0.162126  0.101490  1
  Al  Al11  1  0.162560  0.837874  0.898510  1
  Al  Al12  1  0.164168  0.839899  0.603131  1
  Al  Al13  1  0.835832  0.160101  0.396869  1
  Al  Al14  1  0.859234  0.590348  0.750644  1
  Al  Al15  1  0.140766  0.409652  0.249356  1
  Al  Al16  1  0.410873  0.139326  0.749981  1
  Al  Al17  1  0.589127  0.860674  0.250019  1
  Al  Al18  1  0.221114  0.482627  0.752544  1
  Al  Al19  1  0.778886  0.517373  0.247456  1
  Al  Al20  1  0.517136  0.779183  0.748625  1
  Al  Al21  1  0.482864  0.220817  0.251375  1
  Re  Re22  1  0.000000  0.500000  0.000000  1
  Ir  Ir23  1  0.000000  0.500000  0.500000  1
  Ru  Ru24  1  0.500000  0.000000  0.000000  1
  Ru  Ru25  1  0.500000  0.000000  0.500000  1
