# generated using pymatgen
data_LaSnGeRh3
_symmetry_space_group_name_H-M   'P 1'
_cell_length_a   5.81825553
_cell_length_b   7.03580917
_cell_length_c   7.03580974
_cell_angle_alpha   68.10375890
_cell_angle_beta   65.59238222
_cell_angle_gamma   65.59239621
_symmetry_Int_Tables_number   1
_chemical_formula_structural   LaSnGeRh3
_chemical_formula_sum   'La2 Sn2 Ge2 Rh6'
_cell_volume   231.63119036
_cell_formula_units_Z   2
loop_
 _symmetry_equiv_pos_site_id
 _symmetry_equiv_pos_as_xyz
  1  'x, y, z'
loop_
 _atom_site_type_symbol
 _atom_site_label
 _atom_site_symmetry_multiplicity
 _atom_site_fract_x
 _atom_site_fract_y
 _atom_site_fract_z
 _atom_site_occupancy
  La  La0  1  0.479322  0.772412  0.772412  1
  La  La1  1  0.520678  0.227588  0.227588  1
  Sn  Sn2  1  0.182023  0.569631  0.569631  1
  Sn  Sn3  1  0.817977  0.430369  0.430369  1
  Ge  Ge4  1  0.148494  0.099814  0.099814  1
  Ge  Ge5  1  0.851506  0.900186  0.900186  1
  Rh  Rh6  1  0.500000  0.220946  0.779054  1
  Rh  Rh7  1  0.000000  0.776396  0.223604  1
  Rh  Rh8  1  0.500000  0.779054  0.220946  1
  Rh  Rh9  1  0.000000  0.223604  0.776396  1
  Rh  Rh10  1  0.000000  0.500000  0.000000  1
  Rh  Rh11  1  0.000000  0.000000  0.500000  1
