# generated using pymatgen
data_Yb20Ge3Bi8Sb
_symmetry_space_group_name_H-M   'P 1'
_cell_length_a   8.11304717
_cell_length_b   9.64820800
_cell_length_c   12.79311540
_cell_angle_alpha   90.00000000
_cell_angle_beta   89.77143975
_cell_angle_gamma   90.00000000
_symmetry_Int_Tables_number   1
_chemical_formula_structural   Yb20Ge3Bi8Sb
_chemical_formula_sum   'Yb20 Ge3 Bi8 Sb1'
_cell_volume   1001.39062320
_cell_formula_units_Z   1
loop_
 _symmetry_equiv_pos_site_id
 _symmetry_equiv_pos_as_xyz
  1  'x, y, z'
loop_
 _atom_site_type_symbol
 _atom_site_label
 _atom_site_symmetry_multiplicity
 _atom_site_fract_x
 _atom_site_fract_y
 _atom_site_fract_z
 _atom_site_occupancy
  Yb  Yb0  1  0.824845  0.528699  0.071217  1
  Yb  Yb1  1  0.830944  0.250000  0.784903  1
  Yb  Yb2  1  0.044030  0.750000  0.501078  1
  Yb  Yb3  1  0.358124  0.250000  0.698213  1
  Yb  Yb4  1  0.175715  0.030891  0.927593  1
  Yb  Yb5  1  0.557183  0.250000  0.999829  1
  Yb  Yb6  1  0.856512  0.750000  0.803069  1
  Yb  Yb7  1  0.319272  0.750000  0.728478  1
  Yb  Yb8  1  0.319779  0.457008  0.424186  1
  Yb  Yb9  1  0.672131  0.250000  0.282574  1
  Yb  Yb10  1  0.443790  0.750000  0.002126  1
  Yb  Yb11  1  0.681390  0.520413  0.577462  1
  Yb  Yb12  1  0.943347  0.250000  0.498660  1
  Yb  Yb13  1  0.140702  0.250000  0.195791  1
  Yb  Yb14  1  0.168727  0.750000  0.215004  1
  Yb  Yb15  1  0.175715  0.469109  0.927593  1
  Yb  Yb16  1  0.824845  0.971301  0.071217  1
  Yb  Yb17  1  0.681390  0.979587  0.577462  1
  Yb  Yb18  1  0.319779  0.042992  0.424186  1
  Yb  Yb19  1  0.653249  0.750000  0.290662  1
  Ge  Ge20  1  0.564978  0.250000  0.510085  1
  Ge  Ge21  1  0.065347  0.750000  0.988064  1
  Ge  Ge22  1  0.936702  0.250000  0.010008  1
  Bi  Bi23  1  0.063332  0.009611  0.668355  1
  Bi  Bi24  1  0.938193  0.990279  0.331342  1
  Bi  Bi25  1  0.063332  0.490389  0.668355  1
  Bi  Bi26  1  0.560336  0.991039  0.830528  1
  Bi  Bi27  1  0.439739  0.008761  0.170317  1
  Bi  Bi28  1  0.439739  0.491239  0.170317  1
  Bi  Bi29  1  0.560336  0.508961  0.830528  1
  Bi  Bi30  1  0.938193  0.509721  0.331342  1
  Sb  Sb31  1  0.438303  0.750000  0.489456  1
