# generated using pymatgen
data_Nd3Sm(CuPt)2
_symmetry_space_group_name_H-M   'P 1'
_cell_length_a   4.53151700
_cell_length_b   5.73241463
_cell_length_c   7.44377354
_cell_angle_alpha   89.81740866
_cell_angle_beta   90.00000000
_cell_angle_gamma   90.00000000
_symmetry_Int_Tables_number   1
_chemical_formula_structural   Nd3Sm(CuPt)2
_chemical_formula_sum   'Nd3 Sm1 Cu2 Pt2'
_cell_volume   193.36245715
_cell_formula_units_Z   1
loop_
 _symmetry_equiv_pos_site_id
 _symmetry_equiv_pos_as_xyz
  1  'x, y, z'
loop_
 _atom_site_type_symbol
 _atom_site_label
 _atom_site_symmetry_multiplicity
 _atom_site_fract_x
 _atom_site_fract_y
 _atom_site_fract_z
 _atom_site_occupancy
  Nd  Nd0  1  0.000000  0.117814  0.683524  1
  Nd  Nd1  1  0.000000  0.881517  0.182790  1
  Nd  Nd2  1  0.500000  0.390480  0.315614  1
  Sm  Sm3  1  0.500000  0.608970  0.816023  1
  Cu  Cu4  1  0.500000  0.882220  0.465840  1
  Cu  Cu5  1  0.500000  0.116185  0.961543  1
  Pt  Pt6  1  0.000000  0.620044  0.540842  1
  Pt  Pt7  1  0.000000  0.382770  0.033827  1
