# generated using pymatgen
data_Nb3Tc6GeW2
_symmetry_space_group_name_H-M   'P 1'
_cell_length_a   4.43615200
_cell_length_b   6.32740100
_cell_length_c   13.42671600
_cell_angle_alpha   90.00000000
_cell_angle_beta   89.99992285
_cell_angle_gamma   90.00000000
_symmetry_Int_Tables_number   1
_chemical_formula_structural   Nb3Tc6GeW2
_chemical_formula_sum   'Nb6 Tc12 Ge2 W4'
_cell_volume   376.87868861
_cell_formula_units_Z   2
loop_
 _symmetry_equiv_pos_site_id
 _symmetry_equiv_pos_as_xyz
  1  'x, y, z'
loop_
 _atom_site_type_symbol
 _atom_site_label
 _atom_site_symmetry_multiplicity
 _atom_site_fract_x
 _atom_site_fract_y
 _atom_site_fract_z
 _atom_site_occupancy
  Nb  Nb0  1  0.999971  0.000000  0.996488  1
  Nb  Nb1  1  0.499874  0.500000  0.166075  1
  Nb  Nb2  1  0.999876  0.000000  0.333946  1
  Nb  Nb3  1  0.499975  0.500000  0.503501  1
  Nb  Nb4  1  0.000109  0.000000  0.670735  1
  Nb  Nb5  1  0.500107  0.500000  0.829261  1
  Tc  Tc6  1  0.499999  0.251309  0.000785  1
  Tc  Tc7  1  0.499999  0.748690  0.000785  1
  Tc  Tc8  1  0.999898  0.250115  0.166307  1
  Tc  Tc9  1  0.999898  0.749886  0.166307  1
  Tc  Tc10  1  0.499897  0.249885  0.333710  1
  Tc  Tc11  1  0.499897  0.750116  0.333710  1
  Tc  Tc12  1  0.999998  0.248706  0.499233  1
  Tc  Tc13  1  0.999998  0.751293  0.499233  1
  Tc  Tc14  1  0.500123  0.248708  0.664253  1
  Tc  Tc15  1  0.500123  0.751293  0.664253  1
  Tc  Tc16  1  0.000125  0.251289  0.835720  1
  Tc  Tc17  1  0.000125  0.748712  0.835720  1
  Ge  Ge18  1  0.000142  0.500000  0.668262  1
  Ge  Ge19  1  0.500143  0.000000  0.831743  1
  W  W20  1  0.999987  0.500000  0.998334  1
  W  W21  1  0.499865  0.000000  0.166005  1
  W  W22  1  0.999876  0.500000  0.333972  1
  W  W23  1  0.499988  0.000000  0.501660  1
