# generated using pymatgen
data_CeThSi3Ag
_symmetry_space_group_name_H-M   'P 1'
_cell_length_a   4.12570132
_cell_length_b   4.31323584
_cell_length_c   7.85753701
_cell_angle_alpha   74.06988711
_cell_angle_beta   74.77966675
_cell_angle_gamma   90.00000043
_symmetry_Int_Tables_number   1
_chemical_formula_structural   CeThSi3Ag
_chemical_formula_sum   'Ce1 Th1 Si3 Ag1'
_cell_volume   129.34806620
_cell_formula_units_Z   1
loop_
 _symmetry_equiv_pos_site_id
 _symmetry_equiv_pos_as_xyz
  1  'x, y, z'
loop_
 _atom_site_type_symbol
 _atom_site_label
 _atom_site_symmetry_multiplicity
 _atom_site_fract_x
 _atom_site_fract_y
 _atom_site_fract_z
 _atom_site_occupancy
  Ce  Ce0  1  0.136424  0.386424  0.727153  1
  Th  Th1  1  0.867110  0.617110  0.265781  1
  Si  Si2  1  0.292679  0.042679  0.414643  1
  Si  Si3  1  0.454483  0.204483  0.091033  1
  Si  Si4  1  0.709808  0.959808  0.580381  1
  Ag  Ag5  1  0.539496  0.789496  0.921010  1
