# generated using pymatgen
data_Ca2PrNpO6
_symmetry_space_group_name_H-M   'P 1'
_cell_length_a   6.87785366
_cell_length_b   6.89487167
_cell_length_c   6.86432561
_cell_angle_alpha   91.68495986
_cell_angle_beta   91.20886704
_cell_angle_gamma   91.14918471
_symmetry_Int_Tables_number   1
_chemical_formula_structural   Ca2PrNpO6
_chemical_formula_sum   'Ca4 Pr2 Np2 O12'
_cell_volume   325.23668622
_cell_formula_units_Z   2
loop_
 _symmetry_equiv_pos_site_id
 _symmetry_equiv_pos_as_xyz
  1  'x, y, z'
loop_
 _atom_site_type_symbol
 _atom_site_label
 _atom_site_symmetry_multiplicity
 _atom_site_fract_x
 _atom_site_fract_y
 _atom_site_fract_z
 _atom_site_occupancy
  Ca  Ca0  1  0.553441  0.250978  0.060915  1
  Ca  Ca1  1  0.252613  0.059601  0.554908  1
  Ca  Ca2  1  0.063819  0.556113  0.249896  1
  Ca  Ca3  1  0.442499  0.750405  0.939590  1
  Pr  Pr4  1  0.940041  0.444650  0.749562  1
  Pr  Pr5  1  0.748039  0.939893  0.443688  1
  Np  Np6  1  0.005115  0.000331  0.003988  1
  Np  Np7  1  0.493327  0.498822  0.497435  1
  O  O8  1  0.291555  0.063613  0.930597  1
  O  O9  1  0.065251  0.919116  0.302283  1
  O  O10  1  0.921599  0.299338  0.065358  1
  O  O11  1  0.711877  0.936718  0.076713  1
  O  O12  1  0.937259  0.085255  0.699136  1
  O  O13  1  0.083457  0.699102  0.934899  1
  O  O14  1  0.195159  0.405654  0.533151  1
  O  O15  1  0.415672  0.543095  0.207281  1
  O  O16  1  0.462371  0.799781  0.593346  1
  O  O17  1  0.583316  0.455789  0.790555  1
  O  O18  1  0.798409  0.592608  0.462146  1
  O  O19  1  0.535180  0.199139  0.404551  1
