# generated using pymatgen
data_Ta20AlIr9
_symmetry_space_group_name_H-M   'P 1'
_cell_length_a   9.92852413
_cell_length_b   9.92852317
_cell_length_c   5.15356300
_cell_angle_alpha   90.00000000
_cell_angle_beta   90.00000000
_cell_angle_gamma   90.77286485
_symmetry_Int_Tables_number   1
_chemical_formula_structural   Ta20AlIr9
_chemical_formula_sum   'Ta20 Al1 Ir9'
_cell_volume   507.96925442
_cell_formula_units_Z   1
loop_
 _symmetry_equiv_pos_site_id
 _symmetry_equiv_pos_as_xyz
  1  'x, y, z'
loop_
 _atom_site_type_symbol
 _atom_site_label
 _atom_site_symmetry_multiplicity
 _atom_site_fract_x
 _atom_site_fract_y
 _atom_site_fract_z
 _atom_site_occupancy
  Ta  Ta0  1  0.395712  0.395712  0.000000  1
  Ta  Ta1  1  0.895710  0.104290  0.500000  1
  Ta  Ta2  1  0.104290  0.895710  0.500000  1
  Ta  Ta3  1  0.604288  0.604288  0.000000  1
  Ta  Ta4  1  0.129104  0.462509  0.000000  1
  Ta  Ta5  1  0.964933  0.370442  0.500000  1
  Ta  Ta6  1  0.035067  0.629558  0.500000  1
  Ta  Ta7  1  0.870896  0.537491  0.000000  1
  Ta  Ta8  1  0.370441  0.964933  0.500000  1
  Ta  Ta9  1  0.629559  0.035067  0.500000  1
  Ta  Ta10  1  0.462509  0.129104  0.000000  1
  Ta  Ta11  1  0.537491  0.870896  0.000000  1
  Ta  Ta12  1  0.180501  0.180501  0.251774  1
  Ta  Ta13  1  0.682410  0.317590  0.751117  1
  Ta  Ta14  1  0.317590  0.682410  0.751117  1
  Ta  Ta15  1  0.819499  0.819499  0.251774  1
  Ta  Ta16  1  0.317590  0.682410  0.248883  1
  Ta  Ta17  1  0.682410  0.317590  0.248883  1
  Ta  Ta18  1  0.180501  0.180501  0.748226  1
  Ta  Ta19  1  0.819499  0.819499  0.748226  1
  Al  Al20  1  0.500000  0.500000  0.500000  1
  Ir  Ir21  1  0.000000  0.000000  0.000000  1
  Ir  Ir22  1  0.261483  0.933501  0.000000  1
  Ir  Ir23  1  0.436283  0.240391  0.500000  1
  Ir  Ir24  1  0.563717  0.759609  0.500000  1
  Ir  Ir25  1  0.738517  0.066499  0.000000  1
  Ir  Ir26  1  0.240391  0.436283  0.500000  1
  Ir  Ir27  1  0.759609  0.563717  0.500000  1
  Ir  Ir28  1  0.933501  0.261483  0.000000  1
  Ir  Ir29  1  0.066499  0.738517  0.000000  1
