# generated using pymatgen
data_AgPb(S2O7)2
_symmetry_space_group_name_H-M   'P 1'
_cell_length_a   5.53077799
_cell_length_b   7.67091399
_cell_length_c   9.22504518
_cell_angle_alpha   92.24239540
_cell_angle_beta   89.08834974
_cell_angle_gamma   108.92882202
_symmetry_Int_Tables_number   1
_chemical_formula_structural   AgPb(S2O7)2
_chemical_formula_sum   'Ag1 Pb1 S4 O14'
_cell_volume   369.93216333
_cell_formula_units_Z   1
loop_
 _symmetry_equiv_pos_site_id
 _symmetry_equiv_pos_as_xyz
  1  'x, y, z'
loop_
 _atom_site_type_symbol
 _atom_site_label
 _atom_site_symmetry_multiplicity
 _atom_site_fract_x
 _atom_site_fract_y
 _atom_site_fract_z
 _atom_site_occupancy
  Ag  Ag0  1  0.000000  0.500000  0.000000  1
  Pb  Pb1  1  0.500000  0.000000  0.500000  1
  S  S2  1  0.472530  0.631879  0.772984  1
  S  S3  1  0.527470  0.368121  0.227016  1
  S  S4  1  0.126673  0.261025  0.703737  1
  S  S5  1  0.873327  0.738975  0.296263  1
  O  O6  1  0.632125  0.546141  0.843604  1
  O  O7  1  0.367875  0.453859  0.156396  1
  O  O8  1  0.290533  0.689854  0.867828  1
  O  O9  1  0.709467  0.310146  0.132172  1
  O  O10  1  0.599715  0.777721  0.674352  1
  O  O11  1  0.400285  0.222279  0.325648  1
  O  O12  1  0.284897  0.474080  0.656997  1
  O  O13  1  0.715103  0.525920  0.343003  1
  O  O14  1  0.931534  0.208494  0.591605  1
  O  O15  1  0.068466  0.791506  0.408395  1
  O  O16  1  0.308523  0.159190  0.695446  1
  O  O17  1  0.691477  0.840810  0.304554  1
  O  O18  1  0.031777  0.270386  0.852549  1
  O  O19  1  0.968223  0.729614  0.147451  1
