# generated using pymatgen
data_Dy3Al12FeRu2Rh
_symmetry_space_group_name_H-M   'P 1'
_cell_length_a   8.74268812
_cell_length_b   8.74268836
_cell_length_c   9.51149300
_cell_angle_alpha   90.00000000
_cell_angle_beta   90.00000000
_cell_angle_gamma   119.77000640
_symmetry_Int_Tables_number   1
_chemical_formula_structural   Dy3Al12FeRu2Rh
_chemical_formula_sum   'Dy6 Al24 Fe2 Ru4 Rh2'
_cell_volume   631.06073177
_cell_formula_units_Z   2
loop_
 _symmetry_equiv_pos_site_id
 _symmetry_equiv_pos_as_xyz
  1  'x, y, z'
loop_
 _atom_site_type_symbol
 _atom_site_label
 _atom_site_symmetry_multiplicity
 _atom_site_fract_x
 _atom_site_fract_y
 _atom_site_fract_z
 _atom_site_occupancy
  Dy  Dy0  1  0.193942  0.806058  0.250000  1
  Dy  Dy1  1  0.189642  0.385694  0.250000  1
  Dy  Dy2  1  0.614306  0.810358  0.250000  1
  Dy  Dy3  1  0.806058  0.193942  0.750000  1
  Dy  Dy4  1  0.810358  0.614306  0.750000  1
  Dy  Dy5  1  0.385694  0.189642  0.750000  1
  Al  Al6  1  0.561258  0.438742  0.250000  1
  Al  Al7  1  0.561156  0.124043  0.250000  1
  Al  Al8  1  0.875957  0.438844  0.250000  1
  Al  Al9  1  0.438742  0.561258  0.750000  1
  Al  Al10  1  0.438844  0.875957  0.750000  1
  Al  Al11  1  0.124043  0.561156  0.750000  1
  Al  Al12  1  0.317914  0.157760  0.423115  1
  Al  Al13  1  0.840397  0.159603  0.423630  1
  Al  Al14  1  0.842240  0.682086  0.423115  1
  Al  Al15  1  0.682086  0.842240  0.576885  1
  Al  Al16  1  0.159603  0.840397  0.576370  1
  Al  Al17  1  0.157760  0.317914  0.576885  1
  Al  Al18  1  0.682086  0.842240  0.923115  1
  Al  Al19  1  0.159603  0.840397  0.923630  1
  Al  Al20  1  0.157760  0.317914  0.923115  1
  Al  Al21  1  0.317914  0.157760  0.076885  1
  Al  Al22  1  0.840397  0.159603  0.076370  1
  Al  Al23  1  0.842240  0.682086  0.076885  1
  Al  Al24  1  0.667544  0.332456  0.516706  1
  Al  Al25  1  0.332456  0.667544  0.483294  1
  Al  Al26  1  0.332456  0.667544  0.016706  1
  Al  Al27  1  0.667544  0.332456  0.983294  1
  Al  Al28  1  0.999503  0.000497  0.250000  1
  Al  Al29  1  0.000497  0.999503  0.750000  1
  Fe  Fe30  1  0.000000  0.000000  0.500000  1
  Fe  Fe31  1  0.000000  0.000000  0.000000  1
  Ru  Ru32  1  0.500000  0.000000  0.500000  1
  Ru  Ru33  1  0.000000  0.500000  0.500000  1
  Ru  Ru34  1  0.500000  0.000000  0.000000  1
  Ru  Ru35  1  0.000000  0.500000  0.000000  1
  Rh  Rh36  1  0.500000  0.500000  0.500000  1
  Rh  Rh37  1  0.500000  0.500000  0.000000  1
