# generated using pymatgen
data_Ce6Al24ZnRu7
_symmetry_space_group_name_H-M   'P 1'
_cell_length_a   8.90287441
_cell_length_b   8.90287296
_cell_length_c   9.53342962
_cell_angle_alpha   90.10264068
_cell_angle_beta   89.89736413
_cell_angle_gamma   119.70631277
_symmetry_Int_Tables_number   1
_chemical_formula_structural   Ce6Al24ZnRu7
_chemical_formula_sum   'Ce6 Al24 Zn1 Ru7'
_cell_volume   656.32196891
_cell_formula_units_Z   1
loop_
 _symmetry_equiv_pos_site_id
 _symmetry_equiv_pos_as_xyz
  1  'x, y, z'
loop_
 _atom_site_type_symbol
 _atom_site_label
 _atom_site_symmetry_multiplicity
 _atom_site_fract_x
 _atom_site_fract_y
 _atom_site_fract_z
 _atom_site_occupancy
  Ce  Ce0  1  0.385899  0.192534  0.250662  1
  Ce  Ce1  1  0.805707  0.194293  0.242736  1
  Ce  Ce2  1  0.807466  0.614101  0.250662  1
  Ce  Ce3  1  0.614101  0.807466  0.749338  1
  Ce  Ce4  1  0.194293  0.805707  0.757264  1
  Ce  Ce5  1  0.192534  0.385899  0.749338  1
  Al  Al6  1  0.437383  0.876084  0.250381  1
  Al  Al7  1  0.123916  0.562617  0.250381  1
  Al  Al8  1  0.435657  0.564343  0.243013  1
  Al  Al9  1  0.562617  0.123916  0.749619  1
  Al  Al10  1  0.876084  0.437383  0.749619  1
  Al  Al11  1  0.564343  0.435657  0.756987  1
  Al  Al12  1  0.162678  0.837322  0.422043  1
  Al  Al13  1  0.148565  0.320189  0.419403  1
  Al  Al14  1  0.679811  0.851435  0.419403  1
  Al  Al15  1  0.837322  0.162678  0.577957  1
  Al  Al16  1  0.851435  0.679811  0.580597  1
  Al  Al17  1  0.320189  0.148565  0.580597  1
  Al  Al18  1  0.837541  0.162459  0.920757  1
  Al  Al19  1  0.837786  0.675870  0.924781  1
  Al  Al20  1  0.324130  0.162214  0.924781  1
  Al  Al21  1  0.162459  0.837541  0.079243  1
  Al  Al22  1  0.162214  0.324130  0.075219  1
  Al  Al23  1  0.675870  0.837786  0.075219  1
  Al  Al24  1  0.328579  0.671421  0.521865  1
  Al  Al25  1  0.671421  0.328579  0.478135  1
  Al  Al26  1  0.666238  0.333762  0.016768  1
  Al  Al27  1  0.333762  0.666238  0.983232  1
  Al  Al28  1  0.001077  0.998923  0.249450  1
  Al  Al29  1  0.998923  0.001077  0.750550  1
  Zn  Zn30  1  0.500000  0.500000  0.500000  1
  Ru  Ru31  1  0.000000  0.000000  0.500000  1
  Ru  Ru32  1  0.000000  0.000000  0.000000  1
  Ru  Ru33  1  0.500000  0.000000  0.500000  1
  Ru  Ru34  1  0.000000  0.500000  0.500000  1
  Ru  Ru35  1  0.500000  0.000000  0.000000  1
  Ru  Ru36  1  0.000000  0.500000  0.000000  1
  Ru  Ru37  1  0.500000  0.500000  0.000000  1
