# generated using pymatgen
data_SrLaCd(Si3Pd10)2
_symmetry_space_group_name_H-M   'P 1'
_cell_length_a   8.76119083
_cell_length_b   8.76001425
_cell_length_c   8.75823908
_cell_angle_alpha   59.99472437
_cell_angle_beta   59.99498391
_cell_angle_gamma   59.99762758
_symmetry_Int_Tables_number   1
_chemical_formula_structural   SrLaCd(Si3Pd10)2
_chemical_formula_sum   'Sr1 La1 Cd1 Si6 Pd20'
_cell_volume   475.25662688
_cell_formula_units_Z   1
loop_
 _symmetry_equiv_pos_site_id
 _symmetry_equiv_pos_as_xyz
  1  'x, y, z'
loop_
 _atom_site_type_symbol
 _atom_site_label
 _atom_site_symmetry_multiplicity
 _atom_site_fract_x
 _atom_site_fract_y
 _atom_site_fract_z
 _atom_site_occupancy
  Sr  Sr0  1  0.749970  0.749988  0.750045  1
  La  La1  1  0.250037  0.250022  0.249924  1
  Cd  Cd2  1  0.999998  0.000001  0.000002  1
  Si  Si3  1  0.732360  0.732321  0.267596  1
  Si  Si4  1  0.267633  0.267674  0.732402  1
  Si  Si5  1  0.732324  0.267634  0.732379  1
  Si  Si6  1  0.267693  0.732357  0.267622  1
  Si  Si7  1  0.267625  0.732299  0.732383  1
  Si  Si8  1  0.732370  0.267715  0.267616  1
  Pd  Pd9  1  0.612540  0.612544  0.612585  1
  Pd  Pd10  1  0.385002  0.384994  0.384975  1
  Pd  Pd11  1  0.162343  0.612525  0.612611  1
  Pd  Pd12  1  0.612540  0.162307  0.612613  1
  Pd  Pd13  1  0.845022  0.385000  0.384954  1
  Pd  Pd14  1  0.384983  0.845062  0.384953  1
  Pd  Pd15  1  0.612495  0.612482  0.162571  1
  Pd  Pd16  1  0.385031  0.385046  0.844851  1
  Pd  Pd17  1  0.001403  0.001408  0.655619  1
  Pd  Pd18  1  0.001462  0.001471  0.341504  1
  Pd  Pd19  1  0.341557  0.655622  0.001402  1
  Pd  Pd20  1  0.655594  0.341516  0.001440  1
  Pd  Pd21  1  0.001425  0.655569  0.001425  1
  Pd  Pd22  1  0.655492  0.001469  0.341559  1
  Pd  Pd23  1  0.001441  0.341569  0.001424  1
  Pd  Pd24  1  0.341654  0.001395  0.655568  1
  Pd  Pd25  1  0.655543  0.001449  0.001436  1
  Pd  Pd26  1  0.341601  0.001424  0.001407  1
  Pd  Pd27  1  0.001454  0.655572  0.341513  1
  Pd  Pd28  1  0.001407  0.341566  0.655620  1
