# generated using pymatgen
data_ErLu3TcRu7
_symmetry_space_group_name_H-M   'P 1'
_cell_length_a   5.14991997
_cell_length_b   5.36865918
_cell_length_c   8.93381104
_cell_angle_alpha   89.99999926
_cell_angle_beta   89.99122065
_cell_angle_gamma   121.41526461
_symmetry_Int_Tables_number   1
_chemical_formula_structural   ErLu3TcRu7
_chemical_formula_sum   'Er1 Lu3 Tc1 Ru7'
_cell_volume   210.79572322
_cell_formula_units_Z   1
loop_
 _symmetry_equiv_pos_site_id
 _symmetry_equiv_pos_as_xyz
  1  'x, y, z'
loop_
 _atom_site_type_symbol
 _atom_site_label
 _atom_site_symmetry_multiplicity
 _atom_site_fract_x
 _atom_site_fract_y
 _atom_site_fract_z
 _atom_site_occupancy
  Er  Er0  1  0.330921  0.665461  0.432843  1
  Lu  Lu1  1  0.655590  0.327794  0.567158  1
  Lu  Lu2  1  0.655398  0.327698  0.933776  1
  Lu  Lu3  1  0.331094  0.665548  0.066803  1
  Tc  Tc4  1  0.677268  0.838633  0.750692  1
  Ru  Ru5  1  0.982316  0.991158  0.498988  1
  Ru  Ru6  1  0.981035  0.990517  0.001300  1
  Ru  Ru7  1  0.836605  0.170647  0.248880  1
  Ru  Ru8  1  0.836605  0.665959  0.248880  1
  Ru  Ru9  1  0.354712  0.177357  0.248969  1
  Ru  Ru10  1  0.179228  0.827983  0.750855  1
  Ru  Ru11  1  0.179228  0.351244  0.750855  1
