# generated using pymatgen
data_BaAsRh2Pb
_symmetry_space_group_name_H-M   'P 1'
_cell_length_a   7.37353184
_cell_length_b   7.37353137
_cell_length_c   7.37353082
_cell_angle_alpha   146.29004873
_cell_angle_beta   146.29004962
_cell_angle_gamma   48.41614712
_symmetry_Int_Tables_number   1
_chemical_formula_structural   BaAsRh2Pb
_chemical_formula_sum   'Ba1 As1 Rh2 Pb1'
_cell_volume   122.95833545
_cell_formula_units_Z   1
loop_
 _symmetry_equiv_pos_site_id
 _symmetry_equiv_pos_as_xyz
  1  'x, y, z'
loop_
 _atom_site_type_symbol
 _atom_site_label
 _atom_site_symmetry_multiplicity
 _atom_site_fract_x
 _atom_site_fract_y
 _atom_site_fract_z
 _atom_site_occupancy
  Ba  Ba0  1  0.020413  0.020413  0.000000  1
  As  As1  1  0.647071  0.647071  0.000000  1
  Rh  Rh2  1  0.734776  0.234776  0.500000  1
  Rh  Rh3  1  0.234776  0.734776  0.500000  1
  Pb  Pb4  1  0.362964  0.362964  0.000000  1
