# generated using pymatgen
data_Hf4PtRhC
_symmetry_space_group_name_H-M   'P 1'
_cell_length_a   8.79234600
_cell_length_b   8.79234655
_cell_length_c   8.79234500
_cell_angle_alpha   60.00000206
_cell_angle_beta   60.00000002
_cell_angle_gamma   59.99999988
_symmetry_Int_Tables_number   1
_chemical_formula_structural   Hf4PtRhC
_chemical_formula_sum   'Hf16 Pt4 Rh4 C4'
_cell_volume   480.61718714
_cell_formula_units_Z   4
loop_
 _symmetry_equiv_pos_site_id
 _symmetry_equiv_pos_as_xyz
  1  'x, y, z'
loop_
 _atom_site_type_symbol
 _atom_site_label
 _atom_site_symmetry_multiplicity
 _atom_site_fract_x
 _atom_site_fract_y
 _atom_site_fract_z
 _atom_site_occupancy
  Hf  Hf0  1  0.117520  0.627493  0.627493  1
  Hf  Hf1  1  0.627493  0.117520  0.627493  1
  Hf  Hf2  1  0.627493  0.627493  0.117520  1
  Hf  Hf3  1  0.627493  0.627493  0.627493  1
  Hf  Hf4  1  0.817735  0.817735  0.182265  1
  Hf  Hf5  1  0.182265  0.182265  0.817735  1
  Hf  Hf6  1  0.817735  0.182265  0.817735  1
  Hf  Hf7  1  0.182265  0.817735  0.182265  1
  Hf  Hf8  1  0.182265  0.817735  0.817735  1
  Hf  Hf9  1  0.817735  0.182265  0.182265  1
  Hf  Hf10  1  0.433865  0.433865  0.066135  1
  Hf  Hf11  1  0.066135  0.066135  0.433865  1
  Hf  Hf12  1  0.433865  0.066135  0.433865  1
  Hf  Hf13  1  0.066135  0.433865  0.066135  1
  Hf  Hf14  1  0.066135  0.433865  0.433865  1
  Hf  Hf15  1  0.433865  0.066135  0.066135  1
  Pt  Pt16  1  0.766345  0.411218  0.411218  1
  Pt  Pt17  1  0.411218  0.766345  0.411218  1
  Pt  Pt18  1  0.411218  0.411218  0.766345  1
  Pt  Pt19  1  0.411218  0.411218  0.411218  1
  Rh  Rh20  1  0.481600  0.839467  0.839467  1
  Rh  Rh21  1  0.839467  0.481600  0.839467  1
  Rh  Rh22  1  0.839467  0.839467  0.481600  1
  Rh  Rh23  1  0.839467  0.839467  0.839467  1
  C  C24  1  0.624940  0.125020  0.125020  1
  C  C25  1  0.125020  0.624940  0.125020  1
  C  C26  1  0.125020  0.125020  0.624940  1
  C  C27  1  0.125020  0.125020  0.125020  1
