# generated using pymatgen
data_Zr6Ta4Ga12Os7
_symmetry_space_group_name_H-M   'P 1'
_cell_length_a   8.86584216
_cell_length_b   8.86584272
_cell_length_c   8.86584200
_cell_angle_alpha   59.99999524
_cell_angle_beta   59.99999312
_cell_angle_gamma   59.99999753
_symmetry_Int_Tables_number   1
_chemical_formula_structural   Zr6Ta4Ga12Os7
_chemical_formula_sum   'Zr6 Ta4 Ga12 Os7'
_cell_volume   492.77079542
_cell_formula_units_Z   1
loop_
 _symmetry_equiv_pos_site_id
 _symmetry_equiv_pos_as_xyz
  1  'x, y, z'
loop_
 _atom_site_type_symbol
 _atom_site_label
 _atom_site_symmetry_multiplicity
 _atom_site_fract_x
 _atom_site_fract_y
 _atom_site_fract_z
 _atom_site_occupancy
  Zr  Zr0  1  0.704078  0.704078  0.295922  1
  Zr  Zr1  1  0.295922  0.704078  0.295922  1
  Zr  Zr2  1  0.704078  0.295922  0.295922  1
  Zr  Zr3  1  0.295922  0.295922  0.704078  1
  Zr  Zr4  1  0.704078  0.295922  0.704078  1
  Zr  Zr5  1  0.295922  0.704078  0.704078  1
  Ta  Ta6  1  0.877664  0.877664  0.367009  1
  Ta  Ta7  1  0.877664  0.367009  0.877664  1
  Ta  Ta8  1  0.367009  0.877664  0.877664  1
  Ta  Ta9  1  0.877664  0.877664  0.877664  1
  Ga  Ga10  1  0.120427  0.120427  0.638719  1
  Ga  Ga11  1  0.120427  0.638719  0.120427  1
  Ga  Ga12  1  0.638719  0.120427  0.120427  1
  Ga  Ga13  1  0.120427  0.120427  0.120427  1
  Ga  Ga14  1  0.656644  0.656644  0.030068  1
  Ga  Ga15  1  0.656644  0.030068  0.656644  1
  Ga  Ga16  1  0.030068  0.656644  0.656644  1
  Ga  Ga17  1  0.656644  0.656644  0.656644  1
  Ga  Ga18  1  0.339397  0.339397  0.981810  1
  Ga  Ga19  1  0.339397  0.981810  0.339397  1
  Ga  Ga20  1  0.981810  0.339397  0.339397  1
  Ga  Ga21  1  0.339397  0.339397  0.339397  1
  Os  Os22  1  0.000000  0.000000  0.000000  1
  Os  Os23  1  0.997536  0.997536  0.502464  1
  Os  Os24  1  0.502464  0.997536  0.502464  1
  Os  Os25  1  0.997536  0.502464  0.502464  1
  Os  Os26  1  0.502464  0.502464  0.997536  1
  Os  Os27  1  0.997536  0.502464  0.997536  1
  Os  Os28  1  0.502464  0.997536  0.997536  1
