# generated using pymatgen
data_Er4Tm(SiB4)2
_symmetry_space_group_name_H-M   'P 1'
_cell_length_a   7.17713000
_cell_length_b   7.17713000
_cell_length_c   7.98348200
_cell_angle_alpha   90.00000000
_cell_angle_beta   90.00000000
_cell_angle_gamma   90.00000000
_symmetry_Int_Tables_number   1
_chemical_formula_structural   Er4Tm(SiB4)2
_chemical_formula_sum   'Er8 Tm2 Si4 B16'
_cell_volume   411.23869838
_cell_formula_units_Z   2
loop_
 _symmetry_equiv_pos_site_id
 _symmetry_equiv_pos_as_xyz
  1  'x, y, z'
loop_
 _atom_site_type_symbol
 _atom_site_label
 _atom_site_symmetry_multiplicity
 _atom_site_fract_x
 _atom_site_fract_y
 _atom_site_fract_z
 _atom_site_occupancy
  Er  Er0  1  0.680177  0.180177  0.224444  1
  Er  Er1  1  0.319823  0.819823  0.775556  1
  Er  Er2  1  0.319823  0.819823  0.224444  1
  Er  Er3  1  0.819823  0.680177  0.224444  1
  Er  Er4  1  0.819823  0.680177  0.775556  1
  Er  Er5  1  0.680177  0.180177  0.775556  1
  Er  Er6  1  0.180177  0.319823  0.775556  1
  Er  Er7  1  0.180177  0.319823  0.224444  1
  Tm  Tm8  1  0.000000  0.000000  0.500000  1
  Tm  Tm9  1  0.500000  0.500000  0.500000  1
  Si  Si10  1  0.116032  0.616032  0.500000  1
  Si  Si11  1  0.883968  0.383968  0.500000  1
  Si  Si12  1  0.383968  0.116032  0.500000  1
  Si  Si13  1  0.616032  0.883968  0.500000  1
  B  B14  1  0.172900  0.039095  0.000000  1
  B  B15  1  0.827100  0.960905  0.000000  1
  B  B16  1  0.960905  0.172900  0.000000  1
  B  B17  1  0.327100  0.539095  0.000000  1
  B  B18  1  0.039095  0.827100  0.000000  1
  B  B19  1  0.672900  0.460905  0.000000  1
  B  B20  1  0.539095  0.672900  0.000000  1
  B  B21  1  0.460905  0.327100  0.000000  1
  B  B22  1  0.089376  0.589376  0.000000  1
  B  B23  1  0.910624  0.410624  0.000000  1
  B  B24  1  0.410624  0.089376  0.000000  1
  B  B25  1  0.589376  0.910624  0.000000  1
  B  B26  1  0.000000  0.000000  0.165081  1
  B  B27  1  0.000000  0.000000  0.834919  1
  B  B28  1  0.500000  0.500000  0.834919  1
  B  B29  1  0.500000  0.500000  0.165081  1
