# generated using pymatgen
data_Tl(V3Se4)4
_symmetry_space_group_name_H-M   'P 1'
_cell_length_a   10.27885215
_cell_length_b   10.27885362
_cell_length_c   9.71081400
_cell_angle_alpha   61.75893817
_cell_angle_beta   61.75890847
_cell_angle_gamma   38.08347713
_symmetry_Int_Tables_number   1
_chemical_formula_structural   Tl(V3Se4)4
_chemical_formula_sum   'Tl1 V12 Se16'
_cell_volume   547.84799324
_cell_formula_units_Z   1
loop_
 _symmetry_equiv_pos_site_id
 _symmetry_equiv_pos_as_xyz
  1  'x, y, z'
loop_
 _atom_site_type_symbol
 _atom_site_label
 _atom_site_symmetry_multiplicity
 _atom_site_fract_x
 _atom_site_fract_y
 _atom_site_fract_z
 _atom_site_occupancy
  Tl  Tl0  1  0.374845  0.374846  0.999355  1
  V  V1  1  0.929065  0.929070  0.510119  1
  V  V2  1  0.428790  0.428782  0.514793  1
  V  V3  1  0.130462  0.130477  0.383008  1
  V  V4  1  0.632053  0.632037  0.375983  1
  V  V5  1  0.062941  0.062954  0.109709  1
  V  V6  1  0.566677  0.566663  0.105912  1
  V  V7  1  0.068096  0.574409  0.492628  1
  V  V8  1  0.574408  0.068098  0.492629  1
  V  V9  1  0.881262  0.361049  0.615387  1
  V  V10  1  0.361046  0.881264  0.615389  1
  V  V11  1  0.923686  0.441640  0.892335  1
  V  V12  1  0.441641  0.923683  0.892337  1
  Se  Se13  1  0.522655  0.522654  0.650100  1
  Se  Se14  1  0.017226  0.017230  0.657813  1
  Se  Se15  1  0.704023  0.704012  0.057210  1
  Se  Se16  1  0.199939  0.199953  0.055280  1
  Se  Se17  1  0.403229  0.403227  0.292871  1
  Se  Se18  1  0.902762  0.902766  0.287147  1
  Se  Se19  1  0.483437  0.982921  0.340125  1
  Se  Se20  1  0.982923  0.483440  0.340125  1
  Se  Se21  1  0.294020  0.796082  0.943438  1
  Se  Se22  1  0.796083  0.294021  0.943432  1
  Se  Se23  1  0.599445  0.094440  0.716423  1
  Se  Se24  1  0.094447  0.599443  0.716423  1
  Se  Se25  1  0.707387  0.707388  0.665465  1
  Se  Se26  1  0.209143  0.209142  0.668018  1
  Se  Se27  1  0.291677  0.791632  0.333273  1
  Se  Se28  1  0.791631  0.291678  0.333273  1
