# generated using pymatgen
data_Yb9Pr2HoRu4
_symmetry_space_group_name_H-M   'P 1'
_cell_length_a   6.24087339
_cell_length_b   7.60181270
_cell_length_c   9.28304201
_cell_angle_alpha   89.92898038
_cell_angle_beta   89.78768009
_cell_angle_gamma   89.52684588
_symmetry_Int_Tables_number   1
_chemical_formula_structural   Yb9Pr2HoRu4
_chemical_formula_sum   'Yb9 Pr2 Ho1 Ru4'
_cell_volume   440.38725823
_cell_formula_units_Z   1
loop_
 _symmetry_equiv_pos_site_id
 _symmetry_equiv_pos_as_xyz
  1  'x, y, z'
loop_
 _atom_site_type_symbol
 _atom_site_label
 _atom_site_symmetry_multiplicity
 _atom_site_fract_x
 _atom_site_fract_y
 _atom_site_fract_z
 _atom_site_occupancy
  Yb  Yb0  1  0.154754  0.168723  0.434641  1
  Yb  Yb1  1  0.651731  0.334358  0.566591  1
  Yb  Yb2  1  0.847502  0.826062  0.935254  1
  Yb  Yb3  1  0.655506  0.330130  0.936350  1
  Yb  Yb4  1  0.847848  0.830901  0.568456  1
  Yb  Yb5  1  0.345919  0.671281  0.432953  1
  Yb  Yb6  1  0.871045  0.539386  0.248378  1
  Yb  Yb7  1  0.630318  0.035131  0.248824  1
  Yb  Yb8  1  0.126233  0.459178  0.751340  1
  Pr  Pr9  1  0.156500  0.169327  0.067416  1
  Pr  Pr10  1  0.376943  0.962565  0.751458  1
  Ho  Ho11  1  0.346981  0.666049  0.066430  1
  Ru  Ru12  1  0.062016  0.875267  0.240705  1
  Ru  Ru13  1  0.448556  0.383864  0.242806  1
  Ru  Ru14  1  0.953319  0.118930  0.749431  1
  Ru  Ru15  1  0.524827  0.628847  0.758966  1
