# generated using pymatgen
data_Cs4VReBr12
_symmetry_space_group_name_H-M   'P 1'
_cell_length_a   7.87546300
_cell_length_b   7.87856800
_cell_length_c   10.81429700
_cell_angle_alpha   90.00000000
_cell_angle_beta   90.00000000
_cell_angle_gamma   90.00000000
_symmetry_Int_Tables_number   1
_chemical_formula_structural   Cs4VReBr12
_chemical_formula_sum   'Cs4 V1 Re1 Br12'
_cell_volume   670.99869565
_cell_formula_units_Z   1
loop_
 _symmetry_equiv_pos_site_id
 _symmetry_equiv_pos_as_xyz
  1  'x, y, z'
loop_
 _atom_site_type_symbol
 _atom_site_label
 _atom_site_symmetry_multiplicity
 _atom_site_fract_x
 _atom_site_fract_y
 _atom_site_fract_z
 _atom_site_occupancy
  Cs  Cs0  1  0.500000  0.000000  0.756667  1
  Cs  Cs1  1  0.000000  0.500000  0.243380  1
  Cs  Cs2  1  0.500000  0.000000  0.243333  1
  Cs  Cs3  1  0.000000  0.500000  0.756620  1
  V  V4  1  0.000000  0.000000  0.000000  1
  Re  Re5  1  0.500000  0.500000  0.500000  1
  Br  Br6  1  0.000000  0.000000  0.770045  1
  Br  Br7  1  0.500000  0.500000  0.265414  1
  Br  Br8  1  0.728304  0.728050  0.500000  1
  Br  Br9  1  0.225889  0.226306  0.000000  1
  Br  Br10  1  0.728304  0.271950  0.500000  1
  Br  Br11  1  0.225889  0.773694  0.000000  1
  Br  Br12  1  0.000000  0.000000  0.229955  1
  Br  Br13  1  0.500000  0.500000  0.734586  1
  Br  Br14  1  0.271696  0.271950  0.500000  1
  Br  Br15  1  0.774111  0.773694  0.000000  1
  Br  Br16  1  0.271696  0.728050  0.500000  1
  Br  Br17  1  0.774111  0.226306  0.000000  1
