# generated using pymatgen
data_K(MnSe2)12
_symmetry_space_group_name_H-M   'P 1'
_cell_length_a   10.69624991
_cell_length_b   10.67717566
_cell_length_c   10.57583858
_cell_angle_alpha   109.64799507
_cell_angle_beta   109.59535652
_cell_angle_gamma   68.89415486
_symmetry_Int_Tables_number   1
_chemical_formula_structural   K(MnSe2)12
_chemical_formula_sum   'K1 Mn12 Se24'
_cell_volume   1029.14065248
_cell_formula_units_Z   1
loop_
 _symmetry_equiv_pos_site_id
 _symmetry_equiv_pos_as_xyz
  1  'x, y, z'
loop_
 _atom_site_type_symbol
 _atom_site_label
 _atom_site_symmetry_multiplicity
 _atom_site_fract_x
 _atom_site_fract_y
 _atom_site_fract_z
 _atom_site_occupancy
  K  K0  1  0.000000  0.500000  0.000000  1
  Mn  Mn1  1  0.498071  0.500846  0.666153  1
  Mn  Mn2  1  0.999076  0.999059  0.664812  1
  Mn  Mn3  1  0.747360  0.247510  0.831259  1
  Mn  Mn4  1  0.250270  0.752898  0.833711  1
  Mn  Mn5  1  0.500000  0.500000  0.000000  1
  Mn  Mn6  1  0.000000  0.000000  0.000000  1
  Mn  Mn7  1  0.749730  0.247102  0.166289  1
  Mn  Mn8  1  0.252640  0.752490  0.168741  1
  Mn  Mn9  1  0.501929  0.499154  0.333847  1
  Mn  Mn10  1  0.000924  0.000941  0.335188  1
  Mn  Mn11  1  0.748986  0.247449  0.498006  1
  Mn  Mn12  1  0.251014  0.752551  0.501994  1
  Se  Se13  1  0.492382  0.329004  0.772631  1
  Se  Se14  1  0.994887  0.828647  0.773433  1
  Se  Se15  1  0.743616  0.076835  0.939113  1
  Se  Se16  1  0.245857  0.581219  0.940460  1
  Se  Se17  1  0.753185  0.418891  0.723901  1
  Se  Se18  1  0.255631  0.923092  0.727231  1
  Se  Se19  1  0.493593  0.328887  0.106534  1
  Se  Se20  1  0.995483  0.831337  0.108277  1
  Se  Se21  1  0.004517  0.168663  0.891723  1
  Se  Se22  1  0.506407  0.671113  0.893466  1
  Se  Se23  1  0.246815  0.581109  0.276099  1
  Se  Se24  1  0.744369  0.076908  0.272769  1
  Se  Se25  1  0.754143  0.418781  0.059540  1
  Se  Se26  1  0.256384  0.923165  0.060887  1
  Se  Se27  1  0.493089  0.328927  0.439372  1
  Se  Se28  1  0.994992  0.828830  0.439907  1
  Se  Se29  1  0.005113  0.171353  0.226567  1
  Se  Se30  1  0.507618  0.670996  0.227369  1
  Se  Se31  1  0.243719  0.581276  0.607300  1
  Se  Se32  1  0.742979  0.076789  0.604994  1
  Se  Se33  1  0.756281  0.418724  0.392700  1
  Se  Se34  1  0.257021  0.923211  0.395006  1
  Se  Se35  1  0.005008  0.171170  0.560093  1
  Se  Se36  1  0.506911  0.671073  0.560628  1
