# generated using pymatgen
data_K3Ba3DySb4
_symmetry_space_group_name_H-M   'P 1'
_cell_length_a   11.42792600
_cell_length_b   11.42792630
_cell_length_c   8.62130600
_cell_angle_alpha   90.00000000
_cell_angle_beta   90.00000000
_cell_angle_gamma   120.00000491
_symmetry_Int_Tables_number   1
_chemical_formula_structural   K3Ba3DySb4
_chemical_formula_sum   'K6 Ba6 Dy2 Sb8'
_cell_volume   975.07612029
_cell_formula_units_Z   2
loop_
 _symmetry_equiv_pos_site_id
 _symmetry_equiv_pos_as_xyz
  1  'x, y, z'
loop_
 _atom_site_type_symbol
 _atom_site_label
 _atom_site_symmetry_multiplicity
 _atom_site_fract_x
 _atom_site_fract_y
 _atom_site_fract_z
 _atom_site_occupancy
  K  K0  1  0.864090  0.728181  0.952231  1
  K  K1  1  0.864090  0.135910  0.952231  1
  K  K2  1  0.135910  0.271819  0.452231  1
  K  K3  1  0.271819  0.135910  0.952231  1
  K  K4  1  0.135910  0.864090  0.452231  1
  K  K5  1  0.728181  0.864090  0.452231  1
  Ba  Ba6  1  0.471287  0.942573  0.778709  1
  Ba  Ba7  1  0.471287  0.528713  0.778709  1
  Ba  Ba8  1  0.528713  0.057427  0.278709  1
  Ba  Ba9  1  0.057427  0.528713  0.778709  1
  Ba  Ba10  1  0.528713  0.471287  0.278709  1
  Ba  Ba11  1  0.942573  0.471287  0.278709  1
  Dy  Dy12  1  0.666667  0.333333  0.668656  1
  Dy  Dy13  1  0.333333  0.666667  0.168656  1
  Sb  Sb14  1  0.666667  0.333333  0.017636  1
  Sb  Sb15  1  0.333333  0.666667  0.517636  1
  Sb  Sb16  1  0.807875  0.615750  0.549096  1
  Sb  Sb17  1  0.807875  0.192125  0.549096  1
  Sb  Sb18  1  0.192125  0.384250  0.049096  1
  Sb  Sb19  1  0.384250  0.192125  0.549096  1
  Sb  Sb20  1  0.192125  0.807875  0.049096  1
  Sb  Sb21  1  0.615750  0.807875  0.049096  1
