# generated using pymatgen
data_PrTmSiPd14
_symmetry_space_group_name_H-M   'P 1'
_cell_length_a   8.95667000
_cell_length_b   8.95667000
_cell_length_c   7.09635400
_cell_angle_alpha   90.00000000
_cell_angle_beta   90.00000000
_cell_angle_gamma   90.00000000
_symmetry_Int_Tables_number   1
_chemical_formula_structural   PrTmSiPd14
_chemical_formula_sum   'Pr2 Tm2 Si2 Pd28'
_cell_volume   569.28326699
_cell_formula_units_Z   2
loop_
 _symmetry_equiv_pos_site_id
 _symmetry_equiv_pos_as_xyz
  1  'x, y, z'
loop_
 _atom_site_type_symbol
 _atom_site_label
 _atom_site_symmetry_multiplicity
 _atom_site_fract_x
 _atom_site_fract_y
 _atom_site_fract_z
 _atom_site_occupancy
  Pr  Pr0  1  0.500000  0.000000  0.939644  1
  Pr  Pr1  1  0.000000  0.500000  0.060356  1
  Tm  Tm2  1  0.000000  0.000000  0.500000  1
  Tm  Tm3  1  0.500000  0.500000  0.500000  1
  Si  Si4  1  0.500000  0.000000  0.448648  1
  Si  Si5  1  0.000000  0.500000  0.551352  1
  Pd  Pd6  1  0.334009  0.834009  0.614802  1
  Pd  Pd7  1  0.334009  0.165991  0.614802  1
  Pd  Pd8  1  0.665991  0.834009  0.614802  1
  Pd  Pd9  1  0.665991  0.165991  0.614802  1
  Pd  Pd10  1  0.165991  0.665991  0.385198  1
  Pd  Pd11  1  0.165991  0.334009  0.385198  1
  Pd  Pd12  1  0.834009  0.665991  0.385198  1
  Pd  Pd13  1  0.834009  0.334009  0.385198  1
  Pd  Pd14  1  0.500000  0.767206  0.261680  1
  Pd  Pd15  1  0.500000  0.232794  0.261680  1
  Pd  Pd16  1  0.267206  0.000000  0.261680  1
  Pd  Pd17  1  0.732794  0.000000  0.261680  1
  Pd  Pd18  1  0.000000  0.732794  0.738320  1
  Pd  Pd19  1  0.000000  0.267206  0.738320  1
  Pd  Pd20  1  0.232794  0.500000  0.738320  1
  Pd  Pd21  1  0.767206  0.500000  0.738320  1
  Pd  Pd22  1  0.500000  0.350290  0.851688  1
  Pd  Pd23  1  0.500000  0.649710  0.851688  1
  Pd  Pd24  1  0.850290  0.000000  0.851688  1
  Pd  Pd25  1  0.149710  0.000000  0.851688  1
  Pd  Pd26  1  0.000000  0.149710  0.148312  1
  Pd  Pd27  1  0.000000  0.850290  0.148312  1
  Pd  Pd28  1  0.649710  0.500000  0.148312  1
  Pd  Pd29  1  0.350290  0.500000  0.148312  1
  Pd  Pd30  1  0.250000  0.750000  0.000000  1
  Pd  Pd31  1  0.250000  0.250000  0.000000  1
  Pd  Pd32  1  0.750000  0.750000  0.000000  1
  Pd  Pd33  1  0.750000  0.250000  0.000000  1
