# generated using pymatgen
data_V12Si3Pd
_symmetry_space_group_name_H-M   'P 1'
_cell_length_a   4.74161000
_cell_length_b   4.72237700
_cell_length_c   9.48346200
_cell_angle_alpha   90.00000000
_cell_angle_beta   90.00000000
_cell_angle_gamma   90.00000000
_symmetry_Int_Tables_number   1
_chemical_formula_structural   V12Si3Pd
_chemical_formula_sum   'V12 Si3 Pd1'
_cell_volume   212.35055163
_cell_formula_units_Z   1
loop_
 _symmetry_equiv_pos_site_id
 _symmetry_equiv_pos_as_xyz
  1  'x, y, z'
loop_
 _atom_site_type_symbol
 _atom_site_label
 _atom_site_symmetry_multiplicity
 _atom_site_fract_x
 _atom_site_fract_y
 _atom_site_fract_z
 _atom_site_occupancy
  V  V0  1  0.000000  0.500000  0.121964  1
  V  V1  1  0.000000  0.500000  0.629869  1
  V  V2  1  0.500000  0.246179  0.744884  1
  V  V3  1  0.500000  0.246179  0.255116  1
  V  V4  1  0.753408  0.000000  0.000000  1
  V  V5  1  0.751813  0.000000  0.500000  1
  V  V6  1  0.000000  0.500000  0.878036  1
  V  V7  1  0.000000  0.500000  0.370131  1
  V  V8  1  0.500000  0.753821  0.744884  1
  V  V9  1  0.500000  0.753821  0.255116  1
  V  V10  1  0.246592  0.000000  0.000000  1
  V  V11  1  0.248187  0.000000  0.500000  1
  Si  Si12  1  0.500000  0.500000  0.500000  1
  Si  Si13  1  0.000000  0.000000  0.747229  1
  Si  Si14  1  0.000000  0.000000  0.252771  1
  Pd  Pd15  1  0.500000  0.500000  0.000000  1
