# generated using pymatgen
data_Yb2B8OsRu6
_symmetry_space_group_name_H-M   'P 1'
_cell_length_a   6.43387300
_cell_length_b   6.43387300
_cell_length_c   10.05501100
_cell_angle_alpha   90.00000000
_cell_angle_beta   90.00000000
_cell_angle_gamma   90.00000000
_symmetry_Int_Tables_number   1
_chemical_formula_structural   Yb2B8OsRu6
_chemical_formula_sum   'Yb4 B16 Os2 Ru12'
_cell_volume   416.22438284
_cell_formula_units_Z   2
loop_
 _symmetry_equiv_pos_site_id
 _symmetry_equiv_pos_as_xyz
  1  'x, y, z'
loop_
 _atom_site_type_symbol
 _atom_site_label
 _atom_site_symmetry_multiplicity
 _atom_site_fract_x
 _atom_site_fract_y
 _atom_site_fract_z
 _atom_site_occupancy
  Yb  Yb0  1  0.733032  0.883444  0.000000  1
  Yb  Yb1  1  0.116556  0.733032  0.500000  1
  Yb  Yb2  1  0.883444  0.266968  0.500000  1
  Yb  Yb3  1  0.266968  0.116556  0.000000  1
  B  B4  1  0.500000  0.000000  0.588640  1
  B  B5  1  0.500000  0.000000  0.411360  1
  B  B6  1  0.899152  0.270869  0.163852  1
  B  B7  1  0.100848  0.729131  0.836148  1
  B  B8  1  0.500000  0.500000  0.340505  1
  B  B9  1  0.500000  0.500000  0.840505  1
  B  B10  1  0.270869  0.100848  0.663852  1
  B  B11  1  0.100848  0.729131  0.163852  1
  B  B12  1  0.270869  0.100848  0.336148  1
  B  B13  1  0.899152  0.270869  0.836148  1
  B  B14  1  0.500000  0.500000  0.659495  1
  B  B15  1  0.500000  0.500000  0.159495  1
  B  B16  1  0.000000  0.500000  0.911360  1
  B  B17  1  0.729131  0.899152  0.663852  1
  B  B18  1  0.729131  0.899152  0.336148  1
  B  B19  1  0.000000  0.500000  0.088640  1
  Os  Os20  1  0.000000  0.000000  0.250000  1
  Os  Os21  1  0.000000  0.000000  0.750000  1
  Ru  Ru22  1  0.204491  0.392889  0.755289  1
  Ru  Ru23  1  0.406085  0.288792  0.500000  1
  Ru  Ru24  1  0.392889  0.795509  0.255289  1
  Ru  Ru25  1  0.204491  0.392889  0.244711  1
  Ru  Ru26  1  0.593915  0.711208  0.500000  1
  Ru  Ru27  1  0.607111  0.204491  0.744711  1
  Ru  Ru28  1  0.288792  0.593915  0.000000  1
  Ru  Ru29  1  0.711208  0.406085  0.000000  1
  Ru  Ru30  1  0.795509  0.607111  0.244711  1
  Ru  Ru31  1  0.795509  0.607111  0.755289  1
  Ru  Ru32  1  0.392889  0.795509  0.744711  1
  Ru  Ru33  1  0.607111  0.204491  0.255289  1
