# generated using pymatgen
data_Rb8Li4HoEr3Sb8
_symmetry_space_group_name_H-M   'P 1'
_cell_length_a   11.19465919
_cell_length_b   11.19466230
_cell_length_c   7.22517600
_cell_angle_alpha   90.01632690
_cell_angle_beta   89.98367044
_cell_angle_gamma   99.66483868
_symmetry_Int_Tables_number   1
_chemical_formula_structural   Rb8Li4HoEr3Sb8
_chemical_formula_sum   'Rb8 Li4 Ho1 Er3 Sb8'
_cell_volume   892.61058384
_cell_formula_units_Z   1
loop_
 _symmetry_equiv_pos_site_id
 _symmetry_equiv_pos_as_xyz
  1  'x, y, z'
loop_
 _atom_site_type_symbol
 _atom_site_label
 _atom_site_symmetry_multiplicity
 _atom_site_fract_x
 _atom_site_fract_y
 _atom_site_fract_z
 _atom_site_occupancy
  Rb  Rb0  1  0.570685  0.929411  0.750081  1
  Rb  Rb1  1  0.929411  0.570685  0.249919  1
  Rb  Rb2  1  0.429411  0.070307  0.249969  1
  Rb  Rb3  1  0.070307  0.429411  0.750031  1
  Rb  Rb4  1  0.676940  0.323216  0.786413  1
  Rb  Rb5  1  0.823206  0.176657  0.286316  1
  Rb  Rb6  1  0.323216  0.676940  0.213587  1
  Rb  Rb7  1  0.176657  0.823206  0.713684  1
  Li  Li8  1  0.620920  0.620920  0.000000  1
  Li  Li9  1  0.879248  0.879248  0.500000  1
  Li  Li10  1  0.379484  0.379484  0.000000  1
  Li  Li11  1  0.120430  0.120430  0.500000  1
  Ho  Ho12  1  0.369504  0.369504  0.500000  1
  Er  Er13  1  0.869525  0.869525  0.000000  1
  Er  Er14  1  0.630587  0.630587  0.500000  1
  Er  Er15  1  0.130366  0.130366  0.000000  1
  Sb  Sb16  1  0.346021  0.153325  0.750710  1
  Sb  Sb17  1  0.153325  0.346021  0.249290  1
  Sb  Sb18  1  0.654093  0.846070  0.249975  1
  Sb  Sb19  1  0.846070  0.654093  0.750025  1
  Sb  Sb20  1  0.905910  0.093891  0.762638  1
  Sb  Sb21  1  0.594587  0.406208  0.262330  1
  Sb  Sb22  1  0.093891  0.905910  0.237362  1
  Sb  Sb23  1  0.406208  0.594587  0.737670  1
