# generated using pymatgen
data_Tm10Ga3CuBi2
_symmetry_space_group_name_H-M   'P 1'
_cell_length_a   8.48005233
_cell_length_b   8.48005235
_cell_length_c   8.65094131
_cell_angle_alpha   124.13035853
_cell_angle_beta   124.13036242
_cell_angle_gamma   81.67608700
_symmetry_Int_Tables_number   1
_chemical_formula_structural   Tm10Ga3CuBi2
_chemical_formula_sum   'Tm10 Ga3 Cu1 Bi2'
_cell_volume   412.92401554
_cell_formula_units_Z   1
loop_
 _symmetry_equiv_pos_site_id
 _symmetry_equiv_pos_as_xyz
  1  'x, y, z'
loop_
 _atom_site_type_symbol
 _atom_site_label
 _atom_site_symmetry_multiplicity
 _atom_site_fract_x
 _atom_site_fract_y
 _atom_site_fract_z
 _atom_site_occupancy
  Tm  Tm0  1  0.996046  0.998548  0.994596  1
  Tm  Tm1  1  0.501452  0.503954  0.005404  1
  Tm  Tm2  1  0.786045  0.295337  0.797167  1
  Tm  Tm3  1  0.204663  0.713955  0.202833  1
  Tm  Tm4  1  0.488878  0.998169  0.202833  1
  Tm  Tm5  1  0.297039  0.470645  0.500000  1
  Tm  Tm6  1  0.029355  0.202961  0.500000  1
  Tm  Tm7  1  0.501831  0.011122  0.797167  1
  Tm  Tm8  1  0.707127  0.513511  0.500000  1
  Tm  Tm9  1  0.986489  0.792873  0.500000  1
  Ga  Ga10  1  0.149465  0.648820  0.798286  1
  Ga  Ga11  1  0.851180  0.350535  0.201714  1
  Ga  Ga12  1  0.637784  0.862216  0.500000  1
  Cu  Cu13  1  0.369247  0.130753  0.500000  1
  Bi  Bi14  1  0.246700  0.253300  0.000000  1
  Bi  Bi15  1  0.746700  0.753300  0.000000  1
