# generated using pymatgen
data_Li2DyHoSi3
_symmetry_space_group_name_H-M   'P 1'
_cell_length_a   9.26057761
_cell_length_b   9.26057680
_cell_length_c   6.68867900
_cell_angle_alpha   90.00000000
_cell_angle_beta   90.00000000
_cell_angle_gamma   153.55053561
_symmetry_Int_Tables_number   1
_chemical_formula_structural   Li2DyHoSi3
_chemical_formula_sum   'Li4 Dy2 Ho2 Si6'
_cell_volume   255.49050762
_cell_formula_units_Z   2
loop_
 _symmetry_equiv_pos_site_id
 _symmetry_equiv_pos_as_xyz
  1  'x, y, z'
loop_
 _atom_site_type_symbol
 _atom_site_label
 _atom_site_symmetry_multiplicity
 _atom_site_fract_x
 _atom_site_fract_y
 _atom_site_fract_z
 _atom_site_occupancy
  Li  Li0  1  0.190235  0.809765  0.059958  1
  Li  Li1  1  0.190235  0.809765  0.440042  1
  Li  Li2  1  0.809765  0.190235  0.940042  1
  Li  Li3  1  0.809765  0.190235  0.559958  1
  Dy  Dy4  1  0.552870  0.447130  0.250000  1
  Dy  Dy5  1  0.447130  0.552870  0.750000  1
  Ho  Ho6  1  0.345041  0.654959  0.250000  1
  Ho  Ho7  1  0.654959  0.345041  0.750000  1
  Si  Si8  1  0.721112  0.278888  0.250000  1
  Si  Si9  1  0.278888  0.721112  0.750000  1
  Si  Si10  1  0.059462  0.940538  0.927430  1
  Si  Si11  1  0.940538  0.059462  0.072570  1
  Si  Si12  1  0.940538  0.059462  0.427430  1
  Si  Si13  1  0.059462  0.940538  0.572570  1
