# generated using pymatgen
data_RbTmP2S7
_symmetry_space_group_name_H-M   'P 1'
_cell_length_a   6.75985373
_cell_length_b   6.75985381
_cell_length_c   6.91511000
_cell_angle_alpha   98.09879518
_cell_angle_beta   98.09880383
_cell_angle_gamma   97.07082364
_symmetry_Int_Tables_number   1
_chemical_formula_structural   RbTmP2S7
_chemical_formula_sum   'Rb1 Tm1 P2 S7'
_cell_volume   306.40734245
_cell_formula_units_Z   1
loop_
 _symmetry_equiv_pos_site_id
 _symmetry_equiv_pos_as_xyz
  1  'x, y, z'
loop_
 _atom_site_type_symbol
 _atom_site_label
 _atom_site_symmetry_multiplicity
 _atom_site_fract_x
 _atom_site_fract_y
 _atom_site_fract_z
 _atom_site_occupancy
  Rb  Rb0  1  0.006632  0.993367  0.500000  1
  Tm  Tm1  1  0.498230  0.501771  0.000000  1
  P  P2  1  0.048826  0.354187  0.089350  1
  P  P3  1  0.645813  0.951174  0.910649  1
  S  S4  1  0.969323  0.030678  0.000000  1
  S  S5  1  0.529488  0.897124  0.155732  1
  S  S6  1  0.842775  0.469217  0.242737  1
  S  S7  1  0.308409  0.364675  0.280581  1
  S  S8  1  0.635325  0.691591  0.719420  1
  S  S9  1  0.530783  0.157225  0.757262  1
  S  S10  1  0.102875  0.470511  0.844268  1
