# generated using pymatgen
data_Er4Zr5NbSi8
_symmetry_space_group_name_H-M   'P 1'
_cell_length_a   7.27204640
_cell_length_b   7.05252195
_cell_length_c   7.25020718
_cell_angle_alpha   72.08446034
_cell_angle_beta   89.94532353
_cell_angle_gamma   89.96847582
_symmetry_Int_Tables_number   1
_chemical_formula_structural   Er4Zr5NbSi8
_chemical_formula_sum   'Er4 Zr5 Nb1 Si8'
_cell_volume   353.80593046
_cell_formula_units_Z   1
loop_
 _symmetry_equiv_pos_site_id
 _symmetry_equiv_pos_as_xyz
  1  'x, y, z'
loop_
 _atom_site_type_symbol
 _atom_site_label
 _atom_site_symmetry_multiplicity
 _atom_site_fract_x
 _atom_site_fract_y
 _atom_site_fract_z
 _atom_site_occupancy
  Er  Er0  1  0.674579  0.427567  0.192802  1
  Er  Er1  1  0.171779  0.075099  0.806312  1
  Er  Er2  1  0.325421  0.572433  0.807198  1
  Er  Er3  1  0.828221  0.924901  0.193688  1
  Zr  Zr4  1  0.500000  0.000000  0.500000  1
  Zr  Zr5  1  0.178819  0.251850  0.251587  1
  Zr  Zr6  1  0.682103  0.251973  0.746608  1
  Zr  Zr7  1  0.821181  0.748150  0.748413  1
  Zr  Zr8  1  0.317897  0.748027  0.253392  1
  Nb  Nb9  1  0.000000  0.500000  0.500000  1
  Si  Si10  1  0.469622  0.130026  0.081309  1
  Si  Si11  1  0.970520  0.371870  0.914557  1
  Si  Si12  1  0.530378  0.869974  0.918691  1
  Si  Si13  1  0.029480  0.628130  0.085443  1
  Si  Si14  1  0.879449  0.131084  0.491059  1
  Si  Si15  1  0.374377  0.372907  0.509504  1
  Si  Si16  1  0.120551  0.868916  0.508941  1
  Si  Si17  1  0.625623  0.627093  0.490496  1
