# generated using pymatgen
data_Dy5Y5GaSb5
_symmetry_space_group_name_H-M   'P 1'
_cell_length_a   6.37678400
_cell_length_b   8.95480472
_cell_length_c   8.92321794
_cell_angle_alpha   120.11717062
_cell_angle_beta   89.99996019
_cell_angle_gamma   90.00008665
_symmetry_Int_Tables_number   1
_chemical_formula_structural   Dy5Y5GaSb5
_chemical_formula_sum   'Dy5 Y5 Ga1 Sb5'
_cell_volume   440.75371282
_cell_formula_units_Z   1
loop_
 _symmetry_equiv_pos_site_id
 _symmetry_equiv_pos_as_xyz
  1  'x, y, z'
loop_
 _atom_site_type_symbol
 _atom_site_label
 _atom_site_symmetry_multiplicity
 _atom_site_fract_x
 _atom_site_fract_y
 _atom_site_fract_z
 _atom_site_occupancy
  Dy  Dy0  1  0.501219  0.339602  0.674600  1
  Dy  Dy1  1  0.501219  0.665003  0.325400  1
  Dy  Dy2  1  0.998779  0.665004  0.325402  1
  Dy  Dy3  1  0.998779  0.339602  0.674598  1
  Dy  Dy4  1  0.749999  0.250330  0.000000  1
  Y  Y5  1  0.750002  0.752547  0.762950  1
  Y  Y6  1  0.750002  0.989597  0.237050  1
  Y  Y7  1  0.250001  0.754895  0.000000  1
  Y  Y8  1  0.250001  0.245841  0.245257  1
  Y  Y9  1  0.250001  0.000583  0.754743  1
  Ga  Ga10  1  0.750000  0.606845  0.000000  1
  Sb  Sb11  1  0.750001  0.387728  0.389628  1
  Sb  Sb12  1  0.750001  0.998098  0.610372  1
  Sb  Sb13  1  0.249995  0.390506  0.000000  1
  Sb  Sb14  1  0.250001  0.611080  0.608341  1
  Sb  Sb15  1  0.250001  0.002740  0.391659  1
