# generated using pymatgen
data_Lu2Hf3Si4
_symmetry_space_group_name_H-M   'P 1'
_cell_length_a   7.22225600
_cell_length_b   7.22225600
_cell_length_c   13.23518700
_cell_angle_alpha   90.00000000
_cell_angle_beta   90.00000000
_cell_angle_gamma   90.00000000
_symmetry_Int_Tables_number   1
_chemical_formula_structural   Lu2Hf3Si4
_chemical_formula_sum   'Lu8 Hf12 Si16'
_cell_volume   690.36034729
_cell_formula_units_Z   4
loop_
 _symmetry_equiv_pos_site_id
 _symmetry_equiv_pos_as_xyz
  1  'x, y, z'
loop_
 _atom_site_type_symbol
 _atom_site_label
 _atom_site_symmetry_multiplicity
 _atom_site_fract_x
 _atom_site_fract_y
 _atom_site_fract_z
 _atom_site_occupancy
  Lu  Lu0  1  0.495615  0.152750  0.534485  1
  Lu  Lu1  1  0.504385  0.847250  0.034485  1
  Lu  Lu2  1  0.652750  0.004385  0.284485  1
  Lu  Lu3  1  0.347250  0.995615  0.784485  1
  Lu  Lu4  1  0.847250  0.504385  0.965515  1
  Lu  Lu5  1  0.152750  0.495615  0.465515  1
  Lu  Lu6  1  0.004385  0.652750  0.715515  1
  Lu  Lu7  1  0.995615  0.347250  0.215515  1
  Hf  Hf8  1  0.676205  0.323795  0.750000  1
  Hf  Hf9  1  0.323795  0.676205  0.250000  1
  Hf  Hf10  1  0.823795  0.823795  0.500000  1
  Hf  Hf11  1  0.176205  0.176205  0.000000  1
  Hf  Hf12  1  0.497363  0.353633  0.125732  1
  Hf  Hf13  1  0.502637  0.646367  0.625732  1
  Hf  Hf14  1  0.853633  0.002637  0.875732  1
  Hf  Hf15  1  0.146367  0.997363  0.375732  1
  Hf  Hf16  1  0.646367  0.502637  0.374268  1
  Hf  Hf17  1  0.353633  0.497363  0.874268  1
  Hf  Hf18  1  0.002637  0.853633  0.124268  1
  Hf  Hf19  1  0.997363  0.146367  0.624268  1
  Si  Si20  1  0.795608  0.143085  0.068892  1
  Si  Si21  1  0.204392  0.856915  0.568892  1
  Si  Si22  1  0.643085  0.704392  0.818892  1
  Si  Si23  1  0.356915  0.295608  0.318892  1
  Si  Si24  1  0.856915  0.204392  0.431108  1
  Si  Si25  1  0.143085  0.795608  0.931108  1
  Si  Si26  1  0.704392  0.643085  0.181108  1
  Si  Si27  1  0.295608  0.356915  0.681108  1
  Si  Si28  1  0.549903  0.203711  0.936021  1
  Si  Si29  1  0.450097  0.796289  0.436021  1
  Si  Si30  1  0.703711  0.950097  0.686021  1
  Si  Si31  1  0.296289  0.049903  0.186021  1
  Si  Si32  1  0.796289  0.450097  0.563979  1
  Si  Si33  1  0.203711  0.549903  0.063979  1
  Si  Si34  1  0.950097  0.703711  0.313979  1
  Si  Si35  1  0.049903  0.296289  0.813979  1
