# generated using pymatgen
data_Hf2SnPtRh4
_symmetry_space_group_name_H-M   'P 1'
_cell_length_a   4.18631400
_cell_length_b   5.63606570
_cell_length_c   11.15371282
_cell_angle_alpha   89.14651381
_cell_angle_beta   90.00000000
_cell_angle_gamma   90.00000000
_symmetry_Int_Tables_number   1
_chemical_formula_structural   Hf2SnPtRh4
_chemical_formula_sum   'Hf4 Sn2 Pt2 Rh8'
_cell_volume   263.13530394
_cell_formula_units_Z   2
loop_
 _symmetry_equiv_pos_site_id
 _symmetry_equiv_pos_as_xyz
  1  'x, y, z'
loop_
 _atom_site_type_symbol
 _atom_site_label
 _atom_site_symmetry_multiplicity
 _atom_site_fract_x
 _atom_site_fract_y
 _atom_site_fract_z
 _atom_site_occupancy
  Hf  Hf0  1  0.500000  0.169452  0.641093  1
  Hf  Hf1  1  0.500000  0.830548  0.358907  1
  Hf  Hf2  1  0.500000  0.684073  0.859453  1
  Hf  Hf3  1  0.500000  0.315927  0.140547  1
  Sn  Sn4  1  0.000000  0.500000  0.500000  1
  Sn  Sn5  1  0.000000  0.000000  0.000000  1
  Pt  Pt6  1  0.000000  0.434504  0.749957  1
  Pt  Pt7  1  0.000000  0.565496  0.250043  1
  Rh  Rh8  1  0.500000  0.201458  0.885527  1
  Rh  Rh9  1  0.500000  0.798542  0.114473  1
  Rh  Rh10  1  0.500000  0.696758  0.614393  1
  Rh  Rh11  1  0.500000  0.303242  0.385607  1
  Rh  Rh12  1  0.000000  0.000000  0.500000  1
  Rh  Rh13  1  0.000000  0.500000  0.000000  1
  Rh  Rh14  1  0.000000  0.065248  0.247273  1
  Rh  Rh15  1  0.000000  0.934752  0.752727  1
