# generated using pymatgen
data_Y7Er13Si15Pt
_symmetry_space_group_name_H-M   'P 1'
_cell_length_a   7.34099828
_cell_length_b   7.69425941
_cell_length_c   14.52619193
_cell_angle_alpha   89.94410203
_cell_angle_beta   89.98155058
_cell_angle_gamma   90.07234657
_symmetry_Int_Tables_number   1
_chemical_formula_structural   Y7Er13Si15Pt
_chemical_formula_sum   'Y7 Er13 Si15 Pt1'
_cell_volume   820.48972911
_cell_formula_units_Z   1
loop_
 _symmetry_equiv_pos_site_id
 _symmetry_equiv_pos_as_xyz
  1  'x, y, z'
loop_
 _atom_site_type_symbol
 _atom_site_label
 _atom_site_symmetry_multiplicity
 _atom_site_fract_x
 _atom_site_fract_y
 _atom_site_fract_z
 _atom_site_occupancy
  Y  Y0  1  0.023476  0.819928  0.905240  1
  Y  Y1  1  0.476102  0.316622  0.097643  1
  Y  Y2  1  0.975792  0.180346  0.402950  1
  Y  Y3  1  0.475837  0.315949  0.402627  1
  Y  Y4  1  0.976319  0.181200  0.097193  1
  Y  Y5  1  0.522372  0.681578  0.906519  1
  Y  Y6  1  0.023362  0.819999  0.594309  1
  Er  Er7  1  0.676549  0.180650  0.623592  1
  Er  Er8  1  0.186912  0.325298  0.875763  1
  Er  Er9  1  0.319582  0.820345  0.123775  1
  Er  Er10  1  0.817570  0.675150  0.375619  1
  Er  Er11  1  0.319794  0.819536  0.376703  1
  Er  Er12  1  0.817850  0.675765  0.124369  1
  Er  Er13  1  0.676072  0.180923  0.876021  1
  Er  Er14  1  0.187020  0.324939  0.623597  1
  Er  Er15  1  0.522575  0.680668  0.594824  1
  Er  Er16  1  0.842632  0.510159  0.749847  1
  Er  Er17  1  0.352872  0.986034  0.749745  1
  Er  Er18  1  0.150539  0.486846  0.250120  1
  Er  Er19  1  0.651056  0.010488  0.250181  1
  Si  Si20  1  0.650398  0.967298  0.460870  1
  Si  Si21  1  0.148298  0.529821  0.039649  1
  Si  Si22  1  0.349400  0.028779  0.961020  1
  Si  Si23  1  0.850701  0.471643  0.539809  1
  Si  Si24  1  0.350099  0.026892  0.539417  1
  Si  Si25  1  0.851646  0.470732  0.960342  1
  Si  Si26  1  0.650269  0.969212  0.039652  1
  Si  Si27  1  0.147373  0.529101  0.460057  1
  Si  Si28  1  0.977903  0.105637  0.749960  1
  Si  Si29  1  0.521215  0.605624  0.250113  1
  Si  Si30  1  0.022274  0.891257  0.250109  1
  Si  Si31  1  0.737580  0.876846  0.749576  1
  Si  Si32  1  0.226358  0.633150  0.749685  1
  Si  Si33  1  0.270612  0.127364  0.250216  1
  Si  Si34  1  0.771252  0.369325  0.250057  1
  Pt  Pt35  1  0.480340  0.404895  0.748834  1
