# generated using pymatgen
data_YEr2Lu7Cd3Ru
_symmetry_space_group_name_H-M   'P 1'
_cell_length_a   9.44615736
_cell_length_b   9.44615752
_cell_length_c   9.66779700
_cell_angle_alpha   90.00000000
_cell_angle_beta   90.00000000
_cell_angle_gamma   119.89553707
_symmetry_Int_Tables_number   1
_chemical_formula_structural   YEr2Lu7Cd3Ru
_chemical_formula_sum   'Y2 Er4 Lu14 Cd6 Ru2'
_cell_volume   747.86757970
_cell_formula_units_Z   2
loop_
 _symmetry_equiv_pos_site_id
 _symmetry_equiv_pos_as_xyz
  1  'x, y, z'
loop_
 _atom_site_type_symbol
 _atom_site_label
 _atom_site_symmetry_multiplicity
 _atom_site_fract_x
 _atom_site_fract_y
 _atom_site_fract_z
 _atom_site_occupancy
  Y  Y0  1  0.460590  0.920293  0.750000  1
  Y  Y1  1  0.079707  0.539410  0.750000  1
  Er  Er2  1  0.540686  0.459314  0.250000  1
  Er  Er3  1  0.540278  0.079675  0.250000  1
  Er  Er4  1  0.920325  0.459722  0.250000  1
  Er  Er5  1  0.461445  0.538555  0.750000  1
  Lu  Lu6  1  0.999714  0.000286  0.499800  1
  Lu  Lu7  1  0.999714  0.000286  0.000200  1
  Lu  Lu8  1  0.209737  0.790263  0.440292  1
  Lu  Lu9  1  0.211092  0.420365  0.440501  1
  Lu  Lu10  1  0.579635  0.788908  0.440501  1
  Lu  Lu11  1  0.789242  0.210758  0.557948  1
  Lu  Lu12  1  0.788974  0.579417  0.557941  1
  Lu  Lu13  1  0.420583  0.211026  0.557941  1
  Lu  Lu14  1  0.789242  0.210758  0.942052  1
  Lu  Lu15  1  0.788974  0.579417  0.942059  1
  Lu  Lu16  1  0.420583  0.211026  0.942059  1
  Lu  Lu17  1  0.209737  0.790263  0.059708  1
  Lu  Lu18  1  0.211092  0.420365  0.059499  1
  Lu  Lu19  1  0.579635  0.788908  0.059499  1
  Cd  Cd20  1  0.886243  0.113757  0.250000  1
  Cd  Cd21  1  0.885527  0.772396  0.250000  1
  Cd  Cd22  1  0.227604  0.114473  0.250000  1
  Cd  Cd23  1  0.112808  0.887192  0.750000  1
  Cd  Cd24  1  0.114791  0.226450  0.750000  1
  Cd  Cd25  1  0.773550  0.885209  0.750000  1
  Ru  Ru26  1  0.332568  0.667432  0.250000  1
  Ru  Ru27  1  0.665920  0.334080  0.750000  1
