# generated using pymatgen
data_YbTh(Ga3Ir)3
_symmetry_space_group_name_H-M   'P 1'
_cell_length_a   7.64979715
_cell_length_b   7.65079849
_cell_length_c   9.56476200
_cell_angle_alpha   90.00000000
_cell_angle_beta   90.00000000
_cell_angle_gamma   119.72965444
_symmetry_Int_Tables_number   1
_chemical_formula_structural   YbTh(Ga3Ir)3
_chemical_formula_sum   'Yb2 Th2 Ga18 Ir6'
_cell_volume   486.11401768
_cell_formula_units_Z   2
loop_
 _symmetry_equiv_pos_site_id
 _symmetry_equiv_pos_as_xyz
  1  'x, y, z'
loop_
 _atom_site_type_symbol
 _atom_site_label
 _atom_site_symmetry_multiplicity
 _atom_site_fract_x
 _atom_site_fract_y
 _atom_site_fract_z
 _atom_site_occupancy
  Yb  Yb0  1  0.669217  0.996637  0.250000  1
  Yb  Yb1  1  0.330783  0.003363  0.750000  1
  Th  Th2  1  0.997807  0.669039  0.250000  1
  Th  Th3  1  0.002193  0.330961  0.750000  1
  Ga  Ga4  1  0.128694  0.128759  0.250000  1
  Ga  Ga5  1  0.871306  0.871241  0.750000  1
  Ga  Ga6  1  0.998149  0.327386  0.082241  1
  Ga  Ga7  1  0.001851  0.672614  0.917759  1
  Ga  Ga8  1  0.001851  0.672614  0.582241  1
  Ga  Ga9  1  0.341509  0.004462  0.424737  1
  Ga  Ga10  1  0.998149  0.327386  0.417759  1
  Ga  Ga11  1  0.658491  0.995538  0.575263  1
  Ga  Ga12  1  0.658491  0.995538  0.924737  1
  Ga  Ga13  1  0.341509  0.004462  0.075263  1
  Ga  Ga14  1  0.336816  0.330957  0.562620  1
  Ga  Ga15  1  0.663184  0.669043  0.437380  1
  Ga  Ga16  1  0.663184  0.669043  0.062620  1
  Ga  Ga17  1  0.336816  0.330957  0.937380  1
  Ga  Ga18  1  0.340980  0.545937  0.250000  1
  Ga  Ga19  1  0.659020  0.454063  0.750000  1
  Ga  Ga20  1  0.542672  0.334335  0.250000  1
  Ga  Ga21  1  0.457328  0.665665  0.750000  1
  Ir  Ir22  1  0.675907  0.332811  0.999514  1
  Ir  Ir23  1  0.324093  0.667189  0.000486  1
  Ir  Ir24  1  0.324093  0.667189  0.499514  1
  Ir  Ir25  1  0.675907  0.332811  0.500486  1
  Ir  Ir26  1  0.000000  0.000000  0.000000  1
  Ir  Ir27  1  0.000000  0.000000  0.500000  1
