# generated using pymatgen
data_DyCoCuO5
_symmetry_space_group_name_H-M   'P 1'
_cell_length_a   5.61894500
_cell_length_b   7.42841300
_cell_length_c   8.36167800
_cell_angle_alpha   90.00000000
_cell_angle_beta   90.00000000
_cell_angle_gamma   90.00000000
_symmetry_Int_Tables_number   1
_chemical_formula_structural   DyCoCuO5
_chemical_formula_sum   'Dy4 Co4 Cu4 O20'
_cell_volume   349.01513600
_cell_formula_units_Z   4
loop_
 _symmetry_equiv_pos_site_id
 _symmetry_equiv_pos_as_xyz
  1  'x, y, z'
loop_
 _atom_site_type_symbol
 _atom_site_label
 _atom_site_symmetry_multiplicity
 _atom_site_fract_x
 _atom_site_fract_y
 _atom_site_fract_z
 _atom_site_occupancy
  Dy  Dy0  1  0.500000  0.352544  0.326568  1
  Dy  Dy1  1  0.500000  0.647456  0.673432  1
  Dy  Dy2  1  0.500000  0.147456  0.826568  1
  Dy  Dy3  1  0.500000  0.852544  0.173432  1
  Co  Co4  1  0.242426  0.000000  0.500000  1
  Co  Co5  1  0.757574  0.000000  0.500000  1
  Co  Co6  1  0.757574  0.500000  0.000000  1
  Co  Co7  1  0.242426  0.500000  0.000000  1
  Cu  Cu8  1  0.000000  0.073049  0.153650  1
  Cu  Cu9  1  0.000000  0.926951  0.846350  1
  Cu  Cu10  1  0.000000  0.426951  0.653650  1
  Cu  Cu11  1  0.000000  0.573049  0.346350  1
  O  O12  1  0.228613  0.000000  0.000000  1
  O  O13  1  0.771387  0.000000  0.000000  1
  O  O14  1  0.771387  0.500000  0.500000  1
  O  O15  1  0.228613  0.500000  0.500000  1
  O  O16  1  0.000000  0.351336  0.061321  1
  O  O17  1  0.000000  0.648664  0.938679  1
  O  O18  1  0.000000  0.148664  0.561321  1
  O  O19  1  0.000000  0.851336  0.438679  1
  O  O20  1  0.258199  0.094286  0.291775  1
  O  O21  1  0.741801  0.905714  0.708225  1
  O  O22  1  0.258199  0.905714  0.708225  1
  O  O23  1  0.741801  0.405714  0.791775  1
  O  O24  1  0.741801  0.094286  0.291775  1
  O  O25  1  0.258199  0.594286  0.208225  1
  O  O26  1  0.741801  0.594286  0.208225  1
  O  O27  1  0.258199  0.405714  0.791775  1
  O  O28  1  0.500000  0.336826  0.052021  1
  O  O29  1  0.500000  0.663174  0.947979  1
  O  O30  1  0.500000  0.163174  0.552021  1
  O  O31  1  0.500000  0.836826  0.447979  1
