# generated using pymatgen
data_Pr8TcHg3
_symmetry_space_group_name_H-M   'P 1'
_cell_length_a   10.69400700
_cell_length_b   10.69400748
_cell_length_c   7.42436300
_cell_angle_alpha   90.00000000
_cell_angle_beta   90.00000000
_cell_angle_gamma   120.00000160
_symmetry_Int_Tables_number   1
_chemical_formula_structural   Pr8TcHg3
_chemical_formula_sum   'Pr16 Tc2 Hg6'
_cell_volume   735.31050432
_cell_formula_units_Z   2
loop_
 _symmetry_equiv_pos_site_id
 _symmetry_equiv_pos_as_xyz
  1  'x, y, z'
loop_
 _atom_site_type_symbol
 _atom_site_label
 _atom_site_symmetry_multiplicity
 _atom_site_fract_x
 _atom_site_fract_y
 _atom_site_fract_z
 _atom_site_occupancy
  Pr  Pr0  1  0.171553  0.828447  0.981069  1
  Pr  Pr1  1  0.343104  0.171553  0.481069  1
  Pr  Pr2  1  0.828447  0.656896  0.481069  1
  Pr  Pr3  1  0.171553  0.343104  0.981069  1
  Pr  Pr4  1  0.656896  0.828447  0.981069  1
  Pr  Pr5  1  0.828447  0.171553  0.481069  1
  Pr  Pr6  1  0.333333  0.666667  0.679974  1
  Pr  Pr7  1  0.666667  0.333333  0.179974  1
  Pr  Pr8  1  0.461369  0.538631  0.294601  1
  Pr  Pr9  1  0.922737  0.461369  0.794601  1
  Pr  Pr10  1  0.538631  0.077263  0.794601  1
  Pr  Pr11  1  0.461369  0.922737  0.294601  1
  Pr  Pr12  1  0.077263  0.538631  0.294601  1
  Pr  Pr13  1  0.538631  0.461369  0.794601  1
  Pr  Pr14  1  0.000000  0.000000  0.279992  1
  Pr  Pr15  1  0.000000  0.000000  0.779992  1
  Tc  Tc16  1  0.333333  0.666667  0.056423  1
  Tc  Tc17  1  0.666667  0.333333  0.556423  1
  Hg  Hg18  1  0.167658  0.832342  0.539866  1
  Hg  Hg19  1  0.335316  0.167658  0.039866  1
  Hg  Hg20  1  0.832342  0.664684  0.039866  1
  Hg  Hg21  1  0.167658  0.335316  0.539866  1
  Hg  Hg22  1  0.664684  0.832342  0.539866  1
  Hg  Hg23  1  0.832342  0.167658  0.039866  1
