# generated using pymatgen
data_Tb3Nd3Y2(CdPt)2
_symmetry_space_group_name_H-M   'P 1'
_cell_length_a   9.81781148
_cell_length_b   9.82164164
_cell_length_c   9.82164175
_cell_angle_alpha   59.97420645
_cell_angle_beta   60.01289807
_cell_angle_gamma   60.01289422
_symmetry_Int_Tables_number   1
_chemical_formula_structural   Tb3Nd3Y2(CdPt)2
_chemical_formula_sum   'Tb6 Nd6 Y4 Cd4 Pt4'
_cell_volume   669.68061463
_cell_formula_units_Z   2
loop_
 _symmetry_equiv_pos_site_id
 _symmetry_equiv_pos_as_xyz
  1  'x, y, z'
loop_
 _atom_site_type_symbol
 _atom_site_label
 _atom_site_symmetry_multiplicity
 _atom_site_fract_x
 _atom_site_fract_y
 _atom_site_fract_z
 _atom_site_occupancy
  Tb  Tb0  1  0.350536  0.350829  0.350829  1
  Tb  Tb1  1  0.350829  0.350536  0.947806  1
  Tb  Tb2  1  0.350829  0.947806  0.350536  1
  Tb  Tb3  1  0.947806  0.350829  0.350829  1
  Tb  Tb4  1  0.811235  0.188765  0.188765  1
  Tb  Tb5  1  0.188765  0.811235  0.811235  1
  Nd  Nd6  1  0.937662  0.562338  0.562338  1
  Nd  Nd7  1  0.562338  0.937662  0.937662  1
  Nd  Nd8  1  0.562300  0.937700  0.562300  1
  Nd  Nd9  1  0.937700  0.562300  0.937700  1
  Nd  Nd10  1  0.562300  0.562300  0.937700  1
  Nd  Nd11  1  0.937700  0.937700  0.562300  1
  Y  Y12  1  0.188972  0.811028  0.188972  1
  Y  Y13  1  0.811028  0.188972  0.811028  1
  Y  Y14  1  0.188972  0.188972  0.811028  1
  Y  Y15  1  0.811028  0.811028  0.188972  1
  Cd  Cd16  1  0.580045  0.579934  0.579934  1
  Cd  Cd17  1  0.579934  0.580045  0.260087  1
  Cd  Cd18  1  0.579934  0.260087  0.580045  1
  Cd  Cd19  1  0.260087  0.579934  0.579934  1
  Pt  Pt20  1  0.142777  0.142957  0.142957  1
  Pt  Pt21  1  0.142957  0.142777  0.571309  1
  Pt  Pt22  1  0.142957  0.571309  0.142777  1
  Pt  Pt23  1  0.571309  0.142957  0.142957  1
