# generated using pymatgen
data_TbTc2GeC
_symmetry_space_group_name_H-M   'P 1'
_cell_length_a   5.87259503
_cell_length_b   5.87259531
_cell_length_c   7.46172400
_cell_angle_alpha   90.00000000
_cell_angle_beta   90.00000000
_cell_angle_gamma   140.95977076
_symmetry_Int_Tables_number   1
_chemical_formula_structural   TbTc2GeC
_chemical_formula_sum   'Tb2 Tc4 Ge2 C2'
_cell_volume   162.08670805
_cell_formula_units_Z   2
loop_
 _symmetry_equiv_pos_site_id
 _symmetry_equiv_pos_as_xyz
  1  'x, y, z'
loop_
 _atom_site_type_symbol
 _atom_site_label
 _atom_site_symmetry_multiplicity
 _atom_site_fract_x
 _atom_site_fract_y
 _atom_site_fract_z
 _atom_site_occupancy
  Tb  Tb0  1  0.543298  0.456702  0.250000  1
  Tb  Tb1  1  0.456702  0.543298  0.750000  1
  Tc  Tc2  1  0.831118  0.168882  0.059039  1
  Tc  Tc3  1  0.168882  0.831118  0.940961  1
  Tc  Tc4  1  0.168882  0.831118  0.559039  1
  Tc  Tc5  1  0.831118  0.168882  0.440961  1
  Ge  Ge6  1  0.265154  0.734846  0.250000  1
  Ge  Ge7  1  0.734846  0.265154  0.750000  1
  C  C8  1  0.000000  0.000000  0.000000  1
  C  C9  1  0.000000  0.000000  0.500000  1
