# generated using pymatgen
data_Tb2YAl3GaCu2
_symmetry_space_group_name_H-M   'P 1'
_cell_length_a   7.00523601
_cell_length_b   7.00533978
_cell_length_c   4.18292800
_cell_angle_alpha   90.00000000
_cell_angle_beta   90.00000000
_cell_angle_gamma   119.99271583
_symmetry_Int_Tables_number   1
_chemical_formula_structural   Tb2YAl3GaCu2
_chemical_formula_sum   'Tb2 Y1 Al3 Ga1 Cu2'
_cell_volume   177.78489924
_cell_formula_units_Z   1
loop_
 _symmetry_equiv_pos_site_id
 _symmetry_equiv_pos_as_xyz
  1  'x, y, z'
loop_
 _atom_site_type_symbol
 _atom_site_label
 _atom_site_symmetry_multiplicity
 _atom_site_fract_x
 _atom_site_fract_y
 _atom_site_fract_z
 _atom_site_occupancy
  Tb  Tb0  1  0.996759  0.412130  0.500000  1
  Tb  Tb1  1  0.587872  0.584674  0.500000  1
  Y  Y2  1  0.415282  0.003160  0.500000  1
  Al  Al3  1  0.992410  0.759894  0.000000  1
  Al  Al4  1  0.240115  0.232496  0.000000  1
  Al  Al5  1  0.767482  0.007590  0.000000  1
  Ga  Ga6  1  0.333376  0.666707  0.000000  1
  Cu  Cu7  1  0.666701  0.333351  0.000000  1
  Cu  Cu8  1  0.000001  0.999999  0.500000  1
