# generated using pymatgen
data_CeYMn2C3
_symmetry_space_group_name_H-M   'P 1'
_cell_length_a   5.34877401
_cell_length_b   5.34877419
_cell_length_c   5.61063366
_cell_angle_alpha   76.19218774
_cell_angle_beta   76.19218879
_cell_angle_gamma   37.06392957
_symmetry_Int_Tables_number   1
_chemical_formula_structural   CeYMn2C3
_chemical_formula_sum   'Ce1 Y1 Mn2 C3'
_cell_volume   93.62926605
_cell_formula_units_Z   1
loop_
 _symmetry_equiv_pos_site_id
 _symmetry_equiv_pos_as_xyz
  1  'x, y, z'
loop_
 _atom_site_type_symbol
 _atom_site_label
 _atom_site_symmetry_multiplicity
 _atom_site_fract_x
 _atom_site_fract_y
 _atom_site_fract_z
 _atom_site_occupancy
  Ce  Ce0  1  0.393585  0.393585  0.321736  1
  Y  Y1  1  0.605091  0.605091  0.681331  1
  Mn  Mn2  1  0.159558  0.159558  0.100852  1
  Mn  Mn3  1  0.841968  0.841968  0.896933  1
  C  C4  1  0.709394  0.709394  0.224932  1
  C  C5  1  0.289674  0.289674  0.777534  1
  C  C6  1  0.000729  0.000729  0.996681  1
