# generated using pymatgen
data_Zr18TiCu2Re7
_symmetry_space_group_name_H-M   'P 1'
_cell_length_a   8.72689700
_cell_length_b   8.72689718
_cell_length_c   8.53432100
_cell_angle_alpha   90.00000000
_cell_angle_beta   90.00000000
_cell_angle_gamma   119.99999551
_symmetry_Int_Tables_number   1
_chemical_formula_structural   Zr18TiCu2Re7
_chemical_formula_sum   'Zr18 Ti1 Cu2 Re7'
_cell_volume   562.88455836
_cell_formula_units_Z   1
loop_
 _symmetry_equiv_pos_site_id
 _symmetry_equiv_pos_as_xyz
  1  'x, y, z'
loop_
 _atom_site_type_symbol
 _atom_site_label
 _atom_site_symmetry_multiplicity
 _atom_site_fract_x
 _atom_site_fract_y
 _atom_site_fract_z
 _atom_site_occupancy
  Zr  Zr0  1  0.195161  0.804839  0.445732  1
  Zr  Zr1  1  0.195161  0.390322  0.445732  1
  Zr  Zr2  1  0.609678  0.804839  0.445732  1
  Zr  Zr3  1  0.804839  0.195161  0.554268  1
  Zr  Zr4  1  0.804839  0.609678  0.554268  1
  Zr  Zr5  1  0.390322  0.195161  0.554268  1
  Zr  Zr6  1  0.804917  0.195083  0.943957  1
  Zr  Zr7  1  0.804917  0.609836  0.943957  1
  Zr  Zr8  1  0.390164  0.195083  0.943957  1
  Zr  Zr9  1  0.195083  0.804917  0.056043  1
  Zr  Zr10  1  0.195083  0.390164  0.056043  1
  Zr  Zr11  1  0.609836  0.804917  0.056043  1
  Zr  Zr12  1  0.542285  0.457715  0.249188  1
  Zr  Zr13  1  0.542285  0.084570  0.249188  1
  Zr  Zr14  1  0.915430  0.457715  0.249188  1
  Zr  Zr15  1  0.457715  0.542285  0.750812  1
  Zr  Zr16  1  0.457715  0.915430  0.750812  1
  Zr  Zr17  1  0.084570  0.542285  0.750812  1
  Ti  Ti18  1  0.000000  0.000000  0.500000  1
  Cu  Cu19  1  0.333333  0.666667  0.250005  1
  Cu  Cu20  1  0.666667  0.333333  0.749995  1
  Re  Re21  1  0.890911  0.109089  0.251210  1
  Re  Re22  1  0.890911  0.781821  0.251210  1
  Re  Re23  1  0.218179  0.109089  0.251210  1
  Re  Re24  1  0.109089  0.890911  0.748790  1
  Re  Re25  1  0.109089  0.218179  0.748790  1
  Re  Re26  1  0.781821  0.890911  0.748790  1
  Re  Re27  1  0.000000  0.000000  0.000000  1
