# generated using pymatgen
data_Tb10Ho2TcRu3
_symmetry_space_group_name_H-M   'P 1'
_cell_length_a   6.31902178
_cell_length_b   7.37838335
_cell_length_c   9.18604456
_cell_angle_alpha   90.02367724
_cell_angle_beta   90.08253936
_cell_angle_gamma   89.99879254
_symmetry_Int_Tables_number   1
_chemical_formula_structural   Tb10Ho2TcRu3
_chemical_formula_sum   'Tb10 Ho2 Tc1 Ru3'
_cell_volume   428.29117737
_cell_formula_units_Z   1
loop_
 _symmetry_equiv_pos_site_id
 _symmetry_equiv_pos_as_xyz
  1  'x, y, z'
loop_
 _atom_site_type_symbol
 _atom_site_label
 _atom_site_symmetry_multiplicity
 _atom_site_fract_x
 _atom_site_fract_y
 _atom_site_fract_z
 _atom_site_occupancy
  Tb  Tb0  1  0.332607  0.676272  0.064819  1
  Tb  Tb1  1  0.167782  0.176048  0.435471  1
  Tb  Tb2  1  0.668044  0.323862  0.564071  1
  Tb  Tb3  1  0.834314  0.824675  0.937098  1
  Tb  Tb4  1  0.668270  0.323507  0.935904  1
  Tb  Tb5  1  0.834106  0.824388  0.562947  1
  Tb  Tb6  1  0.868286  0.539818  0.250028  1
  Tb  Tb7  1  0.628006  0.041418  0.249945  1
  Tb  Tb8  1  0.134766  0.457997  0.749968  1
  Tb  Tb9  1  0.365618  0.958431  0.750038  1
  Ho  Ho10  1  0.332740  0.676075  0.435278  1
  Ho  Ho11  1  0.167621  0.175965  0.064393  1
  Tc  Tc12  1  0.037988  0.884804  0.250113  1
  Ru  Ru13  1  0.460963  0.384086  0.249984  1
  Ru  Ru14  1  0.960449  0.117251  0.750294  1
  Ru  Ru15  1  0.538441  0.615408  0.749650  1
