# generated using pymatgen
data_Y2Er3U(Al2Ga)6
_symmetry_space_group_name_H-M   'P 1'
_cell_length_a   14.48707959
_cell_length_b   14.48707934
_cell_length_c   14.48707904
_cell_angle_alpha   24.48474214
_cell_angle_beta   24.48474272
_cell_angle_gamma   24.48474334
_symmetry_Int_Tables_number   1
_chemical_formula_structural   Y2Er3U(Al2Ga)6
_chemical_formula_sum   'Y2 Er3 U1 Al12 Ga6'
_cell_volume   459.17120767
_cell_formula_units_Z   1
loop_
 _symmetry_equiv_pos_site_id
 _symmetry_equiv_pos_as_xyz
  1  'x, y, z'
loop_
 _atom_site_type_symbol
 _atom_site_label
 _atom_site_symmetry_multiplicity
 _atom_site_fract_x
 _atom_site_fract_y
 _atom_site_fract_z
 _atom_site_occupancy
  Y  Y0  1  0.890219  0.890219  0.890219  1
  Y  Y1  1  0.390754  0.390754  0.390754  1
  Er  Er2  1  0.001224  0.001224  0.001224  1
  Er  Er3  1  0.502629  0.502629  0.502629  1
  Er  Er4  1  0.607631  0.607631  0.607631  1
  U  U5  1  0.107307  0.107307  0.107307  1
  Al  Al6  1  0.579516  0.128336  0.128336  1
  Al  Al7  1  0.083086  0.627231  0.627231  1
  Al  Al8  1  0.128336  0.128336  0.579516  1
  Al  Al9  1  0.627231  0.627231  0.083086  1
  Al  Al10  1  0.128336  0.579516  0.128336  1
  Al  Al11  1  0.627231  0.083086  0.627231  1
  Al  Al12  1  0.500014  0.500014  0.997563  1
  Al  Al13  1  0.003991  0.003991  0.490298  1
  Al  Al14  1  0.500014  0.997563  0.500014  1
  Al  Al15  1  0.003991  0.490298  0.003991  1
  Al  Al16  1  0.997563  0.500014  0.500014  1
  Al  Al17  1  0.490298  0.003991  0.003991  1
  Ga  Ga18  1  0.928436  0.369041  0.369041  1
  Ga  Ga19  1  0.423377  0.870367  0.870367  1
  Ga  Ga20  1  0.369041  0.369041  0.928436  1
  Ga  Ga21  1  0.870367  0.870367  0.423377  1
  Ga  Ga22  1  0.369041  0.928436  0.369041  1
  Ga  Ga23  1  0.870367  0.423377  0.870367  1
