# generated using pymatgen
data_Lu2Be2Ni5
_symmetry_space_group_name_H-M   'P 1'
_cell_length_a   4.95621672
_cell_length_b   4.95621645
_cell_length_c   11.25205657
_cell_angle_alpha   77.27710482
_cell_angle_beta   77.27710374
_cell_angle_gamma   59.99999728
_symmetry_Int_Tables_number   1
_chemical_formula_structural   Lu2Be2Ni5
_chemical_formula_sum   'Lu4 Be4 Ni10'
_cell_volume   231.49684584
_cell_formula_units_Z   2
loop_
 _symmetry_equiv_pos_site_id
 _symmetry_equiv_pos_as_xyz
  1  'x, y, z'
loop_
 _atom_site_type_symbol
 _atom_site_label
 _atom_site_symmetry_multiplicity
 _atom_site_fract_x
 _atom_site_fract_y
 _atom_site_fract_z
 _atom_site_occupancy
  Lu  Lu0  1  0.949991  0.949991  0.150025  1
  Lu  Lu1  1  0.050009  0.050009  0.849975  1
  Lu  Lu2  1  0.852236  0.852236  0.443291  1
  Lu  Lu3  1  0.147764  0.147764  0.556710  1
  Be  Be4  1  0.719141  0.719141  0.842577  1
  Be  Be5  1  0.280859  0.280859  0.157423  1
  Be  Be6  1  0.614108  0.614108  0.157678  1
  Be  Be7  1  0.385892  0.385892  0.842322  1
  Ni  Ni8  1  0.500000  0.500000  0.500000  1
  Ni  Ni9  1  0.000000  0.500000  0.000000  1
  Ni  Ni10  1  0.500000  0.000000  0.000000  1
  Ni  Ni11  1  0.500000  0.500000  0.000000  1
  Ni  Ni12  1  0.395208  0.395208  0.313037  1
  Ni  Ni13  1  0.896547  0.395208  0.313037  1
  Ni  Ni14  1  0.395208  0.896547  0.313037  1
  Ni  Ni15  1  0.604792  0.604792  0.686963  1
  Ni  Ni16  1  0.103453  0.604792  0.686963  1
  Ni  Ni17  1  0.604792  0.103453  0.686963  1
