# generated using pymatgen
data_LaHo5(RuO7)2
_symmetry_space_group_name_H-M   'P 1'
_cell_length_a   6.46001233
_cell_length_b   6.46001275
_cell_length_c   7.46065838
_cell_angle_alpha   89.89079861
_cell_angle_beta   90.10920343
_cell_angle_gamma   108.63341074
_symmetry_Int_Tables_number   1
_chemical_formula_structural   LaHo5(RuO7)2
_chemical_formula_sum   'La1 Ho5 Ru2 O14'
_cell_volume   295.02553063
_cell_formula_units_Z   1
loop_
 _symmetry_equiv_pos_site_id
 _symmetry_equiv_pos_as_xyz
  1  'x, y, z'
loop_
 _atom_site_type_symbol
 _atom_site_label
 _atom_site_symmetry_multiplicity
 _atom_site_fract_x
 _atom_site_fract_y
 _atom_site_fract_z
 _atom_site_occupancy
  La  La0  1  0.507259  0.507259  0.500000  1
  Ho  Ho1  1  0.462203  0.462203  0.000000  1
  Ho  Ho2  1  0.997803  0.537402  0.240196  1
  Ho  Ho3  1  0.999002  0.464225  0.747237  1
  Ho  Ho4  1  0.537402  0.997803  0.759804  1
  Ho  Ho5  1  0.464225  0.999002  0.252763  1
  Ru  Ru6  1  0.999769  0.999769  0.500000  1
  Ru  Ru7  1  0.000498  0.000498  0.000000  1
  O  O8  1  0.930330  0.070976  0.749680  1
  O  O9  1  0.070976  0.930330  0.250320  1
  O  O10  1  0.358190  0.641424  0.237234  1
  O  O11  1  0.641424  0.358190  0.762766  1
  O  O12  1  0.365321  0.633155  0.762537  1
  O  O13  1  0.633155  0.365321  0.237463  1
  O  O14  1  0.325755  0.079159  0.974715  1
  O  O15  1  0.678110  0.931113  0.473480  1
  O  O16  1  0.315018  0.061970  0.537209  1
  O  O17  1  0.693327  0.947992  0.038725  1
  O  O18  1  0.061970  0.315018  0.462791  1
  O  O19  1  0.947992  0.693327  0.961275  1
  O  O20  1  0.931113  0.678110  0.526520  1
  O  O21  1  0.079159  0.325755  0.025285  1
