# generated using pymatgen
data_Tm4Lu2TcBi2
_symmetry_space_group_name_H-M   'P 1'
_cell_length_a   8.17014606
_cell_length_b   8.17014729
_cell_length_c   4.26584600
_cell_angle_alpha   90.00000000
_cell_angle_beta   90.00000000
_cell_angle_gamma   119.98667649
_symmetry_Int_Tables_number   1
_chemical_formula_structural   Tm4Lu2TcBi2
_chemical_formula_sum   'Tm4 Lu2 Tc1 Bi2'
_cell_volume   246.63448609
_cell_formula_units_Z   1
loop_
 _symmetry_equiv_pos_site_id
 _symmetry_equiv_pos_as_xyz
  1  'x, y, z'
loop_
 _atom_site_type_symbol
 _atom_site_label
 _atom_site_symmetry_multiplicity
 _atom_site_fract_x
 _atom_site_fract_y
 _atom_site_fract_z
 _atom_site_occupancy
  Tm  Tm0  1  0.768430  0.768430  0.500000  1
  Tm  Tm1  1  0.613403  0.000299  0.000000  1
  Tm  Tm2  1  0.000299  0.613403  0.000000  1
  Tm  Tm3  1  0.386030  0.386030  0.000000  1
  Lu  Lu4  1  0.231133  0.000059  0.500000  1
  Lu  Lu5  1  0.000059  0.231133  0.500000  1
  Tc  Tc6  1  0.001201  0.001201  0.000000  1
  Bi  Bi7  1  0.332825  0.666621  0.500000  1
  Bi  Bi8  1  0.666621  0.332825  0.500000  1
