# generated using pymatgen
data_Cs2K10Al(GaTe4)3
_symmetry_space_group_name_H-M   'P 1'
_cell_length_a   14.65313935
_cell_length_b   8.84876200
_cell_length_c   11.31493451
_cell_angle_alpha   52.67691626
_cell_angle_beta   89.37109927
_cell_angle_gamma   89.17376345
_symmetry_Int_Tables_number   1
_chemical_formula_structural   Cs2K10Al(GaTe4)3
_chemical_formula_sum   'Cs2 K10 Al1 Ga3 Te12'
_cell_volume   1166.56978911
_cell_formula_units_Z   1
loop_
 _symmetry_equiv_pos_site_id
 _symmetry_equiv_pos_as_xyz
  1  'x, y, z'
loop_
 _atom_site_type_symbol
 _atom_site_label
 _atom_site_symmetry_multiplicity
 _atom_site_fract_x
 _atom_site_fract_y
 _atom_site_fract_z
 _atom_site_occupancy
  Cs  Cs0  1  0.309653  0.163868  0.064226  1
  Cs  Cs1  1  0.689673  0.835728  0.935761  1
  K  K2  1  0.814633  0.846271  0.433719  1
  K  K3  1  0.895062  0.315153  0.404123  1
  K  K4  1  0.613448  0.357938  0.474443  1
  K  K5  1  0.108739  0.641830  0.024466  1
  K  K6  1  0.386699  0.642164  0.525763  1
  K  K7  1  0.891466  0.358706  0.975443  1
  K  K8  1  0.612294  0.301643  0.910851  1
  K  K9  1  0.104593  0.684922  0.596085  1
  K  K10  1  0.387870  0.698495  0.088875  1
  K  K11  1  0.185344  0.152844  0.566876  1
  Al  Al12  1  0.933917  0.057514  0.839940  1
  Ga  Ga13  1  0.066547  0.941930  0.161039  1
  Ga  Ga14  1  0.567399  0.042090  0.344696  1
  Ga  Ga15  1  0.432598  0.957967  0.655299  1
  Te  Te16  1  0.410410  0.199588  0.356180  1
  Te  Te17  1  0.903526  0.823259  0.138509  1
  Te  Te18  1  0.589490  0.800466  0.643857  1
  Te  Te19  1  0.095555  0.178554  0.858239  1
  Te  Te20  1  0.700447  0.294462  0.212344  1
  Te  Te21  1  0.189982  0.664196  0.305466  1
  Te  Te22  1  0.299553  0.705488  0.787685  1
  Te  Te23  1  0.811185  0.333027  0.695528  1
  Te  Te24  1  0.548782  0.853355  0.236114  1
  Te  Te25  1  0.054265  0.139103  0.264924  1
  Te  Te26  1  0.451154  0.146839  0.763795  1
  Te  Te27  1  0.945717  0.862598  0.735752  1
