# generated using pymatgen
data_Tb2Nd6DyRh6
_symmetry_space_group_name_H-M   'P 1'
_cell_length_a   7.56019375
_cell_length_b   7.56019278
_cell_length_c   7.56019414
_cell_angle_alpha   71.05166811
_cell_angle_beta   71.05166735
_cell_angle_gamma   71.05165644
_symmetry_Int_Tables_number   1
_chemical_formula_structural   Tb2Nd6DyRh6
_chemical_formula_sum   'Tb2 Nd6 Dy1 Rh6'
_cell_volume   374.75947593
_cell_formula_units_Z   1
loop_
 _symmetry_equiv_pos_site_id
 _symmetry_equiv_pos_as_xyz
  1  'x, y, z'
loop_
 _atom_site_type_symbol
 _atom_site_label
 _atom_site_symmetry_multiplicity
 _atom_site_fract_x
 _atom_site_fract_y
 _atom_site_fract_z
 _atom_site_occupancy
  Tb  Tb0  1  0.799669  0.799669  0.799669  1
  Tb  Tb1  1  0.200331  0.200331  0.200331  1
  Nd  Nd2  1  0.162083  0.392027  0.665512  1
  Nd  Nd3  1  0.665512  0.162083  0.392027  1
  Nd  Nd4  1  0.392027  0.665512  0.162083  1
  Nd  Nd5  1  0.837917  0.607973  0.334488  1
  Nd  Nd6  1  0.334488  0.837917  0.607973  1
  Nd  Nd7  1  0.607973  0.334488  0.837917  1
  Dy  Dy8  1  0.000000  0.000000  0.000000  1
  Rh  Rh9  1  0.960851  0.157222  0.591863  1
  Rh  Rh10  1  0.591863  0.960851  0.157222  1
  Rh  Rh11  1  0.157222  0.591863  0.960851  1
  Rh  Rh12  1  0.039149  0.842778  0.408137  1
  Rh  Rh13  1  0.408137  0.039149  0.842778  1
  Rh  Rh14  1  0.842778  0.408137  0.039149  1
