# generated using pymatgen
data_PrScZn4Ru
_symmetry_space_group_name_H-M   'P 1'
_cell_length_a   6.98310800
_cell_length_b   6.98310800
_cell_length_c   5.14944800
_cell_angle_alpha   90.00000000
_cell_angle_beta   90.00000000
_cell_angle_gamma   90.00000000
_symmetry_Int_Tables_number   1
_chemical_formula_structural   PrScZn4Ru
_chemical_formula_sum   'Pr2 Sc2 Zn8 Ru2'
_cell_volume   251.10663868
_cell_formula_units_Z   2
loop_
 _symmetry_equiv_pos_site_id
 _symmetry_equiv_pos_as_xyz
  1  'x, y, z'
loop_
 _atom_site_type_symbol
 _atom_site_label
 _atom_site_symmetry_multiplicity
 _atom_site_fract_x
 _atom_site_fract_y
 _atom_site_fract_z
 _atom_site_occupancy
  Pr  Pr0  1  0.000000  0.500000  0.767360  1
  Pr  Pr1  1  0.500000  0.000000  0.232640  1
  Sc  Sc2  1  0.000000  0.000000  0.000000  1
  Sc  Sc3  1  0.500000  0.500000  0.000000  1
  Zn  Zn4  1  0.189804  0.689804  0.277009  1
  Zn  Zn5  1  0.810196  0.689804  0.277009  1
  Zn  Zn6  1  0.810196  0.310196  0.277009  1
  Zn  Zn7  1  0.310196  0.189804  0.722991  1
  Zn  Zn8  1  0.189804  0.310196  0.277009  1
  Zn  Zn9  1  0.689804  0.189804  0.722991  1
  Zn  Zn10  1  0.689804  0.810196  0.722991  1
  Zn  Zn11  1  0.310196  0.810196  0.722991  1
  Ru  Ru12  1  0.500000  0.500000  0.500000  1
  Ru  Ru13  1  0.000000  0.000000  0.500000  1
