# generated using pymatgen
data_CuOs5O12
_symmetry_space_group_name_H-M   'P 1'
_cell_length_a   4.55776933
_cell_length_b   4.55776917
_cell_length_c   9.55394600
_cell_angle_alpha   90.00000000
_cell_angle_beta   90.00000000
_cell_angle_gamma   90.10548636
_symmetry_Int_Tables_number   1
_chemical_formula_structural   CuOs5O12
_chemical_formula_sum   'Cu1 Os5 O12'
_cell_volume   198.46627281
_cell_formula_units_Z   1
loop_
 _symmetry_equiv_pos_site_id
 _symmetry_equiv_pos_as_xyz
  1  'x, y, z'
loop_
 _atom_site_type_symbol
 _atom_site_label
 _atom_site_symmetry_multiplicity
 _atom_site_fract_x
 _atom_site_fract_y
 _atom_site_fract_z
 _atom_site_occupancy
  Cu  Cu0  1  0.000000  0.000000  0.000000  1
  Os  Os1  1  0.000000  0.000000  0.331867  1
  Os  Os2  1  0.000000  0.000000  0.668133  1
  Os  Os3  1  0.500000  0.500000  0.164926  1
  Os  Os4  1  0.500000  0.500000  0.500000  1
  Os  Os5  1  0.500000  0.500000  0.835074  1
  O  O6  1  0.192368  0.192368  0.500000  1
  O  O7  1  0.209662  0.209662  0.184548  1
  O  O8  1  0.209662  0.209662  0.815452  1
  O  O9  1  0.693928  0.306072  0.336691  1
  O  O10  1  0.693928  0.306072  0.663309  1
  O  O11  1  0.690908  0.309092  0.000000  1
  O  O12  1  0.309092  0.690908  0.000000  1
  O  O13  1  0.306072  0.693928  0.336691  1
  O  O14  1  0.306072  0.693928  0.663309  1
  O  O15  1  0.790338  0.790338  0.184548  1
  O  O16  1  0.790338  0.790338  0.815452  1
  O  O17  1  0.807632  0.807632  0.500000  1
