# generated using pymatgen
data_V12Ga7CoN4
_symmetry_space_group_name_H-M   'P 1'
_cell_length_a   6.57953701
_cell_length_b   6.57953701
_cell_length_c   6.57953701
_cell_angle_alpha   89.93662179
_cell_angle_beta   90.06337821
_cell_angle_gamma   90.06337821
_symmetry_Int_Tables_number   1
_chemical_formula_structural   V12Ga7CoN4
_chemical_formula_sum   'V12 Ga7 Co1 N4'
_cell_volume   284.82965665
_cell_formula_units_Z   1
loop_
 _symmetry_equiv_pos_site_id
 _symmetry_equiv_pos_as_xyz
  1  'x, y, z'
loop_
 _atom_site_type_symbol
 _atom_site_label
 _atom_site_symmetry_multiplicity
 _atom_site_fract_x
 _atom_site_fract_y
 _atom_site_fract_z
 _atom_site_occupancy
  V  V0  1  0.793108  0.958932  0.373271  1
  V  V1  1  0.709610  0.040973  0.876363  1
  V  V2  1  0.208515  0.461961  0.125584  1
  V  V3  1  0.291303  0.543546  0.625800  1
  V  V4  1  0.959027  0.376363  0.790390  1
  V  V5  1  0.041068  0.873271  0.706892  1
  V  V6  1  0.456454  0.125800  0.208697  1
  V  V7  1  0.538039  0.625584  0.291485  1
  V  V8  1  0.374416  0.791485  0.961961  1
  V  V9  1  0.874200  0.708697  0.043546  1
  V  V10  1  0.126729  0.206892  0.458932  1
  V  V11  1  0.623637  0.290390  0.540973  1
  Ga  Ga12  1  0.318786  0.176857  0.819466  1
  Ga  Ga13  1  0.823143  0.319466  0.181214  1
  Ga  Ga14  1  0.680534  0.681214  0.676857  1
  Ga  Ga15  1  0.568503  0.431497  0.931497  1
  Ga  Ga16  1  0.419902  0.926099  0.557456  1
  Ga  Ga17  1  0.942544  0.580098  0.426099  1
  Ga  Ga18  1  0.073901  0.057456  0.080098  1
  Co  Co19  1  0.181103  0.818897  0.318897  1
  N  N20  1  0.875722  0.124278  0.624278  1
  N  N21  1  0.623281  0.876162  0.127364  1
  N  N22  1  0.123838  0.627364  0.876719  1
  N  N23  1  0.372636  0.376719  0.376162  1
