# generated using pymatgen
data_PrNd3(ReC2)2
_symmetry_space_group_name_H-M   'P 1'
_cell_length_a   5.37045200
_cell_length_b   6.74532200
_cell_length_c   10.23191900
_cell_angle_alpha   90.00000000
_cell_angle_beta   90.00000000
_cell_angle_gamma   90.00000000
_symmetry_Int_Tables_number   1
_chemical_formula_structural   PrNd3(ReC2)2
_chemical_formula_sum   'Pr2 Nd6 Re4 C8'
_cell_volume   370.65564530
_cell_formula_units_Z   2
loop_
 _symmetry_equiv_pos_site_id
 _symmetry_equiv_pos_as_xyz
  1  'x, y, z'
loop_
 _atom_site_type_symbol
 _atom_site_label
 _atom_site_symmetry_multiplicity
 _atom_site_fract_x
 _atom_site_fract_y
 _atom_site_fract_z
 _atom_site_occupancy
  Pr  Pr0  1  0.250000  0.474347  0.213384  1
  Pr  Pr1  1  0.750000  0.025653  0.713384  1
  Nd  Nd2  1  0.750000  0.526060  0.786294  1
  Nd  Nd3  1  0.250000  0.973940  0.286294  1
  Nd  Nd4  1  0.750000  0.687673  0.448906  1
  Nd  Nd5  1  0.250000  0.812327  0.948906  1
  Nd  Nd6  1  0.750000  0.187128  0.051154  1
  Nd  Nd7  1  0.250000  0.312872  0.551154  1
  Re  Re8  1  0.250000  0.268882  0.857129  1
  Re  Re9  1  0.250000  0.768908  0.643039  1
  Re  Re10  1  0.750000  0.231118  0.357129  1
  Re  Re11  1  0.750000  0.731092  0.143039  1
  C  C12  1  0.250000  0.687333  0.463275  1
  C  C13  1  0.250000  0.532747  0.758278  1
  C  C14  1  0.750000  0.467329  0.242067  1
  C  C15  1  0.750000  0.812667  0.963275  1
  C  C16  1  0.250000  0.032671  0.742067  1
  C  C17  1  0.250000  0.185289  0.036473  1
  C  C18  1  0.750000  0.314711  0.536473  1
  C  C19  1  0.750000  0.967253  0.258278  1
