# generated using pymatgen
data_Eu2NbNiO6
_symmetry_space_group_name_H-M   'P 1'
_cell_length_a   5.60367561
_cell_length_b   5.60367596
_cell_length_c   5.60367563
_cell_angle_alpha   60.98506553
_cell_angle_beta   60.98507059
_cell_angle_gamma   60.98506876
_symmetry_Int_Tables_number   1
_chemical_formula_structural   Eu2NbNiO6
_chemical_formula_sum   'Eu2 Nb1 Ni1 O6'
_cell_volume   127.18501634
_cell_formula_units_Z   1
loop_
 _symmetry_equiv_pos_site_id
 _symmetry_equiv_pos_as_xyz
  1  'x, y, z'
loop_
 _atom_site_type_symbol
 _atom_site_label
 _atom_site_symmetry_multiplicity
 _atom_site_fract_x
 _atom_site_fract_y
 _atom_site_fract_z
 _atom_site_occupancy
  Eu  Eu0  1  0.251088  0.251088  0.251088  1
  Eu  Eu1  1  0.748912  0.748912  0.748912  1
  Nb  Nb2  1  0.000000  0.000000  0.000000  1
  Ni  Ni3  1  0.500000  0.500000  0.500000  1
  O  O4  1  0.757260  0.325726  0.165501  1
  O  O5  1  0.674274  0.834498  0.242740  1
  O  O6  1  0.165501  0.757259  0.325726  1
  O  O7  1  0.834498  0.242740  0.674273  1
  O  O8  1  0.325725  0.165502  0.757260  1
  O  O9  1  0.242740  0.674275  0.834497  1
