# generated using pymatgen
data_Er(LuTe2)2
_symmetry_space_group_name_H-M   'P 1'
_cell_length_a   4.27110300
_cell_length_b   7.39352503
_cell_length_c   7.40887106
_cell_angle_alpha   71.83550904
_cell_angle_beta   90.00000000
_cell_angle_gamma   90.00000000
_symmetry_Int_Tables_number   1
_chemical_formula_structural   Er(LuTe2)2
_chemical_formula_sum   'Er1 Lu2 Te4'
_cell_volume   222.30173816
_cell_formula_units_Z   1
loop_
 _symmetry_equiv_pos_site_id
 _symmetry_equiv_pos_as_xyz
  1  'x, y, z'
loop_
 _atom_site_type_symbol
 _atom_site_label
 _atom_site_symmetry_multiplicity
 _atom_site_fract_x
 _atom_site_fract_y
 _atom_site_fract_z
 _atom_site_occupancy
  Er  Er0  1  0.000000  0.500000  0.500000  1
  Lu  Lu1  1  0.000000  0.000000  0.000000  1
  Lu  Lu2  1  0.500000  0.500000  0.000000  1
  Te  Te3  1  0.500000  0.758812  0.253336  1
  Te  Te4  1  0.000000  0.249888  0.247249  1
  Te  Te5  1  0.500000  0.241188  0.746664  1
  Te  Te6  1  0.000000  0.750112  0.752751  1
