# generated using pymatgen
data_Ho9Tm(SiSn3)2
_symmetry_space_group_name_H-M   'P 1'
_cell_length_a   9.17859600
_cell_length_b   9.17859797
_cell_length_c   6.41881100
_cell_angle_alpha   90.00000000
_cell_angle_beta   90.00000000
_cell_angle_gamma   120.00000012
_symmetry_Int_Tables_number   1
_chemical_formula_structural   Ho9Tm(SiSn3)2
_chemical_formula_sum   'Ho9 Tm1 Si2 Sn6'
_cell_volume   468.31473395
_cell_formula_units_Z   1
loop_
 _symmetry_equiv_pos_site_id
 _symmetry_equiv_pos_as_xyz
  1  'x, y, z'
loop_
 _atom_site_type_symbol
 _atom_site_label
 _atom_site_symmetry_multiplicity
 _atom_site_fract_x
 _atom_site_fract_y
 _atom_site_fract_z
 _atom_site_occupancy
  Ho  Ho0  1  0.666667  0.333333  0.000000  1
  Ho  Ho1  1  0.333333  0.666667  0.000000  1
  Ho  Ho2  1  0.333333  0.666667  0.500000  1
  Ho  Ho3  1  0.747374  0.747317  0.750118  1
  Ho  Ho4  1  0.252683  0.000057  0.750118  1
  Ho  Ho5  1  0.999943  0.252626  0.750118  1
  Ho  Ho6  1  0.252683  0.252626  0.249882  1
  Ho  Ho7  1  0.747374  0.000057  0.249882  1
  Ho  Ho8  1  0.999943  0.747317  0.249882  1
  Tm  Tm9  1  0.666667  0.333333  0.500000  1
  Si  Si10  1  0.000000  0.000000  0.000000  1
  Si  Si11  1  0.000000  0.000000  0.500000  1
  Sn  Sn12  1  0.392492  0.392244  0.749913  1
  Sn  Sn13  1  0.607756  0.000248  0.749913  1
  Sn  Sn14  1  0.999752  0.607508  0.749913  1
  Sn  Sn15  1  0.607756  0.607508  0.250087  1
  Sn  Sn16  1  0.392492  0.000248  0.250087  1
  Sn  Sn17  1  0.999752  0.392244  0.250087  1
