# generated using pymatgen
data_Sc5U(SnRu2)6
_symmetry_space_group_name_H-M   'P 1'
_cell_length_a   4.59099000
_cell_length_b   6.47663800
_cell_length_c   13.62653100
_cell_angle_alpha   90.00159087
_cell_angle_beta   89.99918031
_cell_angle_gamma   89.99822927
_symmetry_Int_Tables_number   1
_chemical_formula_structural   Sc5U(SnRu2)6
_chemical_formula_sum   'Sc5 U1 Sn6 Ru12'
_cell_volume   405.17372931
_cell_formula_units_Z   1
loop_
 _symmetry_equiv_pos_site_id
 _symmetry_equiv_pos_as_xyz
  1  'x, y, z'
loop_
 _atom_site_type_symbol
 _atom_site_label
 _atom_site_symmetry_multiplicity
 _atom_site_fract_x
 _atom_site_fract_y
 _atom_site_fract_z
 _atom_site_occupancy
  Sc  Sc0  1  0.499958  0.999997  0.170199  1
  Sc  Sc1  1  0.999960  0.500007  0.336836  1
  Sc  Sc2  1  0.500000  0.000000  0.500000  1
  Sc  Sc3  1  0.000040  0.499995  0.663164  1
  Sc  Sc4  1  0.500042  0.000003  0.829801  1
  U  U5  1  0.000000  0.500001  0.000000  1
  Sn  Sn6  1  0.000000  0.000000  0.000000  1
  Sn  Sn7  1  0.499949  0.500002  0.175192  1
  Sn  Sn8  1  0.999971  0.999998  0.335808  1
  Sn  Sn9  1  0.500000  0.500001  0.500000  1
  Sn  Sn10  1  0.000029  0.000002  0.664192  1
  Sn  Sn11  1  0.500052  0.500000  0.824808  1
  Ru  Ru12  1  0.499974  0.253514  0.000000  1
  Ru  Ru13  1  0.500026  0.746487  0.000000  1
  Ru  Ru14  1  0.999980  0.256092  0.160721  1
  Ru  Ru15  1  0.999953  0.743904  0.160721  1
  Ru  Ru16  1  0.499980  0.246900  0.332721  1
  Ru  Ru17  1  0.499985  0.753098  0.332720  1
  Ru  Ru18  1  0.999999  0.251849  0.500002  1
  Ru  Ru19  1  0.000001  0.748152  0.499998  1
  Ru  Ru20  1  0.500016  0.246902  0.667280  1
  Ru  Ru21  1  0.500021  0.753100  0.667279  1
  Ru  Ru22  1  0.000047  0.256095  0.839279  1
  Ru  Ru23  1  0.000020  0.743907  0.839279  1
