# generated using pymatgen
data_Tb5Nd3(ZnCo)2
_symmetry_space_group_name_H-M   'P 1'
_cell_length_a   9.48582798
_cell_length_b   9.48582799
_cell_length_c   9.48582900
_cell_angle_alpha   59.99999996
_cell_angle_beta   59.99999993
_cell_angle_gamma   59.99999797
_symmetry_Int_Tables_number   1
_chemical_formula_structural   Tb5Nd3(ZnCo)2
_chemical_formula_sum   'Tb10 Nd6 Zn4 Co4'
_cell_volume   603.54655634
_cell_formula_units_Z   2
loop_
 _symmetry_equiv_pos_site_id
 _symmetry_equiv_pos_as_xyz
  1  'x, y, z'
loop_
 _atom_site_type_symbol
 _atom_site_label
 _atom_site_symmetry_multiplicity
 _atom_site_fract_x
 _atom_site_fract_y
 _atom_site_fract_z
 _atom_site_occupancy
  Tb  Tb0  1  0.598987  0.598987  0.598987  1
  Tb  Tb1  1  0.598987  0.598987  0.203039  1
  Tb  Tb2  1  0.598987  0.203039  0.598987  1
  Tb  Tb3  1  0.203039  0.598987  0.598987  1
  Tb  Tb4  1  0.060520  0.439480  0.439480  1
  Tb  Tb5  1  0.439480  0.060520  0.060520  1
  Tb  Tb6  1  0.439480  0.060520  0.439480  1
  Tb  Tb7  1  0.060520  0.439480  0.060520  1
  Tb  Tb8  1  0.439480  0.439480  0.060520  1
  Tb  Tb9  1  0.060520  0.060520  0.439480  1
  Nd  Nd10  1  0.190319  0.809681  0.809681  1
  Nd  Nd11  1  0.809681  0.190319  0.190319  1
  Nd  Nd12  1  0.809681  0.190319  0.809681  1
  Nd  Nd13  1  0.190319  0.809681  0.190319  1
  Nd  Nd14  1  0.809681  0.809681  0.190319  1
  Nd  Nd15  1  0.190319  0.190319  0.809681  1
  Zn  Zn16  1  0.826597  0.826597  0.826597  1
  Zn  Zn17  1  0.826597  0.826597  0.520210  1
  Zn  Zn18  1  0.826597  0.520210  0.826597  1
  Zn  Zn19  1  0.520210  0.826597  0.826597  1
  Co  Co20  1  0.391102  0.391102  0.391102  1
  Co  Co21  1  0.391102  0.391102  0.826695  1
  Co  Co22  1  0.391102  0.826695  0.391102  1
  Co  Co23  1  0.826695  0.391102  0.391102  1
