# generated using pymatgen
data_Ac20Si15Ge
_symmetry_space_group_name_H-M   'P 1'
_cell_length_a   8.30738348
_cell_length_b   8.29996573
_cell_length_c   16.35454411
_cell_angle_alpha   89.99401061
_cell_angle_beta   89.99093107
_cell_angle_gamma   90.03382920
_symmetry_Int_Tables_number   1
_chemical_formula_structural   Ac20Si15Ge
_chemical_formula_sum   'Ac20 Si15 Ge1'
_cell_volume   1127.66192501
_cell_formula_units_Z   1
loop_
 _symmetry_equiv_pos_site_id
 _symmetry_equiv_pos_as_xyz
  1  'x, y, z'
loop_
 _atom_site_type_symbol
 _atom_site_label
 _atom_site_symmetry_multiplicity
 _atom_site_fract_x
 _atom_site_fract_y
 _atom_site_fract_z
 _atom_site_occupancy
  Ac  Ac0  1  0.375817  0.472834  0.372949  1
  Ac  Ac1  1  0.873773  0.028901  0.376620  1
  Ac  Ac2  1  0.973115  0.124849  0.122513  1
  Ac  Ac3  1  0.026952  0.875198  0.623172  1
  Ac  Ac4  1  0.625169  0.526803  0.872984  1
  Ac  Ac5  1  0.473278  0.373976  0.627860  1
  Ac  Ac6  1  0.527233  0.625063  0.127119  1
  Ac  Ac7  1  0.124487  0.973251  0.877491  1
  Ac  Ac8  1  0.984217  0.620598  0.052286  1
  Ac  Ac9  1  0.015493  0.378116  0.553763  1
  Ac  Ac10  1  0.620613  0.984750  0.946921  1
  Ac  Ac11  1  0.120868  0.515540  0.803090  1
  Ac  Ac12  1  0.877115  0.483092  0.301329  1
  Ac  Ac13  1  0.515687  0.120999  0.196705  1
  Ac  Ac14  1  0.485131  0.879441  0.697528  1
  Ac  Ac15  1  0.380637  0.015457  0.446863  1
  Ac  Ac16  1  0.690152  0.692350  0.500719  1
  Ac  Ac17  1  0.807653  0.192733  0.750344  1
  Ac  Ac18  1  0.193177  0.807979  0.247969  1
  Ac  Ac19  1  0.307434  0.307290  0.000013  1
  Si  Si20  1  0.918075  0.290354  0.939921  1
  Si  Si21  1  0.710920  0.081788  0.560260  1
  Si  Si22  1  0.209973  0.418440  0.190050  1
  Si  Si23  1  0.790766  0.581709  0.690024  1
  Si  Si24  1  0.417746  0.210124  0.810583  1
  Si  Si25  1  0.582066  0.790220  0.310288  1
  Si  Si26  1  0.289910  0.917765  0.059722  1
  Si  Si27  1  0.829769  0.804935  0.789133  1
  Si  Si28  1  0.170760  0.195272  0.288683  1
  Si  Si29  1  0.805038  0.829367  0.210925  1
  Si  Si30  1  0.308312  0.670682  0.541142  1
  Si  Si31  1  0.695127  0.329536  0.039136  1
  Si  Si32  1  0.670830  0.305216  0.461529  1
  Si  Si33  1  0.329667  0.694843  0.960787  1
  Si  Si34  1  0.194678  0.170447  0.711445  1
  Ge  Ge35  1  0.078359  0.710083  0.438133  1
