# generated using pymatgen
data_Er5(MnB3)2
_symmetry_space_group_name_H-M   'P 1'
_cell_length_a   5.41514908
_cell_length_b   5.41514936
_cell_length_c   8.20931960
_cell_angle_alpha   70.74232061
_cell_angle_beta   70.74232154
_cell_angle_gamma   60.00000433
_symmetry_Int_Tables_number   1
_chemical_formula_structural   Er5(MnB3)2
_chemical_formula_sum   'Er5 Mn2 B6'
_cell_volume   192.76659765
_cell_formula_units_Z   1
loop_
 _symmetry_equiv_pos_site_id
 _symmetry_equiv_pos_as_xyz
  1  'x, y, z'
loop_
 _atom_site_type_symbol
 _atom_site_label
 _atom_site_symmetry_multiplicity
 _atom_site_fract_x
 _atom_site_fract_y
 _atom_site_fract_z
 _atom_site_occupancy
  Er  Er0  1  0.000000  0.000000  0.000000  1
  Er  Er1  1  0.749348  0.749348  0.751956  1
  Er  Er2  1  0.250652  0.250652  0.248044  1
  Er  Er3  1  0.583715  0.583715  0.248854  1
  Er  Er4  1  0.416285  0.416285  0.751146  1
  Mn  Mn5  1  0.885669  0.885669  0.342993  1
  Mn  Mn6  1  0.114331  0.114331  0.657007  1
  B  B7  1  0.500000  0.167188  0.500000  1
  B  B8  1  0.832812  0.500000  0.500000  1
  B  B9  1  0.167188  0.832812  0.500000  1
  B  B10  1  0.167188  0.500000  0.500000  1
  B  B11  1  0.832812  0.167188  0.500000  1
  B  B12  1  0.500000  0.832812  0.500000  1
