# generated using pymatgen
data_Gd2YTm5(WO6)4
_symmetry_space_group_name_H-M   'P 1'
_cell_length_a   5.38697500
_cell_length_b   7.67955435
_cell_length_c   11.42303794
_cell_angle_alpha   75.48239956
_cell_angle_beta   90.00000000
_cell_angle_gamma   90.00000000
_symmetry_Int_Tables_number   1
_chemical_formula_structural   Gd2YTm5(WO6)4
_chemical_formula_sum   'Gd2 Y1 Tm5 W4 O24'
_cell_volume   457.47742229
_cell_formula_units_Z   1
loop_
 _symmetry_equiv_pos_site_id
 _symmetry_equiv_pos_as_xyz
  1  'x, y, z'
loop_
 _atom_site_type_symbol
 _atom_site_label
 _atom_site_symmetry_multiplicity
 _atom_site_fract_x
 _atom_site_fract_y
 _atom_site_fract_z
 _atom_site_occupancy
  Gd  Gd0  1  0.684490  0.500000  0.750000  1
  Gd  Gd1  1  0.314803  0.500000  0.250000  1
  Y  Y2  1  0.741606  0.000000  0.750000  1
  Tm  Tm3  1  0.259307  0.000000  0.250000  1
  Tm  Tm4  1  0.185867  0.796252  0.577454  1
  Tm  Tm5  1  0.814627  0.796564  0.078446  1
  Tm  Tm6  1  0.185867  0.203748  0.922546  1
  Tm  Tm7  1  0.814627  0.203436  0.421554  1
  W  W8  1  0.254388  0.724617  0.885721  1
  W  W9  1  0.745455  0.725738  0.385120  1
  W  W10  1  0.254388  0.275383  0.614279  1
  W  W11  1  0.745455  0.274262  0.114880  1
  O  O12  1  0.043588  0.941253  0.897406  1
  O  O13  1  0.534369  0.846148  0.932343  1
  O  O14  1  0.959768  0.941847  0.395498  1
  O  O15  1  0.455799  0.791696  0.726294  1
  O  O16  1  0.464779  0.847959  0.430864  1
  O  O17  1  0.984065  0.714630  0.769595  1
  O  O18  1  0.541398  0.794282  0.226173  1
  O  O19  1  0.855287  0.638213  0.547867  1
  O  O20  1  0.355628  0.488649  0.887923  1
  O  O21  1  0.016179  0.715952  0.269227  1
  O  O22  1  0.355628  0.511351  0.612077  1
  O  O23  1  0.855287  0.361787  0.952133  1
  O  O24  1  0.143829  0.636957  0.048400  1
  O  O25  1  0.644871  0.489730  0.387257  1
  O  O26  1  0.984065  0.285370  0.730405  1
  O  O27  1  0.644871  0.510270  0.112743  1
  O  O28  1  0.143829  0.363043  0.451600  1
  O  O29  1  0.455799  0.208304  0.773706  1
  O  O30  1  0.016179  0.284048  0.230773  1
  O  O31  1  0.534369  0.153852  0.567657  1
  O  O32  1  0.541398  0.205718  0.273827  1
  O  O33  1  0.043588  0.058747  0.602594  1
  O  O34  1  0.464779  0.152041  0.069136  1
  O  O35  1  0.959768  0.058153  0.104502  1
