# generated using pymatgen
data_Dy5Y15Sn16
_symmetry_space_group_name_H-M   'P 1'
_cell_length_a   8.05443501
_cell_length_b   8.19468501
_cell_length_c   15.50462401
_cell_angle_alpha   89.99669437
_cell_angle_beta   90.00116725
_cell_angle_gamma   90.00473906
_symmetry_Int_Tables_number   1
_chemical_formula_structural   Dy5Y15Sn16
_chemical_formula_sum   'Dy5 Y15 Sn16'
_cell_volume   1023.36034175
_cell_formula_units_Z   1
loop_
 _symmetry_equiv_pos_site_id
 _symmetry_equiv_pos_as_xyz
  1  'x, y, z'
loop_
 _atom_site_type_symbol
 _atom_site_label
 _atom_site_symmetry_multiplicity
 _atom_site_fract_x
 _atom_site_fract_y
 _atom_site_fract_z
 _atom_site_occupancy
  Dy  Dy0  1  0.367418  0.836243  0.878105  1
  Dy  Dy1  1  0.867406  0.663794  0.621908  1
  Dy  Dy2  1  0.632608  0.163805  0.378107  1
  Dy  Dy3  1  0.132669  0.336217  0.121876  1
  Dy  Dy4  1  0.632642  0.163720  0.121888  1
  Y  Y5  1  0.132769  0.336386  0.378099  1
  Y  Y6  1  0.367212  0.836421  0.621927  1
  Y  Y7  1  0.867216  0.663584  0.878107  1
  Y  Y8  1  0.522386  0.320861  0.902095  1
  Y  Y9  1  0.022378  0.179090  0.597945  1
  Y  Y10  1  0.477630  0.679118  0.402057  1
  Y  Y11  1  0.977607  0.820949  0.097950  1
  Y  Y12  1  0.477744  0.679196  0.097882  1
  Y  Y13  1  0.977723  0.820759  0.402128  1
  Y  Y14  1  0.522280  0.320773  0.597888  1
  Y  Y15  1  0.022285  0.179240  0.902138  1
  Y  Y16  1  0.198766  0.502596  0.749916  1
  Y  Y17  1  0.698762  0.997370  0.750049  1
  Y  Y18  1  0.801241  0.497333  0.249931  1
  Y  Y19  1  0.301312  0.002664  0.250007  1
  Sn  Sn20  1  0.292354  0.034694  0.041839  1
  Sn  Sn21  1  0.792168  0.465394  0.458202  1
  Sn  Sn22  1  0.707815  0.965380  0.541794  1
  Sn  Sn23  1  0.207812  0.534622  0.958198  1
  Sn  Sn24  1  0.707639  0.965569  0.958245  1
  Sn  Sn25  1  0.207697  0.534516  0.541857  1
  Sn  Sn26  1  0.292323  0.034534  0.458151  1
  Sn  Sn27  1  0.792231  0.465164  0.041916  1
  Sn  Sn28  1  0.565200  0.619519  0.750071  1
  Sn  Sn29  1  0.065197  0.880504  0.749926  1
  Sn  Sn30  1  0.434925  0.380384  0.249956  1
  Sn  Sn31  1  0.934613  0.119545  0.249857  1
  Sn  Sn32  1  0.330301  0.146854  0.750072  1
  Sn  Sn33  1  0.830271  0.353118  0.749923  1
  Sn  Sn34  1  0.669693  0.853213  0.250038  1
  Sn  Sn35  1  0.169704  0.646868  0.249952  1
