# generated using pymatgen
data_Lu5TlIr2
_symmetry_space_group_name_H-M   'P 1'
_cell_length_a   8.54491770
_cell_length_b   8.54491696
_cell_length_c   8.54491700
_cell_angle_alpha   127.06727744
_cell_angle_beta   127.06727367
_cell_angle_gamma   78.14094442
_symmetry_Int_Tables_number   1
_chemical_formula_structural   Lu5TlIr2
_chemical_formula_sum   'Lu10 Tl2 Ir4'
_cell_volume   384.84371617
_cell_formula_units_Z   2
loop_
 _symmetry_equiv_pos_site_id
 _symmetry_equiv_pos_as_xyz
  1  'x, y, z'
loop_
 _atom_site_type_symbol
 _atom_site_label
 _atom_site_symmetry_multiplicity
 _atom_site_fract_x
 _atom_site_fract_y
 _atom_site_fract_z
 _atom_site_occupancy
  Lu  Lu0  1  0.500000  0.500000  0.000000  1
  Lu  Lu1  1  0.000000  0.000000  0.000000  1
  Lu  Lu2  1  0.523038  0.023038  0.814112  1
  Lu  Lu3  1  0.208915  0.708915  0.185932  1
  Lu  Lu4  1  0.023042  0.208935  0.500104  1
  Lu  Lu5  1  0.708935  0.523042  0.500104  1
  Lu  Lu6  1  0.476962  0.976962  0.185888  1
  Lu  Lu7  1  0.791085  0.291085  0.814068  1
  Lu  Lu8  1  0.976958  0.791065  0.499896  1
  Lu  Lu9  1  0.291065  0.476958  0.499896  1
  Tl  Tl10  1  0.249968  0.250032  0.000000  1
  Tl  Tl11  1  0.750032  0.749968  0.000000  1
  Ir  Ir12  1  0.142162  0.642162  0.784427  1
  Ir  Ir13  1  0.857838  0.357838  0.215573  1
  Ir  Ir14  1  0.642261  0.857739  0.500000  1
  Ir  Ir15  1  0.357739  0.142261  0.500000  1
