# generated using pymatgen
data_Y2Al9Pd2Ru
_symmetry_space_group_name_H-M   'P 1'
_cell_length_a   7.60349503
_cell_length_b   7.60349462
_cell_length_c   9.52069100
_cell_angle_alpha   90.00000000
_cell_angle_beta   90.00000000
_cell_angle_gamma   119.36961626
_symmetry_Int_Tables_number   1
_chemical_formula_structural   Y2Al9Pd2Ru
_chemical_formula_sum   'Y4 Al18 Pd4 Ru2'
_cell_volume   479.67758052
_cell_formula_units_Z   2
loop_
 _symmetry_equiv_pos_site_id
 _symmetry_equiv_pos_as_xyz
  1  'x, y, z'
loop_
 _atom_site_type_symbol
 _atom_site_label
 _atom_site_symmetry_multiplicity
 _atom_site_fract_x
 _atom_site_fract_y
 _atom_site_fract_z
 _atom_site_occupancy
  Y  Y0  1  0.994790  0.669151  0.250000  1
  Y  Y1  1  0.005210  0.330849  0.750000  1
  Y  Y2  1  0.669151  0.994790  0.250000  1
  Y  Y3  1  0.330849  0.005210  0.750000  1
  Al  Al4  1  0.124179  0.124179  0.250000  1
  Al  Al5  1  0.875821  0.875821  0.750000  1
  Al  Al6  1  0.000387  0.329247  0.075865  1
  Al  Al7  1  0.999613  0.670753  0.924135  1
  Al  Al8  1  0.999613  0.670753  0.575865  1
  Al  Al9  1  0.329247  0.000387  0.424135  1
  Al  Al10  1  0.000387  0.329247  0.424135  1
  Al  Al11  1  0.670753  0.999613  0.575865  1
  Al  Al12  1  0.670753  0.999613  0.924135  1
  Al  Al13  1  0.329247  0.000387  0.075865  1
  Al  Al14  1  0.328252  0.328252  0.554497  1
  Al  Al15  1  0.671748  0.671748  0.445503  1
  Al  Al16  1  0.671748  0.671748  0.054497  1
  Al  Al17  1  0.328252  0.328252  0.945503  1
  Al  Al18  1  0.341729  0.546474  0.250000  1
  Al  Al19  1  0.658271  0.453526  0.750000  1
  Al  Al20  1  0.546474  0.341729  0.250000  1
  Al  Al21  1  0.453526  0.658271  0.750000  1
  Pd  Pd22  1  0.672216  0.327784  0.000000  1
  Pd  Pd23  1  0.327784  0.672216  0.000000  1
  Pd  Pd24  1  0.327784  0.672216  0.500000  1
  Pd  Pd25  1  0.672216  0.327784  0.500000  1
  Ru  Ru26  1  0.000000  0.000000  0.000000  1
  Ru  Ru27  1  0.000000  0.000000  0.500000  1
