# generated using pymatgen
data_Y2Ag3AuO8
_symmetry_space_group_name_H-M   'P 1'
_cell_length_a   6.52272148
_cell_length_b   6.55573739
_cell_length_c   6.63391300
_cell_angle_alpha   126.52132371
_cell_angle_beta   125.04046546
_cell_angle_gamma   78.72128679
_symmetry_Int_Tables_number   1
_chemical_formula_structural   Y2Ag3AuO8
_chemical_formula_sum   'Y2 Ag3 Au1 O8'
_cell_volume   181.99021477
_cell_formula_units_Z   1
loop_
 _symmetry_equiv_pos_site_id
 _symmetry_equiv_pos_as_xyz
  1  'x, y, z'
loop_
 _atom_site_type_symbol
 _atom_site_label
 _atom_site_symmetry_multiplicity
 _atom_site_fract_x
 _atom_site_fract_y
 _atom_site_fract_z
 _atom_site_occupancy
  Y  Y0  1  0.997706  0.003258  0.000159  1
  Y  Y1  1  0.752294  0.246742  0.499841  1
  Ag  Ag2  1  0.875000  0.625000  0.250000  1
  Ag  Ag3  1  0.375000  0.125000  0.750000  1
  Ag  Ag4  1  0.375000  0.625000  0.250000  1
  Au  Au5  1  0.375000  0.625000  0.750000  1
  O  O6  1  0.387360  0.244034  0.511369  1
  O  O7  1  0.022542  0.369880  0.008088  1
  O  O8  1  0.990056  0.955607  0.332537  1
  O  O9  1  0.126751  0.593520  0.826807  1
  O  O10  1  0.623249  0.656480  0.673193  1
  O  O11  1  0.759944  0.294393  0.167463  1
  O  O12  1  0.727458  0.880120  0.491912  1
  O  O13  1  0.362640  0.005966  0.988631  1
