# generated using pymatgen
data_Zr6Zn18SnIr5
_symmetry_space_group_name_H-M   'P 1'
_cell_length_a   8.85224500
_cell_length_b   8.85224324
_cell_length_c   8.85224462
_cell_angle_alpha   59.79983315
_cell_angle_beta   59.79983200
_cell_angle_gamma   59.79983234
_symmetry_Int_Tables_number   1
_chemical_formula_structural   Zr6Zn18SnIr5
_chemical_formula_sum   'Zr6 Zn18 Sn1 Ir5'
_cell_volume   488.27810517
_cell_formula_units_Z   1
loop_
 _symmetry_equiv_pos_site_id
 _symmetry_equiv_pos_as_xyz
  1  'x, y, z'
loop_
 _atom_site_type_symbol
 _atom_site_label
 _atom_site_symmetry_multiplicity
 _atom_site_fract_x
 _atom_site_fract_y
 _atom_site_fract_z
 _atom_site_occupancy
  Zr  Zr0  1  0.724571  0.268888  0.268888  1
  Zr  Zr1  1  0.275429  0.731112  0.731112  1
  Zr  Zr2  1  0.268888  0.724571  0.268888  1
  Zr  Zr3  1  0.731112  0.275429  0.731112  1
  Zr  Zr4  1  0.268888  0.268888  0.724571  1
  Zr  Zr5  1  0.731112  0.731112  0.275429  1
  Zn  Zn6  1  0.128681  0.128681  0.609915  1
  Zn  Zn7  1  0.128681  0.609915  0.128681  1
  Zn  Zn8  1  0.871319  0.871319  0.390085  1
  Zn  Zn9  1  0.871319  0.390085  0.871319  1
  Zn  Zn10  1  0.609915  0.128681  0.128681  1
  Zn  Zn11  1  0.390085  0.871319  0.871319  1
  Zn  Zn12  1  0.500000  0.000000  0.000000  1
  Zn  Zn13  1  0.000000  0.500000  0.000000  1
  Zn  Zn14  1  0.000000  0.000000  0.500000  1
  Zn  Zn15  1  0.343537  0.343537  0.343537  1
  Zn  Zn16  1  0.656463  0.656463  0.656463  1
  Zn  Zn17  1  0.337697  0.337697  0.975150  1
  Zn  Zn18  1  0.337697  0.975150  0.337697  1
  Zn  Zn19  1  0.662303  0.662303  0.024850  1
  Zn  Zn20  1  0.662303  0.024850  0.662303  1
  Zn  Zn21  1  0.975150  0.337697  0.337697  1
  Zn  Zn22  1  0.024850  0.662303  0.662303  1
  Zn  Zn23  1  0.000000  0.000000  0.000000  1
  Sn  Sn24  1  0.500000  0.500000  0.500000  1
  Ir  Ir25  1  0.117966  0.117966  0.117966  1
  Ir  Ir26  1  0.882034  0.882034  0.882034  1
  Ir  Ir27  1  0.000000  0.500000  0.500000  1
  Ir  Ir28  1  0.500000  0.000000  0.500000  1
  Ir  Ir29  1  0.500000  0.500000  0.000000  1
