# generated using pymatgen
data_CeTh3(MnC4)2
_symmetry_space_group_name_H-M   'P 1'
_cell_length_a   6.85787650
_cell_length_b   6.84582747
_cell_length_c   6.84582612
_cell_angle_alpha   135.17700909
_cell_angle_beta   114.15949074
_cell_angle_gamma   83.16117634
_symmetry_Int_Tables_number   1
_chemical_formula_structural   CeTh3(MnC4)2
_chemical_formula_sum   'Ce1 Th3 Mn2 C8'
_cell_volume   199.25505681
_cell_formula_units_Z   1
loop_
 _symmetry_equiv_pos_site_id
 _symmetry_equiv_pos_as_xyz
  1  'x, y, z'
loop_
 _atom_site_type_symbol
 _atom_site_label
 _atom_site_symmetry_multiplicity
 _atom_site_fract_x
 _atom_site_fract_y
 _atom_site_fract_z
 _atom_site_occupancy
  Ce  Ce0  1  0.528820  0.859654  0.669165  1
  Th  Th1  1  0.469642  0.142946  0.326697  1
  Th  Th2  1  0.812405  0.640810  0.171596  1
  Th  Th3  1  0.188066  0.358274  0.829791  1
  Mn  Mn4  1  0.999205  0.248516  0.249446  1
  Mn  Mn5  1  0.999205  0.749758  0.750689  1
  C  C6  1  0.243129  0.582476  0.660653  1
  C  C7  1  0.757586  0.417983  0.339602  1
  C  C8  1  0.080444  0.917710  0.162733  1
  C  C9  1  0.917587  0.080296  0.837291  1
  C  C10  1  0.468976  0.629711  0.839265  1
  C  C11  1  0.533048  0.371661  0.161388  1
  C  C12  1  0.788158  0.128923  0.659235  1
  C  C13  1  0.213730  0.871281  0.342448  1
