# generated using pymatgen
data_Dy6ScMoO12
_symmetry_space_group_name_H-M   'P 1'
_cell_length_a   6.62691183
_cell_length_b   6.62691288
_cell_length_c   6.62691285
_cell_angle_alpha   92.14466765
_cell_angle_beta   92.14466007
_cell_angle_gamma   92.14466777
_symmetry_Int_Tables_number   1
_chemical_formula_structural   Dy6ScMoO12
_chemical_formula_sum   'Dy6 Sc1 Mo1 O12'
_cell_volume   290.40000183
_cell_formula_units_Z   1
loop_
 _symmetry_equiv_pos_site_id
 _symmetry_equiv_pos_as_xyz
  1  'x, y, z'
loop_
 _atom_site_type_symbol
 _atom_site_label
 _atom_site_symmetry_multiplicity
 _atom_site_fract_x
 _atom_site_fract_y
 _atom_site_fract_z
 _atom_site_occupancy
  Dy  Dy0  1  0.745844  0.931241  0.439838  1
  Dy  Dy1  1  0.931241  0.439838  0.745844  1
  Dy  Dy2  1  0.439838  0.745844  0.931241  1
  Dy  Dy3  1  0.254156  0.068759  0.560162  1
  Dy  Dy4  1  0.068759  0.560162  0.254156  1
  Dy  Dy5  1  0.560162  0.254156  0.068759  1
  Sc  Sc6  1  0.500000  0.500000  0.500000  1
  Mo  Mo7  1  0.000000  0.000000  0.000000  1
  O  O8  1  0.592665  0.463585  0.805954  1
  O  O9  1  0.463585  0.805954  0.592665  1
  O  O10  1  0.805954  0.592665  0.463585  1
  O  O11  1  0.407335  0.536415  0.194046  1
  O  O12  1  0.536415  0.194046  0.407335  1
  O  O13  1  0.194046  0.407335  0.536415  1
  O  O14  1  0.069076  0.909574  0.310487  1
  O  O15  1  0.909574  0.310487  0.069076  1
  O  O16  1  0.689513  0.930924  0.090426  1
  O  O17  1  0.090426  0.689513  0.930924  1
  O  O18  1  0.930924  0.090426  0.689513  1
  O  O19  1  0.310487  0.069076  0.909574  1
