# generated using pymatgen
data_Yb4Ge6Ir4Pt3
_symmetry_space_group_name_H-M   'P 1'
_cell_length_a   7.26426282
_cell_length_b   7.26112643
_cell_length_c   7.26426308
_cell_angle_alpha   109.46247442
_cell_angle_beta   109.47995650
_cell_angle_gamma   109.46248208
_symmetry_Int_Tables_number   1
_chemical_formula_structural   Yb4Ge6Ir4Pt3
_chemical_formula_sum   'Yb4 Ge6 Ir4 Pt3'
_cell_volume   294.99326049
_cell_formula_units_Z   1
loop_
 _symmetry_equiv_pos_site_id
 _symmetry_equiv_pos_as_xyz
  1  'x, y, z'
loop_
 _atom_site_type_symbol
 _atom_site_label
 _atom_site_symmetry_multiplicity
 _atom_site_fract_x
 _atom_site_fract_y
 _atom_site_fract_z
 _atom_site_occupancy
  Yb  Yb0  1  0.499217  0.500000  0.500783  1
  Yb  Yb1  1  0.000000  0.500000  0.000000  1
  Yb  Yb2  1  0.001566  0.000783  0.500783  1
  Yb  Yb3  1  0.499217  0.999217  0.998434  1
  Ge  Ge4  1  0.688328  0.999499  0.677623  1
  Ge  Ge5  1  0.322377  0.000501  0.311672  1
  Ge  Ge6  1  0.989295  0.311172  0.311672  1
  Ge  Ge7  1  0.989295  0.678124  0.677623  1
  Ge  Ge8  1  0.688328  0.688828  0.010705  1
  Ge  Ge9  1  0.322377  0.321876  0.010705  1
  Ir  Ir10  1  0.499545  0.749773  0.249773  1
  Ir  Ir11  1  0.750227  0.500000  0.249773  1
  Ir  Ir12  1  0.000000  0.000000  0.000000  1
  Ir  Ir13  1  0.750227  0.250227  0.500455  1
  Pt  Pt14  1  0.249932  0.500000  0.750068  1
  Pt  Pt15  1  0.249932  0.749932  0.499864  1
  Pt  Pt16  1  0.500136  0.250068  0.750068  1
