# generated using pymatgen
data_Ir7(RhS6)2
_symmetry_space_group_name_H-M   'P 1'
_cell_length_a   7.57803656
_cell_length_b   7.57803700
_cell_length_c   6.33019756
_cell_angle_alpha   77.59551679
_cell_angle_beta   77.59551363
_cell_angle_gamma   92.16485736
_symmetry_Int_Tables_number   1
_chemical_formula_structural   Ir7(RhS6)2
_chemical_formula_sum   'Ir7 Rh2 S12'
_cell_volume   345.40302744
_cell_formula_units_Z   1
loop_
 _symmetry_equiv_pos_site_id
 _symmetry_equiv_pos_as_xyz
  1  'x, y, z'
loop_
 _atom_site_type_symbol
 _atom_site_label
 _atom_site_symmetry_multiplicity
 _atom_site_fract_x
 _atom_site_fract_y
 _atom_site_fract_z
 _atom_site_occupancy
  Ir  Ir0  1  0.161758  0.838242  0.000000  1
  Ir  Ir1  1  0.838079  0.161921  0.000000  1
  Ir  Ir2  1  0.999052  0.000948  0.500000  1
  Ir  Ir3  1  0.349102  0.349148  0.945464  1
  Ir  Ir4  1  0.650852  0.650898  0.054536  1
  Ir  Ir5  1  0.783904  0.489297  0.452656  1
  Ir  Ir6  1  0.510703  0.216096  0.547344  1
  Rh  Rh7  1  0.217446  0.509047  0.548925  1
  Rh  Rh8  1  0.490953  0.782554  0.451075  1
  S  S9  1  0.855643  0.439497  0.103741  1
  S  S10  1  0.560503  0.144357  0.896259  1
  S  S11  1  0.144405  0.561144  0.897606  1
  S  S12  1  0.438856  0.855595  0.102394  1
  S  S13  1  0.116367  0.116591  0.111507  1
  S  S14  1  0.883409  0.883633  0.888493  1
  S  S15  1  0.032336  0.717637  0.385217  1
  S  S16  1  0.282363  0.967664  0.614783  1
  S  S17  1  0.966403  0.283577  0.615299  1
  S  S18  1  0.585261  0.583818  0.730662  1
  S  S19  1  0.416182  0.414739  0.269338  1
  S  S20  1  0.716423  0.033597  0.384701  1
