# generated using pymatgen
data_Tb2AlZnGaSi2Au3
_symmetry_space_group_name_H-M   'P 1'
_cell_length_a   4.12550300
_cell_length_b   4.12550300
_cell_length_c   11.11893500
_cell_angle_alpha   90.00000000
_cell_angle_beta   90.00000000
_cell_angle_gamma   90.00000000
_symmetry_Int_Tables_number   1
_chemical_formula_structural   Tb2AlZnGaSi2Au3
_chemical_formula_sum   'Tb2 Al1 Zn1 Ga1 Si2 Au3'
_cell_volume   189.24177197
_cell_formula_units_Z   1
loop_
 _symmetry_equiv_pos_site_id
 _symmetry_equiv_pos_as_xyz
  1  'x, y, z'
loop_
 _atom_site_type_symbol
 _atom_site_label
 _atom_site_symmetry_multiplicity
 _atom_site_fract_x
 _atom_site_fract_y
 _atom_site_fract_z
 _atom_site_occupancy
  Tb  Tb0  1  0.000000  0.500000  0.233886  1
  Tb  Tb1  1  0.500000  0.000000  0.766114  1
  Al  Al2  1  0.500000  0.500000  0.500000  1
  Zn  Zn3  1  0.000000  0.000000  0.000000  1
  Ga  Ga4  1  0.000000  0.000000  0.500000  1
  Si  Si5  1  0.000000  0.500000  0.862547  1
  Si  Si6  1  0.500000  0.000000  0.137453  1
  Au  Au7  1  0.500000  0.500000  0.000000  1
  Au  Au8  1  0.000000  0.500000  0.644833  1
  Au  Au9  1  0.500000  0.000000  0.355167  1
