# generated using pymatgen
data_Nd3Dy2V3(P3Ir4)4
_symmetry_space_group_name_H-M   'P 1'
_cell_length_a   12.74221600
_cell_length_b   12.74221621
_cell_length_c   3.98381400
_cell_angle_alpha   90.00000000
_cell_angle_beta   90.00000000
_cell_angle_gamma   119.99999945
_symmetry_Int_Tables_number   1
_chemical_formula_structural   Nd3Dy2V3(P3Ir4)4
_chemical_formula_sum   'Nd3 Dy2 V3 P12 Ir16'
_cell_volume   560.16970835
_cell_formula_units_Z   1
loop_
 _symmetry_equiv_pos_site_id
 _symmetry_equiv_pos_as_xyz
  1  'x, y, z'
loop_
 _atom_site_type_symbol
 _atom_site_label
 _atom_site_symmetry_multiplicity
 _atom_site_fract_x
 _atom_site_fract_y
 _atom_site_fract_z
 _atom_site_occupancy
  Nd  Nd0  1  0.000000  0.810647  0.000000  1
  Nd  Nd1  1  0.189353  0.189353  0.000000  1
  Nd  Nd2  1  0.810647  0.000000  0.000000  1
  Dy  Dy3  1  0.333333  0.666667  0.500000  1
  Dy  Dy4  1  0.666667  0.333333  0.500000  1
  V  V5  1  0.000000  0.450284  0.500000  1
  V  V6  1  0.549716  0.549716  0.500000  1
  V  V7  1  0.450284  0.000000  0.500000  1
  P  P8  1  0.000000  0.632651  0.500000  1
  P  P9  1  0.367349  0.367349  0.500000  1
  P  P10  1  0.632651  0.000000  0.500000  1
  P  P11  1  0.516398  0.684219  0.000000  1
  P  P12  1  0.315781  0.832178  0.000000  1
  P  P13  1  0.167822  0.483602  0.000000  1
  P  P14  1  0.483602  0.167822  0.000000  1
  P  P15  1  0.684219  0.516398  0.000000  1
  P  P16  1  0.832178  0.315781  0.000000  1
  P  P17  1  0.000000  0.179446  0.500000  1
  P  P18  1  0.820554  0.820554  0.500000  1
  P  P19  1  0.179446  0.000000  0.500000  1
  Ir  Ir20  1  0.508611  0.867305  0.000000  1
  Ir  Ir21  1  0.132695  0.641306  0.000000  1
  Ir  Ir22  1  0.358694  0.491389  0.000000  1
  Ir  Ir23  1  0.491389  0.358694  0.000000  1
  Ir  Ir24  1  0.867305  0.508611  0.000000  1
  Ir  Ir25  1  0.641306  0.132695  0.000000  1
  Ir  Ir26  1  0.000000  0.287243  0.000000  1
  Ir  Ir27  1  0.712757  0.712757  0.000000  1
  Ir  Ir28  1  0.287243  0.000000  0.000000  1
  Ir  Ir29  1  0.621387  0.799949  0.500000  1
  Ir  Ir30  1  0.200051  0.821438  0.500000  1
  Ir  Ir31  1  0.178562  0.378613  0.500000  1
  Ir  Ir32  1  0.378613  0.178562  0.500000  1
  Ir  Ir33  1  0.799949  0.621387  0.500000  1
  Ir  Ir34  1  0.821438  0.200051  0.500000  1
  Ir  Ir35  1  0.000000  0.000000  0.500000  1
