# generated using pymatgen
data_BaTl(Si2Au5)2
_symmetry_space_group_name_H-M   'P 1'
_cell_length_a   7.07420400
_cell_length_b   9.11150600
_cell_length_c   10.24176300
_cell_angle_alpha   90.00000000
_cell_angle_beta   90.00000000
_cell_angle_gamma   90.00000000
_symmetry_Int_Tables_number   1
_chemical_formula_structural   BaTl(Si2Au5)2
_chemical_formula_sum   'Ba2 Tl2 Si8 Au20'
_cell_volume   660.14975552
_cell_formula_units_Z   2
loop_
 _symmetry_equiv_pos_site_id
 _symmetry_equiv_pos_as_xyz
  1  'x, y, z'
loop_
 _atom_site_type_symbol
 _atom_site_label
 _atom_site_symmetry_multiplicity
 _atom_site_fract_x
 _atom_site_fract_y
 _atom_site_fract_z
 _atom_site_occupancy
  Ba  Ba0  1  0.750000  0.749866  0.882014  1
  Ba  Ba1  1  0.750000  0.249866  0.617986  1
  Tl  Tl2  1  0.250000  0.244855  0.122618  1
  Tl  Tl3  1  0.250000  0.744855  0.377382  1
  Si  Si4  1  0.250000  0.046929  0.652315  1
  Si  Si5  1  0.250000  0.546929  0.847685  1
  Si  Si6  1  0.750000  0.954151  0.359523  1
  Si  Si7  1  0.750000  0.454151  0.140477  1
  Si  Si8  1  0.250000  0.314109  0.450530  1
  Si  Si9  1  0.250000  0.814109  0.049470  1
  Si  Si10  1  0.750000  0.684645  0.537313  1
  Si  Si11  1  0.750000  0.184645  0.962687  1
  Au  Au12  1  0.050736  0.087051  0.387778  1
  Au  Au13  1  0.449264  0.587051  0.112222  1
  Au  Au14  1  0.541192  0.904155  0.607451  1
  Au  Au15  1  0.958808  0.404155  0.892549  1
  Au  Au16  1  0.958808  0.904155  0.607451  1
  Au  Au17  1  0.541192  0.404155  0.892549  1
  Au  Au18  1  0.449264  0.087051  0.387778  1
  Au  Au19  1  0.050736  0.587051  0.112222  1
  Au  Au20  1  0.035789  0.075643  0.872205  1
  Au  Au21  1  0.464211  0.575643  0.627795  1
  Au  Au22  1  0.530341  0.932460  0.135882  1
  Au  Au23  1  0.969659  0.432460  0.364118  1
  Au  Au24  1  0.969659  0.932460  0.135882  1
  Au  Au25  1  0.530341  0.432460  0.364118  1
  Au  Au26  1  0.464211  0.075643  0.872205  1
  Au  Au27  1  0.035789  0.575643  0.627795  1
  Au  Au28  1  0.250000  0.311533  0.690618  1
  Au  Au29  1  0.250000  0.811533  0.809382  1
  Au  Au30  1  0.750000  0.695293  0.299817  1
  Au  Au31  1  0.750000  0.195293  0.200183  1
