# generated using pymatgen
data_Nd3Ag(Pt2O7)2
_symmetry_space_group_name_H-M   'P 1'
_cell_length_a   7.31323767
_cell_length_b   7.31323843
_cell_length_c   7.31323690
_cell_angle_alpha   61.39170232
_cell_angle_beta   61.39169983
_cell_angle_gamma   61.39169963
_symmetry_Int_Tables_number   1
_chemical_formula_structural   Nd3Ag(Pt2O7)2
_chemical_formula_sum   'Nd3 Ag1 Pt4 O14'
_cell_volume   285.22251940
_cell_formula_units_Z   1
loop_
 _symmetry_equiv_pos_site_id
 _symmetry_equiv_pos_as_xyz
  1  'x, y, z'
loop_
 _atom_site_type_symbol
 _atom_site_label
 _atom_site_symmetry_multiplicity
 _atom_site_fract_x
 _atom_site_fract_y
 _atom_site_fract_z
 _atom_site_occupancy
  Nd  Nd0  1  0.625000  0.625000  0.125000  1
  Nd  Nd1  1  0.625000  0.125000  0.625000  1
  Nd  Nd2  1  0.125000  0.625000  0.625000  1
  Ag  Ag3  1  0.625000  0.625000  0.625000  1
  Pt  Pt4  1  0.125000  0.125000  0.625000  1
  Pt  Pt5  1  0.125000  0.625000  0.125000  1
  Pt  Pt6  1  0.625000  0.125000  0.125000  1
  Pt  Pt7  1  0.125000  0.125000  0.125000  1
  O  O8  1  0.508096  0.508096  0.508096  1
  O  O9  1  0.741904  0.741904  0.741904  1
  O  O10  1  0.451854  0.056421  0.451854  1
  O  O11  1  0.213414  0.789541  0.213414  1
  O  O12  1  0.451854  0.451854  0.056421  1
  O  O13  1  0.056421  0.451854  0.451854  1
  O  O14  1  0.460459  0.036586  0.036586  1
  O  O15  1  0.036586  0.036586  0.460459  1
  O  O16  1  0.036586  0.460459  0.036586  1
  O  O17  1  0.789541  0.213414  0.213414  1
  O  O18  1  0.193579  0.798146  0.798146  1
  O  O19  1  0.798146  0.193579  0.798146  1
  O  O20  1  0.213414  0.213414  0.789541  1
  O  O21  1  0.798146  0.798146  0.193579  1
