# generated using pymatgen
data_La4Yb5YSi8
_symmetry_space_group_name_H-M   'P 1'
_cell_length_a   7.56465579
_cell_length_b   8.00743600
_cell_length_c   15.31403636
_cell_angle_alpha   90.00000000
_cell_angle_beta   90.05032700
_cell_angle_gamma   90.00000000
_symmetry_Int_Tables_number   1
_chemical_formula_structural   La4Yb5YSi8
_chemical_formula_sum   'La8 Yb10 Y2 Si16'
_cell_volume   927.62437916
_cell_formula_units_Z   2
loop_
 _symmetry_equiv_pos_site_id
 _symmetry_equiv_pos_as_xyz
  1  'x, y, z'
loop_
 _atom_site_type_symbol
 _atom_site_label
 _atom_site_symmetry_multiplicity
 _atom_site_fract_x
 _atom_site_fract_y
 _atom_site_fract_z
 _atom_site_occupancy
  La  La0  1  0.021252  0.182209  0.402045  1
  La  La1  1  0.521252  0.317791  0.402045  1
  La  La2  1  0.476419  0.683465  0.900337  1
  La  La3  1  0.477725  0.683926  0.598481  1
  La  La4  1  0.977725  0.816074  0.598481  1
  La  La5  1  0.976419  0.816535  0.900337  1
  La  La6  1  0.523087  0.315417  0.097752  1
  La  La7  1  0.023087  0.184583  0.097752  1
  Yb  Yb8  1  0.324200  0.182178  0.623269  1
  Yb  Yb9  1  0.677393  0.819116  0.376605  1
  Yb  Yb10  1  0.649466  0.001534  0.749456  1
  Yb  Yb11  1  0.177393  0.680884  0.376605  1
  Yb  Yb12  1  0.824144  0.318520  0.878018  1
  Yb  Yb13  1  0.824200  0.317822  0.623269  1
  Yb  Yb14  1  0.847670  0.494956  0.252884  1
  Yb  Yb15  1  0.347670  0.005044  0.252884  1
  Yb  Yb16  1  0.324144  0.181480  0.878018  1
  Yb  Yb17  1  0.149466  0.498466  0.749456  1
  Y  Y18  1  0.176007  0.683665  0.123405  1
  Y  Y19  1  0.676007  0.816335  0.123405  1
  Si  Si20  1  0.261316  0.876885  0.750642  1
  Si  Si21  1  0.464749  0.600733  0.244902  1
  Si  Si22  1  0.035803  0.094441  0.750695  1
  Si  Si23  1  0.535803  0.405559  0.750695  1
  Si  Si24  1  0.144220  0.471705  0.535857  1
  Si  Si25  1  0.964749  0.899267  0.244902  1
  Si  Si26  1  0.738313  0.116983  0.246556  1
  Si  Si27  1  0.856634  0.534569  0.039010  1
  Si  Si28  1  0.356634  0.965431  0.039010  1
  Si  Si29  1  0.145408  0.475244  0.967165  1
  Si  Si30  1  0.644220  0.028295  0.535857  1
  Si  Si31  1  0.356196  0.973371  0.462921  1
  Si  Si32  1  0.856196  0.526629  0.462921  1
  Si  Si33  1  0.761316  0.623115  0.750642  1
  Si  Si34  1  0.238313  0.383017  0.246556  1
  Si  Si35  1  0.645408  0.024756  0.967165  1
