# generated using pymatgen
data_Cs4MnCdTe4
_symmetry_space_group_name_H-M   'P 1'
_cell_length_a   9.48859033
_cell_length_b   9.48859062
_cell_length_c   9.48859098
_cell_angle_alpha   134.14125664
_cell_angle_beta   129.71221113
_cell_angle_gamma   70.40547869
_symmetry_Int_Tables_number   1
_chemical_formula_structural   Cs4MnCdTe4
_chemical_formula_sum   'Cs4 Mn1 Cd1 Te4'
_cell_volume   462.21476646
_cell_formula_units_Z   1
loop_
 _symmetry_equiv_pos_site_id
 _symmetry_equiv_pos_as_xyz
  1  'x, y, z'
loop_
 _atom_site_type_symbol
 _atom_site_label
 _atom_site_symmetry_multiplicity
 _atom_site_fract_x
 _atom_site_fract_y
 _atom_site_fract_z
 _atom_site_occupancy
  Cs  Cs0  1  0.971277  0.643758  0.325176  1
  Cs  Cs1  1  0.681419  0.856242  0.827519  1
  Cs  Cs2  1  0.318581  0.146101  0.174824  1
  Cs  Cs3  1  0.028723  0.353899  0.672481  1
  Mn  Mn4  1  0.500000  0.750000  0.250000  1
  Cd  Cd5  1  0.500000  0.250000  0.750000  1
  Te  Te6  1  0.583140  0.410269  0.195334  1
  Te  Te7  1  0.214935  0.887807  0.304666  1
  Te  Te8  1  0.785065  0.089731  0.672872  1
  Te  Te9  1  0.416860  0.612193  0.827128  1
