# generated using pymatgen
data_Nb6Al6V4C
_symmetry_space_group_name_H-M   'P 1'
_cell_length_a   7.72739600
_cell_length_b   7.72739802
_cell_length_c   5.05050800
_cell_angle_alpha   90.00000000
_cell_angle_beta   90.00000000
_cell_angle_gamma   119.99999990
_symmetry_Int_Tables_number   1
_chemical_formula_structural   Nb6Al6V4C
_chemical_formula_sum   'Nb6 Al6 V4 C1'
_cell_volume   261.17532678
_cell_formula_units_Z   1
loop_
 _symmetry_equiv_pos_site_id
 _symmetry_equiv_pos_as_xyz
  1  'x, y, z'
loop_
 _atom_site_type_symbol
 _atom_site_label
 _atom_site_symmetry_multiplicity
 _atom_site_fract_x
 _atom_site_fract_y
 _atom_site_fract_z
 _atom_site_occupancy
  Nb  Nb0  1  0.000000  0.767380  0.244325  1
  Nb  Nb1  1  0.232620  0.232620  0.244325  1
  Nb  Nb2  1  0.767380  0.000000  0.244325  1
  Nb  Nb3  1  0.000000  0.232620  0.755675  1
  Nb  Nb4  1  0.767380  0.767380  0.755675  1
  Nb  Nb5  1  0.232620  0.000000  0.755675  1
  Al  Al6  1  0.000000  0.411425  0.251735  1
  Al  Al7  1  0.588575  0.588575  0.251735  1
  Al  Al8  1  0.411425  0.000000  0.251735  1
  Al  Al9  1  0.000000  0.588575  0.748265  1
  Al  Al10  1  0.411425  0.411425  0.748265  1
  Al  Al11  1  0.588575  0.000000  0.748265  1
  V  V12  1  0.333333  0.666667  0.500000  1
  V  V13  1  0.666667  0.333333  0.500000  1
  V  V14  1  0.666667  0.333333  0.000000  1
  V  V15  1  0.333333  0.666667  0.000000  1
  C  C16  1  0.000000  0.000000  0.500000  1
