# generated using pymatgen
data_Pr5(GaTe)2
_symmetry_space_group_name_H-M   'P 1'
_cell_length_a   4.32718000
_cell_length_b   14.99181800
_cell_length_c   16.92754400
_cell_angle_alpha   90.00000000
_cell_angle_beta   90.00000000
_cell_angle_gamma   90.00000000
_symmetry_Int_Tables_number   1
_chemical_formula_structural   Pr5(GaTe)2
_chemical_formula_sum   'Pr20 Ga8 Te8'
_cell_volume   1098.12862822
_cell_formula_units_Z   4
loop_
 _symmetry_equiv_pos_site_id
 _symmetry_equiv_pos_as_xyz
  1  'x, y, z'
loop_
 _atom_site_type_symbol
 _atom_site_label
 _atom_site_symmetry_multiplicity
 _atom_site_fract_x
 _atom_site_fract_y
 _atom_site_fract_z
 _atom_site_occupancy
  Pr  Pr0  1  0.250000  0.144128  0.257779  1
  Pr  Pr1  1  0.250000  0.644128  0.242221  1
  Pr  Pr2  1  0.750000  0.855872  0.742221  1
  Pr  Pr3  1  0.750000  0.355872  0.757779  1
  Pr  Pr4  1  0.250000  0.905400  0.189028  1
  Pr  Pr5  1  0.250000  0.405400  0.310972  1
  Pr  Pr6  1  0.750000  0.094600  0.810972  1
  Pr  Pr7  1  0.750000  0.594600  0.689028  1
  Pr  Pr8  1  0.250000  0.905361  0.553207  1
  Pr  Pr9  1  0.250000  0.405361  0.946793  1
  Pr  Pr10  1  0.750000  0.094639  0.446793  1
  Pr  Pr11  1  0.750000  0.594639  0.053207  1
  Pr  Pr12  1  0.250000  0.208466  0.623208  1
  Pr  Pr13  1  0.250000  0.708466  0.876792  1
  Pr  Pr14  1  0.750000  0.791534  0.376792  1
  Pr  Pr15  1  0.750000  0.291534  0.123208  1
  Pr  Pr16  1  0.250000  0.121146  0.997022  1
  Pr  Pr17  1  0.250000  0.621146  0.502978  1
  Pr  Pr18  1  0.750000  0.878854  0.002978  1
  Pr  Pr19  1  0.750000  0.378854  0.497022  1
  Ga  Ga20  1  0.250000  0.737641  0.669139  1
  Ga  Ga21  1  0.250000  0.237641  0.830861  1
  Ga  Ga22  1  0.750000  0.262359  0.330861  1
  Ga  Ga23  1  0.750000  0.762359  0.169139  1
  Ga  Ga24  1  0.250000  0.244301  0.431917  1
  Ga  Ga25  1  0.250000  0.744301  0.068083  1
  Ga  Ga26  1  0.750000  0.755699  0.568083  1
  Ga  Ga27  1  0.750000  0.255699  0.931917  1
  Te  Te28  1  0.250000  0.958040  0.370692  1
  Te  Te29  1  0.250000  0.458040  0.129308  1
  Te  Te30  1  0.750000  0.041960  0.629308  1
  Te  Te31  1  0.750000  0.541960  0.870692  1
  Te  Te32  1  0.250000  0.942642  0.871508  1
  Te  Te33  1  0.250000  0.442642  0.628492  1
  Te  Te34  1  0.750000  0.057358  0.128492  1
  Te  Te35  1  0.750000  0.557358  0.371508  1
