# generated using pymatgen
data_SrCa7(Sb2O5)4
_symmetry_space_group_name_H-M   'P 1'
_cell_length_a   5.88590900
_cell_length_b   7.38639657
_cell_length_c   14.27781504
_cell_angle_alpha   89.91941674
_cell_angle_beta   90.00000000
_cell_angle_gamma   90.00000000
_symmetry_Int_Tables_number   1
_chemical_formula_structural   SrCa7(Sb2O5)4
_chemical_formula_sum   'Sr1 Ca7 Sb8 O20'
_cell_volume   620.73679014
_cell_formula_units_Z   1
loop_
 _symmetry_equiv_pos_site_id
 _symmetry_equiv_pos_as_xyz
  1  'x, y, z'
loop_
 _atom_site_type_symbol
 _atom_site_label
 _atom_site_symmetry_multiplicity
 _atom_site_fract_x
 _atom_site_fract_y
 _atom_site_fract_z
 _atom_site_occupancy
  Sr  Sr0  1  0.750000  0.374487  0.932355  1
  Ca  Ca1  1  0.250000  0.628500  0.066291  1
  Ca  Ca2  1  0.750000  0.624342  0.445784  1
  Ca  Ca3  1  0.750000  0.876115  0.950336  1
  Ca  Ca4  1  0.250000  0.874025  0.562719  1
  Ca  Ca5  1  0.250000  0.120941  0.054672  1
  Ca  Ca6  1  0.750000  0.126210  0.434959  1
  Ca  Ca7  1  0.250000  0.375889  0.551621  1
  Sb  Sb8  1  0.250000  0.623948  0.822480  1
  Sb  Sb9  1  0.750000  0.629621  0.680616  1
  Sb  Sb10  1  0.250000  0.882080  0.322370  1
  Sb  Sb11  1  0.750000  0.870457  0.186479  1
  Sb  Sb12  1  0.250000  0.124012  0.816725  1
  Sb  Sb13  1  0.750000  0.117223  0.675082  1
  Sb  Sb14  1  0.250000  0.370578  0.317002  1
  Sb  Sb15  1  0.750000  0.381549  0.179510  1
  O  O16  1  0.250000  0.628093  0.268024  1
  O  O17  1  0.012858  0.644009  0.917896  1
  O  O18  1  0.487142  0.644009  0.917896  1
  O  O19  1  0.509000  0.619649  0.585688  1
  O  O20  1  0.991000  0.619649  0.585688  1
  O  O21  1  0.491592  0.868896  0.416954  1
  O  O22  1  0.250000  0.871981  0.761367  1
  O  O23  1  0.509484  0.880547  0.091100  1
  O  O24  1  0.008408  0.868896  0.416954  1
  O  O25  1  0.990516  0.880547  0.091100  1
  O  O26  1  0.750000  0.128186  0.235021  1
  O  O27  1  0.508306  0.130973  0.580813  1
  O  O28  1  0.991694  0.130973  0.580813  1
  O  O29  1  0.013398  0.107101  0.912796  1
  O  O30  1  0.486602  0.107101  0.912796  1
  O  O31  1  0.750000  0.371583  0.729204  1
  O  O32  1  0.009127  0.380866  0.412314  1
  O  O33  1  0.490873  0.380866  0.412314  1
  O  O34  1  0.505088  0.368051  0.086130  1
  O  O35  1  0.994912  0.368051  0.086130  1
