# generated using pymatgen
data_YbY(Ga4Ni)2
_symmetry_space_group_name_H-M   'P 1'
_cell_length_a   7.91925940
_cell_length_b   7.91925925
_cell_length_c   6.51919900
_cell_angle_alpha   90.00000000
_cell_angle_beta   90.00000000
_cell_angle_gamma   149.58052092
_symmetry_Int_Tables_number   1
_chemical_formula_structural   YbY(Ga4Ni)2
_chemical_formula_sum   'Yb1 Y1 Ga8 Ni2'
_cell_volume   207.01147816
_cell_formula_units_Z   1
loop_
 _symmetry_equiv_pos_site_id
 _symmetry_equiv_pos_as_xyz
  1  'x, y, z'
loop_
 _atom_site_type_symbol
 _atom_site_label
 _atom_site_symmetry_multiplicity
 _atom_site_fract_x
 _atom_site_fract_y
 _atom_site_fract_z
 _atom_site_occupancy
  Yb  Yb0  1  0.376243  0.623757  0.250000  1
  Y  Y1  1  0.622072  0.377928  0.750000  1
  Ga  Ga2  1  0.186396  0.813604  0.448137  1
  Ga  Ga3  1  0.816554  0.183446  0.548788  1
  Ga  Ga4  1  0.999074  0.000926  0.004272  1
  Ga  Ga5  1  0.999074  0.000926  0.495728  1
  Ga  Ga6  1  0.568093  0.431907  0.250000  1
  Ga  Ga7  1  0.430271  0.569729  0.750000  1
  Ga  Ga8  1  0.186396  0.813604  0.051863  1
  Ga  Ga9  1  0.816554  0.183446  0.951212  1
  Ni  Ni10  1  0.722178  0.277822  0.250000  1
  Ni  Ni11  1  0.277094  0.722906  0.750000  1
