# generated using pymatgen
data_YbZr3Ge6Ir7
_symmetry_space_group_name_H-M   'P 1'
_cell_length_a   7.16394105
_cell_length_b   7.16394107
_cell_length_c   7.15718000
_cell_angle_alpha   109.45209816
_cell_angle_beta   109.45209824
_cell_angle_gamma   109.49034018
_symmetry_Int_Tables_number   1
_chemical_formula_structural   YbZr3Ge6Ir7
_chemical_formula_sum   'Yb1 Zr3 Ge6 Ir7'
_cell_volume   282.83065148
_cell_formula_units_Z   1
loop_
 _symmetry_equiv_pos_site_id
 _symmetry_equiv_pos_as_xyz
  1  'x, y, z'
loop_
 _atom_site_type_symbol
 _atom_site_label
 _atom_site_symmetry_multiplicity
 _atom_site_fract_x
 _atom_site_fract_y
 _atom_site_fract_z
 _atom_site_occupancy
  Yb  Yb0  1  0.000000  0.000000  0.500000  1
  Zr  Zr1  1  0.500000  0.500000  0.500000  1
  Zr  Zr2  1  0.000000  0.500000  0.000000  1
  Zr  Zr3  1  0.500000  0.000000  0.000000  1
  Ge  Ge4  1  0.687573  0.000000  0.683637  1
  Ge  Ge5  1  0.312427  0.000000  0.316363  1
  Ge  Ge6  1  0.000000  0.312427  0.316363  1
  Ge  Ge7  1  0.000000  0.687573  0.683637  1
  Ge  Ge8  1  0.687573  0.687573  0.003935  1
  Ge  Ge9  1  0.312427  0.312427  0.996065  1
  Ir  Ir10  1  0.253345  0.506690  0.753345  1
  Ir  Ir11  1  0.253345  0.746655  0.500000  1
  Ir  Ir12  1  0.506690  0.253345  0.753345  1
  Ir  Ir13  1  0.493310  0.746655  0.246655  1
  Ir  Ir14  1  0.746655  0.493310  0.246655  1
  Ir  Ir15  1  0.000000  0.000000  0.000000  1
  Ir  Ir16  1  0.746655  0.253345  0.500000  1
