# generated using pymatgen
data_Dy7Lu(Sc3Ga4)4
_symmetry_space_group_name_H-M   'P 1'
_cell_length_a   7.28000106
_cell_length_b   7.54893438
_cell_length_c   14.49029873
_cell_angle_alpha   89.96517194
_cell_angle_beta   89.98967928
_cell_angle_gamma   89.98920270
_symmetry_Int_Tables_number   1
_chemical_formula_structural   Dy7Lu(Sc3Ga4)4
_chemical_formula_sum   'Dy7 Lu1 Sc12 Ga16'
_cell_volume   796.33230991
_cell_formula_units_Z   1
loop_
 _symmetry_equiv_pos_site_id
 _symmetry_equiv_pos_as_xyz
  1  'x, y, z'
loop_
 _atom_site_type_symbol
 _atom_site_label
 _atom_site_symmetry_multiplicity
 _atom_site_fract_x
 _atom_site_fract_y
 _atom_site_fract_z
 _atom_site_occupancy
  Dy  Dy0  1  0.988567  0.821810  0.905408  1
  Dy  Dy1  1  0.488570  0.678214  0.904869  1
  Dy  Dy2  1  0.988820  0.821477  0.595224  1
  Dy  Dy3  1  0.511166  0.321088  0.095321  1
  Dy  Dy4  1  0.011414  0.178470  0.405005  1
  Dy  Dy5  1  0.511273  0.321450  0.404464  1
  Dy  Dy6  1  0.488713  0.678530  0.595232  1
  Lu  Lu7  1  0.010991  0.179749  0.095862  1
  Sc  Sc8  1  0.161875  0.502279  0.750033  1
  Sc  Sc9  1  0.838216  0.496725  0.249526  1
  Sc  Sc10  1  0.337270  0.003168  0.249458  1
  Sc  Sc11  1  0.662323  0.997400  0.750065  1
  Sc  Sc12  1  0.330286  0.173833  0.624315  1
  Sc  Sc13  1  0.669961  0.826393  0.375313  1
  Sc  Sc14  1  0.169799  0.673615  0.375130  1
  Sc  Sc15  1  0.670884  0.826722  0.124243  1
  Sc  Sc16  1  0.830035  0.326459  0.624373  1
  Sc  Sc17  1  0.330047  0.173794  0.875701  1
  Sc  Sc18  1  0.830599  0.326094  0.876053  1
  Sc  Sc19  1  0.169635  0.673720  0.124440  1
  Ga  Ga20  1  0.031186  0.117854  0.750103  1
  Ga  Ga21  1  0.968929  0.882991  0.249637  1
  Ga  Ga22  1  0.468818  0.617610  0.249743  1
  Ga  Ga23  1  0.531256  0.382157  0.750044  1
  Ga  Ga24  1  0.284061  0.872107  0.750206  1
  Ga  Ga25  1  0.716871  0.128136  0.249382  1
  Ga  Ga26  1  0.215108  0.371496  0.249464  1
  Ga  Ga27  1  0.784094  0.627768  0.750047  1
  Ga  Ga28  1  0.160871  0.465028  0.540184  1
  Ga  Ga29  1  0.839144  0.535327  0.459583  1
  Ga  Ga30  1  0.339232  0.964984  0.459705  1
  Ga  Ga31  1  0.839538  0.533553  0.040765  1
  Ga  Ga32  1  0.661055  0.035083  0.540189  1
  Ga  Ga33  1  0.160762  0.463920  0.960350  1
  Ga  Ga34  1  0.661194  0.034932  0.959886  1
  Ga  Ga35  1  0.337440  0.966064  0.040677  1
