# generated using pymatgen
data_MgNb8VSe16
_symmetry_space_group_name_H-M   'P 1'
_cell_length_a   7.01265500
_cell_length_b   7.01265579
_cell_length_c   13.20231200
_cell_angle_alpha   90.00000000
_cell_angle_beta   90.00000000
_cell_angle_gamma   120.00000100
_symmetry_Int_Tables_number   1
_chemical_formula_structural   MgNb8VSe16
_chemical_formula_sum   'Mg1 Nb8 V1 Se16'
_cell_volume   562.27090997
_cell_formula_units_Z   1
loop_
 _symmetry_equiv_pos_site_id
 _symmetry_equiv_pos_as_xyz
  1  'x, y, z'
loop_
 _atom_site_type_symbol
 _atom_site_label
 _atom_site_symmetry_multiplicity
 _atom_site_fract_x
 _atom_site_fract_y
 _atom_site_fract_z
 _atom_site_occupancy
  Mg  Mg0  1  0.000000  0.000000  0.000000  1
  Nb  Nb1  1  0.000000  0.000000  0.258469  1
  Nb  Nb2  1  0.000000  0.000000  0.741531  1
  Nb  Nb3  1  0.507009  0.014017  0.258483  1
  Nb  Nb4  1  0.492991  0.985983  0.741517  1
  Nb  Nb5  1  0.985983  0.492991  0.258483  1
  Nb  Nb6  1  0.014017  0.507009  0.741517  1
  Nb  Nb7  1  0.507009  0.492991  0.258483  1
  Nb  Nb8  1  0.492991  0.507009  0.741517  1
  V  V9  1  0.000000  0.000000  0.500000  1
  Se  Se10  1  0.333333  0.666667  0.611299  1
  Se  Se11  1  0.666667  0.333333  0.388701  1
  Se  Se12  1  0.666667  0.333333  0.128348  1
  Se  Se13  1  0.333333  0.666667  0.871652  1
  Se  Se14  1  0.168728  0.337457  0.132327  1
  Se  Se15  1  0.831272  0.662543  0.867673  1
  Se  Se16  1  0.662543  0.831272  0.132327  1
  Se  Se17  1  0.832700  0.665400  0.616687  1
  Se  Se18  1  0.337457  0.168728  0.867673  1
  Se  Se19  1  0.167300  0.334600  0.383313  1
  Se  Se20  1  0.168728  0.831272  0.132327  1
  Se  Se21  1  0.334600  0.167300  0.616687  1
  Se  Se22  1  0.831272  0.168728  0.867673  1
  Se  Se23  1  0.665400  0.832700  0.383313  1
  Se  Se24  1  0.832700  0.167300  0.616687  1
  Se  Se25  1  0.167300  0.832700  0.383313  1
