# generated using pymatgen
data_CsRb4Au6
_symmetry_space_group_name_H-M   'P 1'
_cell_length_a   15.42481500
_cell_length_b   15.42481549
_cell_length_c   5.25650300
_cell_angle_alpha   90.00000000
_cell_angle_beta   90.00000000
_cell_angle_gamma   160.68487252
_symmetry_Int_Tables_number   1
_chemical_formula_structural   CsRb4Au6
_chemical_formula_sum   'Cs1 Rb4 Au6'
_cell_volume   413.67047576
_cell_formula_units_Z   1
loop_
 _symmetry_equiv_pos_site_id
 _symmetry_equiv_pos_as_xyz
  1  'x, y, z'
loop_
 _atom_site_type_symbol
 _atom_site_label
 _atom_site_symmetry_multiplicity
 _atom_site_fract_x
 _atom_site_fract_y
 _atom_site_fract_z
 _atom_site_occupancy
  Cs  Cs0  1  0.000000  0.000000  0.000000  1
  Rb  Rb1  1  0.617676  0.382324  0.000000  1
  Rb  Rb2  1  0.382324  0.617676  0.000000  1
  Rb  Rb3  1  0.807726  0.192273  0.500000  1
  Rb  Rb4  1  0.192273  0.807726  0.500000  1
  Au  Au5  1  0.736941  0.263059  0.000000  1
  Au  Au6  1  0.263059  0.736941  0.000000  1
  Au  Au7  1  0.922241  0.077759  0.500000  1
  Au  Au8  1  0.548844  0.451155  0.500000  1
  Au  Au9  1  0.451155  0.548844  0.500000  1
  Au  Au10  1  0.077759  0.922241  0.500000  1
