# generated using pymatgen
data_Ca6Yb4Si6F
_symmetry_space_group_name_H-M   'P 1'
_cell_length_a   9.09119074
_cell_length_b   9.09119000
_cell_length_c   9.08576042
_cell_angle_alpha   130.42474831
_cell_angle_beta   130.42474071
_cell_angle_gamma   72.77511568
_symmetry_Int_Tables_number   1
_chemical_formula_structural   Ca6Yb4Si6F
_chemical_formula_sum   'Ca6 Yb4 Si6 F1'
_cell_volume   425.03935397
_cell_formula_units_Z   1
loop_
 _symmetry_equiv_pos_site_id
 _symmetry_equiv_pos_as_xyz
  1  'x, y, z'
loop_
 _atom_site_type_symbol
 _atom_site_label
 _atom_site_symmetry_multiplicity
 _atom_site_fract_x
 _atom_site_fract_y
 _atom_site_fract_z
 _atom_site_occupancy
  Ca  Ca0  1  0.713637  0.070034  0.000000  1
  Ca  Ca1  1  0.070034  0.713637  0.000000  1
  Ca  Ca2  1  0.568241  0.568241  0.339461  1
  Ca  Ca3  1  0.228778  0.228778  0.660539  1
  Ca  Ca4  1  0.248796  0.748796  0.500000  1
  Ca  Ca5  1  0.748796  0.248796  0.500000  1
  Yb  Yb6  1  0.765726  0.433927  0.000000  1
  Yb  Yb7  1  0.433927  0.765727  0.000000  1
  Yb  Yb8  1  0.929002  0.929002  0.641581  1
  Yb  Yb9  1  0.287420  0.287420  0.358419  1
  Si  Si10  1  0.000906  0.500906  0.500000  1
  Si  Si11  1  0.500906  0.000906  0.500000  1
  Si  Si12  1  0.135445  0.359597  0.000000  1
  Si  Si13  1  0.359597  0.135445  0.000000  1
  Si  Si14  1  0.864460  0.864460  0.225180  1
  Si  Si15  1  0.639280  0.639280  0.774820  1
  F  F16  1  0.505048  0.505048  0.000000  1
