# generated using pymatgen
data_Hf6Ti3Nb(GaSi2)2
_symmetry_space_group_name_H-M   'P 1'
_cell_length_a   7.81771700
_cell_length_b   7.81771789
_cell_length_c   5.33303625
_cell_angle_alpha   90.03906214
_cell_angle_beta   90.03906646
_cell_angle_gamma   120.20172001
_symmetry_Int_Tables_number   1
_chemical_formula_structural   Hf6Ti3Nb(GaSi2)2
_chemical_formula_sum   'Hf6 Ti3 Nb1 Ga2 Si4'
_cell_volume   281.69447679
_cell_formula_units_Z   1
loop_
 _symmetry_equiv_pos_site_id
 _symmetry_equiv_pos_as_xyz
  1  'x, y, z'
loop_
 _atom_site_type_symbol
 _atom_site_label
 _atom_site_symmetry_multiplicity
 _atom_site_fract_x
 _atom_site_fract_y
 _atom_site_fract_z
 _atom_site_occupancy
  Hf  Hf0  1  0.250649  0.997276  0.248865  1
  Hf  Hf1  1  0.747987  0.000986  0.751566  1
  Hf  Hf2  1  0.999014  0.252013  0.248434  1
  Hf  Hf3  1  0.002724  0.749351  0.751135  1
  Hf  Hf4  1  0.756491  0.757436  0.247895  1
  Hf  Hf5  1  0.242564  0.243509  0.752105  1
  Ti  Ti6  1  0.670184  0.329816  0.000000  1
  Ti  Ti7  1  0.670535  0.329465  0.500000  1
  Ti  Ti8  1  0.329778  0.670222  0.500000  1
  Nb  Nb9  1  0.329951  0.670049  0.000000  1
  Ga  Ga10  1  0.401414  0.399189  0.253223  1
  Ga  Ga11  1  0.600811  0.598586  0.746777  1
  Si  Si12  1  0.604405  0.999751  0.251941  1
  Si  Si13  1  0.397209  0.003965  0.748081  1
  Si  Si14  1  0.996035  0.602791  0.251919  1
  Si  Si15  1  0.000249  0.395595  0.748059  1
