# generated using pymatgen
data_Hf6Ga7Cu16H3
_symmetry_space_group_name_H-M   'P 1'
_cell_length_a   8.45466793
_cell_length_b   8.45466822
_cell_length_c   8.45627254
_cell_angle_alpha   120.46874152
_cell_angle_beta   120.21540687
_cell_angle_gamma   89.39768167
_symmetry_Int_Tables_number   1
_chemical_formula_structural   Hf6Ga7Cu16H3
_chemical_formula_sum   'Hf6 Ga7 Cu16 H3'
_cell_volume   425.22539935
_cell_formula_units_Z   1
loop_
 _symmetry_equiv_pos_site_id
 _symmetry_equiv_pos_as_xyz
  1  'x, y, z'
loop_
 _atom_site_type_symbol
 _atom_site_label
 _atom_site_symmetry_multiplicity
 _atom_site_fract_x
 _atom_site_fract_y
 _atom_site_fract_z
 _atom_site_occupancy
  Hf  Hf0  1  0.800524  0.198108  0.998798  1
  Hf  Hf1  1  0.800336  0.801482  0.601958  1
  Hf  Hf2  1  0.786066  0.786066  0.000000  1
  Hf  Hf3  1  0.199311  0.801726  0.001202  1
  Hf  Hf4  1  0.199525  0.198378  0.398042  1
  Hf  Hf5  1  0.209188  0.209188  0.000000  1
  Ga  Ga6  1  0.497983  0.496947  0.498283  1
  Ga  Ga7  1  0.497761  0.999459  0.000621  1
  Ga  Ga8  1  0.497806  0.997806  0.500000  1
  Ga  Ga9  1  0.998663  0.999702  0.501717  1
  Ga  Ga10  1  0.998836  0.497140  0.999379  1
  Ga  Ga11  1  0.997794  0.497794  0.500000  1
  Ga  Ga12  1  0.498783  0.498783  0.000000  1
  Cu  Cu13  1  0.471566  0.821546  0.650252  1
  Cu  Cu14  1  0.171296  0.821313  0.349748  1
  Cu  Cu15  1  0.165190  0.828764  0.663939  1
  Cu  Cu16  1  0.164825  0.501249  0.336061  1
  Cu  Cu17  1  0.508264  0.167435  0.340382  1
  Cu  Cu18  1  0.827052  0.167882  0.659618  1
  Cu  Cu19  1  0.831452  0.164800  0.334004  1
  Cu  Cu20  1  0.830797  0.497449  0.665996  1
  Cu  Cu21  1  0.856591  0.616852  0.240532  1
  Cu  Cu22  1  0.376320  0.616058  0.759468  1
  Cu  Cu23  1  0.381242  0.621089  0.240069  1
  Cu  Cu24  1  0.381020  0.141174  0.759931  1
  Cu  Cu25  1  0.141704  0.381529  0.760326  1
  Cu  Cu26  1  0.621203  0.381378  0.239674  1
  Cu  Cu27  1  0.616159  0.376545  0.759778  1
  Cu  Cu28  1  0.616766  0.856380  0.240222  1
  H  H29  1  0.044714  0.044714  0.000000  1
  H  H30  1  0.764196  0.915393  0.848526  1
  H  H31  1  0.066867  0.915671  0.151474  1
