# generated using pymatgen
data_Na2Al5Au6
_symmetry_space_group_name_H-M   'P 1'
_cell_length_a   8.94675100
_cell_length_b   8.94675100
_cell_length_c   8.94675100
_cell_angle_alpha   90.00000000
_cell_angle_beta   90.00000000
_cell_angle_gamma   90.00000000
_symmetry_Int_Tables_number   1
_chemical_formula_structural   Na2Al5Au6
_chemical_formula_sum   'Na6 Al15 Au18'
_cell_volume   716.13689933
_cell_formula_units_Z   3
loop_
 _symmetry_equiv_pos_site_id
 _symmetry_equiv_pos_as_xyz
  1  'x, y, z'
loop_
 _atom_site_type_symbol
 _atom_site_label
 _atom_site_symmetry_multiplicity
 _atom_site_fract_x
 _atom_site_fract_y
 _atom_site_fract_z
 _atom_site_occupancy
  Na  Na0  1  0.678068  0.000000  0.500000  1
  Na  Na1  1  0.500000  0.321932  0.000000  1
  Na  Na2  1  0.000000  0.500000  0.321932  1
  Na  Na3  1  0.500000  0.678068  0.000000  1
  Na  Na4  1  0.000000  0.500000  0.678068  1
  Na  Na5  1  0.321932  0.000000  0.500000  1
  Al  Al6  1  0.500000  0.000000  0.835832  1
  Al  Al7  1  0.217220  0.217220  0.217220  1
  Al  Al8  1  0.782780  0.782780  0.217220  1
  Al  Al9  1  0.217220  0.782780  0.782780  1
  Al  Al10  1  0.835832  0.500000  0.000000  1
  Al  Al11  1  0.782780  0.782780  0.782780  1
  Al  Al12  1  0.217220  0.217220  0.782780  1
  Al  Al13  1  0.782780  0.217220  0.217220  1
  Al  Al14  1  0.217220  0.782780  0.217220  1
  Al  Al15  1  0.000000  0.835832  0.500000  1
  Al  Al16  1  0.500000  0.000000  0.164168  1
  Al  Al17  1  0.000000  0.164168  0.500000  1
  Al  Al18  1  0.164168  0.500000  0.000000  1
  Al  Al19  1  0.500000  0.500000  0.500000  1
  Al  Al20  1  0.782780  0.217220  0.782780  1
  Au  Au21  1  0.500000  0.235936  0.316658  1
  Au  Au22  1  0.316658  0.500000  0.235936  1
  Au  Au23  1  0.235936  0.316658  0.500000  1
  Au  Au24  1  0.764064  0.683342  0.500000  1
  Au  Au25  1  0.316658  0.500000  0.764064  1
  Au  Au26  1  0.764064  0.316658  0.500000  1
  Au  Au27  1  0.683342  0.500000  0.235936  1
  Au  Au28  1  0.683342  0.500000  0.764064  1
  Au  Au29  1  0.235936  0.683342  0.500000  1
  Au  Au30  1  0.500000  0.764064  0.683342  1
  Au  Au31  1  0.500000  0.235936  0.683342  1
  Au  Au32  1  0.500000  0.764064  0.316658  1
  Au  Au33  1  0.747642  0.000000  0.000000  1
  Au  Au34  1  0.000000  0.747642  0.000000  1
  Au  Au35  1  0.000000  0.000000  0.252358  1
  Au  Au36  1  0.000000  0.252358  0.000000  1
  Au  Au37  1  0.252358  0.000000  0.000000  1
  Au  Au38  1  0.000000  0.000000  0.747642  1
