# generated using pymatgen
data_Pa4Al18(FeRh)3
_symmetry_space_group_name_H-M   'P 1'
_cell_length_a   7.53948349
_cell_length_b   7.53948336
_cell_length_c   9.26137802
_cell_angle_alpha   89.97288214
_cell_angle_beta   89.97287947
_cell_angle_gamma   119.14105197
_symmetry_Int_Tables_number   1
_chemical_formula_structural   Pa4Al18(FeRh)3
_chemical_formula_sum   'Pa4 Al18 Fe3 Rh3'
_cell_volume   459.81538424
_cell_formula_units_Z   1
loop_
 _symmetry_equiv_pos_site_id
 _symmetry_equiv_pos_as_xyz
  1  'x, y, z'
loop_
 _atom_site_type_symbol
 _atom_site_label
 _atom_site_symmetry_multiplicity
 _atom_site_fract_x
 _atom_site_fract_y
 _atom_site_fract_z
 _atom_site_occupancy
  Pa  Pa0  1  0.993851  0.676799  0.747270  1
  Pa  Pa1  1  0.003017  0.322752  0.251941  1
  Pa  Pa2  1  0.677248  0.996983  0.748059  1
  Pa  Pa3  1  0.323201  0.006149  0.252730  1
  Al  Al4  1  0.126058  0.127328  0.749666  1
  Al  Al5  1  0.872672  0.873942  0.250334  1
  Al  Al6  1  0.998537  0.332760  0.575277  1
  Al  Al7  1  0.992307  0.661432  0.422702  1
  Al  Al8  1  0.996568  0.667661  0.077147  1
  Al  Al9  1  0.332339  0.003432  0.922853  1
  Al  Al10  1  0.003231  0.333479  0.923458  1
  Al  Al11  1  0.666521  0.996769  0.076542  1
  Al  Al12  1  0.667240  0.001463  0.424723  1
  Al  Al13  1  0.338568  0.007693  0.577298  1
  Al  Al14  1  0.329981  0.330572  0.047407  1
  Al  Al15  1  0.669428  0.670019  0.952593  1
  Al  Al16  1  0.669583  0.665169  0.543222  1
  Al  Al17  1  0.334831  0.330417  0.456778  1
  Al  Al18  1  0.344376  0.551577  0.749708  1
  Al  Al19  1  0.656426  0.445786  0.255269  1
  Al  Al20  1  0.554214  0.343574  0.744731  1
  Al  Al21  1  0.448423  0.655624  0.250292  1
  Fe  Fe22  1  0.674453  0.325547  0.500000  1
  Fe  Fe23  1  0.001150  0.998850  0.500000  1
  Fe  Fe24  1  0.000482  0.999518  0.000000  1
  Rh  Rh25  1  0.326149  0.673851  0.500000  1
  Rh  Rh26  1  0.326146  0.673854  0.000000  1
  Rh  Rh27  1  0.673002  0.326998  0.000000  1
