# generated using pymatgen
data_Li2CeNd15(CdIr2)2
_symmetry_space_group_name_H-M   'P 1'
_cell_length_a   10.03116548
_cell_length_b   10.03116576
_cell_length_c   10.02901596
_cell_angle_alpha   59.41827722
_cell_angle_beta   59.41827864
_cell_angle_gamma   59.38063013
_symmetry_Int_Tables_number   1
_chemical_formula_structural   Li2CeNd15(CdIr2)2
_chemical_formula_sum   'Li2 Ce1 Nd15 Cd2 Ir4'
_cell_volume   703.93563414
_cell_formula_units_Z   1
loop_
 _symmetry_equiv_pos_site_id
 _symmetry_equiv_pos_as_xyz
  1  'x, y, z'
loop_
 _atom_site_type_symbol
 _atom_site_label
 _atom_site_symmetry_multiplicity
 _atom_site_fract_x
 _atom_site_fract_y
 _atom_site_fract_z
 _atom_site_occupancy
  Li  Li0  1  0.571127  0.571127  0.575485  1
  Li  Li1  1  0.569141  0.569141  0.280786  1
  Ce  Ce2  1  0.343219  0.343219  0.342344  1
  Nd  Nd3  1  0.348290  0.348290  0.953244  1
  Nd  Nd4  1  0.348239  0.958434  0.347386  1
  Nd  Nd5  1  0.958434  0.348239  0.347386  1
  Nd  Nd6  1  0.813445  0.187912  0.190184  1
  Nd  Nd7  1  0.188246  0.812246  0.808637  1
  Nd  Nd8  1  0.187912  0.813445  0.190184  1
  Nd  Nd9  1  0.812246  0.188246  0.808637  1
  Nd  Nd10  1  0.192917  0.192917  0.809632  1
  Nd  Nd11  1  0.815368  0.815368  0.181540  1
  Nd  Nd12  1  0.942584  0.561094  0.561260  1
  Nd  Nd13  1  0.559502  0.936378  0.938901  1
  Nd  Nd14  1  0.561094  0.942584  0.561260  1
  Nd  Nd15  1  0.936378  0.559502  0.938901  1
  Nd  Nd16  1  0.559412  0.559412  0.942326  1
  Nd  Nd17  1  0.937268  0.937268  0.561017  1
  Cd  Cd18  1  0.580927  0.257108  0.579063  1
  Cd  Cd19  1  0.257108  0.580927  0.579063  1
  Ir  Ir20  1  0.143435  0.143435  0.142178  1
  Ir  Ir21  1  0.150015  0.150015  0.570600  1
  Ir  Ir22  1  0.150756  0.572936  0.144992  1
  Ir  Ir23  1  0.572936  0.150756  0.144992  1
