# generated using pymatgen
data_Th(FeTc2)4
_symmetry_space_group_name_H-M   'P 1'
_cell_length_a   6.78115137
_cell_length_b   6.78115182
_cell_length_c   6.78115153
_cell_angle_alpha   97.11679887
_cell_angle_beta   97.11679950
_cell_angle_gamma   138.78262816
_symmetry_Int_Tables_number   1
_chemical_formula_structural   Th(FeTc2)4
_chemical_formula_sum   'Th1 Fe4 Tc8'
_cell_volume   192.31809700
_cell_formula_units_Z   1
loop_
 _symmetry_equiv_pos_site_id
 _symmetry_equiv_pos_as_xyz
  1  'x, y, z'
loop_
 _atom_site_type_symbol
 _atom_site_label
 _atom_site_symmetry_multiplicity
 _atom_site_fract_x
 _atom_site_fract_y
 _atom_site_fract_z
 _atom_site_occupancy
  Th  Th0  1  0.000000  0.000000  0.000000  1
  Fe  Fe1  1  0.500000  0.500000  0.500000  1
  Fe  Fe2  1  0.000000  0.500000  0.000000  1
  Fe  Fe3  1  0.500000  0.000000  0.000000  1
  Fe  Fe4  1  0.000000  0.000000  0.500000  1
  Tc  Tc5  1  0.279292  0.500000  0.779292  1
  Tc  Tc6  1  0.500000  0.279292  0.779292  1
  Tc  Tc7  1  0.500000  0.720708  0.220708  1
  Tc  Tc8  1  0.720708  0.500000  0.220708  1
  Tc  Tc9  1  0.357486  0.000000  0.357486  1
  Tc  Tc10  1  0.642514  0.000000  0.642514  1
  Tc  Tc11  1  0.000000  0.642514  0.642514  1
  Tc  Tc12  1  0.000000  0.357486  0.357486  1
