# generated using pymatgen
data_Zr4MnSe8
_symmetry_space_group_name_H-M   'P 1'
_cell_length_a   7.39425240
_cell_length_b   7.39425207
_cell_length_c   9.10925855
_cell_angle_alpha   52.96419185
_cell_angle_beta   52.96419197
_cell_angle_gamma   61.24805278
_symmetry_Int_Tables_number   1
_chemical_formula_structural   Zr4MnSe8
_chemical_formula_sum   'Zr4 Mn1 Se8'
_cell_volume   311.85415109
_cell_formula_units_Z   1
loop_
 _symmetry_equiv_pos_site_id
 _symmetry_equiv_pos_as_xyz
  1  'x, y, z'
loop_
 _atom_site_type_symbol
 _atom_site_label
 _atom_site_symmetry_multiplicity
 _atom_site_fract_x
 _atom_site_fract_y
 _atom_site_fract_z
 _atom_site_occupancy
  Zr  Zr0  1  0.247809  0.247809  0.005111  1
  Zr  Zr1  1  0.752191  0.752191  0.994889  1
  Zr  Zr2  1  0.757418  0.242582  0.500000  1
  Zr  Zr3  1  0.242582  0.757418  0.500000  1
  Mn  Mn4  1  0.000000  0.000000  0.000000  1
  Se  Se5  1  0.289717  0.289717  0.665283  1
  Se  Se6  1  0.787541  0.787541  0.666428  1
  Se  Se7  1  0.286921  0.783736  0.167723  1
  Se  Se8  1  0.783736  0.286921  0.167723  1
  Se  Se9  1  0.216264  0.713079  0.832277  1
  Se  Se10  1  0.713079  0.216264  0.832277  1
  Se  Se11  1  0.212459  0.212459  0.333572  1
  Se  Se12  1  0.710283  0.710283  0.334717  1
