# generated using pymatgen
data_La7Pt16
_symmetry_space_group_name_H-M   'P 1'
_cell_length_a   9.60804167
_cell_length_b   9.60804198
_cell_length_c   9.60804236
_cell_angle_alpha   131.71666507
_cell_angle_beta   131.71667195
_cell_angle_gamma   70.67689031
_symmetry_Int_Tables_number   1
_chemical_formula_structural   La7Pt16
_chemical_formula_sum   'La7 Pt16'
_cell_volume   484.12310392
_cell_formula_units_Z   1
loop_
 _symmetry_equiv_pos_site_id
 _symmetry_equiv_pos_as_xyz
  1  'x, y, z'
loop_
 _atom_site_type_symbol
 _atom_site_label
 _atom_site_symmetry_multiplicity
 _atom_site_fract_x
 _atom_site_fract_y
 _atom_site_fract_z
 _atom_site_occupancy
  La  La0  1  0.101201  0.101201  0.414606  1
  La  La1  1  0.686594  0.686594  0.585394  1
  La  La2  1  0.898799  0.313406  0.000000  1
  La  La3  1  0.750000  0.250000  0.500000  1
  La  La4  1  0.500000  0.500000  0.000000  1
  La  La5  1  0.313406  0.898799  0.000000  1
  La  La6  1  0.250000  0.750000  0.500000  1
  Pt  Pt7  1  0.434622  0.192227  0.000000  1
  Pt  Pt8  1  0.684055  0.934896  0.489061  1
  Pt  Pt9  1  0.934896  0.684055  0.489061  1
  Pt  Pt10  1  0.192227  0.434622  0.000000  1
  Pt  Pt11  1  0.315945  0.805005  0.250840  1
  Pt  Pt12  1  0.938722  0.672853  0.000000  1
  Pt  Pt13  1  0.807773  0.807773  0.242395  1
  Pt  Pt14  1  0.065104  0.554164  0.749160  1
  Pt  Pt15  1  0.061278  0.061278  0.734131  1
  Pt  Pt16  1  0.672853  0.938722  0.000000  1
  Pt  Pt17  1  0.565378  0.565378  0.757605  1
  Pt  Pt18  1  0.805005  0.315945  0.250840  1
  Pt  Pt19  1  0.554164  0.065104  0.749160  1
  Pt  Pt20  1  0.194995  0.445836  0.510939  1
  Pt  Pt21  1  0.327147  0.327147  0.265869  1
  Pt  Pt22  1  0.445836  0.194995  0.510939  1
