# generated using pymatgen
data_YHoAl2PtRh
_symmetry_space_group_name_H-M   'P 1'
_cell_length_a   4.36452400
_cell_length_b   6.80436710
_cell_length_c   7.85353816
_cell_angle_alpha   89.57986338
_cell_angle_beta   90.00000000
_cell_angle_gamma   90.00000000
_symmetry_Int_Tables_number   1
_chemical_formula_structural   YHoAl2PtRh
_chemical_formula_sum   'Y2 Ho2 Al4 Pt2 Rh2'
_cell_volume   233.22671974
_cell_formula_units_Z   2
loop_
 _symmetry_equiv_pos_site_id
 _symmetry_equiv_pos_as_xyz
  1  'x, y, z'
loop_
 _atom_site_type_symbol
 _atom_site_label
 _atom_site_symmetry_multiplicity
 _atom_site_fract_x
 _atom_site_fract_y
 _atom_site_fract_z
 _atom_site_occupancy
  Y  Y0  1  0.250000  0.534303  0.182288  1
  Y  Y1  1  0.750000  0.465697  0.817712  1
  Ho  Ho2  1  0.750000  0.968021  0.676997  1
  Ho  Ho3  1  0.250000  0.031979  0.323003  1
  Al  Al4  1  0.250000  0.637327  0.561344  1
  Al  Al5  1  0.750000  0.362673  0.438656  1
  Al  Al6  1  0.750000  0.858762  0.061000  1
  Al  Al7  1  0.250000  0.141238  0.939000  1
  Pt  Pt8  1  0.250000  0.770478  0.877349  1
  Pt  Pt9  1  0.750000  0.229522  0.122651  1
  Rh  Rh10  1  0.750000  0.737561  0.382515  1
  Rh  Rh11  1  0.250000  0.262439  0.617485  1
