# generated using pymatgen
data_Dy10Y2Co5Sb
_symmetry_space_group_name_H-M   'P 1'
_cell_length_a   8.28485958
_cell_length_b   8.28485962
_cell_length_c   8.28485921
_cell_angle_alpha   107.05254147
_cell_angle_beta   110.59830705
_cell_angle_gamma   110.78961439
_symmetry_Int_Tables_number   1
_chemical_formula_structural   Dy10Y2Co5Sb
_chemical_formula_sum   'Dy10 Y2 Co5 Sb1'
_cell_volume   437.17419352
_cell_formula_units_Z   1
loop_
 _symmetry_equiv_pos_site_id
 _symmetry_equiv_pos_as_xyz
  1  'x, y, z'
loop_
 _atom_site_type_symbol
 _atom_site_label
 _atom_site_symmetry_multiplicity
 _atom_site_fract_x
 _atom_site_fract_y
 _atom_site_fract_z
 _atom_site_occupancy
  Dy  Dy0  1  0.892633  0.707613  0.185020  1
  Dy  Dy1  1  0.522595  0.707613  0.814980  1
  Dy  Dy2  1  0.307532  0.620396  0.312865  1
  Dy  Dy3  1  0.307532  0.994668  0.687135  1
  Dy  Dy4  1  0.692382  0.380106  0.687723  1
  Dy  Dy5  1  0.692382  0.004659  0.312277  1
  Dy  Dy6  1  0.193327  0.205781  0.399236  1
  Dy  Dy7  1  0.806545  0.794091  0.600764  1
  Dy  Dy8  1  0.193327  0.794091  0.987545  1
  Dy  Dy9  1  0.806545  0.205781  0.012455  1
  Y  Y10  1  0.478744  0.292578  0.186166  1
  Y  Y11  1  0.106413  0.292578  0.813834  1
  Co  Co12  1  0.500974  0.613335  0.112360  1
  Co  Co13  1  0.500974  0.388614  0.887640  1
  Co  Co14  1  0.376533  0.000030  0.376503  1
  Co  Co15  1  0.623528  0.000030  0.623497  1
  Co  Co16  1  0.998525  0.998525  0.000000  1
  Sb  Sb17  1  0.999510  0.499510  0.500000  1
