# generated using pymatgen
data_La3Tb(CuP2)4
_symmetry_space_group_name_H-M   'P 1'
_cell_length_a   3.78533800
_cell_length_b   3.90071123
_cell_length_c   20.17497506
_cell_angle_alpha   89.92172143
_cell_angle_beta   90.00000000
_cell_angle_gamma   90.00000000
_symmetry_Int_Tables_number   1
_chemical_formula_structural   La3Tb(CuP2)4
_chemical_formula_sum   'La3 Tb1 Cu4 P8'
_cell_volume   297.89352723
_cell_formula_units_Z   1
loop_
 _symmetry_equiv_pos_site_id
 _symmetry_equiv_pos_as_xyz
  1  'x, y, z'
loop_
 _atom_site_type_symbol
 _atom_site_label
 _atom_site_symmetry_multiplicity
 _atom_site_fract_x
 _atom_site_fract_y
 _atom_site_fract_z
 _atom_site_occupancy
  La  La0  1  0.250000  0.708287  0.377144  1
  La  La1  1  0.250000  0.791057  0.885722  1
  La  La2  1  0.750000  0.292409  0.620012  1
  Tb  Tb3  1  0.750000  0.206133  0.119484  1
  Cu  Cu4  1  0.250000  0.207555  0.243731  1
  Cu  Cu5  1  0.750000  0.792612  0.753363  1
  Cu  Cu6  1  0.250000  0.291077  0.752700  1
  Cu  Cu7  1  0.750000  0.708731  0.244305  1
  P  P8  1  0.750000  0.822746  0.501457  1
  P  P9  1  0.750000  0.679542  0.009769  1
  P  P10  1  0.250000  0.178553  0.495641  1
  P  P11  1  0.250000  0.321528  0.003988  1
  P  P12  1  0.250000  0.707928  0.171146  1
  P  P13  1  0.750000  0.208325  0.315611  1
  P  P14  1  0.750000  0.291382  0.824211  1
  P  P15  1  0.250000  0.792135  0.681714  1
