# generated using pymatgen
data_Nb7(GaP)2
_symmetry_space_group_name_H-M   'P 1'
_cell_length_a   3.49280100
_cell_length_b   7.88138648
_cell_length_c   14.25518502
_cell_angle_alpha   104.22674668
_cell_angle_beta   90.00000000
_cell_angle_gamma   102.80217439
_symmetry_Int_Tables_number   1
_chemical_formula_structural   Nb7(GaP)2
_chemical_formula_sum   'Nb14 Ga4 P4'
_cell_volume   370.31112371
_cell_formula_units_Z   2
loop_
 _symmetry_equiv_pos_site_id
 _symmetry_equiv_pos_as_xyz
  1  'x, y, z'
loop_
 _atom_site_type_symbol
 _atom_site_label
 _atom_site_symmetry_multiplicity
 _atom_site_fract_x
 _atom_site_fract_y
 _atom_site_fract_z
 _atom_site_occupancy
  Nb  Nb0  1  0.000000  0.000000  0.000000  1
  Nb  Nb1  1  0.500000  0.000000  0.500000  1
  Nb  Nb2  1  0.432316  0.864632  0.825798  1
  Nb  Nb3  1  0.567684  0.135368  0.174202  1
  Nb  Nb4  1  0.202664  0.405329  0.307228  1
  Nb  Nb5  1  0.797336  0.594671  0.692772  1
  Nb  Nb6  1  0.203353  0.406705  0.792199  1
  Nb  Nb7  1  0.796647  0.593295  0.207801  1
  Nb  Nb8  1  0.344476  0.688951  0.038623  1
  Nb  Nb9  1  0.655524  0.311049  0.961377  1
  Nb  Nb10  1  0.004967  0.009933  0.665217  1
  Nb  Nb11  1  0.995033  0.990067  0.334783  1
  Nb  Nb12  1  0.175777  0.351552  0.552374  1
  Nb  Nb13  1  0.824223  0.648448  0.447626  1
  Ga  Ga14  1  0.177922  0.355843  0.106942  1
  Ga  Ga15  1  0.822078  0.644157  0.893058  1
  Ga  Ga16  1  0.369612  0.739225  0.599991  1
  Ga  Ga17  1  0.630388  0.260775  0.400009  1
  P  P18  1  0.374752  0.749504  0.336534  1
  P  P19  1  0.625248  0.250496  0.663466  1
  P  P20  1  0.060753  0.121508  0.846998  1
  P  P21  1  0.939247  0.878492  0.153002  1
