# generated using pymatgen
data_Dy7Sn23OsRh5
_symmetry_space_group_name_H-M   'P 1'
_cell_length_a   9.87562361
_cell_length_b   9.87562364
_cell_length_c   10.08097249
_cell_angle_alpha   90.26215744
_cell_angle_beta   89.73784022
_cell_angle_gamma   120.00290733
_symmetry_Int_Tables_number   1
_chemical_formula_structural   Dy7Sn23OsRh5
_chemical_formula_sum   'Dy7 Sn23 Os1 Rh5'
_cell_volume   851.41899772
_cell_formula_units_Z   1
loop_
 _symmetry_equiv_pos_site_id
 _symmetry_equiv_pos_as_xyz
  1  'x, y, z'
loop_
 _atom_site_type_symbol
 _atom_site_label
 _atom_site_symmetry_multiplicity
 _atom_site_fract_x
 _atom_site_fract_y
 _atom_site_fract_z
 _atom_site_occupancy
  Dy  Dy0  1  0.993983  0.006017  0.007733  1
  Dy  Dy1  1  0.480501  0.519499  0.306822  1
  Dy  Dy2  1  0.519650  0.480350  0.692477  1
  Dy  Dy3  1  0.482735  0.961863  0.305731  1
  Dy  Dy4  1  0.520592  0.040697  0.692234  1
  Dy  Dy5  1  0.038137  0.517265  0.305731  1
  Dy  Dy6  1  0.959303  0.479408  0.692234  1
  Sn  Sn7  1  0.349792  0.999730  0.999465  1
  Sn  Sn8  1  0.647605  0.000375  0.999225  1
  Sn  Sn9  1  0.999625  0.352395  0.999225  1
  Sn  Sn10  1  0.000270  0.650208  0.999465  1
  Sn  Sn11  1  0.648277  0.648420  0.999829  1
  Sn  Sn12  1  0.351580  0.351723  0.999829  1
  Sn  Sn13  1  0.333590  0.666410  0.820571  1
  Sn  Sn14  1  0.668010  0.331990  0.178190  1
  Sn  Sn15  1  0.000443  0.999557  0.502000  1
  Sn  Sn16  1  0.779316  0.220684  0.456263  1
  Sn  Sn17  1  0.222452  0.777548  0.543377  1
  Sn  Sn18  1  0.777989  0.555261  0.455567  1
  Sn  Sn19  1  0.222328  0.444331  0.543760  1
  Sn  Sn20  1  0.444739  0.222011  0.455567  1
  Sn  Sn21  1  0.555669  0.777672  0.543760  1
  Sn  Sn22  1  0.333526  0.666474  0.122797  1
  Sn  Sn23  1  0.665286  0.334714  0.875638  1
  Sn  Sn24  1  0.119903  0.880097  0.280275  1
  Sn  Sn25  1  0.880531  0.119469  0.719640  1
  Sn  Sn26  1  0.118626  0.236150  0.283402  1
  Sn  Sn27  1  0.882735  0.763029  0.718904  1
  Sn  Sn28  1  0.763850  0.881374  0.283402  1
  Sn  Sn29  1  0.236971  0.117265  0.718904  1
  Os  Os30  1  0.832749  0.167251  0.197796  1
  Rh  Rh31  1  0.169617  0.830383  0.800781  1
  Rh  Rh32  1  0.830450  0.662708  0.198393  1
  Rh  Rh33  1  0.169180  0.337301  0.801310  1
  Rh  Rh34  1  0.337292  0.169550  0.198393  1
  Rh  Rh35  1  0.662699  0.830820  0.801310  1
