# generated using pymatgen
data_NbAs(Cl2F3)2
_symmetry_space_group_name_H-M   'P 1'
_cell_length_a   9.13703500
_cell_length_b   9.13703500
_cell_length_c   6.69265700
_cell_angle_alpha   90.00000000
_cell_angle_beta   90.00000000
_cell_angle_gamma   90.00000000
_symmetry_Int_Tables_number   1
_chemical_formula_structural   NbAs(Cl2F3)2
_chemical_formula_sum   'Nb2 As2 Cl8 F12'
_cell_volume   558.73920421
_cell_formula_units_Z   2
loop_
 _symmetry_equiv_pos_site_id
 _symmetry_equiv_pos_as_xyz
  1  'x, y, z'
loop_
 _atom_site_type_symbol
 _atom_site_label
 _atom_site_symmetry_multiplicity
 _atom_site_fract_x
 _atom_site_fract_y
 _atom_site_fract_z
 _atom_site_occupancy
  Nb  Nb0  1  0.500000  0.000000  0.674385  1
  Nb  Nb1  1  0.000000  0.500000  0.325615  1
  As  As2  1  0.500000  0.500000  0.000000  1
  As  As3  1  0.000000  0.000000  0.000000  1
  Cl  Cl4  1  0.464876  0.683714  0.181054  1
  Cl  Cl5  1  0.183714  0.035124  0.181054  1
  Cl  Cl6  1  0.683714  0.535124  0.818946  1
  Cl  Cl7  1  0.035124  0.816286  0.818946  1
  Cl  Cl8  1  0.964876  0.183714  0.818946  1
  Cl  Cl9  1  0.316286  0.464876  0.818946  1
  Cl  Cl10  1  0.535124  0.316286  0.181054  1
  Cl  Cl11  1  0.816286  0.964876  0.181054  1
  F  F12  1  0.500000  0.000000  0.382763  1
  F  F13  1  0.000000  0.500000  0.617237  1
  F  F14  1  0.430626  0.798950  0.673124  1
  F  F15  1  0.298950  0.069374  0.673124  1
  F  F16  1  0.701050  0.930626  0.673124  1
  F  F17  1  0.569374  0.201050  0.673124  1
  F  F18  1  0.069374  0.701050  0.326876  1
  F  F19  1  0.201050  0.430626  0.326876  1
  F  F20  1  0.798950  0.569374  0.326876  1
  F  F21  1  0.000000  0.500000  0.037631  1
  F  F22  1  0.500000  0.000000  0.962369  1
  F  F23  1  0.930626  0.298950  0.326876  1
