# generated using pymatgen
data_Sm2Si2Tc2C
_symmetry_space_group_name_H-M   'P 1'
_cell_length_a   5.92396318
_cell_length_b   5.92396330
_cell_length_c   7.09427072
_cell_angle_alpha   125.65980420
_cell_angle_beta   125.65980504
_cell_angle_gamma   39.99303706
_symmetry_Int_Tables_number   1
_chemical_formula_structural   Sm2Si2Tc2C
_chemical_formula_sum   'Sm2 Si2 Tc2 C1'
_cell_volume   125.49423798
_cell_formula_units_Z   1
loop_
 _symmetry_equiv_pos_site_id
 _symmetry_equiv_pos_as_xyz
  1  'x, y, z'
loop_
 _atom_site_type_symbol
 _atom_site_label
 _atom_site_symmetry_multiplicity
 _atom_site_fract_x
 _atom_site_fract_y
 _atom_site_fract_z
 _atom_site_occupancy
  Sm  Sm0  1  0.569321  0.569321  0.300596  1
  Sm  Sm1  1  0.430680  0.430680  0.699405  1
  Si  Si2  1  0.851158  0.851158  0.301704  1
  Si  Si3  1  0.148842  0.148842  0.698295  1
  Tc  Tc4  1  0.204124  0.204124  0.092021  1
  Tc  Tc5  1  0.795876  0.795876  0.907981  1
  C  C6  1  0.000000  0.000000  0.000000  1
