# generated using pymatgen
data_Ca15(GeAs6)2
_symmetry_space_group_name_H-M   'P 1'
_cell_length_a   9.05004506
_cell_length_b   9.05004486
_cell_length_c   9.05004560
_cell_angle_alpha   88.55943605
_cell_angle_beta   88.55944479
_cell_angle_gamma   88.55943538
_symmetry_Int_Tables_number   1
_chemical_formula_structural   Ca15(GeAs6)2
_chemical_formula_sum   'Ca15 Ge2 As12'
_cell_volume   740.53747883
_cell_formula_units_Z   1
loop_
 _symmetry_equiv_pos_site_id
 _symmetry_equiv_pos_as_xyz
  1  'x, y, z'
loop_
 _atom_site_type_symbol
 _atom_site_label
 _atom_site_symmetry_multiplicity
 _atom_site_fract_x
 _atom_site_fract_y
 _atom_site_fract_z
 _atom_site_occupancy
  Ca  Ca0  1  0.408297  0.285237  0.774408  1
  Ca  Ca1  1  0.774408  0.408297  0.285237  1
  Ca  Ca2  1  0.285237  0.774408  0.408297  1
  Ca  Ca3  1  0.020273  0.526573  0.660857  1
  Ca  Ca4  1  0.660857  0.020273  0.526573  1
  Ca  Ca5  1  0.526573  0.660857  0.020273  1
  Ca  Ca6  1  0.171318  0.532332  0.029493  1
  Ca  Ca7  1  0.029493  0.171318  0.532332  1
  Ca  Ca8  1  0.532332  0.029493  0.171318  1
  Ca  Ca9  1  0.775765  0.290624  0.922537  1
  Ca  Ca10  1  0.922537  0.775765  0.290624  1
  Ca  Ca11  1  0.290624  0.922537  0.775765  1
  Ca  Ca12  1  0.166527  0.166527  0.166527  1
  Ca  Ca13  1  0.395702  0.395702  0.395702  1
  Ca  Ca14  1  0.948387  0.948387  0.948387  1
  Ge  Ge15  1  0.759204  0.759204  0.759204  1
  Ge  Ge16  1  0.601936  0.601936  0.601936  1
  As  As17  1  0.705481  0.346697  0.604330  1
  As  As18  1  0.604330  0.705481  0.346697  1
  As  As19  1  0.346697  0.604330  0.705481  1
  As  As20  1  0.614933  0.976803  0.856066  1
  As  As21  1  0.856066  0.614933  0.976803  1
  As  As22  1  0.976803  0.856066  0.614933  1
  As  As23  1  0.473256  0.343665  0.085757  1
  As  As24  1  0.085757  0.473256  0.343665  1
  As  As25  1  0.343665  0.085757  0.473256  1
  As  As26  1  0.094461  0.236647  0.847166  1
  As  As27  1  0.847166  0.094461  0.236647  1
  As  As28  1  0.236647  0.847166  0.094461  1
