# generated using pymatgen
data_Hf2Nb3Co19P12
_symmetry_space_group_name_H-M   'P 1'
_cell_length_a   11.73910500
_cell_length_b   11.73910649
_cell_length_c   3.58053900
_cell_angle_alpha   90.00000000
_cell_angle_beta   90.00000000
_cell_angle_gamma   120.00000426
_symmetry_Int_Tables_number   1
_chemical_formula_structural   Hf2Nb3Co19P12
_chemical_formula_sum   'Hf2 Nb3 Co19 P12'
_cell_volume   427.31589821
_cell_formula_units_Z   1
loop_
 _symmetry_equiv_pos_site_id
 _symmetry_equiv_pos_as_xyz
  1  'x, y, z'
loop_
 _atom_site_type_symbol
 _atom_site_label
 _atom_site_symmetry_multiplicity
 _atom_site_fract_x
 _atom_site_fract_y
 _atom_site_fract_z
 _atom_site_occupancy
  Hf  Hf0  1  0.333333  0.666667  0.500000  1
  Hf  Hf1  1  0.666667  0.333333  0.500000  1
  Nb  Nb2  1  0.817720  0.000000  0.000000  1
  Nb  Nb3  1  0.000000  0.817720  0.000000  1
  Nb  Nb4  1  0.182280  0.182280  0.000000  1
  Co  Co5  1  0.624923  0.803920  0.500000  1
  Co  Co6  1  0.196080  0.821004  0.500000  1
  Co  Co7  1  0.178996  0.375077  0.500000  1
  Co  Co8  1  0.375077  0.178996  0.500000  1
  Co  Co9  1  0.803920  0.624923  0.500000  1
  Co  Co10  1  0.821004  0.196080  0.500000  1
  Co  Co11  1  0.280918  0.000000  0.000000  1
  Co  Co12  1  0.000000  0.280918  0.000000  1
  Co  Co13  1  0.719082  0.719082  0.000000  1
  Co  Co14  1  0.453538  0.000000  0.500000  1
  Co  Co15  1  0.000000  0.453538  0.500000  1
  Co  Co16  1  0.546462  0.546462  0.500000  1
  Co  Co17  1  0.517271  0.871888  0.000000  1
  Co  Co18  1  0.128112  0.645383  0.000000  1
  Co  Co19  1  0.354617  0.482729  0.000000  1
  Co  Co20  1  0.482729  0.354617  0.000000  1
  Co  Co21  1  0.871888  0.517271  0.000000  1
  Co  Co22  1  0.645383  0.128112  0.000000  1
  Co  Co23  1  0.000000  0.000000  0.500000  1
  P  P24  1  0.175924  0.000000  0.500000  1
  P  P25  1  0.000000  0.175924  0.500000  1
  P  P26  1  0.824076  0.824076  0.500000  1
  P  P27  1  0.517801  0.682153  0.000000  1
  P  P28  1  0.317847  0.835648  0.000000  1
  P  P29  1  0.164352  0.482199  0.000000  1
  P  P30  1  0.482199  0.164352  0.000000  1
  P  P31  1  0.682153  0.517801  0.000000  1
  P  P32  1  0.835648  0.317847  0.000000  1
  P  P33  1  0.641401  0.000000  0.500000  1
  P  P34  1  0.000000  0.641401  0.500000  1
  P  P35  1  0.358599  0.358599  0.500000  1
