# generated using pymatgen
data_LaTb9Si5Hg
_symmetry_space_group_name_H-M   'P 1'
_cell_length_a   7.55586626
_cell_length_b   7.60286455
_cell_length_c   8.86981200
_cell_angle_alpha   115.35098340
_cell_angle_beta   114.96866119
_cell_angle_gamma   90.21532980
_symmetry_Int_Tables_number   1
_chemical_formula_structural   LaTb9Si5Hg
_chemical_formula_sum   'La1 Tb9 Si5 Hg1'
_cell_volume   406.71068110
_cell_formula_units_Z   1
loop_
 _symmetry_equiv_pos_site_id
 _symmetry_equiv_pos_as_xyz
  1  'x, y, z'
loop_
 _atom_site_type_symbol
 _atom_site_label
 _atom_site_symmetry_multiplicity
 _atom_site_fract_x
 _atom_site_fract_y
 _atom_site_fract_z
 _atom_site_occupancy
  La  La0  1  0.521630  0.035879  0.705897  1
  Tb  Tb1  1  0.514720  0.513636  0.029618  1
  Tb  Tb2  1  0.990196  0.990148  0.980078  1
  Tb  Tb3  1  0.974049  0.822880  0.283231  1
  Tb  Tb4  1  0.307807  0.460562  0.285302  1
  Tb  Tb5  1  0.821348  0.306098  0.282800  1
  Tb  Tb6  1  0.460342  0.977169  0.283312  1
  Tb  Tb7  1  0.037943  0.194412  0.716196  1
  Tb  Tb8  1  0.678985  0.523960  0.717246  1
  Tb  Tb9  1  0.191706  0.676599  0.717716  1
  Si  Si10  1  0.240664  0.250491  0.490689  1
  Si  Si11  1  0.621237  0.876908  0.002825  1
  Si  Si12  1  0.378309  0.122434  0.003966  1
  Si  Si13  1  0.883291  0.382211  0.001999  1
  Si  Si14  1  0.121887  0.622198  0.001293  1
  Hg  Hg15  1  0.755885  0.744414  0.497832  1
