# generated using pymatgen
data_Li2Y3In4
_symmetry_space_group_name_H-M   'P 1'
_cell_length_a   7.34703958
_cell_length_b   7.44464561
_cell_length_c   4.70280900
_cell_angle_alpha   90.00000000
_cell_angle_beta   90.00000000
_cell_angle_gamma   120.44043953
_symmetry_Int_Tables_number   1
_chemical_formula_structural   Li2Y3In4
_chemical_formula_sum   'Li2 Y3 In4'
_cell_volume   221.76844525
_cell_formula_units_Z   1
loop_
 _symmetry_equiv_pos_site_id
 _symmetry_equiv_pos_as_xyz
  1  'x, y, z'
loop_
 _atom_site_type_symbol
 _atom_site_label
 _atom_site_symmetry_multiplicity
 _atom_site_fract_x
 _atom_site_fract_y
 _atom_site_fract_z
 _atom_site_occupancy
  Li  Li0  1  0.771185  0.768684  0.500000  1
  Li  Li1  1  0.228815  0.997497  0.500000  1
  Y  Y2  1  0.000000  0.554499  0.000000  1
  Y  Y3  1  0.438044  0.444139  0.000000  1
  Y  Y4  1  0.561956  0.006095  0.000000  1
  In  In5  1  0.000000  0.231874  0.500000  1
  In  In6  1  0.655882  0.337551  0.500000  1
  In  In7  1  0.000000  0.977993  0.000000  1
  In  In8  1  0.344118  0.681669  0.500000  1
