# generated using pymatgen
data_Nd2Y2Zn4Si3Ge
_symmetry_space_group_name_H-M   'P 1'
_cell_length_a   4.20912200
_cell_length_b   4.20911977
_cell_length_c   16.15676700
_cell_angle_alpha   90.00000000
_cell_angle_beta   90.00000000
_cell_angle_gamma   120.00001756
_symmetry_Int_Tables_number   1
_chemical_formula_structural   Nd2Y2Zn4Si3Ge
_chemical_formula_sum   'Nd2 Y2 Zn4 Si3 Ge1'
_cell_volume   247.89502668
_cell_formula_units_Z   1
loop_
 _symmetry_equiv_pos_site_id
 _symmetry_equiv_pos_as_xyz
  1  'x, y, z'
loop_
 _atom_site_type_symbol
 _atom_site_label
 _atom_site_symmetry_multiplicity
 _atom_site_fract_x
 _atom_site_fract_y
 _atom_site_fract_z
 _atom_site_occupancy
  Nd  Nd0  1  0.000000  0.000000  0.001748  1
  Nd  Nd1  1  0.000000  0.000000  0.499498  1
  Y  Y2  1  0.000000  0.000000  0.250635  1
  Y  Y3  1  0.000000  0.000000  0.748025  1
  Zn  Zn4  1  0.333333  0.666667  0.142970  1
  Zn  Zn5  1  0.666667  0.333333  0.853704  1
  Zn  Zn6  1  0.666667  0.333333  0.640659  1
  Zn  Zn7  1  0.333333  0.666667  0.358642  1
  Si  Si8  1  0.333333  0.666667  0.621151  1
  Si  Si9  1  0.666667  0.333333  0.378667  1
  Si  Si10  1  0.666667  0.333333  0.122356  1
  Ge  Ge11  1  0.333333  0.666667  0.881945  1
