# generated using pymatgen
data_Li8Nd3Th5Ir8
_symmetry_space_group_name_H-M   'P 1'
_cell_length_a   3.98335800
_cell_length_b   7.48723615
_cell_length_c   16.67472200
_cell_angle_alpha   90.36165004
_cell_angle_beta   90.00000000
_cell_angle_gamma   90.00000000
_symmetry_Int_Tables_number   1
_chemical_formula_structural   Li8Nd3Th5Ir8
_chemical_formula_sum   'Li8 Nd3 Th5 Ir8'
_cell_volume   497.30270520
_cell_formula_units_Z   1
loop_
 _symmetry_equiv_pos_site_id
 _symmetry_equiv_pos_as_xyz
  1  'x, y, z'
loop_
 _atom_site_type_symbol
 _atom_site_label
 _atom_site_symmetry_multiplicity
 _atom_site_fract_x
 _atom_site_fract_y
 _atom_site_fract_z
 _atom_site_occupancy
  Li  Li0  1  0.750000  0.010437  0.559616  1
  Li  Li1  1  0.250000  0.617989  0.349140  1
  Li  Li2  1  0.750000  0.377911  0.650760  1
  Li  Li3  1  0.250000  0.492276  0.059786  1
  Li  Li4  1  0.750000  0.510986  0.940497  1
  Li  Li5  1  0.250000  0.989085  0.442381  1
  Li  Li6  1  0.250000  0.126547  0.149390  1
  Li  Li7  1  0.750000  0.876957  0.848826  1
  Nd  Nd8  1  0.750000  0.447144  0.214590  1
  Nd  Nd9  1  0.250000  0.051281  0.714017  1
  Nd  Nd10  1  0.250000  0.550723  0.785036  1
  Th  Th11  1  0.250000  0.170266  0.938671  1
  Th  Th12  1  0.250000  0.670187  0.560290  1
  Th  Th13  1  0.750000  0.328578  0.440158  1
  Th  Th14  1  0.750000  0.946661  0.285683  1
  Th  Th15  1  0.750000  0.835429  0.059965  1
  Ir  Ir16  1  0.750000  0.729997  0.439843  1
  Ir  Ir17  1  0.250000  0.230738  0.314865  1
  Ir  Ir18  1  0.750000  0.251697  0.816973  1
  Ir  Ir19  1  0.750000  0.751451  0.682305  1
  Ir  Ir20  1  0.250000  0.272318  0.557251  1
  Ir  Ir21  1  0.250000  0.757809  0.189264  1
  Ir  Ir22  1  0.750000  0.232047  0.056993  1
  Ir  Ir23  1  0.250000  0.771485  0.943699  1
