# generated using pymatgen
data_Hf7Sc2CrRe3P
_symmetry_space_group_name_H-M   'P 1'
_cell_length_a   8.59183099
_cell_length_b   8.59183109
_cell_length_c   8.45627800
_cell_angle_alpha   90.00000000
_cell_angle_beta   90.00000000
_cell_angle_gamma   119.94508563
_symmetry_Int_Tables_number   1
_chemical_formula_structural   Hf7Sc2CrRe3P
_chemical_formula_sum   'Hf14 Sc4 Cr2 Re6 P2'
_cell_volume   540.90549339
_cell_formula_units_Z   2
loop_
 _symmetry_equiv_pos_site_id
 _symmetry_equiv_pos_as_xyz
  1  'x, y, z'
loop_
 _atom_site_type_symbol
 _atom_site_label
 _atom_site_symmetry_multiplicity
 _atom_site_fract_x
 _atom_site_fract_y
 _atom_site_fract_z
 _atom_site_occupancy
  Hf  Hf0  1  0.194358  0.805642  0.452181  1
  Hf  Hf1  1  0.194383  0.388088  0.451013  1
  Hf  Hf2  1  0.611912  0.805617  0.451013  1
  Hf  Hf3  1  0.805993  0.194007  0.548644  1
  Hf  Hf4  1  0.805310  0.611435  0.548689  1
  Hf  Hf5  1  0.388565  0.194690  0.548689  1
  Hf  Hf6  1  0.805993  0.194007  0.951356  1
  Hf  Hf7  1  0.805310  0.611435  0.951311  1
  Hf  Hf8  1  0.388565  0.194690  0.951311  1
  Hf  Hf9  1  0.194358  0.805642  0.047819  1
  Hf  Hf10  1  0.194383  0.388088  0.048987  1
  Hf  Hf11  1  0.611912  0.805617  0.048987  1
  Hf  Hf12  1  0.459743  0.919634  0.750000  1
  Hf  Hf13  1  0.080366  0.540257  0.750000  1
  Sc  Sc14  1  0.540967  0.459033  0.250000  1
  Sc  Sc15  1  0.540652  0.081228  0.250000  1
  Sc  Sc16  1  0.918772  0.459348  0.250000  1
  Sc  Sc17  1  0.458043  0.541957  0.750000  1
  Cr  Cr18  1  0.000011  0.999989  0.498971  1
  Cr  Cr19  1  0.000011  0.999989  0.001029  1
  Re  Re20  1  0.892933  0.107067  0.250000  1
  Re  Re21  1  0.892947  0.785290  0.250000  1
  Re  Re22  1  0.214710  0.107053  0.250000  1
  Re  Re23  1  0.106481  0.893519  0.750000  1
  Re  Re24  1  0.106937  0.214798  0.750000  1
  Re  Re25  1  0.785202  0.893063  0.750000  1
  P  P26  1  0.333247  0.666753  0.250000  1
  P  P27  1  0.667932  0.332068  0.750000  1
