# generated using pymatgen
data_Zr6Co20As13
_symmetry_space_group_name_H-M   'P 1'
_cell_length_a   12.89374900
_cell_length_b   12.89374996
_cell_length_c   3.70804800
_cell_angle_alpha   90.00000000
_cell_angle_beta   90.00000000
_cell_angle_gamma   120.00000011
_symmetry_Int_Tables_number   1
_chemical_formula_structural   Zr6Co20As13
_chemical_formula_sum   'Zr6 Co20 As13'
_cell_volume   533.86866873
_cell_formula_units_Z   1
loop_
 _symmetry_equiv_pos_site_id
 _symmetry_equiv_pos_as_xyz
  1  'x, y, z'
loop_
 _atom_site_type_symbol
 _atom_site_label
 _atom_site_symmetry_multiplicity
 _atom_site_fract_x
 _atom_site_fract_y
 _atom_site_fract_z
 _atom_site_occupancy
  Zr  Zr0  1  0.807233  0.283936  0.500000  1
  Zr  Zr1  1  0.716064  0.523297  0.500000  1
  Zr  Zr2  1  0.476703  0.192767  0.500000  1
  Zr  Zr3  1  0.193147  0.717478  0.000000  1
  Zr  Zr4  1  0.282522  0.475670  0.000000  1
  Zr  Zr5  1  0.524330  0.806853  0.000000  1
  Co  Co6  1  0.418990  0.981329  0.000000  1
  Co  Co7  1  0.018671  0.437661  0.000000  1
  Co  Co8  1  0.582259  0.018815  0.500000  1
  Co  Co9  1  0.562339  0.581010  0.000000  1
  Co  Co10  1  0.981185  0.563444  0.500000  1
  Co  Co11  1  0.923047  0.084628  0.500000  1
  Co  Co12  1  0.161582  0.076953  0.500000  1
  Co  Co13  1  0.915372  0.838418  0.500000  1
  Co  Co14  1  0.095625  0.894511  0.000000  1
  Co  Co15  1  0.798885  0.904375  0.000000  1
  Co  Co16  1  0.105489  0.201115  0.000000  1
  Co  Co17  1  0.333333  0.666667  0.500000  1
  Co  Co18  1  0.666667  0.333333  0.000000  1
  Co  Co19  1  0.677015  0.747133  0.500000  1
  Co  Co20  1  0.252867  0.929882  0.500000  1
  Co  Co21  1  0.923692  0.676476  0.000000  1
  Co  Co22  1  0.323524  0.247216  0.000000  1
  Co  Co23  1  0.752784  0.076308  0.000000  1
  Co  Co24  1  0.436556  0.417741  0.500000  1
  Co  Co25  1  0.070118  0.322985  0.500000  1
  As  As26  1  0.000000  0.000000  0.000000  1
  As  As27  1  0.231993  0.286446  0.500000  1
  As  As28  1  0.713554  0.945547  0.500000  1
  As  As29  1  0.054453  0.768007  0.500000  1
  As  As30  1  0.767875  0.712340  0.000000  1
  As  As31  1  0.287660  0.055535  0.000000  1
  As  As32  1  0.473121  0.613714  0.500000  1
  As  As33  1  0.386286  0.859407  0.500000  1
  As  As34  1  0.859011  0.473984  0.000000  1
  As  As35  1  0.526016  0.385028  0.000000  1
  As  As36  1  0.614972  0.140989  0.000000  1
  As  As37  1  0.944465  0.232125  0.000000  1
  As  As38  1  0.140593  0.526879  0.500000  1
