# generated using pymatgen
data_U2TlS5
_symmetry_space_group_name_H-M   'P 1'
_cell_length_a   7.41438500
_cell_length_b   8.38973016
_cell_length_c   11.64569000
_cell_angle_alpha   90.03018540
_cell_angle_beta   90.00000000
_cell_angle_gamma   90.00000000
_symmetry_Int_Tables_number   1
_chemical_formula_structural   U2TlS5
_chemical_formula_sum   'U8 Tl4 S20'
_cell_volume   724.41642975
_cell_formula_units_Z   4
loop_
 _symmetry_equiv_pos_site_id
 _symmetry_equiv_pos_as_xyz
  1  'x, y, z'
loop_
 _atom_site_type_symbol
 _atom_site_label
 _atom_site_symmetry_multiplicity
 _atom_site_fract_x
 _atom_site_fract_y
 _atom_site_fract_z
 _atom_site_occupancy
  U  U0  1  0.023943  0.999880  0.319823  1
  U  U1  1  0.523943  0.000120  0.180177  1
  U  U2  1  0.976057  0.000120  0.680177  1
  U  U3  1  0.476057  0.999880  0.819823  1
  U  U4  1  0.069600  0.750665  0.007483  1
  U  U5  1  0.569600  0.249335  0.492517  1
  U  U6  1  0.930400  0.249335  0.992517  1
  U  U7  1  0.430400  0.750665  0.507483  1
  Tl  Tl8  1  0.054153  0.489982  0.332539  1
  Tl  Tl9  1  0.554153  0.510018  0.167461  1
  Tl  Tl10  1  0.945847  0.510018  0.667461  1
  Tl  Tl11  1  0.445847  0.489982  0.832539  1
  S  S12  1  0.661548  0.956416  0.403589  1
  S  S13  1  0.161548  0.043584  0.096411  1
  S  S14  1  0.338452  0.043584  0.596411  1
  S  S15  1  0.838452  0.956416  0.903589  1
  S  S16  1  0.447214  0.798138  0.002969  1
  S  S17  1  0.947214  0.201862  0.497031  1
  S  S18  1  0.552786  0.201862  0.997031  1
  S  S19  1  0.052786  0.798138  0.502969  1
  S  S20  1  0.838893  0.793278  0.184805  1
  S  S21  1  0.338893  0.206722  0.315195  1
  S  S22  1  0.161107  0.206722  0.815195  1
  S  S23  1  0.661107  0.793278  0.684805  1
  S  S24  1  0.310082  0.783702  0.285801  1
  S  S25  1  0.810082  0.216298  0.214199  1
  S  S26  1  0.689918  0.216298  0.714199  1
  S  S27  1  0.189918  0.783702  0.785801  1
  S  S28  1  0.171215  0.460256  0.071177  1
  S  S29  1  0.671215  0.539744  0.428823  1
  S  S30  1  0.828785  0.539744  0.928823  1
  S  S31  1  0.328785  0.460256  0.571177  1
