# generated using pymatgen
data_RbUSbO6
_symmetry_space_group_name_H-M   'P 1'
_cell_length_a   7.68381836
_cell_length_b   7.68381840
_cell_length_c   7.68381854
_cell_angle_alpha   122.40883182
_cell_angle_beta   117.68431671
_cell_angle_gamma   89.96811348
_symmetry_Int_Tables_number   1
_chemical_formula_structural   RbUSbO6
_chemical_formula_sum   'Rb2 U2 Sb2 O12'
_cell_volume   319.87886896
_cell_formula_units_Z   2
loop_
 _symmetry_equiv_pos_site_id
 _symmetry_equiv_pos_as_xyz
  1  'x, y, z'
loop_
 _atom_site_type_symbol
 _atom_site_label
 _atom_site_symmetry_multiplicity
 _atom_site_fract_x
 _atom_site_fract_y
 _atom_site_fract_z
 _atom_site_occupancy
  Rb  Rb0  1  0.681301  0.394434  0.786866  1
  Rb  Rb1  1  0.392432  0.605566  0.286866  1
  U  U2  1  0.500936  0.999364  0.001574  1
  U  U3  1  0.002210  0.000636  0.501574  1
  Sb  Sb4  1  0.000719  0.500000  0.500719  1
  Sb  Sb5  1  0.000719  0.000000  0.000719  1
  O  O6  1  0.066449  0.318572  0.247877  1
  O  O7  1  0.683974  0.932209  0.251764  1
  O  O8  1  0.055436  0.928867  0.234668  1
  O  O9  1  0.694596  0.321145  0.264514  1
  O  O10  1  0.694596  0.930082  0.873452  1
  O  O11  1  0.055436  0.320768  0.626567  1
  O  O12  1  0.929304  0.681428  0.747877  1
  O  O13  1  0.319555  0.067791  0.751764  1
  O  O14  1  0.943369  0.069918  0.764514  1
  O  O15  1  0.305799  0.679232  0.734668  1
  O  O16  1  0.305799  0.071133  0.126567  1
  O  O17  1  0.943369  0.678855  0.373452  1
