# generated using pymatgen
data_CeCdCoSiPt
_symmetry_space_group_name_H-M   'P 1'
_cell_length_a   3.99743200
_cell_length_b   3.99743200
_cell_length_c   11.46196300
_cell_angle_alpha   90.00000000
_cell_angle_beta   90.00000000
_cell_angle_gamma   90.00000000
_symmetry_Int_Tables_number   1
_chemical_formula_structural   CeCdCoSiPt
_chemical_formula_sum   'Ce2 Cd2 Co2 Si2 Pt2'
_cell_volume   183.15600902
_cell_formula_units_Z   2
loop_
 _symmetry_equiv_pos_site_id
 _symmetry_equiv_pos_as_xyz
  1  'x, y, z'
loop_
 _atom_site_type_symbol
 _atom_site_label
 _atom_site_symmetry_multiplicity
 _atom_site_fract_x
 _atom_site_fract_y
 _atom_site_fract_z
 _atom_site_occupancy
  Ce  Ce0  1  0.000000  0.500000  0.217097  1
  Ce  Ce1  1  0.500000  0.000000  0.782903  1
  Cd  Cd2  1  0.500000  0.500000  0.500000  1
  Cd  Cd3  1  0.000000  0.000000  0.500000  1
  Co  Co4  1  0.000000  0.000000  0.000000  1
  Co  Co5  1  0.500000  0.500000  0.000000  1
  Si  Si6  1  0.500000  0.000000  0.100232  1
  Si  Si7  1  0.000000  0.500000  0.899768  1
  Pt  Pt8  1  0.000000  0.500000  0.686853  1
  Pt  Pt9  1  0.500000  0.000000  0.313147  1
