# generated using pymatgen
data_Dy6ErCoBr12
_symmetry_space_group_name_H-M   'P 1'
_cell_length_a   9.15812945
_cell_length_b   9.15812941
_cell_length_c   9.15812872
_cell_angle_alpha   106.70249845
_cell_angle_beta   106.70249307
_cell_angle_gamma   106.70250017
_symmetry_Int_Tables_number   1
_chemical_formula_structural   Dy6ErCoBr12
_chemical_formula_sum   'Dy6 Er1 Co1 Br12'
_cell_volume   644.80571764
_cell_formula_units_Z   1
loop_
 _symmetry_equiv_pos_site_id
 _symmetry_equiv_pos_as_xyz
  1  'x, y, z'
loop_
 _atom_site_type_symbol
 _atom_site_label
 _atom_site_symmetry_multiplicity
 _atom_site_fract_x
 _atom_site_fract_y
 _atom_site_fract_z
 _atom_site_occupancy
  Dy  Dy0  1  0.096454  0.021898  0.302138  1
  Dy  Dy1  1  0.302138  0.096454  0.021898  1
  Dy  Dy2  1  0.021898  0.302138  0.096454  1
  Dy  Dy3  1  0.903546  0.978102  0.697862  1
  Dy  Dy4  1  0.697862  0.903546  0.978102  1
  Dy  Dy5  1  0.978102  0.697862  0.903546  1
  Er  Er6  1  0.500000  0.500000  0.500000  1
  Co  Co7  1  0.000000  0.000000  0.000000  1
  Br  Br8  1  0.069209  0.676573  0.223298  1
  Br  Br9  1  0.223298  0.069209  0.676573  1
  Br  Br10  1  0.676573  0.223298  0.069209  1
  Br  Br11  1  0.930791  0.323427  0.776702  1
  Br  Br12  1  0.776702  0.930791  0.323427  1
  Br  Br13  1  0.323427  0.776702  0.930791  1
  Br  Br14  1  0.463868  0.169093  0.388667  1
  Br  Br15  1  0.388667  0.463868  0.169093  1
  Br  Br16  1  0.169093  0.388667  0.463868  1
  Br  Br17  1  0.536132  0.830907  0.611333  1
  Br  Br18  1  0.611333  0.536132  0.830907  1
  Br  Br19  1  0.830907  0.611333  0.536132  1
