# generated using pymatgen
data_Yb2Al8SiIr3
_symmetry_space_group_name_H-M   'P 1'
_cell_length_a   7.51850527
_cell_length_b   7.49232683
_cell_length_c   9.54511438
_cell_angle_alpha   89.87821062
_cell_angle_beta   90.18016307
_cell_angle_gamma   119.51858029
_symmetry_Int_Tables_number   1
_chemical_formula_structural   Yb2Al8SiIr3
_chemical_formula_sum   'Yb4 Al16 Si2 Ir6'
_cell_volume   467.89045030
_cell_formula_units_Z   2
loop_
 _symmetry_equiv_pos_site_id
 _symmetry_equiv_pos_as_xyz
  1  'x, y, z'
loop_
 _atom_site_type_symbol
 _atom_site_label
 _atom_site_symmetry_multiplicity
 _atom_site_fract_x
 _atom_site_fract_y
 _atom_site_fract_z
 _atom_site_occupancy
  Yb  Yb0  1  0.994714  0.664653  0.243596  1
  Yb  Yb1  1  0.005286  0.335347  0.756404  1
  Yb  Yb2  1  0.676268  0.002123  0.248158  1
  Yb  Yb3  1  0.323732  0.997877  0.751842  1
  Al  Al4  1  0.130211  0.129561  0.250271  1
  Al  Al5  1  0.869789  0.870439  0.749729  1
  Al  Al6  1  0.998135  0.665283  0.567420  1
  Al  Al7  1  0.335472  0.000705  0.427239  1
  Al  Al8  1  0.001865  0.334717  0.432580  1
  Al  Al9  1  0.664528  0.999295  0.572761  1
  Al  Al10  1  0.661374  0.995779  0.925665  1
  Al  Al11  1  0.338626  0.004221  0.074335  1
  Al  Al12  1  0.333684  0.332657  0.553132  1
  Al  Al13  1  0.666316  0.667343  0.446868  1
  Al  Al14  1  0.663108  0.666943  0.052238  1
  Al  Al15  1  0.336892  0.333057  0.947762  1
  Al  Al16  1  0.337643  0.548737  0.248640  1
  Al  Al17  1  0.662357  0.451263  0.751360  1
  Al  Al18  1  0.546224  0.339426  0.250030  1
  Al  Al19  1  0.453776  0.660574  0.749970  1
  Si  Si20  1  0.003595  0.329499  0.074409  1
  Si  Si21  1  0.996405  0.670501  0.925591  1
  Ir  Ir22  1  0.689447  0.337002  0.002956  1
  Ir  Ir23  1  0.310553  0.662998  0.997044  1
  Ir  Ir24  1  0.328041  0.670503  0.499636  1
  Ir  Ir25  1  0.671959  0.329497  0.500364  1
  Ir  Ir26  1  0.000000  0.000000  0.000000  1
  Ir  Ir27  1  0.000000  0.000000  0.500000  1
