# generated using pymatgen
data_Sm2Cd2P6N13
_symmetry_space_group_name_H-M   'P 1'
_cell_length_a   7.38573196
_cell_length_b   7.45254775
_cell_length_c   7.38572519
_cell_angle_alpha   109.22929527
_cell_angle_beta   109.59332399
_cell_angle_gamma   109.22934941
_symmetry_Int_Tables_number   1
_chemical_formula_structural   Sm2Cd2P6N13
_chemical_formula_sum   'Sm2 Cd2 P6 N13'
_cell_volume   314.33209653
_cell_formula_units_Z   1
loop_
 _symmetry_equiv_pos_site_id
 _symmetry_equiv_pos_as_xyz
  1  'x, y, z'
loop_
 _atom_site_type_symbol
 _atom_site_label
 _atom_site_symmetry_multiplicity
 _atom_site_fract_x
 _atom_site_fract_y
 _atom_site_fract_z
 _atom_site_occupancy
  Sm  Sm0  1  0.688158  0.000000  0.007663  1
  Sm  Sm1  1  0.007662  0.999999  0.688158  1
  Cd  Cd2  1  0.001412  0.707877  0.001413  1
  Cd  Cd3  1  0.293535  0.292123  0.293535  1
  P  P4  1  0.251168  0.750186  0.500043  1
  P  P5  1  0.749858  0.249815  0.500982  1
  P  P6  1  0.749547  0.500000  0.249548  1
  P  P7  1  0.249548  0.500000  0.749548  1
  P  P8  1  0.500044  0.750186  0.251168  1
  P  P9  1  0.500982  0.249814  0.749857  1
  N  N10  1  0.986256  0.000000  0.986256  1
  N  N11  1  0.715102  0.292990  0.292170  1
  N  N12  1  0.293587  0.724675  0.293587  1
  N  N13  1  0.304909  0.588147  0.587536  1
  N  N14  1  0.587537  0.588147  0.304910  1
  N  N15  1  0.422113  0.707009  0.999180  1
  N  N16  1  0.999180  0.707009  0.422112  1
  N  N17  1  0.568912  0.275326  0.568912  1
  N  N18  1  0.718829  0.000001  0.403340  1
  N  N19  1  0.403340  0.000000  0.718829  1
  N  N20  1  0.716761  0.411853  0.999389  1
  N  N21  1  0.292169  0.292990  0.715102  1
  N  N22  1  0.999390  0.411855  0.716762  1
