# generated using pymatgen
data_Yb5Th3(Si3Ir)4
_symmetry_space_group_name_H-M   'P 1'
_cell_length_a   8.20667100
_cell_length_b   8.25491700
_cell_length_c   8.44833500
_cell_angle_alpha   90.00000000
_cell_angle_beta   90.00000000
_cell_angle_gamma   119.47697480
_symmetry_Int_Tables_number   1
_chemical_formula_structural   Yb5Th3(Si3Ir)4
_chemical_formula_sum   'Yb5 Th3 Si12 Ir4'
_cell_volume   498.24888264
_cell_formula_units_Z   1
loop_
 _symmetry_equiv_pos_site_id
 _symmetry_equiv_pos_as_xyz
  1  'x, y, z'
loop_
 _atom_site_type_symbol
 _atom_site_label
 _atom_site_symmetry_multiplicity
 _atom_site_fract_x
 _atom_site_fract_y
 _atom_site_fract_z
 _atom_site_occupancy
  Yb  Yb0  1  0.999839  0.499879  0.250000  1
  Yb  Yb1  1  0.499906  0.999826  0.750000  1
  Yb  Yb2  1  0.500158  0.000249  0.250000  1
  Yb  Yb3  1  0.000001  0.999985  0.750000  1
  Yb  Yb4  1  0.999991  0.000009  0.250000  1
  Th  Th5  1  0.499957  0.500075  0.750000  1
  Th  Th6  1  0.500068  0.499927  0.250000  1
  Th  Th7  1  0.000190  0.500108  0.750000  1
  Si  Si8  1  0.829097  0.166824  0.000298  1
  Si  Si9  1  0.170901  0.833168  0.000684  1
  Si  Si10  1  0.332392  0.162228  0.999159  1
  Si  Si11  1  0.170901  0.833168  0.499316  1
  Si  Si12  1  0.667592  0.837758  0.999449  1
  Si  Si13  1  0.829097  0.166824  0.499702  1
  Si  Si14  1  0.839025  0.673910  0.001084  1
  Si  Si15  1  0.667592  0.837758  0.500551  1
  Si  Si16  1  0.160972  0.326089  0.001352  1
  Si  Si17  1  0.332392  0.162228  0.500841  1
  Si  Si18  1  0.160972  0.326089  0.498648  1
  Si  Si19  1  0.839025  0.673910  0.498916  1
  Ir  Ir20  1  0.667043  0.342544  0.996949  1
  Ir  Ir21  1  0.332924  0.657450  0.997038  1
  Ir  Ir22  1  0.332924  0.657450  0.502962  1
  Ir  Ir23  1  0.667043  0.342544  0.503051  1
