# generated using pymatgen
data_ZnCu(IrO3)4
_symmetry_space_group_name_H-M   'P 1'
_cell_length_a   4.54801387
_cell_length_b   4.54801387
_cell_length_c   9.46585600
_cell_angle_alpha   90.00000000
_cell_angle_beta   90.00000000
_cell_angle_gamma   90.22625984
_symmetry_Int_Tables_number   1
_chemical_formula_structural   ZnCu(IrO3)4
_chemical_formula_sum   'Zn1 Cu1 Ir4 O12'
_cell_volume   195.79431030
_cell_formula_units_Z   1
loop_
 _symmetry_equiv_pos_site_id
 _symmetry_equiv_pos_as_xyz
  1  'x, y, z'
loop_
 _atom_site_type_symbol
 _atom_site_label
 _atom_site_symmetry_multiplicity
 _atom_site_fract_x
 _atom_site_fract_y
 _atom_site_fract_z
 _atom_site_occupancy
  Zn  Zn0  1  0.500000  0.500000  0.500000  1
  Cu  Cu1  1  0.000000  0.000000  0.000000  1
  Ir  Ir2  1  0.500000  0.500000  0.833088  1
  Ir  Ir3  1  0.000000  0.000000  0.331055  1
  Ir  Ir4  1  0.500000  0.500000  0.166912  1
  Ir  Ir5  1  0.000000  0.000000  0.668945  1
  O  O6  1  0.697795  0.697795  0.671482  1
  O  O7  1  0.302205  0.302205  0.671482  1
  O  O8  1  0.697795  0.697795  0.328518  1
  O  O9  1  0.198466  0.801534  0.169690  1
  O  O10  1  0.801534  0.198466  0.169690  1
  O  O11  1  0.801534  0.198466  0.830310  1
  O  O12  1  0.308270  0.308270  0.000000  1
  O  O13  1  0.184485  0.815515  0.500000  1
  O  O14  1  0.815515  0.184485  0.500000  1
  O  O15  1  0.691730  0.691730  0.000000  1
  O  O16  1  0.302205  0.302205  0.328518  1
  O  O17  1  0.198466  0.801534  0.830310  1
