# generated using pymatgen
data_NdHoFe2(Co3B)2
_symmetry_space_group_name_H-M   'P 1'
_cell_length_a   5.10171300
_cell_length_b   5.10122737
_cell_length_c   6.80717800
_cell_angle_alpha   90.00000000
_cell_angle_beta   90.00000000
_cell_angle_gamma   120.00044922
_symmetry_Int_Tables_number   1
_chemical_formula_structural   NdHoFe2(Co3B)2
_chemical_formula_sum   'Nd1 Ho1 Fe2 Co6 B2'
_cell_volume   153.42158946
_cell_formula_units_Z   1
loop_
 _symmetry_equiv_pos_site_id
 _symmetry_equiv_pos_as_xyz
  1  'x, y, z'
loop_
 _atom_site_type_symbol
 _atom_site_label
 _atom_site_symmetry_multiplicity
 _atom_site_fract_x
 _atom_site_fract_y
 _atom_site_fract_z
 _atom_site_occupancy
  Nd  Nd0  1  0.000009  0.000010  0.000000  1
  Ho  Ho1  1  0.000007  0.000002  0.500000  1
  Fe  Fe2  1  0.666678  0.333358  0.000000  1
  Fe  Fe3  1  0.333356  0.666679  0.000000  1
  Co  Co4  1  0.500004  0.999986  0.291060  1
  Co  Co5  1  0.499997  0.500018  0.291047  1
  Co  Co6  1  0.000030  0.500025  0.291047  1
  Co  Co7  1  0.500004  0.999986  0.708939  1
  Co  Co8  1  0.499997  0.500018  0.708952  1
  Co  Co9  1  0.000030  0.500025  0.708952  1
  B  B10  1  0.666658  0.333345  0.500000  1
  B  B11  1  0.333362  0.666675  0.500000  1
