# generated using pymatgen
data_Sc3Ga3Ni2Pt
_symmetry_space_group_name_H-M   'P 1'
_cell_length_a   7.10394400
_cell_length_b   7.10394453
_cell_length_c   6.74007800
_cell_angle_alpha   90.00000000
_cell_angle_beta   90.00000000
_cell_angle_gamma   120.00000687
_symmetry_Int_Tables_number   1
_chemical_formula_structural   Sc3Ga3Ni2Pt
_chemical_formula_sum   'Sc6 Ga6 Ni4 Pt2'
_cell_volume   294.57413748
_cell_formula_units_Z   2
loop_
 _symmetry_equiv_pos_site_id
 _symmetry_equiv_pos_as_xyz
  1  'x, y, z'
loop_
 _atom_site_type_symbol
 _atom_site_label
 _atom_site_symmetry_multiplicity
 _atom_site_fract_x
 _atom_site_fract_y
 _atom_site_fract_z
 _atom_site_occupancy
  Sc  Sc0  1  0.404498  0.006298  0.250172  1
  Sc  Sc1  1  0.601799  0.595502  0.250172  1
  Sc  Sc2  1  0.993702  0.398201  0.250172  1
  Sc  Sc3  1  0.398201  0.993702  0.750172  1
  Sc  Sc4  1  0.595502  0.601799  0.750172  1
  Sc  Sc5  1  0.006298  0.404498  0.750172  1
  Ga  Ga6  1  0.265135  0.254673  0.999800  1
  Ga  Ga7  1  0.989538  0.734865  0.999800  1
  Ga  Ga8  1  0.010462  0.745327  0.499800  1
  Ga  Ga9  1  0.734865  0.989538  0.499800  1
  Ga  Ga10  1  0.254673  0.265135  0.499800  1
  Ga  Ga11  1  0.745327  0.010462  0.999800  1
  Ni  Ni12  1  0.000000  0.000000  0.749737  1
  Ni  Ni13  1  0.000000  0.000000  0.249737  1
  Ni  Ni14  1  0.666667  0.333333  0.991985  1
  Ni  Ni15  1  0.333333  0.666667  0.491985  1
  Pt  Pt16  1  0.333333  0.666667  0.008362  1
  Pt  Pt17  1  0.666667  0.333333  0.508362  1
