# generated using pymatgen
data_TiMn2Cd2O8
_symmetry_space_group_name_H-M   'P 1'
_cell_length_a   5.04813605
_cell_length_b   6.01789785
_cell_length_c   6.25387108
_cell_angle_alpha   118.75947316
_cell_angle_beta   106.63137767
_cell_angle_gamma   90.00000613
_symmetry_Int_Tables_number   1
_chemical_formula_structural   TiMn2Cd2O8
_chemical_formula_sum   'Ti1 Mn2 Cd2 O8'
_cell_volume   157.42520498
_cell_formula_units_Z   1
loop_
 _symmetry_equiv_pos_site_id
 _symmetry_equiv_pos_as_xyz
  1  'x, y, z'
loop_
 _atom_site_type_symbol
 _atom_site_label
 _atom_site_symmetry_multiplicity
 _atom_site_fract_x
 _atom_site_fract_y
 _atom_site_fract_z
 _atom_site_occupancy
  Ti  Ti0  1  0.000000  0.720167  0.999999  1
  Mn  Mn1  1  0.500001  0.005956  0.000000  1
  Mn  Mn2  1  0.000001  0.247748  0.000001  1
  Cd  Cd3  1  0.655784  0.723042  0.443008  1
  Cd  Cd4  1  0.344217  0.280032  0.556993  1
  O  O5  1  0.052640  0.388910  0.789514  1
  O  O6  1  0.947361  0.599395  0.210487  1
  O  O7  1  0.102379  0.913132  0.805818  1
  O  O8  1  0.897620  0.107314  0.194182  1
  O  O9  1  0.387917  0.326960  0.208536  1
  O  O10  1  0.392352  0.888355  0.207791  1
  O  O11  1  0.612084  0.118423  0.791464  1
  O  O12  1  0.607649  0.680566  0.792209  1
