# generated using pymatgen
data_Ho9Tm(GeB4)4
_symmetry_space_group_name_H-M   'P 1'
_cell_length_a   7.22620200
_cell_length_b   7.22620200
_cell_length_c   8.09794400
_cell_angle_alpha   90.00000000
_cell_angle_beta   90.00000000
_cell_angle_gamma   90.00000000
_symmetry_Int_Tables_number   1
_chemical_formula_structural   Ho9Tm(GeB4)4
_chemical_formula_sum   'Ho9 Tm1 Ge4 B16'
_cell_volume   422.85840209
_cell_formula_units_Z   1
loop_
 _symmetry_equiv_pos_site_id
 _symmetry_equiv_pos_as_xyz
  1  'x, y, z'
loop_
 _atom_site_type_symbol
 _atom_site_label
 _atom_site_symmetry_multiplicity
 _atom_site_fract_x
 _atom_site_fract_y
 _atom_site_fract_z
 _atom_site_occupancy
  Ho  Ho0  1  0.680410  0.180143  0.220980  1
  Ho  Ho1  1  0.319590  0.819857  0.779020  1
  Ho  Ho2  1  0.319590  0.819857  0.220980  1
  Ho  Ho3  1  0.819857  0.680410  0.220980  1
  Ho  Ho4  1  0.819857  0.680410  0.779020  1
  Ho  Ho5  1  0.680410  0.180143  0.779020  1
  Ho  Ho6  1  0.180143  0.319590  0.779020  1
  Ho  Ho7  1  0.180143  0.319590  0.220980  1
  Ho  Ho8  1  0.500000  0.500000  0.500000  1
  Tm  Tm9  1  0.000000  0.000000  0.500000  1
  Ge  Ge10  1  0.120354  0.621404  0.500000  1
  Ge  Ge11  1  0.879646  0.378596  0.500000  1
  Ge  Ge12  1  0.378596  0.120354  0.500000  1
  Ge  Ge13  1  0.621404  0.879646  0.500000  1
  B  B14  1  0.172169  0.039376  0.000000  1
  B  B15  1  0.827831  0.960624  0.000000  1
  B  B16  1  0.960624  0.172169  0.000000  1
  B  B17  1  0.327838  0.539405  0.000000  1
  B  B18  1  0.039376  0.827831  0.000000  1
  B  B19  1  0.672162  0.460595  0.000000  1
  B  B20  1  0.539405  0.672162  0.000000  1
  B  B21  1  0.460595  0.327838  0.000000  1
  B  B22  1  0.090008  0.589949  0.000000  1
  B  B23  1  0.909992  0.410051  0.000000  1
  B  B24  1  0.410051  0.090008  0.000000  1
  B  B25  1  0.589949  0.909992  0.000000  1
  B  B26  1  0.000000  0.000000  0.163350  1
  B  B27  1  0.000000  0.000000  0.836650  1
  B  B28  1  0.500000  0.500000  0.837001  1
  B  B29  1  0.500000  0.500000  0.162999  1
