# generated using pymatgen
data_La2Dy2HoRu2
_symmetry_space_group_name_H-M   'P 1'
_cell_length_a   6.50197337
_cell_length_b   7.24070178
_cell_length_c   8.79222317
_cell_angle_alpha   96.32514190
_cell_angle_beta   111.70063840
_cell_angle_gamma   89.99999761
_symmetry_Int_Tables_number   1
_chemical_formula_structural   La2Dy2HoRu2
_chemical_formula_sum   'La4 Dy4 Ho2 Ru4'
_cell_volume   381.87884452
_cell_formula_units_Z   2
loop_
 _symmetry_equiv_pos_site_id
 _symmetry_equiv_pos_as_xyz
  1  'x, y, z'
loop_
 _atom_site_type_symbol
 _atom_site_label
 _atom_site_symmetry_multiplicity
 _atom_site_fract_x
 _atom_site_fract_y
 _atom_site_fract_z
 _atom_site_occupancy
  La  La0  1  0.978827  0.911195  0.194180  1
  La  La1  1  0.784646  0.588805  0.805820  1
  La  La2  1  0.021173  0.088805  0.805820  1
  La  La3  1  0.215354  0.411195  0.194180  1
  Dy  Dy4  1  0.636182  0.815223  0.430820  1
  Dy  Dy5  1  0.205360  0.684777  0.569180  1
  Dy  Dy6  1  0.363818  0.184777  0.569180  1
  Dy  Dy7  1  0.794640  0.315223  0.430820  1
  Ho  Ho8  1  0.426161  0.750000  0.000000  1
  Ho  Ho9  1  0.573839  0.250000  0.000000  1
  Ru  Ru10  1  0.825310  0.581156  0.224440  1
  Ru  Ru11  1  0.600870  0.918844  0.775560  1
  Ru  Ru12  1  0.174690  0.418844  0.775560  1
  Ru  Ru13  1  0.399130  0.081156  0.224440  1
