# generated using pymatgen
data_CaEu3(CuSi3)2
_symmetry_space_group_name_H-M   'P 1'
_cell_length_a   8.30017019
_cell_length_b   8.14682683
_cell_length_c   5.98388600
_cell_angle_alpha   70.03872216
_cell_angle_beta   67.30302718
_cell_angle_gamma   42.65826430
_symmetry_Int_Tables_number   1
_chemical_formula_structural   CaEu3(CuSi3)2
_chemical_formula_sum   'Ca1 Eu3 Cu2 Si6'
_cell_volume   251.87717268
_cell_formula_units_Z   1
loop_
 _symmetry_equiv_pos_site_id
 _symmetry_equiv_pos_as_xyz
  1  'x, y, z'
loop_
 _atom_site_type_symbol
 _atom_site_label
 _atom_site_symmetry_multiplicity
 _atom_site_fract_x
 _atom_site_fract_y
 _atom_site_fract_z
 _atom_site_occupancy
  Ca  Ca0  1  0.754224  0.245776  0.754224  1
  Eu  Eu1  1  0.244136  0.755864  0.244136  1
  Eu  Eu2  1  0.250354  0.249646  0.250353  1
  Eu  Eu3  1  0.750353  0.749647  0.750352  1
  Cu  Cu4  1  0.666291  0.665457  0.334543  1
  Cu  Cu5  1  0.334543  0.333709  0.666291  1
  Si  Si6  1  0.833055  0.831329  0.168671  1
  Si  Si7  1  0.830325  0.337019  0.168864  1
  Si  Si8  1  0.662981  0.169675  0.336209  1
  Si  Si9  1  0.336209  0.831136  0.662981  1
  Si  Si10  1  0.168864  0.663791  0.830325  1
  Si  Si11  1  0.168671  0.166945  0.833055  1
