# generated using pymatgen
data_Tb6Co15P12IrRu2
_symmetry_space_group_name_H-M   'P 1'
_cell_length_a   3.71818600
_cell_length_b   10.59210600
_cell_length_c   12.32930600
_cell_angle_alpha   90.00000000
_cell_angle_beta   90.00000000
_cell_angle_gamma   90.00000000
_symmetry_Int_Tables_number   1
_chemical_formula_structural   Tb6Co15P12IrRu2
_chemical_formula_sum   'Tb6 Co15 P12 Ir1 Ru2'
_cell_volume   485.57023946
_cell_formula_units_Z   1
loop_
 _symmetry_equiv_pos_site_id
 _symmetry_equiv_pos_as_xyz
  1  'x, y, z'
loop_
 _atom_site_type_symbol
 _atom_site_label
 _atom_site_symmetry_multiplicity
 _atom_site_fract_x
 _atom_site_fract_y
 _atom_site_fract_z
 _atom_site_occupancy
  Tb  Tb0  1  0.000000  0.500000  0.519018  1
  Tb  Tb1  1  0.500000  0.000000  0.475972  1
  Tb  Tb2  1  0.500000  0.817764  0.206726  1
  Tb  Tb3  1  0.500000  0.182236  0.206726  1
  Tb  Tb4  1  0.000000  0.687999  0.794664  1
  Tb  Tb5  1  0.000000  0.312001  0.794664  1
  Co  Co6  1  0.000000  0.000000  0.295164  1
  Co  Co7  1  0.000000  0.500000  0.989154  1
  Co  Co8  1  0.500000  0.000000  0.014449  1
  Co  Co9  1  0.500000  0.330780  0.993238  1
  Co  Co10  1  0.500000  0.669220  0.993238  1
  Co  Co11  1  0.000000  0.166772  0.009683  1
  Co  Co12  1  0.000000  0.833228  0.009683  1
  Co  Co13  1  0.500000  0.296645  0.428160  1
  Co  Co14  1  0.500000  0.703355  0.428160  1
  Co  Co15  1  0.000000  0.199722  0.568181  1
  Co  Co16  1  0.000000  0.800278  0.568181  1
  Co  Co17  1  0.500000  0.881430  0.709111  1
  Co  Co18  1  0.500000  0.118570  0.709111  1
  Co  Co19  1  0.000000  0.620634  0.290544  1
  Co  Co20  1  0.000000  0.379366  0.290544  1
  P  P21  1  0.500000  0.500000  0.890624  1
  P  P22  1  0.000000  0.000000  0.117766  1
  P  P23  1  0.500000  0.500000  0.347556  1
  P  P24  1  0.000000  0.000000  0.650934  1
  P  P25  1  0.500000  0.301819  0.612246  1
  P  P26  1  0.500000  0.698181  0.612246  1
  P  P27  1  0.000000  0.188404  0.383239  1
  P  P28  1  0.000000  0.811596  0.383239  1
  P  P29  1  0.500000  0.847879  0.895116  1
  P  P30  1  0.500000  0.152121  0.895116  1
  P  P31  1  0.000000  0.654423  0.107001  1
  P  P32  1  0.000000  0.345577  0.107001  1
  Ir  Ir33  1  0.500000  0.500000  0.703060  1
  Ru  Ru34  1  0.500000  0.500000  0.158909  1
  Ru  Ru35  1  0.000000  0.000000  0.841575  1
