# generated using pymatgen
data_Dy5Mg2Sc(P3Ir4)4
_symmetry_space_group_name_H-M   'P 1'
_cell_length_a   12.78890594
_cell_length_b   12.90259298
_cell_length_c   3.97092100
_cell_angle_alpha   90.00000000
_cell_angle_beta   90.00000000
_cell_angle_gamma   120.29450433
_symmetry_Int_Tables_number   1
_chemical_formula_structural   Dy5Mg2Sc(P3Ir4)4
_chemical_formula_sum   'Dy5 Mg2 Sc1 P12 Ir16'
_cell_volume   565.76461721
_cell_formula_units_Z   1
loop_
 _symmetry_equiv_pos_site_id
 _symmetry_equiv_pos_as_xyz
  1  'x, y, z'
loop_
 _atom_site_type_symbol
 _atom_site_label
 _atom_site_symmetry_multiplicity
 _atom_site_fract_x
 _atom_site_fract_y
 _atom_site_fract_z
 _atom_site_occupancy
  Dy  Dy0  1  0.330724  0.664764  0.500000  1
  Dy  Dy1  1  0.669276  0.334038  0.500000  1
  Dy  Dy2  1  0.000000  0.810339  0.000000  1
  Dy  Dy3  1  0.188483  0.191103  0.000000  1
  Dy  Dy4  1  0.811517  0.002620  0.000000  1
  Mg  Mg5  1  0.553581  0.554897  0.500000  1
  Mg  Mg6  1  0.446419  0.001315  0.500000  1
  Sc  Sc7  1  0.000000  0.441559  0.500000  1
  P  P8  1  0.000000  0.642002  0.500000  1
  P  P9  1  0.358860  0.355480  0.500000  1
  P  P10  1  0.641140  0.996621  0.500000  1
  P  P11  1  0.515855  0.690339  0.000000  1
  P  P12  1  0.312026  0.827934  0.000000  1
  P  P13  1  0.168737  0.482260  0.000000  1
  P  P14  1  0.484145  0.174484  0.000000  1
  P  P15  1  0.687974  0.515908  0.000000  1
  P  P16  1  0.831263  0.313523  0.000000  1
  P  P17  1  0.000000  0.175080  0.500000  1
  P  P18  1  0.821949  0.821720  0.500000  1
  P  P19  1  0.178051  0.999771  0.500000  1
  Ir  Ir20  1  0.511459  0.871621  0.000000  1
  Ir  Ir21  1  0.131104  0.642236  0.000000  1
  Ir  Ir22  1  0.360025  0.496332  0.000000  1
  Ir  Ir23  1  0.488541  0.360161  0.000000  1
  Ir  Ir24  1  0.868896  0.511131  0.000000  1
  Ir  Ir25  1  0.639975  0.136307  0.000000  1
  Ir  Ir26  1  0.000000  0.277972  0.000000  1
  Ir  Ir27  1  0.721795  0.721993  0.000000  1
  Ir  Ir28  1  0.278205  0.000198  0.000000  1
  Ir  Ir29  1  0.625197  0.802790  0.500000  1
  Ir  Ir30  1  0.195985  0.822929  0.500000  1
  Ir  Ir31  1  0.181903  0.370674  0.500000  1
  Ir  Ir32  1  0.374803  0.177592  0.500000  1
  Ir  Ir33  1  0.804015  0.626944  0.500000  1
  Ir  Ir34  1  0.818097  0.188771  0.500000  1
  Ir  Ir35  1  0.000000  0.996594  0.500000  1
