# generated using pymatgen
data_Lu4AlGa2Ru5
_symmetry_space_group_name_H-M   'P 1'
_cell_length_a   5.21087600
_cell_length_b   5.40711090
_cell_length_c   8.80728500
_cell_angle_alpha   90.00000000
_cell_angle_beta   90.00000000
_cell_angle_gamma   121.31591897
_symmetry_Int_Tables_number   1
_chemical_formula_structural   Lu4AlGa2Ru5
_chemical_formula_sum   'Lu4 Al1 Ga2 Ru5'
_cell_volume   211.99998022
_cell_formula_units_Z   1
loop_
 _symmetry_equiv_pos_site_id
 _symmetry_equiv_pos_as_xyz
  1  'x, y, z'
loop_
 _atom_site_type_symbol
 _atom_site_label
 _atom_site_symmetry_multiplicity
 _atom_site_fract_x
 _atom_site_fract_y
 _atom_site_fract_z
 _atom_site_occupancy
  Lu  Lu0  1  0.654701  0.327381  0.559084  1
  Lu  Lu1  1  0.343141  0.671088  0.434323  1
  Lu  Lu2  1  0.343141  0.671088  0.065677  1
  Lu  Lu3  1  0.654701  0.327381  0.940916  1
  Al  Al4  1  0.326019  0.162561  0.250000  1
  Ga  Ga5  1  0.174124  0.341464  0.750000  1
  Ga  Ga6  1  0.173654  0.832729  0.750000  1
  Ru  Ru7  1  0.999054  0.000398  0.500288  1
  Ru  Ru8  1  0.999054  0.000398  0.999712  1
  Ru  Ru9  1  0.667850  0.833943  0.750000  1
  Ru  Ru10  1  0.832200  0.649533  0.250000  1
  Ru  Ru11  1  0.832362  0.182040  0.250000  1
