# generated using pymatgen
data_CeCo4Ni2S7
_symmetry_space_group_name_H-M   'P 1'
_cell_length_a   6.83968686
_cell_length_b   6.83968654
_cell_length_c   6.83968705
_cell_angle_alpha   57.45519427
_cell_angle_beta   57.45519522
_cell_angle_gamma   57.45519622
_symmetry_Int_Tables_number   1
_chemical_formula_structural   CeCo4Ni2S7
_chemical_formula_sum   'Ce1 Co4 Ni2 S7'
_cell_volume   213.00720032
_cell_formula_units_Z   1
loop_
 _symmetry_equiv_pos_site_id
 _symmetry_equiv_pos_as_xyz
  1  'x, y, z'
loop_
 _atom_site_type_symbol
 _atom_site_label
 _atom_site_symmetry_multiplicity
 _atom_site_fract_x
 _atom_site_fract_y
 _atom_site_fract_z
 _atom_site_occupancy
  Ce  Ce0  1  0.385252  0.385252  0.385252  1
  Co  Co1  1  0.128254  0.128254  0.128254  1
  Co  Co2  1  0.669432  0.086490  0.086490  1
  Co  Co3  1  0.086490  0.086490  0.669432  1
  Co  Co4  1  0.086490  0.669432  0.086490  1
  Ni  Ni5  1  0.522415  0.522415  0.522415  1
  Ni  Ni6  1  0.739709  0.739709  0.739709  1
  S  S7  1  0.339003  0.888728  0.888728  1
  S  S8  1  0.888728  0.888728  0.339003  1
  S  S9  1  0.888728  0.339003  0.888728  1
  S  S10  1  0.365391  0.365391  0.922875  1
  S  S11  1  0.365391  0.922875  0.365391  1
  S  S12  1  0.861841  0.861841  0.861841  1
  S  S13  1  0.922875  0.365391  0.365391  1
