# generated using pymatgen
data_Dy5ErAl24(RuRh3)2
_symmetry_space_group_name_H-M   'P 1'
_cell_length_a   8.83602443
_cell_length_b   8.83602465
_cell_length_c   9.50148400
_cell_angle_alpha   90.00000000
_cell_angle_beta   90.00000000
_cell_angle_gamma   120.08504483
_symmetry_Int_Tables_number   1
_chemical_formula_structural   Dy5ErAl24(RuRh3)2
_chemical_formula_sum   'Dy5 Er1 Al24 Ru2 Rh6'
_cell_volume   641.89365863
_cell_formula_units_Z   1
loop_
 _symmetry_equiv_pos_site_id
 _symmetry_equiv_pos_as_xyz
  1  'x, y, z'
loop_
 _atom_site_type_symbol
 _atom_site_label
 _atom_site_symmetry_multiplicity
 _atom_site_fract_x
 _atom_site_fract_y
 _atom_site_fract_z
 _atom_site_occupancy
  Dy  Dy0  1  0.192131  0.383907  0.250000  1
  Dy  Dy1  1  0.616093  0.807869  0.250000  1
  Dy  Dy2  1  0.808470  0.191530  0.750000  1
  Dy  Dy3  1  0.808433  0.616844  0.750000  1
  Dy  Dy4  1  0.383156  0.191567  0.750000  1
  Er  Er5  1  0.192216  0.807784  0.250000  1
  Al  Al6  1  0.561920  0.438080  0.250000  1
  Al  Al7  1  0.561281  0.123245  0.250000  1
  Al  Al8  1  0.876755  0.438719  0.250000  1
  Al  Al9  1  0.438127  0.561873  0.750000  1
  Al  Al10  1  0.438293  0.876226  0.750000  1
  Al  Al11  1  0.123774  0.561707  0.750000  1
  Al  Al12  1  0.325942  0.162673  0.424010  1
  Al  Al13  1  0.837055  0.162945  0.423986  1
  Al  Al14  1  0.837327  0.674058  0.424010  1
  Al  Al15  1  0.673875  0.836961  0.575958  1
  Al  Al16  1  0.162943  0.837057  0.575610  1
  Al  Al17  1  0.163039  0.326125  0.575958  1
  Al  Al18  1  0.673875  0.836961  0.924042  1
  Al  Al19  1  0.162943  0.837057  0.924390  1
  Al  Al20  1  0.163039  0.326125  0.924042  1
  Al  Al21  1  0.325942  0.162673  0.075990  1
  Al  Al22  1  0.837055  0.162945  0.076014  1
  Al  Al23  1  0.837327  0.674058  0.075990  1
  Al  Al24  1  0.666496  0.333504  0.529079  1
  Al  Al25  1  0.333184  0.666816  0.470592  1
  Al  Al26  1  0.333184  0.666816  0.029408  1
  Al  Al27  1  0.666496  0.333504  0.970921  1
  Al  Al28  1  0.000187  0.999813  0.250000  1
  Al  Al29  1  0.000036  0.999964  0.750000  1
  Ru  Ru30  1  0.000026  0.999974  0.499676  1
  Ru  Ru31  1  0.000026  0.999974  0.000324  1
  Rh  Rh32  1  0.499871  0.500129  0.499830  1
  Rh  Rh33  1  0.499785  0.999979  0.499867  1
  Rh  Rh34  1  0.000021  0.500215  0.499867  1
  Rh  Rh35  1  0.499871  0.500129  0.000170  1
  Rh  Rh36  1  0.499785  0.999979  0.000133  1
  Rh  Rh37  1  0.000021  0.500215  0.000133  1
