# generated using pymatgen
data_Ce3MgPtAu4
_symmetry_space_group_name_H-M   'P 1'
_cell_length_a   7.92957545
_cell_length_b   7.92957633
_cell_length_c   7.92957500
_cell_angle_alpha   66.43938167
_cell_angle_beta   66.43938678
_cell_angle_gamma   66.43937002
_symmetry_Int_Tables_number   1
_chemical_formula_structural   Ce3MgPtAu4
_chemical_formula_sum   'Ce6 Mg2 Pt2 Au8'
_cell_volume   401.48822665
_cell_formula_units_Z   2
loop_
 _symmetry_equiv_pos_site_id
 _symmetry_equiv_pos_as_xyz
  1  'x, y, z'
loop_
 _atom_site_type_symbol
 _atom_site_label
 _atom_site_symmetry_multiplicity
 _atom_site_fract_x
 _atom_site_fract_y
 _atom_site_fract_z
 _atom_site_occupancy
  Ce  Ce0  1  0.893227  0.169141  0.644182  1
  Ce  Ce1  1  0.644182  0.893227  0.169141  1
  Ce  Ce2  1  0.169141  0.644182  0.893227  1
  Ce  Ce3  1  0.101444  0.815025  0.372691  1
  Ce  Ce4  1  0.372691  0.101444  0.815025  1
  Ce  Ce5  1  0.815025  0.372691  0.101444  1
  Mg  Mg6  1  0.654619  0.654619  0.654619  1
  Mg  Mg7  1  0.347170  0.347170  0.347170  1
  Pt  Pt8  1  0.004418  0.004418  0.004418  1
  Pt  Pt9  1  0.801651  0.801651  0.801651  1
  Au  Au10  1  0.500824  0.500824  0.500824  1
  Au  Au11  1  0.199615  0.199615  0.199615  1
  Au  Au12  1  0.938028  0.537709  0.330506  1
  Au  Au13  1  0.330506  0.938028  0.537709  1
  Au  Au14  1  0.537709  0.330506  0.938028  1
  Au  Au15  1  0.060483  0.450326  0.678941  1
  Au  Au16  1  0.678941  0.060483  0.450326  1
  Au  Au17  1  0.450326  0.678941  0.060483  1
