# generated using pymatgen
data_Hf2Zn3InRh6
_symmetry_space_group_name_H-M   'P 1'
_cell_length_a   4.46717700
_cell_length_b   6.24102300
_cell_length_c   13.38077900
_cell_angle_alpha   90.00000000
_cell_angle_beta   90.00000000
_cell_angle_gamma   90.00000000
_symmetry_Int_Tables_number   1
_chemical_formula_structural   Hf2Zn3InRh6
_chemical_formula_sum   'Hf4 Zn6 In2 Rh12'
_cell_volume   373.05283223
_cell_formula_units_Z   2
loop_
 _symmetry_equiv_pos_site_id
 _symmetry_equiv_pos_as_xyz
  1  'x, y, z'
loop_
 _atom_site_type_symbol
 _atom_site_label
 _atom_site_symmetry_multiplicity
 _atom_site_fract_x
 _atom_site_fract_y
 _atom_site_fract_z
 _atom_site_occupancy
  Hf  Hf0  1  0.000003  0.000000  0.999305  1
  Hf  Hf1  1  0.499882  0.500000  0.166489  1
  Hf  Hf2  1  0.999883  0.000000  0.333512  1
  Hf  Hf3  1  0.500004  0.500000  0.500695  1
  Zn  Zn4  1  0.999999  0.500000  0.999925  1
  Zn  Zn5  1  0.499881  0.000000  0.165226  1
  Zn  Zn6  1  0.999880  0.500000  0.334774  1
  Zn  Zn7  1  0.500000  0.000000  0.500075  1
  Zn  Zn8  1  0.000132  0.500000  0.666006  1
  Zn  Zn9  1  0.500131  0.000000  0.833994  1
  In  In10  1  0.000123  0.000000  0.668107  1
  In  In11  1  0.500124  0.500000  0.831891  1
  Rh  Rh12  1  0.499988  0.250698  0.000796  1
  Rh  Rh13  1  0.499988  0.749303  0.000796  1
  Rh  Rh14  1  0.999876  0.250519  0.167082  1
  Rh  Rh15  1  0.999876  0.749480  0.167082  1
  Rh  Rh16  1  0.499875  0.249481  0.332919  1
  Rh  Rh17  1  0.499875  0.750518  0.332919  1
  Rh  Rh18  1  0.999987  0.249303  0.499204  1
  Rh  Rh19  1  0.999987  0.750697  0.499204  1
  Rh  Rh20  1  0.500128  0.251368  0.664220  1
  Rh  Rh21  1  0.500128  0.748631  0.664220  1
  Rh  Rh22  1  0.000127  0.248632  0.835779  1
  Rh  Rh23  1  0.000127  0.751367  0.835779  1
