# generated using pymatgen
data_DyHo2HgRu2
_symmetry_space_group_name_H-M   'P 1'
_cell_length_a   3.41573800
_cell_length_b   3.41573800
_cell_length_c   11.14159300
_cell_angle_alpha   90.00000000
_cell_angle_beta   90.00000000
_cell_angle_gamma   90.00000000
_symmetry_Int_Tables_number   1
_chemical_formula_structural   DyHo2HgRu2
_chemical_formula_sum   'Dy1 Ho2 Hg1 Ru2'
_cell_volume   129.99193014
_cell_formula_units_Z   1
loop_
 _symmetry_equiv_pos_site_id
 _symmetry_equiv_pos_as_xyz
  1  'x, y, z'
loop_
 _atom_site_type_symbol
 _atom_site_label
 _atom_site_symmetry_multiplicity
 _atom_site_fract_x
 _atom_site_fract_y
 _atom_site_fract_z
 _atom_site_occupancy
  Dy  Dy0  1  0.000000  0.000000  0.300173  1
  Ho  Ho1  1  0.000000  0.000000  0.999867  1
  Ho  Ho2  1  0.000000  0.000000  0.700080  1
  Hg  Hg3  1  0.500000  0.500000  0.500935  1
  Ru  Ru4  1  0.500000  0.500000  0.156968  1
  Ru  Ru5  1  0.500000  0.500000  0.841977  1
