# generated using pymatgen
data_Gd2Th(GaNi)3
_symmetry_space_group_name_H-M   'P 1'
_cell_length_a   7.12339900
_cell_length_b   7.05179913
_cell_length_c   3.80405500
_cell_angle_alpha   90.00000000
_cell_angle_beta   90.00000000
_cell_angle_gamma   120.33643991
_symmetry_Int_Tables_number   1
_chemical_formula_structural   Gd2Th(GaNi)3
_chemical_formula_sum   'Gd2 Th1 Ga3 Ni3'
_cell_volume   164.92339873
_cell_formula_units_Z   1
loop_
 _symmetry_equiv_pos_site_id
 _symmetry_equiv_pos_as_xyz
  1  'x, y, z'
loop_
 _atom_site_type_symbol
 _atom_site_label
 _atom_site_symmetry_multiplicity
 _atom_site_fract_x
 _atom_site_fract_y
 _atom_site_fract_z
 _atom_site_occupancy
  Gd  Gd0  1  0.998324  0.411694  0.500000  1
  Gd  Gd1  1  0.586629  0.588306  0.500000  1
  Th  Th2  1  0.417424  0.000000  0.500000  1
  Ga  Ga3  1  0.988746  0.745738  0.000000  1
  Ga  Ga4  1  0.243008  0.254262  0.000000  1
  Ga  Ga5  1  0.768842  0.000000  0.000000  1
  Ni  Ni6  1  0.332883  0.675910  0.000000  1
  Ni  Ni7  1  0.656974  0.324090  0.000000  1
  Ni  Ni8  1  0.007170  0.000000  0.500000  1
