# generated using pymatgen
data_Tb7Dy6Lu3(InRh)4
_symmetry_space_group_name_H-M   'P 1'
_cell_length_a   9.65915654
_cell_length_b   9.65038618
_cell_length_c   9.64365618
_cell_angle_alpha   60.08323632
_cell_angle_beta   60.00073593
_cell_angle_gamma   59.92382707
_symmetry_Int_Tables_number   1
_chemical_formula_structural   Tb7Dy6Lu3(InRh)4
_chemical_formula_sum   'Tb7 Dy6 Lu3 In4 Rh4'
_cell_volume   635.67412436
_cell_formula_units_Z   1
loop_
 _symmetry_equiv_pos_site_id
 _symmetry_equiv_pos_as_xyz
  1  'x, y, z'
loop_
 _atom_site_type_symbol
 _atom_site_label
 _atom_site_symmetry_multiplicity
 _atom_site_fract_x
 _atom_site_fract_y
 _atom_site_fract_z
 _atom_site_occupancy
  Tb  Tb0  1  0.050135  0.649664  0.649857  1
  Tb  Tb1  1  0.439076  0.062575  0.060859  1
  Tb  Tb2  1  0.438068  0.061932  0.438068  1
  Tb  Tb3  1  0.062078  0.437922  0.062078  1
  Tb  Tb4  1  0.649857  0.650345  0.050135  1
  Tb  Tb5  1  0.187861  0.812139  0.187861  1
  Tb  Tb6  1  0.060859  0.437491  0.439076  1
  Dy  Dy7  1  0.649545  0.049653  0.650461  1
  Dy  Dy8  1  0.061067  0.062602  0.438881  1
  Dy  Dy9  1  0.438881  0.437451  0.061067  1
  Dy  Dy10  1  0.650461  0.650341  0.649545  1
  Dy  Dy11  1  0.812238  0.187504  0.187351  1
  Dy  Dy12  1  0.187351  0.812907  0.812238  1
  Lu  Lu13  1  0.811348  0.812096  0.188265  1
  Lu  Lu14  1  0.812199  0.187801  0.812199  1
  Lu  Lu15  1  0.188265  0.188292  0.811348  1
  In  In16  1  0.417459  0.416628  0.417536  1
  In  In17  1  0.417861  0.416895  0.748179  1
  In  In18  1  0.417536  0.748376  0.417459  1
  In  In19  1  0.748179  0.417064  0.417861  1
  Rh  Rh20  1  0.859718  0.423996  0.856710  1
  Rh  Rh21  1  0.856710  0.859577  0.859718  1
  Rh  Rh22  1  0.856980  0.856905  0.426270  1
  Rh  Rh23  1  0.426270  0.859847  0.856980  1
