# generated using pymatgen
data_Sr3TiMn2O9
_symmetry_space_group_name_H-M   'P 1'
_cell_length_a   5.54331900
_cell_length_b   5.54331832
_cell_length_c   13.76078100
_cell_angle_alpha   90.00000000
_cell_angle_beta   90.00000000
_cell_angle_gamma   120.00001003
_symmetry_Int_Tables_number   1
_chemical_formula_structural   Sr3TiMn2O9
_chemical_formula_sum   'Sr6 Ti2 Mn4 O18'
_cell_volume   366.19580149
_cell_formula_units_Z   2
loop_
 _symmetry_equiv_pos_site_id
 _symmetry_equiv_pos_as_xyz
  1  'x, y, z'
loop_
 _atom_site_type_symbol
 _atom_site_label
 _atom_site_symmetry_multiplicity
 _atom_site_fract_x
 _atom_site_fract_y
 _atom_site_fract_z
 _atom_site_occupancy
  Sr  Sr0  1  0.000000  0.000000  0.250000  1
  Sr  Sr1  1  0.000000  0.000000  0.750000  1
  Sr  Sr2  1  0.333333  0.666667  0.409775  1
  Sr  Sr3  1  0.666667  0.333333  0.590225  1
  Sr  Sr4  1  0.666667  0.333333  0.909775  1
  Sr  Sr5  1  0.333333  0.666667  0.090225  1
  Ti  Ti6  1  0.000000  0.000000  0.500000  1
  Ti  Ti7  1  0.000000  0.000000  0.000000  1
  Mn  Mn8  1  0.333333  0.666667  0.657412  1
  Mn  Mn9  1  0.666667  0.333333  0.342588  1
  Mn  Mn10  1  0.666667  0.333333  0.157412  1
  Mn  Mn11  1  0.333333  0.666667  0.842588  1
  O  O12  1  0.513842  0.486158  0.250000  1
  O  O13  1  0.513842  0.027684  0.250000  1
  O  O14  1  0.972316  0.486158  0.250000  1
  O  O15  1  0.486158  0.513842  0.750000  1
  O  O16  1  0.486158  0.972316  0.750000  1
  O  O17  1  0.027684  0.513842  0.750000  1
  O  O18  1  0.832905  0.167095  0.417962  1
  O  O19  1  0.832905  0.665811  0.417962  1
  O  O20  1  0.334189  0.167095  0.417962  1
  O  O21  1  0.167095  0.832905  0.582038  1
  O  O22  1  0.167095  0.334189  0.582038  1
  O  O23  1  0.665811  0.832905  0.582038  1
  O  O24  1  0.167095  0.832905  0.917962  1
  O  O25  1  0.167095  0.334189  0.917962  1
  O  O26  1  0.665811  0.832905  0.917962  1
  O  O27  1  0.832905  0.167095  0.082038  1
  O  O28  1  0.832905  0.665811  0.082038  1
  O  O29  1  0.334189  0.167095  0.082038  1
