# generated using pymatgen
data_TbHoTm18(CoSb2)4
_symmetry_space_group_name_H-M   'P 1'
_cell_length_a   7.77281133
_cell_length_b   8.70970900
_cell_length_c   12.04287351
_cell_angle_alpha   90.00000000
_cell_angle_beta   89.96669644
_cell_angle_gamma   90.00000000
_symmetry_Int_Tables_number   1
_chemical_formula_structural   TbHoTm18(CoSb2)4
_chemical_formula_sum   'Tb1 Ho1 Tm18 Co4 Sb8'
_cell_volume   815.28945008
_cell_formula_units_Z   1
loop_
 _symmetry_equiv_pos_site_id
 _symmetry_equiv_pos_as_xyz
  1  'x, y, z'
loop_
 _atom_site_type_symbol
 _atom_site_label
 _atom_site_symmetry_multiplicity
 _atom_site_fract_x
 _atom_site_fract_y
 _atom_site_fract_z
 _atom_site_occupancy
  Tb  Tb0  1  0.377041  0.250000  0.692594  1
  Ho  Ho1  1  0.877413  0.750000  0.807819  1
  Tm  Tm2  1  0.156835  0.750000  0.203658  1
  Tm  Tm3  1  0.656804  0.250000  0.296330  1
  Tm  Tm4  1  0.843563  0.250000  0.796415  1
  Tm  Tm5  1  0.343369  0.750000  0.703670  1
  Tm  Tm6  1  0.450038  0.750000  0.998125  1
  Tm  Tm7  1  0.949963  0.250000  0.501879  1
  Tm  Tm8  1  0.549531  0.250000  0.002192  1
  Tm  Tm9  1  0.049291  0.750000  0.497852  1
  Tm  Tm10  1  0.621707  0.750000  0.308625  1
  Tm  Tm11  1  0.121706  0.250000  0.191329  1
  Tm  Tm12  1  0.823960  0.963622  0.065677  1
  Tm  Tm13  1  0.323866  0.036098  0.434062  1
  Tm  Tm14  1  0.176349  0.462448  0.934945  1
  Tm  Tm15  1  0.676748  0.538037  0.565056  1
  Tm  Tm16  1  0.176349  0.037552  0.934945  1
  Tm  Tm17  1  0.676748  0.961963  0.565056  1
  Tm  Tm18  1  0.823960  0.536378  0.065677  1
  Tm  Tm19  1  0.323866  0.463902  0.434062  1
  Co  Co20  1  0.432058  0.750000  0.490592  1
  Co  Co21  1  0.932032  0.250000  0.009384  1
  Co  Co22  1  0.568512  0.250000  0.508542  1
  Co  Co23  1  0.068218  0.750000  0.991078  1
  Sb  Sb24  1  0.931018  0.991638  0.327519  1
  Sb  Sb25  1  0.431032  0.008378  0.172544  1
  Sb  Sb26  1  0.068519  0.491849  0.672231  1
  Sb  Sb27  1  0.569470  0.508910  0.827925  1
  Sb  Sb28  1  0.068519  0.008151  0.672231  1
  Sb  Sb29  1  0.569470  0.991090  0.827925  1
  Sb  Sb30  1  0.931018  0.508362  0.327519  1
  Sb  Sb31  1  0.431032  0.491622  0.172544  1
