# generated using pymatgen
data_Ta8BeCoTe8
_symmetry_space_group_name_H-M   'P 1'
_cell_length_a   4.85117600
_cell_length_b   10.86059500
_cell_length_c   18.88195700
_cell_angle_alpha   90.00000000
_cell_angle_beta   90.00000000
_cell_angle_gamma   90.00000000
_symmetry_Int_Tables_number   1
_chemical_formula_structural   Ta8BeCoTe8
_chemical_formula_sum   'Ta16 Be2 Co2 Te16'
_cell_volume   994.82720724
_cell_formula_units_Z   2
loop_
 _symmetry_equiv_pos_site_id
 _symmetry_equiv_pos_as_xyz
  1  'x, y, z'
loop_
 _atom_site_type_symbol
 _atom_site_label
 _atom_site_symmetry_multiplicity
 _atom_site_fract_x
 _atom_site_fract_y
 _atom_site_fract_z
 _atom_site_occupancy
  Ta  Ta0  1  0.494734  0.562708  0.385839  1
  Ta  Ta1  1  0.494734  0.437292  0.614161  1
  Ta  Ta2  1  0.505266  0.062708  0.114161  1
  Ta  Ta3  1  0.505266  0.937292  0.885839  1
  Ta  Ta4  1  0.491463  0.699698  0.535707  1
  Ta  Ta5  1  0.491463  0.300302  0.464293  1
  Ta  Ta6  1  0.508537  0.199698  0.964293  1
  Ta  Ta7  1  0.508537  0.800302  0.035707  1
  Ta  Ta8  1  0.008255  0.685467  0.444250  1
  Ta  Ta9  1  0.008255  0.314533  0.555750  1
  Ta  Ta10  1  0.991745  0.185467  0.055750  1
  Ta  Ta11  1  0.991745  0.814533  0.944250  1
  Ta  Ta12  1  0.005408  0.403383  0.393980  1
  Ta  Ta13  1  0.005408  0.596617  0.606020  1
  Ta  Ta14  1  0.994592  0.903383  0.106020  1
  Ta  Ta15  1  0.994592  0.096617  0.893980  1
  Be  Be16  1  0.249841  0.500000  0.500000  1
  Be  Be17  1  0.750159  0.000000  0.000000  1
  Co  Co18  1  0.749600  0.500000  0.500000  1
  Co  Co19  1  0.250400  0.000000  0.000000  1
  Te  Te20  1  0.992252  0.847710  0.562936  1
  Te  Te21  1  0.992252  0.152290  0.437064  1
  Te  Te22  1  0.007748  0.347710  0.937064  1
  Te  Te23  1  0.007748  0.652290  0.062936  1
  Te  Te24  1  0.505429  0.332171  0.314810  1
  Te  Te25  1  0.505429  0.667829  0.685190  1
  Te  Te26  1  0.494571  0.832171  0.185190  1
  Te  Te27  1  0.494571  0.167829  0.814810  1
  Te  Te28  1  0.507885  0.823395  0.402626  1
  Te  Te29  1  0.507885  0.176605  0.597374  1
  Te  Te30  1  0.492115  0.323395  0.097374  1
  Te  Te31  1  0.492115  0.676605  0.902626  1
  Te  Te32  1  0.994743  0.608270  0.300218  1
  Te  Te33  1  0.994743  0.391730  0.699782  1
  Te  Te34  1  0.005257  0.108270  0.199782  1
  Te  Te35  1  0.005257  0.891730  0.800218  1
