# generated using pymatgen
data_Sc4Zn(SiIr)6
_symmetry_space_group_name_H-M   'P 1'
_cell_length_a   6.98224214
_cell_length_b   6.98224164
_cell_length_c   6.98224145
_cell_angle_alpha   109.65150463
_cell_angle_beta   109.65150601
_cell_angle_gamma   109.11124972
_symmetry_Int_Tables_number   1
_chemical_formula_structural   Sc4Zn(SiIr)6
_chemical_formula_sum   'Sc4 Zn1 Si6 Ir6'
_cell_volume   262.02932982
_cell_formula_units_Z   1
loop_
 _symmetry_equiv_pos_site_id
 _symmetry_equiv_pos_as_xyz
  1  'x, y, z'
loop_
 _atom_site_type_symbol
 _atom_site_label
 _atom_site_symmetry_multiplicity
 _atom_site_fract_x
 _atom_site_fract_y
 _atom_site_fract_z
 _atom_site_occupancy
  Sc  Sc0  1  0.003535  0.996465  0.500000  1
  Sc  Sc1  1  0.003535  0.503535  0.007070  1
  Sc  Sc2  1  0.496465  0.996465  0.992930  1
  Sc  Sc3  1  0.496465  0.503535  0.500000  1
  Zn  Zn4  1  0.750000  0.250000  0.500000  1
  Si  Si5  1  0.679888  0.679888  0.000000  1
  Si  Si6  1  0.304178  0.991783  0.312395  1
  Si  Si7  1  0.008217  0.320612  0.312395  1
  Si  Si8  1  0.320112  0.320112  0.000000  1
  Si  Si9  1  0.679388  0.991783  0.687605  1
  Si  Si10  1  0.008217  0.695822  0.687605  1
  Ir  Ir11  1  0.747193  0.491573  0.255620  1
  Ir  Ir12  1  0.508427  0.252807  0.744380  1
  Ir  Ir13  1  0.235952  0.491573  0.744380  1
  Ir  Ir14  1  0.250000  0.750000  0.500000  1
  Ir  Ir15  1  0.508427  0.764048  0.255620  1
  Ir  Ir16  1  0.000000  0.000000  0.000000  1
