# generated using pymatgen
data_Er20Ir7Os4Rh
_symmetry_space_group_name_H-M   'P 1'
_cell_length_a   10.74870707
_cell_length_b   10.74860906
_cell_length_c   6.35333101
_cell_angle_alpha   90.00406028
_cell_angle_beta   90.00481745
_cell_angle_gamma   89.98813421
_symmetry_Int_Tables_number   1
_chemical_formula_structural   Er20Ir7Os4Rh
_chemical_formula_sum   'Er20 Ir7 Os4 Rh1'
_cell_volume   734.02350237
_cell_formula_units_Z   1
loop_
 _symmetry_equiv_pos_site_id
 _symmetry_equiv_pos_as_xyz
  1  'x, y, z'
loop_
 _atom_site_type_symbol
 _atom_site_label
 _atom_site_symmetry_multiplicity
 _atom_site_fract_x
 _atom_site_fract_y
 _atom_site_fract_z
 _atom_site_occupancy
  Er  Er0  1  0.293449  0.085978  0.376446  1
  Er  Er1  1  0.293507  0.913782  0.875994  1
  Er  Er2  1  0.705892  0.085734  0.875289  1
  Er  Er3  1  0.705927  0.912605  0.376550  1
  Er  Er4  1  0.586082  0.793471  0.876293  1
  Er  Er5  1  0.585158  0.206592  0.376545  1
  Er  Er6  1  0.413687  0.793520  0.376393  1
  Er  Er7  1  0.413686  0.206452  0.875950  1
  Er  Er8  1  0.206534  0.413919  0.623687  1
  Er  Er9  1  0.206486  0.586311  0.123631  1
  Er  Er10  1  0.793412  0.414846  0.123466  1
  Er  Er11  1  0.793550  0.586320  0.624030  1
  Er  Er12  1  0.914030  0.706555  0.123564  1
  Er  Er13  1  0.914264  0.294097  0.624705  1
  Er  Er14  1  0.086210  0.706491  0.623996  1
  Er  Er15  1  0.087392  0.294070  0.123470  1
  Er  Er16  1  0.000239  0.999784  0.500179  1
  Er  Er17  1  0.000223  0.999755  0.999820  1
  Er  Er18  1  0.499995  0.500050  0.999945  1
  Er  Er19  1  0.499952  0.500000  0.500056  1
  Ir  Ir20  1  0.847727  0.848184  0.749904  1
  Ir  Ir21  1  0.151812  0.152281  0.750108  1
  Ir  Ir22  1  0.152268  0.847727  0.250003  1
  Ir  Ir23  1  0.652556  0.347446  0.750000  1
  Ir  Ir24  1  0.652405  0.652300  0.250108  1
  Ir  Ir25  1  0.347701  0.347597  0.249881  1
  Ir  Ir26  1  0.347727  0.652272  0.749994  1
  Os  Os27  1  0.500469  0.000261  0.123183  1
  Os  Os28  1  0.500333  0.000217  0.622790  1
  Os  Os29  1  0.999784  0.499659  0.877212  1
  Os  Os30  1  0.999735  0.499522  0.376807  1
  Rh  Rh31  1  0.847806  0.152202  0.249999  1
