# generated using pymatgen
data_Sc2TaRu3
_symmetry_space_group_name_H-M   'P 1'
_cell_length_a   13.59192300
_cell_length_b   3.18776600
_cell_length_c   4.54976600
_cell_angle_alpha   90.00000000
_cell_angle_beta   90.00000000
_cell_angle_gamma   90.00000000
_symmetry_Int_Tables_number   1
_chemical_formula_structural   Sc2TaRu3
_chemical_formula_sum   'Sc4 Ta2 Ru6'
_cell_volume   197.13166984
_cell_formula_units_Z   2
loop_
 _symmetry_equiv_pos_site_id
 _symmetry_equiv_pos_as_xyz
  1  'x, y, z'
loop_
 _atom_site_type_symbol
 _atom_site_label
 _atom_site_symmetry_multiplicity
 _atom_site_fract_x
 _atom_site_fract_y
 _atom_site_fract_z
 _atom_site_occupancy
  Sc  Sc0  1  0.082514  0.000000  0.252307  1
  Sc  Sc1  1  0.417487  0.000000  0.252307  1
  Sc  Sc2  1  0.582513  0.000000  0.747694  1
  Sc  Sc3  1  0.917486  0.000000  0.747694  1
  Ta  Ta4  1  0.750000  0.000000  0.246109  1
  Ta  Ta5  1  0.250000  0.000000  0.753892  1
  Ru  Ru6  1  0.590748  0.500001  0.247772  1
  Ru  Ru7  1  0.909253  0.500001  0.247772  1
  Ru  Ru8  1  0.250000  0.500001  0.253807  1
  Ru  Ru9  1  0.750000  0.500001  0.746193  1
  Ru  Ru10  1  0.090747  0.500001  0.752228  1
  Ru  Ru11  1  0.409252  0.500001  0.752228  1
