# generated using pymatgen
data_Ca6Zn16N
_symmetry_space_group_name_H-M   'P 1'
_cell_length_a   8.20906434
_cell_length_b   8.20906442
_cell_length_c   8.20906500
_cell_angle_alpha   109.47122206
_cell_angle_beta   109.47122227
_cell_angle_gamma   109.47121878
_symmetry_Int_Tables_number   1
_chemical_formula_structural   Ca6Zn16N
_chemical_formula_sum   'Ca6 Zn16 N1'
_cell_volume   425.85242076
_cell_formula_units_Z   1
loop_
 _symmetry_equiv_pos_site_id
 _symmetry_equiv_pos_as_xyz
  1  'x, y, z'
loop_
 _atom_site_type_symbol
 _atom_site_label
 _atom_site_symmetry_multiplicity
 _atom_site_fract_x
 _atom_site_fract_y
 _atom_site_fract_z
 _atom_site_occupancy
  Ca  Ca0  1  0.000000  0.254978  0.254978  1
  Ca  Ca1  1  0.254978  0.000000  0.254978  1
  Ca  Ca2  1  0.745022  0.000000  0.745022  1
  Ca  Ca3  1  0.745022  0.745022  0.000000  1
  Ca  Ca4  1  0.254978  0.254978  0.000000  1
  Ca  Ca5  1  0.000000  0.745022  0.745022  1
  Zn  Zn6  1  0.500000  0.500000  0.500000  1
  Zn  Zn7  1  0.500000  0.000000  0.000000  1
  Zn  Zn8  1  0.000000  0.500000  0.000000  1
  Zn  Zn9  1  0.000000  0.000000  0.500000  1
  Zn  Zn10  1  0.680797  0.340399  0.340399  1
  Zn  Zn11  1  0.340399  0.000000  0.659601  1
  Zn  Zn12  1  0.340399  0.680797  0.340399  1
  Zn  Zn13  1  0.340399  0.340399  0.680797  1
  Zn  Zn14  1  0.340399  0.659601  0.000000  1
  Zn  Zn15  1  0.000000  0.340399  0.659601  1
  Zn  Zn16  1  0.000000  0.659601  0.340399  1
  Zn  Zn17  1  0.659601  0.659601  0.319203  1
  Zn  Zn18  1  0.659601  0.000000  0.340399  1
  Zn  Zn19  1  0.659601  0.340399  0.000000  1
  Zn  Zn20  1  0.659601  0.319203  0.659601  1
  Zn  Zn21  1  0.319203  0.659601  0.659601  1
  N  N22  1  0.000000  0.000000  0.000000  1
