# generated using pymatgen
data_BaTb3(AsPt)4
_symmetry_space_group_name_H-M   'P 1'
_cell_length_a   4.31928200
_cell_length_b   4.31928205
_cell_length_c   16.56244100
_cell_angle_alpha   90.00000000
_cell_angle_beta   90.00000000
_cell_angle_gamma   119.99999959
_symmetry_Int_Tables_number   1
_chemical_formula_structural   BaTb3(AsPt)4
_chemical_formula_sum   'Ba1 Tb3 As4 Pt4'
_cell_volume   267.59506631
_cell_formula_units_Z   1
loop_
 _symmetry_equiv_pos_site_id
 _symmetry_equiv_pos_as_xyz
  1  'x, y, z'
loop_
 _atom_site_type_symbol
 _atom_site_label
 _atom_site_symmetry_multiplicity
 _atom_site_fract_x
 _atom_site_fract_y
 _atom_site_fract_z
 _atom_site_occupancy
  Ba  Ba0  1  0.000000  0.000000  0.500000  1
  Tb  Tb1  1  0.000000  0.000000  0.000000  1
  Tb  Tb2  1  0.000000  0.000000  0.237327  1
  Tb  Tb3  1  0.000000  0.000000  0.762673  1
  As  As4  1  0.333333  0.666667  0.889849  1
  As  As5  1  0.666667  0.333333  0.110151  1
  As  As6  1  0.666667  0.333333  0.358903  1
  As  As7  1  0.333333  0.666667  0.641097  1
  Pt  Pt8  1  0.333333  0.666667  0.341951  1
  Pt  Pt9  1  0.666667  0.333333  0.658049  1
  Pt  Pt10  1  0.666667  0.333333  0.875165  1
  Pt  Pt11  1  0.333333  0.666667  0.124835  1
