# generated using pymatgen
data_TbCoOs2C
_symmetry_space_group_name_H-M   'P 1'
_cell_length_a   5.62562201
_cell_length_b   5.62562116
_cell_length_c   7.43845100
_cell_angle_alpha   90.00000000
_cell_angle_beta   90.00000000
_cell_angle_gamma   140.30968530
_symmetry_Int_Tables_number   1
_chemical_formula_structural   TbCoOs2C
_chemical_formula_sum   'Tb2 Co2 Os4 C2'
_cell_volume   150.34123828
_cell_formula_units_Z   2
loop_
 _symmetry_equiv_pos_site_id
 _symmetry_equiv_pos_as_xyz
  1  'x, y, z'
loop_
 _atom_site_type_symbol
 _atom_site_label
 _atom_site_symmetry_multiplicity
 _atom_site_fract_x
 _atom_site_fract_y
 _atom_site_fract_z
 _atom_site_occupancy
  Tb  Tb0  1  0.535525  0.464475  0.250000  1
  Tb  Tb1  1  0.464475  0.535525  0.750000  1
  Co  Co2  1  0.263202  0.736798  0.250000  1
  Co  Co3  1  0.736798  0.263202  0.750000  1
  Os  Os4  1  0.825617  0.174383  0.061531  1
  Os  Os5  1  0.174383  0.825617  0.938469  1
  Os  Os6  1  0.174383  0.825617  0.561531  1
  Os  Os7  1  0.825617  0.174383  0.438469  1
  C  C8  1  0.000000  0.000000  0.000000  1
  C  C9  1  0.000000  0.000000  0.500000  1
