# generated using pymatgen
data_Zr6Zn19Pt4S
_symmetry_space_group_name_H-M   'P 1'
_cell_length_a   8.73127529
_cell_length_b   8.70303651
_cell_length_c   8.70297530
_cell_angle_alpha   60.11606605
_cell_angle_beta   59.92410961
_cell_angle_gamma   59.92390750
_symmetry_Int_Tables_number   1
_chemical_formula_structural   Zr6Zn19Pt4S
_chemical_formula_sum   'Zr6 Zn19 Pt4 S1'
_cell_volume   467.49833750
_cell_formula_units_Z   1
loop_
 _symmetry_equiv_pos_site_id
 _symmetry_equiv_pos_as_xyz
  1  'x, y, z'
loop_
 _atom_site_type_symbol
 _atom_site_label
 _atom_site_symmetry_multiplicity
 _atom_site_fract_x
 _atom_site_fract_y
 _atom_site_fract_z
 _atom_site_occupancy
  Zr  Zr0  1  0.712067  0.295256  0.295256  1
  Zr  Zr1  1  0.278319  0.715630  0.715630  1
  Zr  Zr2  1  0.292566  0.707352  0.291244  1
  Zr  Zr3  1  0.716620  0.284870  0.701589  1
  Zr  Zr4  1  0.292566  0.291245  0.707352  1
  Zr  Zr5  1  0.716621  0.701590  0.284869  1
  Zn  Zn6  1  0.883637  0.880186  0.356751  1
  Zn  Zn7  1  0.883638  0.356748  0.880187  1
  Zn  Zn8  1  0.637148  0.118691  0.118691  1
  Zn  Zn9  1  0.354497  0.881703  0.881703  1
  Zn  Zn10  1  0.494903  0.000816  0.000817  1
  Zn  Zn11  1  0.997501  0.502373  0.502373  1
  Zn  Zn12  1  0.999747  0.499250  0.999874  1
  Zn  Zn13  1  0.506089  0.999264  0.495349  1
  Zn  Zn14  1  0.999747  0.999873  0.499250  1
  Zn  Zn15  1  0.506090  0.495348  0.999265  1
  Zn  Zn16  1  0.332597  0.333093  0.333093  1
  Zn  Zn17  1  0.664516  0.666357  0.666357  1
  Zn  Zn18  1  0.330723  0.334083  0.002753  1
  Zn  Zn19  1  0.330722  0.002755  0.334083  1
  Zn  Zn20  1  0.668922  0.669294  0.993106  1
  Zn  Zn21  1  0.668922  0.993107  0.669294  1
  Zn  Zn22  1  0.011692  0.329666  0.329666  1
  Zn  Zn23  1  0.994786  0.669946  0.669945  1
  Zn  Zn24  1  0.993692  0.001021  0.001023  1
  Pt  Pt25  1  0.117581  0.117821  0.117818  1
  Pt  Pt26  1  0.872109  0.883312  0.883313  1
  Pt  Pt27  1  0.123176  0.122565  0.641164  1
  Pt  Pt28  1  0.123177  0.641165  0.122562  1
  S  S29  1  0.495632  0.505620  0.505620  1
