# generated using pymatgen
data_Yb2PRh6
_symmetry_space_group_name_H-M   'P 1'
_cell_length_a   5.91165440
_cell_length_b   5.91165444
_cell_length_c   5.91165500
_cell_angle_alpha   60.00000247
_cell_angle_beta   60.00000222
_cell_angle_gamma   60.00000819
_symmetry_Int_Tables_number   1
_chemical_formula_structural   Yb2PRh6
_chemical_formula_sum   'Yb2 P1 Rh6'
_cell_volume   146.08721238
_cell_formula_units_Z   1
loop_
 _symmetry_equiv_pos_site_id
 _symmetry_equiv_pos_as_xyz
  1  'x, y, z'
loop_
 _atom_site_type_symbol
 _atom_site_label
 _atom_site_symmetry_multiplicity
 _atom_site_fract_x
 _atom_site_fract_y
 _atom_site_fract_z
 _atom_site_occupancy
  Yb  Yb0  1  0.250000  0.250000  0.250000  1
  Yb  Yb1  1  0.750000  0.750000  0.750000  1
  P  P2  1  0.499999  0.499999  0.499999  1
  Rh  Rh3  1  0.768809  0.231190  0.231190  1
  Rh  Rh4  1  0.231190  0.768809  0.231190  1
  Rh  Rh5  1  0.768809  0.768809  0.231190  1
  Rh  Rh6  1  0.231190  0.231190  0.768809  1
  Rh  Rh7  1  0.768809  0.231190  0.768809  1
  Rh  Rh8  1  0.231190  0.768809  0.768809  1
