# generated using pymatgen
data_Ho3Mg2ScIr3
_symmetry_space_group_name_H-M   'P 1'
_cell_length_a   7.25599300
_cell_length_b   7.30147529
_cell_length_c   4.09763600
_cell_angle_alpha   90.00000000
_cell_angle_beta   90.00000000
_cell_angle_gamma   119.79415754
_symmetry_Int_Tables_number   1
_chemical_formula_structural   Ho3Mg2ScIr3
_chemical_formula_sum   'Ho3 Mg2 Sc1 Ir3'
_cell_volume   188.39465085
_cell_formula_units_Z   1
loop_
 _symmetry_equiv_pos_site_id
 _symmetry_equiv_pos_as_xyz
  1  'x, y, z'
loop_
 _atom_site_type_symbol
 _atom_site_label
 _atom_site_symmetry_multiplicity
 _atom_site_fract_x
 _atom_site_fract_y
 _atom_site_fract_z
 _atom_site_occupancy
  Ho  Ho0  1  0.400050  0.000000  0.500001  1
  Ho  Ho1  1  0.006235  0.419145  0.500001  1
  Ho  Ho2  1  0.587091  0.580856  0.500001  1
  Mg  Mg3  1  0.247561  0.248196  0.000000  1
  Mg  Mg4  1  0.999366  0.751805  0.000000  1
  Sc  Sc5  1  0.753600  0.000000  0.000000  1
  Ir  Ir6  1  0.671165  0.325922  0.000000  1
  Ir  Ir7  1  0.345242  0.674078  0.000000  1
  Ir  Ir8  1  0.989692  0.000000  0.500001  1
