# generated using pymatgen
data_Ho5Lu3In4
_symmetry_space_group_name_H-M   'P 1'
_cell_length_a   5.13709500
_cell_length_b   6.73629003
_cell_length_c   9.62179082
_cell_angle_alpha   90.12147197
_cell_angle_beta   90.00000000
_cell_angle_gamma   90.00000000
_symmetry_Int_Tables_number   1
_chemical_formula_structural   Ho5Lu3In4
_chemical_formula_sum   'Ho5 Lu3 In4'
_cell_volume   332.96095582
_cell_formula_units_Z   1
loop_
 _symmetry_equiv_pos_site_id
 _symmetry_equiv_pos_as_xyz
  1  'x, y, z'
loop_
 _atom_site_type_symbol
 _atom_site_label
 _atom_site_symmetry_multiplicity
 _atom_site_fract_x
 _atom_site_fract_y
 _atom_site_fract_z
 _atom_site_occupancy
  Ho  Ho0  1  0.250000  0.816165  0.929384  1
  Ho  Ho1  1  0.750000  0.530678  0.785077  1
  Ho  Ho2  1  0.250000  0.467547  0.215068  1
  Ho  Ho3  1  0.750000  0.032275  0.714272  1
  Ho  Ho4  1  0.250000  0.968663  0.285822  1
  Lu  Lu5  1  0.750000  0.683497  0.429252  1
  Lu  Lu6  1  0.250000  0.316217  0.571087  1
  Lu  Lu7  1  0.750000  0.184093  0.070775  1
  In  In8  1  0.750000  0.215800  0.395216  1
  In  In9  1  0.250000  0.784223  0.602863  1
  In  In10  1  0.750000  0.714480  0.106559  1
  In  In11  1  0.250000  0.286362  0.894622  1
