# generated using pymatgen
data_Ho13Pa7Rh16
_symmetry_space_group_name_H-M   'P 1'
_cell_length_a   7.42850171
_cell_length_b   7.48582620
_cell_length_c   14.31149920
_cell_angle_alpha   90.04890821
_cell_angle_beta   89.71220408
_cell_angle_gamma   90.11294870
_symmetry_Int_Tables_number   1
_chemical_formula_structural   Ho13Pa7Rh16
_chemical_formula_sum   'Ho13 Pa7 Rh16'
_cell_volume   795.82874308
_cell_formula_units_Z   1
loop_
 _symmetry_equiv_pos_site_id
 _symmetry_equiv_pos_as_xyz
  1  'x, y, z'
loop_
 _atom_site_type_symbol
 _atom_site_label
 _atom_site_symmetry_multiplicity
 _atom_site_fract_x
 _atom_site_fract_y
 _atom_site_fract_z
 _atom_site_occupancy
  Ho  Ho0  1  0.161968  0.339069  0.619895  1
  Ho  Ho1  1  0.508446  0.680027  0.594233  1
  Ho  Ho2  1  0.009069  0.820148  0.906240  1
  Ho  Ho3  1  0.491849  0.320203  0.092669  1
  Ho  Ho4  1  0.990764  0.183674  0.407818  1
  Ho  Ho5  1  0.487143  0.319820  0.408964  1
  Ho  Ho6  1  0.991127  0.180517  0.092915  1
  Ho  Ho7  1  0.509243  0.681505  0.905735  1
  Ho  Ho8  1  0.012591  0.816851  0.590510  1
  Ho  Ho9  1  0.822891  0.520102  0.748206  1
  Ho  Ho10  1  0.311908  0.981071  0.749598  1
  Ho  Ho11  1  0.185839  0.477773  0.249161  1
  Ho  Ho12  1  0.684185  0.022828  0.249961  1
  Pa  Pa13  1  0.662453  0.154273  0.621702  1
  Pa  Pa14  1  0.159836  0.346260  0.879086  1
  Pa  Pa15  1  0.339688  0.843643  0.120095  1
  Pa  Pa16  1  0.838427  0.655367  0.377599  1
  Pa  Pa17  1  0.338010  0.843995  0.378577  1
  Pa  Pa18  1  0.841660  0.656619  0.120240  1
  Pa  Pa19  1  0.659515  0.157385  0.879646  1
  Rh  Rh20  1  0.693480  0.951202  0.462953  1
  Rh  Rh21  1  0.185316  0.546305  0.039489  1
  Rh  Rh22  1  0.316566  0.048461  0.962913  1
  Rh  Rh23  1  0.802070  0.450858  0.535612  1
  Rh  Rh24  1  0.324479  0.030418  0.536025  1
  Rh  Rh25  1  0.816291  0.457418  0.963838  1
  Rh  Rh26  1  0.682817  0.954973  0.037260  1
  Rh  Rh27  1  0.171141  0.553743  0.453336  1
  Rh  Rh28  1  0.467420  0.354504  0.753425  1
  Rh  Rh29  1  0.956784  0.143170  0.761242  1
  Rh  Rh30  1  0.539517  0.650404  0.249904  1
  Rh  Rh31  1  0.036307  0.856483  0.246391  1
  Rh  Rh32  1  0.687915  0.879636  0.747718  1
  Rh  Rh33  1  0.201189  0.620304  0.756762  1
  Rh  Rh34  1  0.307180  0.117617  0.249558  1
  Rh  Rh35  1  0.804921  0.383375  0.250725  1
