# generated using pymatgen
data_Dy3Y17Sn9Bi7
_symmetry_space_group_name_H-M   'P 1'
_cell_length_a   8.19557917
_cell_length_b   8.22237443
_cell_length_c   15.63167800
_cell_angle_alpha   90.06766603
_cell_angle_beta   89.60746270
_cell_angle_gamma   89.90831733
_symmetry_Int_Tables_number   1
_chemical_formula_structural   Dy3Y17Sn9Bi7
_chemical_formula_sum   'Dy3 Y17 Sn9 Bi7'
_cell_volume   1053.34695239
_cell_formula_units_Z   1
loop_
 _symmetry_equiv_pos_site_id
 _symmetry_equiv_pos_as_xyz
  1  'x, y, z'
loop_
 _atom_site_type_symbol
 _atom_site_label
 _atom_site_symmetry_multiplicity
 _atom_site_fract_x
 _atom_site_fract_y
 _atom_site_fract_z
 _atom_site_occupancy
  Dy  Dy0  1  0.394199  0.838158  0.877444  1
  Dy  Dy1  1  0.897406  0.663497  0.621741  1
  Dy  Dy2  1  0.602533  0.162189  0.377745  1
  Y  Y3  1  0.102051  0.338566  0.121402  1
  Y  Y4  1  0.607517  0.166864  0.121480  1
  Y  Y5  1  0.102917  0.336940  0.378069  1
  Y  Y6  1  0.396025  0.838794  0.622693  1
  Y  Y7  1  0.891593  0.660205  0.880020  1
  Y  Y8  1  0.565517  0.333987  0.889979  1
  Y  Y9  1  0.066140  0.168633  0.614091  1
  Y  Y10  1  0.434554  0.667798  0.386356  1
  Y  Y11  1  0.937114  0.823798  0.111483  1
  Y  Y12  1  0.445569  0.665470  0.110114  1
  Y  Y13  1  0.934138  0.830969  0.385843  1
  Y  Y14  1  0.566105  0.332238  0.613580  1
  Y  Y15  1  0.057119  0.173487  0.889630  1
  Y  Y16  1  0.228808  0.500499  0.750668  1
  Y  Y17  1  0.728797  0.001934  0.750751  1
  Y  Y18  1  0.771419  0.499484  0.246436  1
  Y  Y19  1  0.271077  0.998279  0.248943  1
  Sn  Sn20  1  0.768485  0.480513  0.044365  1
  Sn  Sn21  1  0.593879  0.629911  0.749640  1
  Sn  Sn22  1  0.092217  0.871606  0.751156  1
  Sn  Sn23  1  0.405622  0.370355  0.250423  1
  Sn  Sn24  1  0.906297  0.127343  0.250205  1
  Sn  Sn25  1  0.366896  0.143339  0.751739  1
  Sn  Sn26  1  0.867003  0.360025  0.749942  1
  Sn  Sn27  1  0.633041  0.858691  0.249549  1
  Sn  Sn28  1  0.135144  0.640404  0.249612  1
  Bi  Bi29  1  0.265236  0.015632  0.044253  1
  Bi  Bi30  1  0.763389  0.486628  0.454234  1
  Bi  Bi31  1  0.736680  0.987329  0.545019  1
  Bi  Bi32  1  0.233684  0.518595  0.955622  1
  Bi  Bi33  1  0.731761  0.982220  0.955762  1
  Bi  Bi34  1  0.237170  0.513306  0.545211  1
  Bi  Bi35  1  0.262894  0.012312  0.454797  1
