# generated using pymatgen
data_K2Ni2PtO6
_symmetry_space_group_name_H-M   'P 1'
_cell_length_a   5.26880609
_cell_length_b   5.26880641
_cell_length_c   6.48061500
_cell_angle_alpha   99.14443816
_cell_angle_beta   99.14443872
_cell_angle_gamma   119.61217081
_symmetry_Int_Tables_number   1
_chemical_formula_structural   K2Ni2PtO6
_chemical_formula_sum   'K2 Ni2 Pt1 O6'
_cell_volume   148.39242928
_cell_formula_units_Z   1
loop_
 _symmetry_equiv_pos_site_id
 _symmetry_equiv_pos_as_xyz
  1  'x, y, z'
loop_
 _atom_site_type_symbol
 _atom_site_label
 _atom_site_symmetry_multiplicity
 _atom_site_fract_x
 _atom_site_fract_y
 _atom_site_fract_z
 _atom_site_occupancy
  K  K0  1  0.830145  0.169853  0.499999  1
  K  K1  1  0.169853  0.830145  0.499999  1
  Ni  Ni2  1  0.665689  0.334311  0.000000  1
  Ni  Ni3  1  0.334311  0.665689  0.000000  1
  Pt  Pt4  1  0.000000  0.000000  0.000000  1
  O  O5  1  0.737202  0.737202  0.166777  1
  O  O6  1  0.390214  0.061958  0.169192  1
  O  O7  1  0.061958  0.390214  0.169192  1
  O  O8  1  0.938042  0.609787  0.830809  1
  O  O9  1  0.609787  0.938042  0.830809  1
  O  O10  1  0.262798  0.262798  0.833224  1
