# generated using pymatgen
data_DyLu(Be11Cu2)2
_symmetry_space_group_name_H-M   'P 1'
_cell_length_a   7.32000242
_cell_length_b   7.28358048
_cell_length_c   7.33515417
_cell_angle_alpha   60.09506353
_cell_angle_beta   59.60304152
_cell_angle_gamma   60.30191704
_symmetry_Int_Tables_number   1
_chemical_formula_structural   DyLu(Be11Cu2)2
_chemical_formula_sum   'Dy1 Lu1 Be22 Cu4'
_cell_volume   276.51357516
_cell_formula_units_Z   1
loop_
 _symmetry_equiv_pos_site_id
 _symmetry_equiv_pos_as_xyz
  1  'x, y, z'
loop_
 _atom_site_type_symbol
 _atom_site_label
 _atom_site_symmetry_multiplicity
 _atom_site_fract_x
 _atom_site_fract_y
 _atom_site_fract_z
 _atom_site_occupancy
  Dy  Dy0  1  0.250000  0.250000  0.250000  1
  Lu  Lu1  1  0.750000  0.750000  0.750000  1
  Be  Be2  1  0.704937  0.933669  0.065953  1
  Be  Be3  1  0.700536  0.060283  0.299841  1
  Be  Be4  1  0.065953  0.295441  0.704937  1
  Be  Be5  1  0.939340  0.299841  0.060283  1
  Be  Be6  1  0.933669  0.704937  0.295441  1
  Be  Be7  1  0.299841  0.939340  0.700536  1
  Be  Be8  1  0.295441  0.065953  0.933669  1
  Be  Be9  1  0.060283  0.700536  0.939340  1
  Be  Be10  1  0.787799  0.440788  0.559570  1
  Be  Be11  1  0.559570  0.211844  0.787799  1
  Be  Be12  1  0.211844  0.559570  0.440788  1
  Be  Be13  1  0.440788  0.787799  0.211844  1
  Be  Be14  1  0.779567  0.220124  0.431201  1
  Be  Be15  1  0.787028  0.566726  0.212739  1
  Be  Be16  1  0.431201  0.569107  0.779567  1
  Be  Be17  1  0.566726  0.787028  0.433507  1
  Be  Be18  1  0.569107  0.431201  0.220124  1
  Be  Be19  1  0.212739  0.433507  0.787028  1
  Be  Be20  1  0.220124  0.779567  0.569107  1
  Be  Be21  1  0.433507  0.212739  0.566726  1
  Be  Be22  1  0.000000  0.000000  0.000000  1
  Be  Be23  1  0.500000  0.500000  0.500000  1
  Cu  Cu24  1  0.694301  0.306716  0.941715  1
  Cu  Cu25  1  0.941715  0.057269  0.694301  1
  Cu  Cu26  1  0.306716  0.694301  0.057269  1
  Cu  Cu27  1  0.057269  0.941715  0.306716  1
