# generated using pymatgen
data_Zr6UFe22
_symmetry_space_group_name_H-M   'P 1'
_cell_length_a   8.29952500
_cell_length_b   8.29952421
_cell_length_c   8.29952500
_cell_angle_alpha   119.99999916
_cell_angle_beta   90.00000000
_cell_angle_gamma   119.99999916
_symmetry_Int_Tables_number   1
_chemical_formula_structural   Zr6UFe22
_chemical_formula_sum   'Zr6 U1 Fe22'
_cell_volume   404.24502552
_cell_formula_units_Z   1
loop_
 _symmetry_equiv_pos_site_id
 _symmetry_equiv_pos_as_xyz
  1  'x, y, z'
loop_
 _atom_site_type_symbol
 _atom_site_label
 _atom_site_symmetry_multiplicity
 _atom_site_fract_x
 _atom_site_fract_y
 _atom_site_fract_z
 _atom_site_occupancy
  Zr  Zr0  1  0.296122  0.000000  0.296122  1
  Zr  Zr1  1  0.296122  0.592244  0.296122  1
  Zr  Zr2  1  0.703879  0.000000  0.296123  1
  Zr  Zr3  1  0.703878  0.000000  0.703878  1
  Zr  Zr4  1  0.296123  0.000000  0.703879  1
  Zr  Zr5  1  0.703879  0.407756  0.703879  1
  U  U6  1  0.000000  0.000000  0.000000  1
  Fe  Fe7  1  0.500000  0.000000  0.000000  1
  Fe  Fe8  1  0.000000  0.500000  0.000000  1
  Fe  Fe9  1  0.500000  0.500000  0.000000  1
  Fe  Fe10  1  0.672123  0.344248  0.016372  1
  Fe  Fe11  1  0.364718  0.243145  0.121572  1
  Fe  Fe12  1  0.878426  0.243145  0.121572  1
  Fe  Fe13  1  0.878426  0.756853  0.121572  1
  Fe  Fe14  1  0.672123  0.344248  0.327877  1
  Fe  Fe15  1  0.672123  0.655752  0.327877  1
  Fe  Fe16  1  0.983628  0.655752  0.327877  1
  Fe  Fe17  1  0.121572  0.243145  0.364718  1
  Fe  Fe18  1  0.000000  0.000000  0.500000  1
  Fe  Fe19  1  0.000000  0.500000  0.500000  1
  Fe  Fe20  1  0.500000  0.500000  0.500000  1
  Fe  Fe21  1  0.878426  0.756853  0.635281  1
  Fe  Fe22  1  0.016372  0.344248  0.672123  1
  Fe  Fe23  1  0.327877  0.344248  0.672123  1
  Fe  Fe24  1  0.327877  0.655752  0.672123  1
  Fe  Fe25  1  0.121572  0.243145  0.878426  1
  Fe  Fe26  1  0.121572  0.756853  0.878426  1
  Fe  Fe27  1  0.635281  0.756853  0.878426  1
  Fe  Fe28  1  0.327877  0.655752  0.983628  1
