# generated using pymatgen
data_YEr5Al24Ru3Rh5
_symmetry_space_group_name_H-M   'P 1'
_cell_length_a   8.78717800
_cell_length_b   8.81667578
_cell_length_c   9.51934445
_cell_angle_alpha   90.12643362
_cell_angle_beta   90.00000000
_cell_angle_gamma   119.88937987
_symmetry_Int_Tables_number   1
_chemical_formula_structural   YEr5Al24Ru3Rh5
_chemical_formula_sum   'Y1 Er5 Al24 Ru3 Rh5'
_cell_volume   639.40139957
_cell_formula_units_Z   1
loop_
 _symmetry_equiv_pos_site_id
 _symmetry_equiv_pos_as_xyz
  1  'x, y, z'
loop_
 _atom_site_type_symbol
 _atom_site_label
 _atom_site_symmetry_multiplicity
 _atom_site_fract_x
 _atom_site_fract_y
 _atom_site_fract_z
 _atom_site_occupancy
  Y  Y0  1  0.192017  0.384033  0.250317  1
  Er  Er1  1  0.807342  0.614683  0.749732  1
  Er  Er2  1  0.613404  0.808816  0.250653  1
  Er  Er3  1  0.386959  0.191495  0.749343  1
  Er  Er4  1  0.195411  0.808816  0.250653  1
  Er  Er5  1  0.804536  0.191495  0.749343  1
  Al  Al6  1  0.333450  0.666901  0.027493  1
  Al  Al7  1  0.666814  0.333627  0.972034  1
  Al  Al8  1  0.665706  0.331411  0.526707  1
  Al  Al9  1  0.334579  0.669158  0.473756  1
  Al  Al10  1  0.162642  0.325283  0.578207  1
  Al  Al11  1  0.837368  0.674737  0.422377  1
  Al  Al12  1  0.673462  0.837813  0.577389  1
  Al  Al13  1  0.837330  0.674659  0.077734  1
  Al  Al14  1  0.326793  0.162001  0.422950  1
  Al  Al15  1  0.162666  0.325333  0.921685  1
  Al  Al16  1  0.164351  0.837813  0.577389  1
  Al  Al17  1  0.326521  0.163977  0.077150  1
  Al  Al18  1  0.835208  0.162001  0.422950  1
  Al  Al19  1  0.673749  0.835793  0.922483  1
  Al  Al20  1  0.837456  0.163977  0.077150  1
  Al  Al21  1  0.162044  0.835793  0.922483  1
  Al  Al22  1  0.562247  0.124496  0.250701  1
  Al  Al23  1  0.437707  0.875413  0.749306  1
  Al  Al24  1  0.876414  0.439158  0.249377  1
  Al  Al25  1  0.123071  0.561010  0.750609  1
  Al  Al26  1  0.562742  0.439158  0.249377  1
  Al  Al27  1  0.437939  0.561010  0.750609  1
  Al  Al28  1  0.000015  0.000030  0.249989  1
  Al  Al29  1  0.999383  0.998765  0.749993  1
  Ru  Ru30  1  0.500131  0.000263  0.500095  1
  Ru  Ru31  1  0.000044  0.000089  0.000056  1
  Ru  Ru32  1  0.000056  0.000113  0.499933  1
  Rh  Rh33  1  0.500100  0.000200  0.999944  1
  Rh  Rh34  1  0.999780  0.500169  0.999703  1
  Rh  Rh35  1  0.500389  0.500169  0.999703  1
  Rh  Rh36  1  0.999754  0.500173  0.500313  1
  Rh  Rh37  1  0.500419  0.500173  0.500313  1
