# generated using pymatgen
data_Dy16Al4Co3Tc
_symmetry_space_group_name_H-M   'P 1'
_cell_length_a   9.46592522
_cell_length_b   9.46592431
_cell_length_c   9.46592519
_cell_angle_alpha   59.77157700
_cell_angle_beta   59.77158101
_cell_angle_gamma   59.77157014
_symmetry_Int_Tables_number   1
_chemical_formula_structural   Dy16Al4Co3Tc
_chemical_formula_sum   'Dy16 Al4 Co3 Tc1'
_cell_volume   596.64486862
_cell_formula_units_Z   1
loop_
 _symmetry_equiv_pos_site_id
 _symmetry_equiv_pos_as_xyz
  1  'x, y, z'
loop_
 _atom_site_type_symbol
 _atom_site_label
 _atom_site_symmetry_multiplicity
 _atom_site_fract_x
 _atom_site_fract_y
 _atom_site_fract_z
 _atom_site_occupancy
  Dy  Dy0  1  0.802661  0.192349  0.192349  1
  Dy  Dy1  1  0.190059  0.807699  0.807699  1
  Dy  Dy2  1  0.192349  0.802661  0.192349  1
  Dy  Dy3  1  0.807699  0.190059  0.807699  1
  Dy  Dy4  1  0.192349  0.192349  0.802661  1
  Dy  Dy5  1  0.807699  0.807699  0.190059  1
  Dy  Dy6  1  0.935649  0.563679  0.563679  1
  Dy  Dy7  1  0.555465  0.941362  0.941362  1
  Dy  Dy8  1  0.563679  0.935649  0.563679  1
  Dy  Dy9  1  0.941362  0.555465  0.941362  1
  Dy  Dy10  1  0.563679  0.563679  0.935649  1
  Dy  Dy11  1  0.941362  0.941362  0.555465  1
  Dy  Dy12  1  0.347809  0.347809  0.347809  1
  Dy  Dy13  1  0.353749  0.353749  0.949144  1
  Dy  Dy14  1  0.353749  0.949144  0.353749  1
  Dy  Dy15  1  0.949144  0.353749  0.353749  1
  Al  Al16  1  0.576694  0.576694  0.576694  1
  Al  Al17  1  0.575857  0.575857  0.269326  1
  Al  Al18  1  0.575857  0.269326  0.575857  1
  Al  Al19  1  0.269326  0.575857  0.575857  1
  Co  Co20  1  0.141037  0.141037  0.580552  1
  Co  Co21  1  0.141037  0.580552  0.141037  1
  Co  Co22  1  0.580552  0.141037  0.141037  1
  Tc  Tc23  1  0.141177  0.141177  0.141177  1
