# generated using pymatgen
data_Er7CoBr12
_symmetry_space_group_name_H-M   'P 1'
_cell_length_a   9.14117267
_cell_length_b   9.14117438
_cell_length_c   9.14117484
_cell_angle_alpha   106.77189355
_cell_angle_beta   106.77189197
_cell_angle_gamma   106.77190321
_symmetry_Int_Tables_number   1
_chemical_formula_structural   Er7CoBr12
_chemical_formula_sum   'Er7 Co1 Br12'
_cell_volume   640.05548935
_cell_formula_units_Z   1
loop_
 _symmetry_equiv_pos_site_id
 _symmetry_equiv_pos_as_xyz
  1  'x, y, z'
loop_
 _atom_site_type_symbol
 _atom_site_label
 _atom_site_symmetry_multiplicity
 _atom_site_fract_x
 _atom_site_fract_y
 _atom_site_fract_z
 _atom_site_occupancy
  Er  Er0  1  0.298623  0.095396  0.020913  1
  Er  Er1  1  0.095396  0.020913  0.298623  1
  Er  Er2  1  0.020913  0.298623  0.095396  1
  Er  Er3  1  0.701377  0.904604  0.979087  1
  Er  Er4  1  0.904604  0.979087  0.701377  1
  Er  Er5  1  0.979087  0.701377  0.904604  1
  Er  Er6  1  0.500000  0.500000  0.500000  1
  Co  Co7  1  0.000000  0.000000  0.000000  1
  Br  Br8  1  0.220405  0.069724  0.675997  1
  Br  Br9  1  0.069724  0.675997  0.220405  1
  Br  Br10  1  0.675997  0.220405  0.069724  1
  Br  Br11  1  0.779595  0.930276  0.324003  1
  Br  Br12  1  0.930276  0.324003  0.779595  1
  Br  Br13  1  0.324003  0.779595  0.930276  1
  Br  Br14  1  0.386753  0.460777  0.167685  1
  Br  Br15  1  0.460777  0.167685  0.386753  1
  Br  Br16  1  0.167685  0.386753  0.460777  1
  Br  Br17  1  0.613247  0.539223  0.832315  1
  Br  Br18  1  0.539223  0.832315  0.613247  1
  Br  Br19  1  0.832315  0.613247  0.539223  1
