# generated using pymatgen
data_Pr6Al24Ru3Pt3Rh2
_symmetry_space_group_name_H-M   'P 1'
_cell_length_a   8.94372600
_cell_length_b   8.95908346
_cell_length_c   9.67199706
_cell_angle_alpha   90.02138601
_cell_angle_beta   90.00000000
_cell_angle_gamma   119.94331164
_symmetry_Int_Tables_number   1
_chemical_formula_structural   Pr6Al24Ru3Pt3Rh2
_chemical_formula_sum   'Pr6 Al24 Ru3 Pt3 Rh2'
_cell_volume   671.54730991
_cell_formula_units_Z   1
loop_
 _symmetry_equiv_pos_site_id
 _symmetry_equiv_pos_as_xyz
  1  'x, y, z'
loop_
 _atom_site_type_symbol
 _atom_site_label
 _atom_site_symmetry_multiplicity
 _atom_site_fract_x
 _atom_site_fract_y
 _atom_site_fract_z
 _atom_site_occupancy
  Pr  Pr0  1  0.189888  0.379776  0.252238  1
  Pr  Pr1  1  0.810112  0.620224  0.747762  1
  Pr  Pr2  1  0.620032  0.810231  0.248573  1
  Pr  Pr3  1  0.379968  0.189769  0.751427  1
  Pr  Pr4  1  0.190200  0.810231  0.248573  1
  Pr  Pr5  1  0.809800  0.189769  0.751427  1
  Al  Al6  1  0.331188  0.662379  0.024967  1
  Al  Al7  1  0.668812  0.337621  0.975033  1
  Al  Al8  1  0.663767  0.327532  0.525461  1
  Al  Al9  1  0.336233  0.672468  0.474539  1
  Al  Al10  1  0.162533  0.325066  0.575024  1
  Al  Al11  1  0.837467  0.674934  0.424976  1
  Al  Al12  1  0.673709  0.841962  0.574924  1
  Al  Al13  1  0.836729  0.673458  0.073536  1
  Al  Al14  1  0.326291  0.158038  0.425076  1
  Al  Al15  1  0.163271  0.326542  0.926464  1
  Al  Al16  1  0.168253  0.841962  0.574924  1
  Al  Al17  1  0.326114  0.166512  0.076136  1
  Al  Al18  1  0.831747  0.158038  0.425076  1
  Al  Al19  1  0.673886  0.833488  0.923864  1
  Al  Al20  1  0.840398  0.166512  0.076136  1
  Al  Al21  1  0.159602  0.833488  0.923864  1
  Al  Al22  1  0.563561  0.127122  0.254379  1
  Al  Al23  1  0.436439  0.872878  0.745621  1
  Al  Al24  1  0.872790  0.436100  0.246969  1
  Al  Al25  1  0.127210  0.563900  0.753031  1
  Al  Al26  1  0.563309  0.436100  0.246969  1
  Al  Al27  1  0.436691  0.563900  0.753031  1
  Al  Al28  1  0.000937  0.001873  0.250000  1
  Al  Al29  1  0.999063  0.998127  0.750000  1
  Ru  Ru30  1  0.500000  0.000000  0.500000  1
  Ru  Ru31  1  0.000000  0.000000  0.000000  1
  Ru  Ru32  1  0.000000  0.000000  0.500000  1
  Pt  Pt33  1  0.500000  0.000000  0.000000  1
  Pt  Pt34  1  0.000000  0.500000  0.500000  1
  Pt  Pt35  1  0.500000  0.500000  0.500000  1
  Rh  Rh36  1  0.000000  0.500000  0.000000  1
  Rh  Rh37  1  0.500000  0.500000  0.000000  1
