# generated using pymatgen
data_Tb8Y12CoBi8Ru3
_symmetry_space_group_name_H-M   'P 1'
_cell_length_a   8.03141527
_cell_length_b   8.96061400
_cell_length_c   12.50967906
_cell_angle_alpha   90.00000000
_cell_angle_beta   90.26180056
_cell_angle_gamma   90.00000000
_symmetry_Int_Tables_number   1
_chemical_formula_structural   Tb8Y12CoBi8Ru3
_chemical_formula_sum   'Tb8 Y12 Co1 Bi8 Ru3'
_cell_volume   900.26732068
_cell_formula_units_Z   1
loop_
 _symmetry_equiv_pos_site_id
 _symmetry_equiv_pos_as_xyz
  1  'x, y, z'
loop_
 _atom_site_type_symbol
 _atom_site_label
 _atom_site_symmetry_multiplicity
 _atom_site_fract_x
 _atom_site_fract_y
 _atom_site_fract_z
 _atom_site_occupancy
  Tb  Tb0  1  0.675820  0.040781  0.563922  1
  Tb  Tb1  1  0.323584  0.958358  0.436013  1
  Tb  Tb2  1  0.177068  0.957959  0.935883  1
  Tb  Tb3  1  0.323584  0.541642  0.436013  1
  Tb  Tb4  1  0.824973  0.035716  0.062684  1
  Tb  Tb5  1  0.675820  0.459219  0.563922  1
  Tb  Tb6  1  0.824973  0.464284  0.062684  1
  Tb  Tb7  1  0.177068  0.542041  0.935883  1
  Y  Y8  1  0.845030  0.750000  0.798463  1
  Y  Y9  1  0.156099  0.250000  0.206392  1
  Y  Y10  1  0.343870  0.250000  0.707269  1
  Y  Y11  1  0.655019  0.750000  0.293955  1
  Y  Y12  1  0.375997  0.750000  0.695289  1
  Y  Y13  1  0.623060  0.250000  0.305311  1
  Y  Y14  1  0.876063  0.250000  0.806138  1
  Y  Y15  1  0.121145  0.750000  0.190438  1
  Y  Y16  1  0.946789  0.750000  0.504508  1
  Y  Y17  1  0.052649  0.250000  0.496134  1
  Y  Y18  1  0.449892  0.250000  0.996956  1
  Y  Y19  1  0.550173  0.750000  0.003207  1
  Co  Co20  1  0.931840  0.750000  0.010099  1
  Bi  Bi21  1  0.572005  0.492213  0.827811  1
  Bi  Bi22  1  0.428635  0.508139  0.172058  1
  Bi  Bi23  1  0.070310  0.507985  0.673331  1
  Bi  Bi24  1  0.428635  0.991861  0.172058  1
  Bi  Bi25  1  0.928977  0.492524  0.326564  1
  Bi  Bi26  1  0.572005  0.007787  0.827811  1
  Bi  Bi27  1  0.928977  0.007476  0.326564  1
  Bi  Bi28  1  0.070310  0.992015  0.673331  1
  Ru  Ru29  1  0.572385  0.750000  0.511832  1
  Ru  Ru30  1  0.426253  0.250000  0.488361  1
  Ru  Ru31  1  0.070994  0.250000  0.989114  1
