# generated using pymatgen
data_RbDyBiSbSe5
_symmetry_space_group_name_H-M   'P 1'
_cell_length_a   4.13612300
_cell_length_b   12.40100000
_cell_length_c   22.23609000
_cell_angle_alpha   90.00000000
_cell_angle_beta   90.00000000
_cell_angle_gamma   90.00000000
_symmetry_Int_Tables_number   1
_chemical_formula_structural   RbDyBiSbSe5
_chemical_formula_sum   'Rb4 Dy4 Bi4 Sb4 Se20'
_cell_volume   1140.53489186
_cell_formula_units_Z   4
loop_
 _symmetry_equiv_pos_site_id
 _symmetry_equiv_pos_as_xyz
  1  'x, y, z'
loop_
 _atom_site_type_symbol
 _atom_site_label
 _atom_site_symmetry_multiplicity
 _atom_site_fract_x
 _atom_site_fract_y
 _atom_site_fract_z
 _atom_site_occupancy
  Rb  Rb0  1  0.250000  0.488911  0.209846  1
  Rb  Rb1  1  0.750000  0.511089  0.790154  1
  Rb  Rb2  1  0.750000  0.988911  0.290154  1
  Rb  Rb3  1  0.250000  0.011089  0.709846  1
  Dy  Dy4  1  0.250000  0.364987  0.023740  1
  Dy  Dy5  1  0.750000  0.635013  0.976260  1
  Dy  Dy6  1  0.750000  0.864987  0.476260  1
  Dy  Dy7  1  0.250000  0.135013  0.523740  1
  Bi  Bi8  1  0.250000  0.595898  0.425101  1
  Bi  Bi9  1  0.750000  0.404102  0.574899  1
  Bi  Bi10  1  0.750000  0.095898  0.074899  1
  Bi  Bi11  1  0.250000  0.904102  0.925101  1
  Sb  Sb12  1  0.250000  0.805641  0.126092  1
  Sb  Sb13  1  0.750000  0.194359  0.873908  1
  Sb  Sb14  1  0.750000  0.305641  0.373908  1
  Sb  Sb15  1  0.250000  0.694359  0.626092  1
  Se  Se16  1  0.250000  0.811306  0.389530  1
  Se  Se17  1  0.750000  0.188694  0.610470  1
  Se  Se18  1  0.750000  0.311306  0.110470  1
  Se  Se19  1  0.250000  0.688694  0.889530  1
  Se  Se20  1  0.250000  0.250876  0.299025  1
  Se  Se21  1  0.750000  0.749124  0.700975  1
  Se  Se22  1  0.750000  0.750876  0.200975  1
  Se  Se23  1  0.250000  0.249124  0.799025  1
  Se  Se24  1  0.250000  0.355751  0.480353  1
  Se  Se25  1  0.750000  0.644249  0.519647  1
  Se  Se26  1  0.750000  0.855751  0.019647  1
  Se  Se27  1  0.250000  0.144249  0.980353  1
  Se  Se28  1  0.250000  0.019487  0.159586  1
  Se  Se29  1  0.750000  0.980513  0.840414  1
  Se  Se30  1  0.750000  0.519487  0.340414  1
  Se  Se31  1  0.250000  0.480513  0.659586  1
  Se  Se32  1  0.250000  0.583684  0.060585  1
  Se  Se33  1  0.750000  0.416316  0.939415  1
  Se  Se34  1  0.750000  0.083684  0.439415  1
  Se  Se35  1  0.250000  0.916316  0.560585  1
