# generated using pymatgen
data_Y20Tl3Ru2Au3
_symmetry_space_group_name_H-M   'P 1'
_cell_length_a   9.63077400
_cell_length_b   9.63077318
_cell_length_c   9.59966500
_cell_angle_alpha   90.00000000
_cell_angle_beta   90.00000000
_cell_angle_gamma   120.00000280
_symmetry_Int_Tables_number   1
_chemical_formula_structural   Y20Tl3Ru2Au3
_chemical_formula_sum   'Y20 Tl3 Ru2 Au3'
_cell_volume   771.09705351
_cell_formula_units_Z   1
loop_
 _symmetry_equiv_pos_site_id
 _symmetry_equiv_pos_as_xyz
  1  'x, y, z'
loop_
 _atom_site_type_symbol
 _atom_site_label
 _atom_site_symmetry_multiplicity
 _atom_site_fract_x
 _atom_site_fract_y
 _atom_site_fract_z
 _atom_site_occupancy
  Y  Y0  1  0.000000  0.000000  0.459418  1
  Y  Y1  1  0.000000  0.000000  0.040582  1
  Y  Y2  1  0.209465  0.790535  0.438836  1
  Y  Y3  1  0.209465  0.418932  0.438836  1
  Y  Y4  1  0.581068  0.790535  0.438836  1
  Y  Y5  1  0.791511  0.208489  0.558216  1
  Y  Y6  1  0.791511  0.583020  0.558216  1
  Y  Y7  1  0.416980  0.208489  0.558216  1
  Y  Y8  1  0.791511  0.208489  0.941784  1
  Y  Y9  1  0.791511  0.583020  0.941784  1
  Y  Y10  1  0.416980  0.208489  0.941784  1
  Y  Y11  1  0.209465  0.790535  0.061164  1
  Y  Y12  1  0.209465  0.418932  0.061164  1
  Y  Y13  1  0.581068  0.790535  0.061164  1
  Y  Y14  1  0.540698  0.459302  0.250000  1
  Y  Y15  1  0.540698  0.081396  0.250000  1
  Y  Y16  1  0.918604  0.459302  0.250000  1
  Y  Y17  1  0.460658  0.539342  0.750000  1
  Y  Y18  1  0.460658  0.921317  0.750000  1
  Y  Y19  1  0.078683  0.539342  0.750000  1
  Tl  Tl20  1  0.113806  0.886194  0.750000  1
  Tl  Tl21  1  0.113806  0.227611  0.750000  1
  Tl  Tl22  1  0.772389  0.886194  0.750000  1
  Ru  Ru23  1  0.333333  0.666667  0.250000  1
  Ru  Ru24  1  0.666667  0.333333  0.750000  1
  Au  Au25  1  0.870522  0.129478  0.250000  1
  Au  Au26  1  0.870522  0.741044  0.250000  1
  Au  Au27  1  0.258956  0.129478  0.250000  1
