# generated using pymatgen
data_ErTm4In2Bi
_symmetry_space_group_name_H-M   'P 1'
_cell_length_a   6.55480400
_cell_length_b   8.92863877
_cell_length_c   8.89689307
_cell_angle_alpha   119.73606783
_cell_angle_beta   90.00265231
_cell_angle_gamma   89.99823641
_symmetry_Int_Tables_number   1
_chemical_formula_structural   ErTm4In2Bi
_chemical_formula_sum   'Er2 Tm8 In4 Bi2'
_cell_volume   452.12951930
_cell_formula_units_Z   2
loop_
 _symmetry_equiv_pos_site_id
 _symmetry_equiv_pos_as_xyz
  1  'x, y, z'
loop_
 _atom_site_type_symbol
 _atom_site_label
 _atom_site_symmetry_multiplicity
 _atom_site_fract_x
 _atom_site_fract_y
 _atom_site_fract_z
 _atom_site_occupancy
  Er  Er0  1  0.749978  0.228090  0.990832  1
  Er  Er1  1  0.750029  0.771622  0.762140  1
  Tm  Tm2  1  0.492641  0.328689  0.667164  1
  Tm  Tm3  1  0.492759  0.671346  0.338596  1
  Tm  Tm4  1  0.007238  0.671342  0.338607  1
  Tm  Tm5  1  0.007355  0.328694  0.667167  1
  Tm  Tm6  1  0.750000  0.999915  0.238941  1
  Tm  Tm7  1  0.250015  0.765349  0.000627  1
  Tm  Tm8  1  0.249988  0.234528  0.235071  1
  Tm  Tm9  1  0.250001  0.000126  0.763286  1
  In  In10  1  0.749996  0.000077  0.595464  1
  In  In11  1  0.250020  0.397828  0.003459  1
  In  In12  1  0.249983  0.601932  0.605125  1
  In  In13  1  0.249997  0.000136  0.397578  1
  Bi  Bi14  1  0.749998  0.604137  0.999908  1
  Bi  Bi15  1  0.749999  0.396191  0.396039  1
