# generated using pymatgen
data_Y4TmZnRu4
_symmetry_space_group_name_H-M   'P 1'
_cell_length_a   3.40725000
_cell_length_b   3.40725000
_cell_length_c   17.57848500
_cell_angle_alpha   90.00000000
_cell_angle_beta   90.00000000
_cell_angle_gamma   90.00000000
_symmetry_Int_Tables_number   1
_chemical_formula_structural   Y4TmZnRu4
_chemical_formula_sum   'Y4 Tm1 Zn1 Ru4'
_cell_volume   204.07482988
_cell_formula_units_Z   1
loop_
 _symmetry_equiv_pos_site_id
 _symmetry_equiv_pos_as_xyz
  1  'x, y, z'
loop_
 _atom_site_type_symbol
 _atom_site_label
 _atom_site_symmetry_multiplicity
 _atom_site_fract_x
 _atom_site_fract_y
 _atom_site_fract_z
 _atom_site_occupancy
  Y  Y0  1  0.000000  0.000000  0.192707  1
  Y  Y1  1  0.000000  0.000000  0.385260  1
  Y  Y2  1  0.000000  0.000000  0.614740  1
  Y  Y3  1  0.000000  0.000000  0.807293  1
  Tm  Tm4  1  0.000000  0.000000  0.000000  1
  Zn  Zn5  1  0.500000  0.500000  0.500000  1
  Ru  Ru6  1  0.500000  0.500000  0.094813  1
  Ru  Ru7  1  0.500000  0.500000  0.294159  1
  Ru  Ru8  1  0.500000  0.500000  0.705841  1
  Ru  Ru9  1  0.500000  0.500000  0.905187  1
