# generated using pymatgen
data_Tb3HoGa4Ir3Pt
_symmetry_space_group_name_H-M   'P 1'
_cell_length_a   4.37314900
_cell_length_b   6.84321844
_cell_length_c   7.78989716
_cell_angle_alpha   90.15306535
_cell_angle_beta   90.00000000
_cell_angle_gamma   90.00000000
_symmetry_Int_Tables_number   1
_chemical_formula_structural   Tb3HoGa4Ir3Pt
_chemical_formula_sum   'Tb3 Ho1 Ga4 Ir3 Pt1'
_cell_volume   233.12285463
_cell_formula_units_Z   1
loop_
 _symmetry_equiv_pos_site_id
 _symmetry_equiv_pos_as_xyz
  1  'x, y, z'
loop_
 _atom_site_type_symbol
 _atom_site_label
 _atom_site_symmetry_multiplicity
 _atom_site_fract_x
 _atom_site_fract_y
 _atom_site_fract_z
 _atom_site_occupancy
  Tb  Tb0  1  0.250000  0.029091  0.810441  1
  Tb  Tb1  1  0.250000  0.522366  0.685434  1
  Tb  Tb2  1  0.750000  0.978454  0.193958  1
  Ho  Ho3  1  0.750000  0.476405  0.310829  1
  Ga  Ga4  1  0.250000  0.156291  0.430211  1
  Ga  Ga5  1  0.250000  0.652562  0.070933  1
  Ga  Ga6  1  0.750000  0.844948  0.567029  1
  Ga  Ga7  1  0.750000  0.340808  0.931460  1
  Ir  Ir8  1  0.250000  0.767223  0.389348  1
  Ir  Ir9  1  0.250000  0.269757  0.110849  1
  Ir  Ir10  1  0.750000  0.231585  0.609224  1
  Pt  Pt11  1  0.750000  0.730509  0.890287  1
