# generated using pymatgen
data_Ta12Mn5Os7N4
_symmetry_space_group_name_H-M   'P 1'
_cell_length_a   8.22065728
_cell_length_b   8.22065800
_cell_length_c   8.22065726
_cell_angle_alpha   59.97909652
_cell_angle_beta   59.97909722
_cell_angle_gamma   59.97909112
_symmetry_Int_Tables_number   1
_chemical_formula_structural   Ta12Mn5Os7N4
_chemical_formula_sum   'Ta12 Mn5 Os7 N4'
_cell_volume   392.64380461
_cell_formula_units_Z   1
loop_
 _symmetry_equiv_pos_site_id
 _symmetry_equiv_pos_as_xyz
  1  'x, y, z'
loop_
 _atom_site_type_symbol
 _atom_site_label
 _atom_site_symmetry_multiplicity
 _atom_site_fract_x
 _atom_site_fract_y
 _atom_site_fract_z
 _atom_site_occupancy
  Ta  Ta0  1  0.807326  0.807326  0.188020  1
  Ta  Ta1  1  0.194674  0.194674  0.804112  1
  Ta  Ta2  1  0.807326  0.188020  0.807326  1
  Ta  Ta3  1  0.194674  0.804112  0.194674  1
  Ta  Ta4  1  0.188020  0.807326  0.807326  1
  Ta  Ta5  1  0.804112  0.194674  0.194674  1
  Ta  Ta6  1  0.444176  0.444176  0.055256  1
  Ta  Ta7  1  0.056176  0.056176  0.443152  1
  Ta  Ta8  1  0.444176  0.055256  0.444176  1
  Ta  Ta9  1  0.056176  0.443152  0.056176  1
  Ta  Ta10  1  0.055256  0.444176  0.444176  1
  Ta  Ta11  1  0.443152  0.056176  0.056176  1
  Mn  Mn12  1  0.119285  0.632323  0.632323  1
  Mn  Mn13  1  0.632323  0.119285  0.632323  1
  Mn  Mn14  1  0.632323  0.632323  0.119285  1
  Mn  Mn15  1  0.624969  0.624969  0.624969  1
  Mn  Mn16  1  0.830135  0.830135  0.830135  1
  Os  Os17  1  0.747545  0.416911  0.416911  1
  Os  Os18  1  0.416911  0.747545  0.416911  1
  Os  Os19  1  0.416911  0.416911  0.747545  1
  Os  Os20  1  0.416881  0.416881  0.416881  1
  Os  Os21  1  0.502106  0.833149  0.833149  1
  Os  Os22  1  0.833149  0.502106  0.833149  1
  Os  Os23  1  0.833149  0.833149  0.502106  1
  N  N24  1  0.625043  0.124692  0.124692  1
  N  N25  1  0.124692  0.625043  0.124692  1
  N  N26  1  0.124692  0.124692  0.625043  1
  N  N27  1  0.124639  0.124639  0.124639  1
