# generated using pymatgen
data_Yb3YNp2(Si3Ru)8
_symmetry_space_group_name_H-M   'P 1'
_cell_length_a   10.11712659
_cell_length_b   10.11712583
_cell_length_c   8.18049581
_cell_angle_alpha   89.95299850
_cell_angle_beta   89.95301364
_cell_angle_gamma   132.32222709
_symmetry_Int_Tables_number   1
_chemical_formula_structural   Yb3YNp2(Si3Ru)8
_chemical_formula_sum   'Yb3 Y1 Np2 Si24 Ru8'
_cell_volume   619.09153464
_cell_formula_units_Z   1
loop_
 _symmetry_equiv_pos_site_id
 _symmetry_equiv_pos_as_xyz
  1  'x, y, z'
loop_
 _atom_site_type_symbol
 _atom_site_label
 _atom_site_symmetry_multiplicity
 _atom_site_fract_x
 _atom_site_fract_y
 _atom_site_fract_z
 _atom_site_occupancy
  Yb  Yb0  1  0.499858  0.500142  0.500000  1
  Yb  Yb1  1  0.502093  0.001978  0.749574  1
  Yb  Yb2  1  0.998022  0.497907  0.250426  1
  Y  Y3  1  0.000122  0.999878  0.000000  1
  Np  Np4  1  0.496795  0.994459  0.248896  1
  Np  Np5  1  0.005541  0.503205  0.751104  1
  Si  Si6  1  0.795259  0.204741  0.500000  1
  Si  Si7  1  0.294203  0.705797  0.000000  1
  Si  Si8  1  0.205613  0.794387  0.500000  1
  Si  Si9  1  0.704300  0.295700  0.000000  1
  Si  Si10  1  0.332813  0.336260  0.831119  1
  Si  Si11  1  0.663740  0.667187  0.168881  1
  Si  Si12  1  0.170026  0.167007  0.334371  1
  Si  Si13  1  0.832993  0.829974  0.665629  1
  Si  Si14  1  0.121325  0.885656  0.727546  1
  Si  Si15  1  0.114344  0.878675  0.272454  1
  Si  Si16  1  0.602646  0.369146  0.232166  1
  Si  Si17  1  0.630854  0.397354  0.767834  1
  Si  Si18  1  0.868497  0.103157  0.270084  1
  Si  Si19  1  0.896843  0.131503  0.729916  1
  Si  Si20  1  0.386771  0.621570  0.770491  1
  Si  Si21  1  0.378430  0.613229  0.229509  1
  Si  Si22  1  0.347358  0.112707  0.502562  1
  Si  Si23  1  0.887293  0.652642  0.497438  1
  Si  Si24  1  0.387641  0.153569  0.013219  1
  Si  Si25  1  0.846431  0.612359  0.986781  1
  Si  Si26  1  0.652072  0.885406  0.487895  1
  Si  Si27  1  0.114594  0.347928  0.512105  1
  Si  Si28  1  0.610205  0.845683  0.998430  1
  Si  Si29  1  0.154317  0.389795  0.001570  1
  Ru  Ru30  1  0.670348  0.329652  0.500000  1
  Ru  Ru31  1  0.168076  0.831924  0.000000  1
  Ru  Ru32  1  0.330796  0.669204  0.500000  1
  Ru  Ru33  1  0.829796  0.170204  0.000000  1
  Ru  Ru34  1  0.125599  0.123647  0.626752  1
  Ru  Ru35  1  0.876353  0.874401  0.373248  1
  Ru  Ru36  1  0.372027  0.373994  0.124378  1
  Ru  Ru37  1  0.626006  0.627973  0.875622  1
