# generated using pymatgen
data_Nd4Tm6Sn7Sb
_symmetry_space_group_name_H-M   'P 1'
_cell_length_a   8.09934400
_cell_length_b   8.15586136
_cell_length_c   15.38816500
_cell_angle_alpha   90.05926379
_cell_angle_beta   90.00000000
_cell_angle_gamma   90.00000000
_symmetry_Int_Tables_number   1
_chemical_formula_structural   Nd4Tm6Sn7Sb
_chemical_formula_sum   'Nd8 Tm12 Sn14 Sb2'
_cell_volume   1016.49742277
_cell_formula_units_Z   2
loop_
 _symmetry_equiv_pos_site_id
 _symmetry_equiv_pos_as_xyz
  1  'x, y, z'
loop_
 _atom_site_type_symbol
 _atom_site_label
 _atom_site_symmetry_multiplicity
 _atom_site_fract_x
 _atom_site_fract_y
 _atom_site_fract_z
 _atom_site_occupancy
  Nd  Nd0  1  0.517923  0.321804  0.903673  1
  Nd  Nd1  1  0.017923  0.178196  0.596327  1
  Nd  Nd2  1  0.480501  0.678430  0.403221  1
  Nd  Nd3  1  0.980501  0.821570  0.096779  1
  Nd  Nd4  1  0.482600  0.678389  0.096037  1
  Nd  Nd5  1  0.982600  0.821611  0.403963  1
  Nd  Nd6  1  0.516770  0.321112  0.596712  1
  Nd  Nd7  1  0.016770  0.178888  0.903288  1
  Tm  Tm8  1  0.361785  0.837829  0.876586  1
  Tm  Tm9  1  0.861785  0.662171  0.623414  1
  Tm  Tm10  1  0.637930  0.161413  0.375749  1
  Tm  Tm11  1  0.137930  0.338587  0.124251  1
  Tm  Tm12  1  0.639929  0.162276  0.123451  1
  Tm  Tm13  1  0.139929  0.337724  0.376549  1
  Tm  Tm14  1  0.361253  0.837410  0.624000  1
  Tm  Tm15  1  0.861253  0.662590  0.876000  1
  Tm  Tm16  1  0.191885  0.502323  0.749230  1
  Tm  Tm17  1  0.691885  0.997677  0.750770  1
  Tm  Tm18  1  0.807940  0.498247  0.249518  1
  Tm  Tm19  1  0.307940  0.001753  0.250482  1
  Sn  Sn20  1  0.698142  0.959050  0.542353  1
  Sn  Sn21  1  0.198142  0.540950  0.957647  1
  Sn  Sn22  1  0.702101  0.959403  0.957119  1
  Sn  Sn23  1  0.202101  0.540597  0.542881  1
  Sn  Sn24  1  0.302325  0.040429  0.457331  1
  Sn  Sn25  1  0.802325  0.459571  0.042669  1
  Sn  Sn26  1  0.558541  0.624305  0.749692  1
  Sn  Sn27  1  0.058541  0.875695  0.750308  1
  Sn  Sn28  1  0.442206  0.375512  0.249722  1
  Sn  Sn29  1  0.942206  0.124488  0.250278  1
  Sn  Sn30  1  0.325459  0.144025  0.750189  1
  Sn  Sn31  1  0.825459  0.355975  0.749811  1
  Sn  Sn32  1  0.673494  0.855408  0.250165  1
  Sn  Sn33  1  0.173494  0.644592  0.249835  1
  Sb  Sb34  1  0.299212  0.041192  0.043469  1
  Sb  Sb35  1  0.799212  0.458808  0.456531  1
