# generated using pymatgen
data_TbEr2Lu3CoTe2
_symmetry_space_group_name_H-M   'P 1'
_cell_length_a   8.29809200
_cell_length_b   8.17958212
_cell_length_c   3.90189100
_cell_angle_alpha   90.00000000
_cell_angle_beta   90.00000000
_cell_angle_gamma   120.48044434
_symmetry_Int_Tables_number   1
_chemical_formula_structural   TbEr2Lu3CoTe2
_chemical_formula_sum   'Tb1 Er2 Lu3 Co1 Te2'
_cell_volume   228.24021294
_cell_formula_units_Z   1
loop_
 _symmetry_equiv_pos_site_id
 _symmetry_equiv_pos_as_xyz
  1  'x, y, z'
loop_
 _atom_site_type_symbol
 _atom_site_label
 _atom_site_symmetry_multiplicity
 _atom_site_fract_x
 _atom_site_fract_y
 _atom_site_fract_z
 _atom_site_occupancy
  Tb  Tb0  1  0.401213  0.000000  0.500000  1
  Er  Er1  1  0.999946  0.390942  0.500000  1
  Er  Er2  1  0.609005  0.609058  0.500000  1
  Lu  Lu3  1  0.004098  0.770543  0.000000  1
  Lu  Lu4  1  0.233555  0.229457  0.000000  1
  Lu  Lu5  1  0.766055  0.000000  0.000000  1
  Co  Co6  1  0.983167  0.000000  0.500000  1
  Te  Te7  1  0.333462  0.663967  0.000000  1
  Te  Te8  1  0.669498  0.336033  0.000000  1
