# generated using pymatgen
data_Li2TbY2AgPb3
_symmetry_space_group_name_H-M   'P 1'
_cell_length_a   7.44125900
_cell_length_b   7.45373455
_cell_length_c   4.63640600
_cell_angle_alpha   90.00000000
_cell_angle_beta   90.00000000
_cell_angle_gamma   120.01663614
_symmetry_Int_Tables_number   1
_chemical_formula_structural   Li2TbY2AgPb3
_chemical_formula_sum   'Li2 Tb1 Y2 Ag1 Pb3'
_cell_volume   222.66892169
_cell_formula_units_Z   1
loop_
 _symmetry_equiv_pos_site_id
 _symmetry_equiv_pos_as_xyz
  1  'x, y, z'
loop_
 _atom_site_type_symbol
 _atom_site_label
 _atom_site_symmetry_multiplicity
 _atom_site_fract_x
 _atom_site_fract_y
 _atom_site_fract_z
 _atom_site_occupancy
  Li  Li0  1  0.233962  0.004114  0.000000  1
  Li  Li1  1  0.766237  0.770357  0.000000  1
  Tb  Tb2  1  0.574338  0.004050  0.500000  1
  Y  Y3  1  0.426015  0.430198  0.500000  1
  Y  Y4  1  0.999783  0.554456  0.500000  1
  Ag  Ag5  1  0.999793  0.237707  0.000000  1
  Pb  Pb6  1  0.000314  0.987694  0.500000  1
  Pb  Pb7  1  0.340529  0.676181  0.000000  1
  Pb  Pb8  1  0.659031  0.335246  0.000000  1
