# generated using pymatgen
data_Ba2SmB2BrO6
_symmetry_space_group_name_H-M   'P 1'
_cell_length_a   5.38648200
_cell_length_b   6.53377600
_cell_length_c   11.52362600
_cell_angle_alpha   84.18165900
_cell_angle_beta   90.00000000
_cell_angle_gamma   90.00000000
_symmetry_Int_Tables_number   1
_chemical_formula_structural   Ba2SmB2BrO6
_chemical_formula_sum   'Ba4 Sm2 B4 Br2 O12'
_cell_volume   403.47392648
_cell_formula_units_Z   2
loop_
 _symmetry_equiv_pos_site_id
 _symmetry_equiv_pos_as_xyz
  1  'x, y, z'
loop_
 _atom_site_type_symbol
 _atom_site_label
 _atom_site_symmetry_multiplicity
 _atom_site_fract_x
 _atom_site_fract_y
 _atom_site_fract_z
 _atom_site_occupancy
  Ba  Ba0  1  0.750000  0.404191  0.707761  1
  Ba  Ba1  1  0.250000  0.595809  0.292239  1
  Ba  Ba2  1  0.750000  0.150613  0.076086  1
  Ba  Ba3  1  0.250000  0.849387  0.923914  1
  Sm  Sm4  1  0.750000  0.154818  0.410925  1
  Sm  Sm5  1  0.250000  0.845182  0.589075  1
  B  B6  1  0.250000  0.126759  0.221809  1
  B  B7  1  0.750000  0.873241  0.778191  1
  B  B8  1  0.750000  0.711379  0.424443  1
  B  B9  1  0.250000  0.288621  0.575557  1
  Br  Br10  1  0.750000  0.646818  0.087840  1
  Br  Br11  1  0.250000  0.353182  0.912160  1
  O  O12  1  0.470059  0.212348  0.257843  1
  O  O13  1  0.970059  0.787652  0.742157  1
  O  O14  1  0.529941  0.787652  0.742157  1
  O  O15  1  0.029941  0.212348  0.257843  1
  O  O16  1  0.530964  0.823292  0.432345  1
  O  O17  1  0.030964  0.176708  0.567655  1
  O  O18  1  0.469036  0.176708  0.567655  1
  O  O19  1  0.969036  0.823292  0.432345  1
  O  O20  1  0.750000  0.510868  0.402743  1
  O  O21  1  0.250000  0.489132  0.597257  1
  O  O22  1  0.250000  0.975671  0.145841  1
  O  O23  1  0.750000  0.024329  0.854159  1
