# generated using pymatgen
data_Ac11Er(GePd)12
_symmetry_space_group_name_H-M   'P 1'
_cell_length_a   4.62269700
_cell_length_b   7.88019800
_cell_length_c   22.39506800
_cell_angle_alpha   90.00031265
_cell_angle_beta   90.00000000
_cell_angle_gamma   90.00000000
_symmetry_Int_Tables_number   1
_chemical_formula_structural   Ac11Er(GePd)12
_chemical_formula_sum   'Ac11 Er1 Ge12 Pd12'
_cell_volume   815.80233370
_cell_formula_units_Z   1
loop_
 _symmetry_equiv_pos_site_id
 _symmetry_equiv_pos_as_xyz
  1  'x, y, z'
loop_
 _atom_site_type_symbol
 _atom_site_label
 _atom_site_symmetry_multiplicity
 _atom_site_fract_x
 _atom_site_fract_y
 _atom_site_fract_z
 _atom_site_occupancy
  Ac  Ac0  1  0.250000  0.710824  0.335207  1
  Ac  Ac1  1  0.750000  0.289924  0.664395  1
  Ac  Ac2  1  0.750000  0.207660  0.167820  1
  Ac  Ac3  1  0.250000  0.791600  0.832140  1
  Ac  Ac4  1  0.250000  0.793846  0.167472  1
  Ac  Ac5  1  0.750000  0.206329  0.832690  1
  Ac  Ac6  1  0.750000  0.294917  0.336790  1
  Ac  Ac7  1  0.250000  0.709788  0.664364  1
  Ac  Ac8  1  0.250000  0.712590  0.002589  1
  Ac  Ac9  1  0.750000  0.287240  0.997578  1
  Ac  Ac10  1  0.750000  0.207227  0.498307  1
  Er  Er11  1  0.250000  0.775091  0.502189  1
  Ge  Ge12  1  0.250000  0.088270  0.069352  1
  Ge  Ge13  1  0.750000  0.911387  0.930516  1
  Ge  Ge14  1  0.750000  0.597097  0.436302  1
  Ge  Ge15  1  0.250000  0.419451  0.567839  1
  Ge  Ge16  1  0.250000  0.084072  0.273144  1
  Ge  Ge17  1  0.750000  0.917055  0.726754  1
  Ge  Ge18  1  0.750000  0.582287  0.229975  1
  Ge  Ge19  1  0.250000  0.417134  0.769644  1
  Ge  Ge20  1  0.250000  0.078552  0.399478  1
  Ge  Ge21  1  0.750000  0.911390  0.598884  1
  Ge  Ge22  1  0.750000  0.582201  0.105980  1
  Ge  Ge23  1  0.250000  0.417999  0.893997  1
  Pd  Pd24  1  0.250000  0.417374  0.240178  1
  Pd  Pd25  1  0.750000  0.582236  0.760338  1
  Pd  Pd26  1  0.750000  0.917874  0.263642  1
  Pd  Pd27  1  0.250000  0.082642  0.736376  1
  Pd  Pd28  1  0.250000  0.425037  0.437918  1
  Pd  Pd29  1  0.750000  0.593369  0.558466  1
  Pd  Pd30  1  0.750000  0.917033  0.066142  1
  Pd  Pd31  1  0.250000  0.082448  0.934126  1
  Pd  Pd32  1  0.250000  0.417802  0.094249  1
  Pd  Pd33  1  0.750000  0.582023  0.905940  1
  Pd  Pd34  1  0.750000  0.915871  0.411702  1
  Pd  Pd35  1  0.250000  0.072364  0.587524  1
