# generated using pymatgen
data_La12Al(SnI4)3
_symmetry_space_group_name_H-M   'P 1'
_cell_length_a   11.22106271
_cell_length_b   11.32697125
_cell_length_c   11.22106355
_cell_angle_alpha   109.66252219
_cell_angle_beta   109.27923576
_cell_angle_gamma   109.66252967
_symmetry_Int_Tables_number   1
_chemical_formula_structural   La12Al(SnI4)3
_chemical_formula_sum   'La12 Al1 Sn3 I12'
_cell_volume   1095.29003169
_cell_formula_units_Z   1
loop_
 _symmetry_equiv_pos_site_id
 _symmetry_equiv_pos_as_xyz
  1  'x, y, z'
loop_
 _atom_site_type_symbol
 _atom_site_label
 _atom_site_symmetry_multiplicity
 _atom_site_fract_x
 _atom_site_fract_y
 _atom_site_fract_z
 _atom_site_occupancy
  La  La0  1  0.258643  0.008643  0.017285  1
  La  La1  1  0.016296  0.258148  0.008148  1
  La  La2  1  0.491852  0.750000  0.008148  1
  La  La3  1  0.759496  0.242591  0.265607  1
  La  La4  1  0.006111  0.023015  0.265607  1
  La  La5  1  0.006111  0.483095  0.740504  1
  La  La6  1  0.234393  0.257409  0.740504  1
  La  La7  1  0.258643  0.750000  0.241357  1
  La  La8  1  0.234393  0.476985  0.493889  1
  La  La9  1  0.482715  0.491357  0.241357  1
  La  La10  1  0.759496  0.016905  0.493889  1
  La  La11  1  0.491852  0.241852  0.483704  1
  Al  Al12  1  0.000000  0.250000  0.500000  1
  Sn  Sn13  1  0.250606  0.500606  0.001213  1
  Sn  Sn14  1  0.498787  0.999394  0.249394  1
  Sn  Sn15  1  0.250606  0.250000  0.249394  1
  I  I16  1  0.755404  0.743786  0.249757  1
  I  I17  1  0.505036  0.250000  0.994964  1
  I  I18  1  0.250243  0.994029  0.505647  1
  I  I19  1  0.512114  0.506056  0.756056  1
  I  I20  1  0.994353  0.988381  0.744596  1
  I  I21  1  0.743944  0.993944  0.987886  1
  I  I22  1  0.505036  0.755036  0.510073  1
  I  I23  1  0.755404  0.511619  0.505647  1
  I  I24  1  0.994353  0.505971  0.249757  1
  I  I25  1  0.989927  0.744964  0.994964  1
  I  I26  1  0.250243  0.756214  0.744596  1
  I  I27  1  0.743944  0.250000  0.756056  1
