# generated using pymatgen
data_Ca3CeTi4O12
_symmetry_space_group_name_H-M   'P 1'
_cell_length_a   7.71821800
_cell_length_b   5.41698482
_cell_length_c   5.53258303
_cell_angle_alpha   89.78884498
_cell_angle_beta   90.00000000
_cell_angle_gamma   90.00000000
_symmetry_Int_Tables_number   1
_chemical_formula_structural   Ca3CeTi4O12
_chemical_formula_sum   'Ca3 Ce1 Ti4 O12'
_cell_volume   231.31279177
_cell_formula_units_Z   1
loop_
 _symmetry_equiv_pos_site_id
 _symmetry_equiv_pos_as_xyz
  1  'x, y, z'
loop_
 _atom_site_type_symbol
 _atom_site_label
 _atom_site_symmetry_multiplicity
 _atom_site_fract_x
 _atom_site_fract_y
 _atom_site_fract_z
 _atom_site_occupancy
  Ca  Ca0  1  0.500000  0.490245  0.547151  1
  Ca  Ca1  1  0.000000  0.992713  0.952960  1
  Ca  Ca2  1  0.000000  0.507709  0.456586  1
  Ce  Ce3  1  0.500000  0.010995  0.049198  1
  Ti  Ti4  1  0.247074  0.998031  0.500102  1
  Ti  Ti5  1  0.753906  0.502431  0.999354  1
  Ti  Ti6  1  0.752926  0.998031  0.500102  1
  Ti  Ti7  1  0.246094  0.502431  0.999354  1
  O  O8  1  0.500000  0.577208  0.978079  1
  O  O9  1  0.500000  0.920266  0.483984  1
  O  O10  1  0.000000  0.422577  0.022902  1
  O  O11  1  0.000000  0.078518  0.520502  1
  O  O12  1  0.788071  0.796860  0.204304  1
  O  O13  1  0.209109  0.705968  0.707320  1
  O  O14  1  0.291333  0.205043  0.793641  1
  O  O15  1  0.705216  0.291552  0.289598  1
  O  O16  1  0.708667  0.205043  0.793641  1
  O  O17  1  0.294784  0.291552  0.289598  1
  O  O18  1  0.211929  0.796860  0.204304  1
  O  O19  1  0.790891  0.705968  0.707320  1
