# generated using pymatgen
data_GdYMg2(B6Os)2
_symmetry_space_group_name_H-M   'P 1'
_cell_length_a   3.58102100
_cell_length_b   8.91999907
_cell_length_c   11.30183046
_cell_angle_alpha   89.96367327
_cell_angle_beta   90.00000000
_cell_angle_gamma   90.00000000
_symmetry_Int_Tables_number   1
_chemical_formula_structural   GdYMg2(B6Os)2
_chemical_formula_sum   'Gd2 Y2 Mg4 B24 Os4'
_cell_volume   361.01095238
_cell_formula_units_Z   2
loop_
 _symmetry_equiv_pos_site_id
 _symmetry_equiv_pos_as_xyz
  1  'x, y, z'
loop_
 _atom_site_type_symbol
 _atom_site_label
 _atom_site_symmetry_multiplicity
 _atom_site_fract_x
 _atom_site_fract_y
 _atom_site_fract_z
 _atom_site_occupancy
  Gd  Gd0  1  0.000000  0.322242  0.413824  1
  Gd  Gd1  1  0.000000  0.677758  0.586176  1
  Y  Y2  1  0.000000  0.823159  0.086031  1
  Y  Y3  1  0.000000  0.176841  0.913969  1
  Mg  Mg4  1  0.000000  0.943908  0.371310  1
  Mg  Mg5  1  0.000000  0.056092  0.628691  1
  Mg  Mg6  1  0.000000  0.443771  0.128105  1
  Mg  Mg7  1  0.000000  0.556229  0.871894  1
  B  B8  1  0.500000  0.555869  0.431555  1
  B  B9  1  0.500000  0.444131  0.568445  1
  B  B10  1  0.500000  0.055840  0.067752  1
  B  B11  1  0.500000  0.944160  0.932248  1
  B  B12  1  0.500000  0.755305  0.417183  1
  B  B13  1  0.500000  0.244695  0.582817  1
  B  B14  1  0.500000  0.255223  0.081931  1
  B  B15  1  0.500000  0.744777  0.918069  1
  B  B16  1  0.500000  0.793639  0.262876  1
  B  B17  1  0.500000  0.206361  0.737124  1
  B  B18  1  0.500000  0.293320  0.236198  1
  B  B19  1  0.500000  0.706679  0.763802  1
  B  B20  1  0.500000  0.627628  0.182097  1
  B  B21  1  0.500000  0.372372  0.817903  1
  B  B22  1  0.500000  0.127401  0.317087  1
  B  B23  1  0.500000  0.872599  0.682913  1
  B  B24  1  0.500000  0.980957  0.213081  1
  B  B25  1  0.500000  0.019043  0.786919  1
  B  B26  1  0.500000  0.481110  0.286201  1
  B  B27  1  0.500000  0.518890  0.713799  1
  B  B28  1  0.500000  0.592522  0.025325  1
  B  B29  1  0.500000  0.407478  0.974675  1
  B  B30  1  0.500000  0.092001  0.474782  1
  B  B31  1  0.500000  0.907999  0.525218  1
  Os  Os32  1  0.000000  0.640932  0.317524  1
  Os  Os33  1  0.000000  0.359068  0.682476  1
  Os  Os34  1  0.000000  0.140503  0.181590  1
  Os  Os35  1  0.000000  0.859497  0.818410  1
