# generated using pymatgen
data_CsTa(SeO3)3
_symmetry_space_group_name_H-M   'P 1'
_cell_length_a   8.33351400
_cell_length_b   8.33351378
_cell_length_c   10.01377400
_cell_angle_alpha   90.00000000
_cell_angle_beta   90.00000000
_cell_angle_gamma   59.99999120
_symmetry_Int_Tables_number   1
_chemical_formula_structural   CsTa(SeO3)3
_chemical_formula_sum   'Cs2 Ta2 Se6 O18'
_cell_volume   602.26095195
_cell_formula_units_Z   2
loop_
 _symmetry_equiv_pos_site_id
 _symmetry_equiv_pos_as_xyz
  1  'x, y, z'
loop_
 _atom_site_type_symbol
 _atom_site_label
 _atom_site_symmetry_multiplicity
 _atom_site_fract_x
 _atom_site_fract_y
 _atom_site_fract_z
 _atom_site_occupancy
  Cs  Cs0  1  0.333333  0.333333  0.000000  1
  Cs  Cs1  1  0.333333  0.333333  0.500000  1
  Ta  Ta2  1  0.000000  0.000000  0.000000  1
  Ta  Ta3  1  0.000000  0.000000  0.500000  1
  Se  Se4  1  0.899005  0.331717  0.250000  1
  Se  Se5  1  0.331718  0.769277  0.250000  1
  Se  Se6  1  0.769278  0.899005  0.250000  1
  Se  Se7  1  0.769277  0.331718  0.750000  1
  Se  Se8  1  0.899005  0.769278  0.750000  1
  Se  Se9  1  0.331717  0.899005  0.750000  1
  O  O10  1  0.791066  0.027887  0.114138  1
  O  O11  1  0.027887  0.181047  0.114138  1
  O  O12  1  0.181047  0.791067  0.114138  1
  O  O13  1  0.476406  0.543892  0.250000  1
  O  O14  1  0.979702  0.476406  0.250000  1
  O  O15  1  0.543892  0.979702  0.250000  1
  O  O16  1  0.791066  0.027887  0.385862  1
  O  O17  1  0.027887  0.181047  0.385862  1
  O  O18  1  0.181047  0.791067  0.385862  1
  O  O19  1  0.181047  0.027887  0.614138  1
  O  O20  1  0.791067  0.181047  0.614138  1
  O  O21  1  0.027887  0.791066  0.614138  1
  O  O22  1  0.979702  0.543892  0.750000  1
  O  O23  1  0.543892  0.476406  0.750000  1
  O  O24  1  0.476406  0.979702  0.750000  1
  O  O25  1  0.181047  0.027887  0.885862  1
  O  O26  1  0.791067  0.181047  0.885862  1
  O  O27  1  0.027887  0.791066  0.885862  1
