# generated using pymatgen
data_YLu2(Co2Si)3
_symmetry_space_group_name_H-M   'P 1'
_cell_length_a   5.16400800
_cell_length_b   5.16400790
_cell_length_c   14.64020900
_cell_angle_alpha   90.00000000
_cell_angle_beta   90.00000000
_cell_angle_gamma   120.00000063
_symmetry_Int_Tables_number   1
_chemical_formula_structural   YLu2(Co2Si)3
_chemical_formula_sum   'Y2 Lu4 Co12 Si6'
_cell_volume   338.10509096
_cell_formula_units_Z   2
loop_
 _symmetry_equiv_pos_site_id
 _symmetry_equiv_pos_as_xyz
  1  'x, y, z'
loop_
 _atom_site_type_symbol
 _atom_site_label
 _atom_site_symmetry_multiplicity
 _atom_site_fract_x
 _atom_site_fract_y
 _atom_site_fract_z
 _atom_site_occupancy
  Y  Y0  1  0.333333  0.666667  0.250000  1
  Y  Y1  1  0.666667  0.333334  0.750000  1
  Lu  Lu2  1  0.333333  0.666667  0.037854  1
  Lu  Lu3  1  0.333333  0.666667  0.462146  1
  Lu  Lu4  1  0.666667  0.333334  0.537854  1
  Lu  Lu5  1  0.666667  0.333334  0.962146  1
  Co  Co6  1  0.334809  0.167405  0.129423  1
  Co  Co7  1  0.832595  0.167405  0.129423  1
  Co  Co8  1  0.832595  0.665190  0.129423  1
  Co  Co9  1  0.334809  0.167405  0.370577  1
  Co  Co10  1  0.832595  0.167405  0.370577  1
  Co  Co11  1  0.832595  0.665190  0.370577  1
  Co  Co12  1  0.167405  0.334809  0.629422  1
  Co  Co13  1  0.167405  0.832594  0.629422  1
  Co  Co14  1  0.665190  0.832594  0.629422  1
  Co  Co15  1  0.167405  0.334809  0.870577  1
  Co  Co16  1  0.167405  0.832594  0.870577  1
  Co  Co17  1  0.665190  0.832594  0.870577  1
  Si  Si18  1  0.000000  0.000000  0.000000  1
  Si  Si19  1  0.000000  0.000000  0.250000  1
  Si  Si20  1  0.666667  0.333334  0.250000  1
  Si  Si21  1  0.000000  0.000000  0.500000  1
  Si  Si22  1  0.000000  0.000000  0.750000  1
  Si  Si23  1  0.333333  0.666667  0.750000  1
