# generated using pymatgen
data_LiCe2Ni11As7
_symmetry_space_group_name_H-M   'P 1'
_cell_length_a   3.89278400
_cell_length_b   9.43651625
_cell_length_c   9.50765517
_cell_angle_alpha   120.37659184
_cell_angle_beta   90.00000000
_cell_angle_gamma   90.00000000
_symmetry_Int_Tables_number   1
_chemical_formula_structural   LiCe2Ni11As7
_chemical_formula_sum   'Li1 Ce2 Ni11 As7'
_cell_volume   301.31132591
_cell_formula_units_Z   1
loop_
 _symmetry_equiv_pos_site_id
 _symmetry_equiv_pos_as_xyz
  1  'x, y, z'
loop_
 _atom_site_type_symbol
 _atom_site_label
 _atom_site_symmetry_multiplicity
 _atom_site_fract_x
 _atom_site_fract_y
 _atom_site_fract_z
 _atom_site_occupancy
  Li  Li0  1  0.500000  0.104578  0.893183  1
  Ce  Ce1  1  0.500000  0.332485  0.664279  1
  Ce  Ce2  1  0.000000  0.671389  0.339489  1
  Ni  Ni3  1  0.000000  0.873308  0.725227  1
  Ni  Ni4  1  0.000000  0.281990  0.152842  1
  Ni  Ni5  1  0.000000  0.843371  0.128049  1
  Ni  Ni6  1  0.500000  0.952865  0.566319  1
  Ni  Ni7  1  0.500000  0.428976  0.382366  1
  Ni  Ni8  1  0.500000  0.615566  0.042779  1
  Ni  Ni9  1  0.000000  0.380028  0.946549  1
  Ni  Ni10  1  0.000000  0.054575  0.431657  1
  Ni  Ni11  1  0.000000  0.562787  0.617214  1
  Ni  Ni12  1  0.500000  0.098518  0.210825  1
  Ni  Ni13  1  0.500000  0.795988  0.896401  1
  As  As14  1  0.500000  0.709925  0.604740  1
  As  As15  1  0.500000  0.410993  0.114870  1
  As  As16  1  0.500000  0.891051  0.291212  1
  As  As17  1  0.000000  0.996964  0.005014  1
  As  As18  1  0.000000  0.110492  0.703499  1
  As  As19  1  0.000000  0.287944  0.399747  1
  As  As20  1  0.000000  0.596210  0.883737  1
