# generated using pymatgen
data_PrDy(PdO2)4
_symmetry_space_group_name_H-M   'P 1'
_cell_length_a   6.58978872
_cell_length_b   6.58978924
_cell_length_c   6.58978960
_cell_angle_alpha   126.85298296
_cell_angle_beta   126.85299529
_cell_angle_gamma   78.49065880
_symmetry_Int_Tables_number   1
_chemical_formula_structural   PrDy(PdO2)4
_chemical_formula_sum   'Pr1 Dy1 Pd4 O8'
_cell_volume   177.39892103
_cell_formula_units_Z   1
loop_
 _symmetry_equiv_pos_site_id
 _symmetry_equiv_pos_as_xyz
  1  'x, y, z'
loop_
 _atom_site_type_symbol
 _atom_site_label
 _atom_site_symmetry_multiplicity
 _atom_site_fract_x
 _atom_site_fract_y
 _atom_site_fract_z
 _atom_site_occupancy
  Pr  Pr0  1  0.750000  0.250000  0.500000  1
  Dy  Dy1  1  0.000000  0.000000  0.000000  1
  Pd  Pd2  1  0.372687  0.627907  0.751155  1
  Pd  Pd3  1  0.372093  0.123248  0.744781  1
  Pd  Pd4  1  0.378467  0.627313  0.255219  1
  Pd  Pd5  1  0.876752  0.621533  0.248845  1
  O  O6  1  0.998146  0.948155  0.340020  1
  O  O7  1  0.713818  0.853917  0.467950  1
  O  O8  1  0.385966  0.245869  0.532050  1
  O  O9  1  0.608135  0.658125  0.659980  1
  O  O10  1  0.754131  0.286182  0.140099  1
  O  O11  1  0.051845  0.391865  0.049991  1
  O  O12  1  0.146083  0.614034  0.859901  1
  O  O13  1  0.341875  0.001854  0.950009  1
