# generated using pymatgen
data_EuDySi4N7
_symmetry_space_group_name_H-M   'P 1'
_cell_length_a   6.04802600
_cell_length_b   6.04802623
_cell_length_c   9.88300800
_cell_angle_alpha   90.00000000
_cell_angle_beta   90.00000000
_cell_angle_gamma   119.99998781
_symmetry_Int_Tables_number   1
_chemical_formula_structural   EuDySi4N7
_chemical_formula_sum   'Eu2 Dy2 Si8 N14'
_cell_volume   313.07410474
_cell_formula_units_Z   2
loop_
 _symmetry_equiv_pos_site_id
 _symmetry_equiv_pos_as_xyz
  1  'x, y, z'
loop_
 _atom_site_type_symbol
 _atom_site_label
 _atom_site_symmetry_multiplicity
 _atom_site_fract_x
 _atom_site_fract_y
 _atom_site_fract_z
 _atom_site_occupancy
  Eu  Eu0  1  0.333333  0.666667  0.372798  1
  Eu  Eu1  1  0.666667  0.333333  0.872798  1
  Dy  Dy2  1  0.333333  0.666667  0.737107  1
  Dy  Dy3  1  0.666667  0.333333  0.237107  1
  Si  Si4  1  0.826299  0.652597  0.545938  1
  Si  Si5  1  0.173701  0.826299  0.045938  1
  Si  Si6  1  0.652597  0.826299  0.045938  1
  Si  Si7  1  0.347403  0.173701  0.545938  1
  Si  Si8  1  0.826299  0.173701  0.545938  1
  Si  Si9  1  0.173701  0.347403  0.045938  1
  Si  Si10  1  0.000000  0.000000  0.813167  1
  Si  Si11  1  0.000000  0.000000  0.313167  1
  N  N12  1  0.000000  0.000000  0.622722  1
  N  N13  1  0.000000  0.000000  0.122722  1
  N  N14  1  0.152940  0.305881  0.873260  1
  N  N15  1  0.847060  0.152940  0.373260  1
  N  N16  1  0.305881  0.152940  0.373260  1
  N  N17  1  0.694119  0.847060  0.873260  1
  N  N18  1  0.152940  0.847060  0.873260  1
  N  N19  1  0.847060  0.694119  0.373260  1
  N  N20  1  0.978457  0.489229  0.596838  1
  N  N21  1  0.489229  0.978457  0.096838  1
  N  N22  1  0.489229  0.510771  0.096838  1
  N  N23  1  0.510771  0.489229  0.596838  1
  N  N24  1  0.021543  0.510771  0.096838  1
  N  N25  1  0.510771  0.021543  0.596838  1
