# generated using pymatgen
data_LiCrSnSe4
_symmetry_space_group_name_H-M   'P 1'
_cell_length_a   7.75689529
_cell_length_b   7.75689456
_cell_length_c   7.75689525
_cell_angle_alpha   121.15834829
_cell_angle_beta   118.60472378
_cell_angle_gamma   90.21948281
_symmetry_Int_Tables_number   1
_chemical_formula_structural   LiCrSnSe4
_chemical_formula_sum   'Li2 Cr2 Sn2 Se8'
_cell_volume   330.41047293
_cell_formula_units_Z   2
loop_
 _symmetry_equiv_pos_site_id
 _symmetry_equiv_pos_as_xyz
  1  'x, y, z'
loop_
 _atom_site_type_symbol
 _atom_site_label
 _atom_site_symmetry_multiplicity
 _atom_site_fract_x
 _atom_site_fract_y
 _atom_site_fract_z
 _atom_site_occupancy
  Li  Li0  1  0.883508  0.633508  0.250000  1
  Li  Li1  1  0.116492  0.366492  0.750000  1
  Cr  Cr2  1  0.500000  0.000000  0.000000  1
  Cr  Cr3  1  0.500000  0.500000  0.500000  1
  Sn  Sn4  1  0.500000  0.000000  0.500000  1
  Sn  Sn5  1  0.000000  0.000000  0.000000  1
  Se  Se6  1  0.732914  0.734389  0.501475  1
  Se  Se7  1  0.732914  0.231439  0.998525  1
  Se  Se8  1  0.719568  0.751377  0.968191  1
  Se  Se9  1  0.283186  0.751377  0.531809  1
  Se  Se10  1  0.267086  0.265611  0.498525  1
  Se  Se11  1  0.267086  0.768561  0.001475  1
  Se  Se12  1  0.280432  0.248623  0.031809  1
  Se  Se13  1  0.716814  0.248623  0.468191  1
