# generated using pymatgen
data_Hf4BRu10(PtC)2
_symmetry_space_group_name_H-M   'P 1'
_cell_length_a   4.08404000
_cell_length_b   4.08404000
_cell_length_c   16.17906900
_cell_angle_alpha   90.00000000
_cell_angle_beta   90.00000000
_cell_angle_gamma   90.00000000
_symmetry_Int_Tables_number   1
_chemical_formula_structural   Hf4BRu10(PtC)2
_chemical_formula_sum   'Hf4 B1 Ru10 Pt2 C2'
_cell_volume   269.85688393
_cell_formula_units_Z   1
loop_
 _symmetry_equiv_pos_site_id
 _symmetry_equiv_pos_as_xyz
  1  'x, y, z'
loop_
 _atom_site_type_symbol
 _atom_site_label
 _atom_site_symmetry_multiplicity
 _atom_site_fract_x
 _atom_site_fract_y
 _atom_site_fract_z
 _atom_site_occupancy
  Hf  Hf0  1  0.000000  0.000000  0.876856  1
  Hf  Hf1  1  0.000000  0.000000  0.123144  1
  Hf  Hf2  1  0.000000  0.000000  0.377303  1
  Hf  Hf3  1  0.000000  0.000000  0.622697  1
  B  B4  1  0.500000  0.500000  0.500000  1
  Ru  Ru5  1  0.500000  0.500000  0.878510  1
  Ru  Ru6  1  0.500000  0.500000  0.121490  1
  Ru  Ru7  1  0.500000  0.500000  0.370861  1
  Ru  Ru8  1  0.500000  0.500000  0.629139  1
  Ru  Ru9  1  0.500000  0.000000  0.247495  1
  Ru  Ru10  1  0.500000  0.000000  0.500000  1
  Ru  Ru11  1  0.500000  0.000000  0.752505  1
  Ru  Ru12  1  0.000000  0.500000  0.247495  1
  Ru  Ru13  1  0.000000  0.500000  0.500000  1
  Ru  Ru14  1  0.000000  0.500000  0.752505  1
  Pt  Pt15  1  0.500000  0.000000  0.000000  1
  Pt  Pt16  1  0.000000  0.500000  0.000000  1
  C  C17  1  0.500000  0.500000  0.243496  1
  C  C18  1  0.500000  0.500000  0.756504  1
