# generated using pymatgen
data_PaB4Os
_symmetry_space_group_name_H-M   'P 1'
_cell_length_a   6.00251400
_cell_length_b   11.64110100
_cell_length_c   3.60795400
_cell_angle_alpha   90.00000000
_cell_angle_beta   90.00000000
_cell_angle_gamma   90.00000000
_symmetry_Int_Tables_number   1
_chemical_formula_structural   PaB4Os
_chemical_formula_sum   'Pa4 B16 Os4'
_cell_volume   252.10893090
_cell_formula_units_Z   4
loop_
 _symmetry_equiv_pos_site_id
 _symmetry_equiv_pos_as_xyz
  1  'x, y, z'
loop_
 _atom_site_type_symbol
 _atom_site_label
 _atom_site_symmetry_multiplicity
 _atom_site_fract_x
 _atom_site_fract_y
 _atom_site_fract_z
 _atom_site_occupancy
  Pa  Pa0  1  0.129091  0.149690  0.000000  1
  Pa  Pa1  1  0.870908  0.850310  0.000000  1
  Pa  Pa2  1  0.629093  0.350310  0.000000  1
  Pa  Pa3  1  0.370908  0.649690  0.000000  1
  B  B4  1  0.472668  0.191350  0.500002  1
  B  B5  1  0.527333  0.808650  0.500002  1
  B  B6  1  0.972668  0.308650  0.500002  1
  B  B7  1  0.027333  0.691350  0.500002  1
  B  B8  1  0.289063  0.311037  0.500002  1
  B  B9  1  0.710937  0.688964  0.500002  1
  B  B10  1  0.789064  0.188964  0.500002  1
  B  B11  1  0.210935  0.811037  0.500002  1
  B  B12  1  0.365778  0.467923  0.500002  1
  B  B13  1  0.634221  0.532077  0.500002  1
  B  B14  1  0.865779  0.032077  0.500002  1
  B  B15  1  0.134222  0.967923  0.500002  1
  B  B16  1  0.386706  0.045691  0.500002  1
  B  B17  1  0.613295  0.954308  0.500002  1
  B  B18  1  0.886706  0.454309  0.500002  1
  B  B19  1  0.113293  0.545691  0.500002  1
  Os  Os20  1  0.142897  0.404591  0.000000  1
  Os  Os21  1  0.857103  0.595408  0.000000  1
  Os  Os22  1  0.642898  0.095409  0.000000  1
  Os  Os23  1  0.357103  0.904591  0.000000  1
