# generated using pymatgen
data_Nd8AgHgPt2
_symmetry_space_group_name_H-M   'P 1'
_cell_length_a   9.97086608
_cell_length_b   9.97094796
_cell_length_c   9.96240000
_cell_angle_alpha   60.02835413
_cell_angle_beta   60.02801576
_cell_angle_gamma   60.04949632
_symmetry_Int_Tables_number   1
_chemical_formula_structural   Nd8AgHgPt2
_chemical_formula_sum   'Nd16 Ag2 Hg2 Pt4'
_cell_volume   700.91527687
_cell_formula_units_Z   2
loop_
 _symmetry_equiv_pos_site_id
 _symmetry_equiv_pos_as_xyz
  1  'x, y, z'
loop_
 _atom_site_type_symbol
 _atom_site_label
 _atom_site_symmetry_multiplicity
 _atom_site_fract_x
 _atom_site_fract_y
 _atom_site_fract_z
 _atom_site_occupancy
  Nd  Nd0  1  0.352345  0.352346  0.351900  1
  Nd  Nd1  1  0.352345  0.352346  0.943407  1
  Nd  Nd2  1  0.354466  0.939095  0.353220  1
  Nd  Nd3  1  0.939096  0.354465  0.353220  1
  Nd  Nd4  1  0.810581  0.190126  0.191255  1
  Nd  Nd5  1  0.190127  0.810581  0.808037  1
  Nd  Nd6  1  0.190129  0.810581  0.191252  1
  Nd  Nd7  1  0.810581  0.190125  0.808039  1
  Nd  Nd8  1  0.192079  0.192082  0.807919  1
  Nd  Nd9  1  0.809965  0.809966  0.190035  1
  Nd  Nd10  1  0.934743  0.562792  0.565275  1
  Nd  Nd11  1  0.562791  0.934745  0.937187  1
  Nd  Nd12  1  0.562792  0.934746  0.565276  1
  Nd  Nd13  1  0.934743  0.562791  0.937190  1
  Nd  Nd14  1  0.562941  0.562939  0.937060  1
  Nd  Nd15  1  0.936155  0.936153  0.563846  1
  Ag  Ag16  1  0.584403  0.584407  0.582653  1
  Ag  Ag17  1  0.584404  0.584407  0.248536  1
  Hg  Hg18  1  0.585537  0.249228  0.582618  1
  Hg  Hg19  1  0.249228  0.585538  0.582617  1
  Pt  Pt20  1  0.143889  0.143887  0.144564  1
  Pt  Pt21  1  0.143891  0.143888  0.567659  1
  Pt  Pt22  1  0.142972  0.569793  0.143617  1
  Pt  Pt23  1  0.569795  0.142971  0.143617  1
