# generated using pymatgen
data_Er4TmCo19(Si3P)3
_symmetry_space_group_name_H-M   'P 1'
_cell_length_a   12.09553802
_cell_length_b   12.09661844
_cell_length_c   3.68439700
_cell_angle_alpha   90.00000000
_cell_angle_beta   90.00000000
_cell_angle_gamma   120.00295463
_symmetry_Int_Tables_number   1
_chemical_formula_structural   Er4TmCo19(Si3P)3
_chemical_formula_sum   'Er4 Tm1 Co19 Si9 P3'
_cell_volume   466.84562552
_cell_formula_units_Z   1
loop_
 _symmetry_equiv_pos_site_id
 _symmetry_equiv_pos_as_xyz
  1  'x, y, z'
loop_
 _atom_site_type_symbol
 _atom_site_label
 _atom_site_symmetry_multiplicity
 _atom_site_fract_x
 _atom_site_fract_y
 _atom_site_fract_z
 _atom_site_occupancy
  Er  Er0  1  0.666648  0.333368  0.000000  1
  Er  Er1  1  0.333352  0.666721  0.000000  1
  Er  Er2  1  0.184249  0.184226  0.500000  1
  Er  Er3  1  0.815751  0.999977  0.500000  1
  Tm  Tm4  1  0.000000  0.815714  0.500000  1
  Co  Co5  1  0.824326  0.197001  0.000000  1
  Co  Co6  1  0.803287  0.627568  0.000000  1
  Co  Co7  1  0.372560  0.175564  0.000000  1
  Co  Co8  1  0.196713  0.824283  0.000000  1
  Co  Co9  1  0.627440  0.803006  0.000000  1
  Co  Co10  1  0.175674  0.372677  0.000000  1
  Co  Co11  1  0.557716  0.557682  0.000000  1
  Co  Co12  1  0.442284  0.999966  0.000000  1
  Co  Co13  1  0.000000  0.442429  0.000000  1
  Co  Co14  1  0.645153  0.123726  0.500000  1
  Co  Co15  1  0.876351  0.521605  0.500000  1
  Co  Co16  1  0.478570  0.354843  0.500000  1
  Co  Co17  1  0.123649  0.645253  0.500000  1
  Co  Co18  1  0.521430  0.876272  0.500000  1
  Co  Co19  1  0.354847  0.478572  0.500000  1
  Co  Co20  1  0.722718  0.722562  0.500000  1
  Co  Co21  1  0.277282  0.999844  0.500000  1
  Co  Co22  1  0.000000  0.277515  0.500000  1
  Co  Co23  1  0.000000  0.999753  0.000000  1
  Si  Si24  1  0.369488  0.369364  0.000000  1
  Si  Si25  1  0.630512  0.999876  0.000000  1
  Si  Si26  1  0.000000  0.630837  0.000000  1
  Si  Si27  1  0.840208  0.318629  0.500000  1
  Si  Si28  1  0.681394  0.521653  0.500000  1
  Si  Si29  1  0.478144  0.159712  0.500000  1
  Si  Si30  1  0.318606  0.840258  0.500000  1
  Si  Si31  1  0.521856  0.681567  0.500000  1
  Si  Si32  1  0.159792  0.478421  0.500000  1
  P  P33  1  0.819467  0.819182  0.000000  1
  P  P34  1  0.180533  0.999715  0.000000  1
  P  P35  1  0.000000  0.180663  0.000000  1
