# generated using pymatgen
data_Ce2AlCo2Au
_symmetry_space_group_name_H-M   'P 1'
_cell_length_a   6.08150748
_cell_length_b   6.08150770
_cell_length_c   4.63556124
_cell_angle_alpha   74.14611261
_cell_angle_beta   74.14610912
_cell_angle_gamma   43.21782803
_symmetry_Int_Tables_number   1
_chemical_formula_structural   Ce2AlCo2Au
_chemical_formula_sum   'Ce2 Al1 Co2 Au1'
_cell_volume   112.21848572
_cell_formula_units_Z   1
loop_
 _symmetry_equiv_pos_site_id
 _symmetry_equiv_pos_as_xyz
  1  'x, y, z'
loop_
 _atom_site_type_symbol
 _atom_site_label
 _atom_site_symmetry_multiplicity
 _atom_site_fract_x
 _atom_site_fract_y
 _atom_site_fract_z
 _atom_site_occupancy
  Ce  Ce0  1  0.866646  0.866646  0.333754  1
  Ce  Ce1  1  0.130533  0.130533  0.661021  1
  Al  Al2  1  0.419208  0.419208  0.801226  1
  Co  Co3  1  0.205174  0.205174  0.151434  1
  Co  Co4  1  0.809003  0.809003  0.860454  1
  Au  Au5  1  0.569436  0.569436  0.192112  1
