# generated using pymatgen
data_Ca2DyY(NiAs)4
_symmetry_space_group_name_H-M   'P 1'
_cell_length_a   4.04536500
_cell_length_b   4.04536537
_cell_length_c   16.20939900
_cell_angle_alpha   90.00000000
_cell_angle_beta   90.00000000
_cell_angle_gamma   120.00000512
_symmetry_Int_Tables_number   1
_chemical_formula_structural   Ca2DyY(NiAs)4
_chemical_formula_sum   'Ca2 Dy1 Y1 Ni4 As4'
_cell_volume   229.72750053
_cell_formula_units_Z   1
loop_
 _symmetry_equiv_pos_site_id
 _symmetry_equiv_pos_as_xyz
  1  'x, y, z'
loop_
 _atom_site_type_symbol
 _atom_site_label
 _atom_site_symmetry_multiplicity
 _atom_site_fract_x
 _atom_site_fract_y
 _atom_site_fract_z
 _atom_site_occupancy
  Ca  Ca0  1  0.000000  0.000000  0.999643  1
  Ca  Ca1  1  0.000000  0.000000  0.500357  1
  Dy  Dy2  1  0.000000  0.000000  0.750000  1
  Y  Y3  1  0.000000  0.000000  0.250000  1
  Ni  Ni4  1  0.333333  0.666667  0.133862  1
  Ni  Ni5  1  0.666667  0.333333  0.864533  1
  Ni  Ni6  1  0.666667  0.333333  0.635467  1
  Ni  Ni7  1  0.333333  0.666667  0.366138  1
  As  As8  1  0.333333  0.666667  0.626112  1
  As  As9  1  0.666667  0.333333  0.374218  1
  As  As10  1  0.666667  0.333333  0.125782  1
  As  As11  1  0.333333  0.666667  0.873888  1
