# generated using pymatgen
data_CaTa3Hg3SbO14
_symmetry_space_group_name_H-M   'P 1'
_cell_length_a   7.43850449
_cell_length_b   7.55624859
_cell_length_c   7.40880488
_cell_angle_alpha   60.44464769
_cell_angle_beta   59.86731361
_cell_angle_gamma   60.51413823
_symmetry_Int_Tables_number   1
_chemical_formula_structural   CaTa3Hg3SbO14
_chemical_formula_sum   'Ca1 Ta3 Hg3 Sb1 O14'
_cell_volume   296.27180974
_cell_formula_units_Z   1
loop_
 _symmetry_equiv_pos_site_id
 _symmetry_equiv_pos_as_xyz
  1  'x, y, z'
loop_
 _atom_site_type_symbol
 _atom_site_label
 _atom_site_symmetry_multiplicity
 _atom_site_fract_x
 _atom_site_fract_y
 _atom_site_fract_z
 _atom_site_occupancy
  Ca  Ca0  1  0.125000  0.625000  0.125000  1
  Ta  Ta1  1  0.625000  0.125000  0.625000  1
  Ta  Ta2  1  0.125000  0.625000  0.625000  1
  Ta  Ta3  1  0.625000  0.625000  0.625000  1
  Hg  Hg4  1  0.125000  0.125000  0.625000  1
  Hg  Hg5  1  0.625000  0.125000  0.125000  1
  Hg  Hg6  1  0.125000  0.125000  0.125000  1
  Sb  Sb7  1  0.625000  0.625000  0.125000  1
  O  O8  1  0.306304  0.686517  0.305006  1
  O  O9  1  0.564774  0.934331  0.562675  1
  O  O10  1  0.311782  0.315669  0.687325  1
  O  O11  1  0.690429  0.311546  0.307597  1
  O  O12  1  0.308954  0.682271  0.699822  1
  O  O13  1  0.702173  0.686517  0.305006  1
  O  O14  1  0.938218  0.934331  0.562675  1
  O  O15  1  0.547827  0.563483  0.944994  1
  O  O16  1  0.995561  0.017151  0.991727  1
  O  O17  1  0.254439  0.232849  0.258273  1
  O  O18  1  0.685226  0.315669  0.687325  1
  O  O19  1  0.941046  0.567729  0.550178  1
  O  O20  1  0.559571  0.938454  0.942403  1
  O  O21  1  0.943696  0.563483  0.944994  1
