# generated using pymatgen
data_Pa3Ni2Sb4Os
_symmetry_space_group_name_H-M   'P 1'
_cell_length_a   8.25499045
_cell_length_b   8.25068900
_cell_length_c   8.25068825
_cell_angle_alpha   109.84409204
_cell_angle_beta   109.31149989
_cell_angle_gamma   109.31150722
_symmetry_Int_Tables_number   1
_chemical_formula_structural   Pa3Ni2Sb4Os
_chemical_formula_sum   'Pa6 Ni4 Sb8 Os2'
_cell_volume   432.29373730
_cell_formula_units_Z   2
loop_
 _symmetry_equiv_pos_site_id
 _symmetry_equiv_pos_as_xyz
  1  'x, y, z'
loop_
 _atom_site_type_symbol
 _atom_site_label
 _atom_site_symmetry_multiplicity
 _atom_site_fract_x
 _atom_site_fract_y
 _atom_site_fract_z
 _atom_site_occupancy
  Pa  Pa0  1  0.626507  0.374592  0.249617  1
  Pa  Pa1  1  0.375243  0.252708  0.625655  1
  Pa  Pa2  1  0.126507  0.749617  0.874592  1
  Pa  Pa3  1  0.748106  0.875690  0.122452  1
  Pa  Pa4  1  0.248106  0.622452  0.375690  1
  Pa  Pa5  1  0.875243  0.125655  0.752708  1
  Ni  Ni6  1  0.625840  0.750712  0.375015  1
  Ni  Ni7  1  0.748177  0.374303  0.624021  1
  Ni  Ni8  1  0.248177  0.124021  0.874303  1
  Ni  Ni9  1  0.125840  0.875015  0.250712  1
  Sb  Sb10  1  0.494693  0.004081  0.827325  1
  Sb  Sb11  1  0.172977  0.163814  0.168324  1
  Sb  Sb12  1  0.832255  0.504970  0.996147  1
  Sb  Sb13  1  0.000010  0.835555  0.499698  1
  Sb  Sb14  1  0.332255  0.496147  0.004970  1
  Sb  Sb15  1  0.994693  0.327325  0.504081  1
  Sb  Sb16  1  0.500010  0.999698  0.335555  1
  Sb  Sb17  1  0.672977  0.668324  0.663814  1
  Os  Os18  1  0.876193  0.250857  0.124463  1
  Os  Os19  1  0.376193  0.624463  0.750857  1
