# generated using pymatgen
data_Zr6NpFe22
_symmetry_space_group_name_H-M   'P 1'
_cell_length_a   8.28188002
_cell_length_b   8.28129576
_cell_length_c   8.28188002
_cell_angle_alpha   120.00049894
_cell_angle_beta   89.99899668
_cell_angle_gamma   120.00050290
_symmetry_Int_Tables_number   1
_chemical_formula_structural   Zr6NpFe22
_chemical_formula_sum   'Zr6 Np1 Fe22'
_cell_volume   401.64132602
_cell_formula_units_Z   1
loop_
 _symmetry_equiv_pos_site_id
 _symmetry_equiv_pos_as_xyz
  1  'x, y, z'
loop_
 _atom_site_type_symbol
 _atom_site_label
 _atom_site_symmetry_multiplicity
 _atom_site_fract_x
 _atom_site_fract_y
 _atom_site_fract_z
 _atom_site_occupancy
  Zr  Zr0  1  0.703480  0.000004  0.296525  1
  Zr  Zr1  1  0.296515  0.999975  0.296515  1
  Zr  Zr2  1  0.296525  0.593061  0.296525  1
  Zr  Zr3  1  0.703478  0.000017  0.703478  1
  Zr  Zr4  1  0.296525  0.000004  0.703480  1
  Zr  Zr5  1  0.703471  0.406919  0.703471  1
  Np  Np6  1  0.000085  0.000077  0.000085  1
  Fe  Fe7  1  0.500007  0.000006  0.999988  1
  Fe  Fe8  1  0.999981  0.499974  0.999981  1
  Fe  Fe9  1  0.499998  0.499991  0.999996  1
  Fe  Fe10  1  0.672269  0.344533  0.016803  1
  Fe  Fe11  1  0.364799  0.243181  0.121565  1
  Fe  Fe12  1  0.878390  0.243249  0.121588  1
  Fe  Fe13  1  0.878381  0.756721  0.121590  1
  Fe  Fe14  1  0.672283  0.344563  0.327699  1
  Fe  Fe15  1  0.672298  0.655438  0.327709  1
  Fe  Fe16  1  0.983204  0.655475  0.327732  1
  Fe  Fe17  1  0.121565  0.243181  0.364799  1
  Fe  Fe18  1  0.999988  0.000006  0.500007  1
  Fe  Fe19  1  0.999996  0.499991  0.499998  1
  Fe  Fe20  1  0.500002  0.500011  0.500002  1
  Fe  Fe21  1  0.878427  0.756817  0.635205  1
  Fe  Fe22  1  0.016803  0.344533  0.672269  1
  Fe  Fe23  1  0.327699  0.344563  0.672283  1
  Fe  Fe24  1  0.327709  0.655438  0.672298  1
  Fe  Fe25  1  0.121588  0.243249  0.878390  1
  Fe  Fe26  1  0.121590  0.756721  0.878381  1
  Fe  Fe27  1  0.635205  0.756817  0.878427  1
  Fe  Fe28  1  0.327732  0.655475  0.983204  1
