# generated using pymatgen
data_ZrTa3(NbN2)6
_symmetry_space_group_name_H-M   'P 1'
_cell_length_a   5.27833200
_cell_length_b   5.27833235
_cell_length_c   10.48135500
_cell_angle_alpha   90.00000000
_cell_angle_beta   90.00000000
_cell_angle_gamma   119.99999784
_symmetry_Int_Tables_number   1
_chemical_formula_structural   ZrTa3(NbN2)6
_chemical_formula_sum   'Zr1 Ta3 Nb6 N12'
_cell_volume   252.89573592
_cell_formula_units_Z   1
loop_
 _symmetry_equiv_pos_site_id
 _symmetry_equiv_pos_as_xyz
  1  'x, y, z'
loop_
 _atom_site_type_symbol
 _atom_site_label
 _atom_site_symmetry_multiplicity
 _atom_site_fract_x
 _atom_site_fract_y
 _atom_site_fract_z
 _atom_site_occupancy
  Zr  Zr0  1  0.666667  0.333333  0.000000  1
  Ta  Ta1  1  0.333333  0.666667  0.000000  1
  Ta  Ta2  1  0.333333  0.666667  0.500000  1
  Ta  Ta3  1  0.666667  0.333333  0.500000  1
  Nb  Nb4  1  0.677443  0.676203  0.747843  1
  Nb  Nb5  1  0.323797  0.001240  0.747843  1
  Nb  Nb6  1  0.998760  0.322557  0.747843  1
  Nb  Nb7  1  0.323797  0.322557  0.252157  1
  Nb  Nb8  1  0.677443  0.001240  0.252157  1
  Nb  Nb9  1  0.998760  0.676203  0.252157  1
  N  N10  1  0.657940  0.657936  0.381769  1
  N  N11  1  0.342064  0.000005  0.381769  1
  N  N12  1  0.999995  0.342060  0.381769  1
  N  N13  1  0.342064  0.342060  0.618231  1
  N  N14  1  0.657940  0.000005  0.618231  1
  N  N15  1  0.999995  0.657936  0.618231  1
  N  N16  1  0.337061  0.347160  0.876193  1
  N  N17  1  0.652840  0.989901  0.876193  1
  N  N18  1  0.010099  0.662939  0.876193  1
  N  N19  1  0.652840  0.662939  0.123807  1
  N  N20  1  0.337061  0.989901  0.123807  1
  N  N21  1  0.010099  0.347160  0.123807  1
