# generated using pymatgen
data_Zr6Al7Cu2(Ni3Pd4)2
_symmetry_space_group_name_H-M   'P 1'
_cell_length_a   8.56591389
_cell_length_b   8.55681401
_cell_length_c   8.55681412
_cell_angle_alpha   59.93927110
_cell_angle_beta   59.96481445
_cell_angle_gamma   59.96480495
_symmetry_Int_Tables_number   1
_chemical_formula_structural   Zr6Al7Cu2(Ni3Pd4)2
_chemical_formula_sum   'Zr6 Al7 Cu2 Ni6 Pd8'
_cell_volume   443.04943050
_cell_formula_units_Z   1
loop_
 _symmetry_equiv_pos_site_id
 _symmetry_equiv_pos_as_xyz
  1  'x, y, z'
loop_
 _atom_site_type_symbol
 _atom_site_label
 _atom_site_symmetry_multiplicity
 _atom_site_fract_x
 _atom_site_fract_y
 _atom_site_fract_z
 _atom_site_occupancy
  Zr  Zr0  1  0.694112  0.702785  0.301714  1
  Zr  Zr1  1  0.301390  0.702785  0.301714  1
  Zr  Zr2  1  0.698130  0.301870  0.301870  1
  Zr  Zr3  1  0.301390  0.301714  0.702785  1
  Zr  Zr4  1  0.694112  0.301714  0.702785  1
  Zr  Zr5  1  0.301332  0.698668  0.698668  1
  Al  Al6  1  0.000271  0.999729  0.999729  1
  Al  Al7  1  0.000245  0.996702  0.502250  1
  Al  Al8  1  0.500804  0.996702  0.502250  1
  Al  Al9  1  0.996815  0.503185  0.503185  1
  Al  Al10  1  0.500804  0.502250  0.996702  1
  Al  Al11  1  0.000245  0.502250  0.996702  1
  Al  Al12  1  0.499762  0.000238  0.000238  1
  Cu  Cu13  1  0.009945  0.330229  0.330229  1
  Cu  Cu14  1  0.329596  0.330229  0.330229  1
  Ni  Ni15  1  0.661943  0.660021  0.016092  1
  Ni  Ni16  1  0.661943  0.016092  0.660021  1
  Ni  Ni17  1  0.011082  0.662468  0.662468  1
  Ni  Ni18  1  0.663982  0.662468  0.662468  1
  Ni  Ni19  1  0.337017  0.337566  0.988400  1
  Ni  Ni20  1  0.337017  0.988400  0.337566  1
  Pd  Pd21  1  0.878610  0.880244  0.362537  1
  Pd  Pd22  1  0.878610  0.362537  0.880244  1
  Pd  Pd23  1  0.366027  0.878600  0.878600  1
  Pd  Pd24  1  0.876774  0.878600  0.878600  1
  Pd  Pd25  1  0.120034  0.120074  0.639856  1
  Pd  Pd26  1  0.120034  0.639856  0.120074  1
  Pd  Pd27  1  0.637492  0.121012  0.121012  1
  Pd  Pd28  1  0.120482  0.121012  0.121012  1
