# generated using pymatgen
data_Tb2Al4Ga5Ir3
_symmetry_space_group_name_H-M   'P 1'
_cell_length_a   7.56353552
_cell_length_b   7.56045480
_cell_length_c   9.58018098
_cell_angle_alpha   90.16495619
_cell_angle_beta   89.87047401
_cell_angle_gamma   119.70206546
_symmetry_Int_Tables_number   1
_chemical_formula_structural   Tb2Al4Ga5Ir3
_chemical_formula_sum   'Tb4 Al8 Ga10 Ir6'
_cell_volume   475.85116535
_cell_formula_units_Z   2
loop_
 _symmetry_equiv_pos_site_id
 _symmetry_equiv_pos_as_xyz
  1  'x, y, z'
loop_
 _atom_site_type_symbol
 _atom_site_label
 _atom_site_symmetry_multiplicity
 _atom_site_fract_x
 _atom_site_fract_y
 _atom_site_fract_z
 _atom_site_occupancy
  Tb  Tb0  1  0.999034  0.669579  0.250044  1
  Tb  Tb1  1  0.004141  0.335124  0.753320  1
  Tb  Tb2  1  0.669463  0.997875  0.249948  1
  Tb  Tb3  1  0.325610  0.998997  0.746731  1
  Al  Al4  1  0.002227  0.333857  0.428574  1
  Al  Al5  1  0.666416  0.999288  0.573176  1
  Al  Al6  1  0.663960  0.997587  0.926780  1
  Al  Al7  1  0.335596  0.003224  0.071340  1
  Al  Al8  1  0.333469  0.332878  0.553737  1
  Al  Al9  1  0.667207  0.666597  0.446261  1
  Al  Al10  1  0.667297  0.666696  0.053724  1
  Al  Al11  1  0.332711  0.333482  0.946268  1
  Ga  Ga12  1  0.128866  0.127265  0.250064  1
  Ga  Ga13  1  0.869580  0.874538  0.749984  1
  Ga  Ga14  1  0.999036  0.333703  0.079349  1
  Ga  Ga15  1  0.999917  0.666470  0.922829  1
  Ga  Ga16  1  0.998073  0.663471  0.577235  1
  Ga  Ga17  1  0.336273  0.000367  0.420800  1
  Ga  Ga18  1  0.340634  0.546958  0.250410  1
  Ga  Ga19  1  0.655245  0.448850  0.749835  1
  Ga  Ga20  1  0.548841  0.343528  0.249518  1
  Ga  Ga21  1  0.455267  0.660689  0.750113  1
  Ir  Ir22  1  0.667043  0.326333  0.999204  1
  Ir  Ir23  1  0.332855  0.673676  0.000810  1
  Ir  Ir24  1  0.331031  0.668945  0.500688  1
  Ir  Ir25  1  0.671846  0.328076  0.499194  1
  Ir  Ir26  1  0.000191  0.000005  0.000008  1
  Ir  Ir27  1  0.998169  0.001943  0.500056  1
