# generated using pymatgen
data_TiCo6W
_symmetry_space_group_name_H-M   'P 1'
_cell_length_a   5.09061100
_cell_length_b   5.09061036
_cell_length_c   4.09759800
_cell_angle_alpha   90.00000000
_cell_angle_beta   90.00000000
_cell_angle_gamma   119.99999764
_symmetry_Int_Tables_number   1
_chemical_formula_structural   TiCo6W
_chemical_formula_sum   'Ti1 Co6 W1'
_cell_volume   91.96016886
_cell_formula_units_Z   1
loop_
 _symmetry_equiv_pos_site_id
 _symmetry_equiv_pos_as_xyz
  1  'x, y, z'
loop_
 _atom_site_type_symbol
 _atom_site_label
 _atom_site_symmetry_multiplicity
 _atom_site_fract_x
 _atom_site_fract_y
 _atom_site_fract_z
 _atom_site_occupancy
  Ti  Ti0  1  0.333333  0.666667  0.000000  1
  Co  Co1  1  0.680593  0.840297  0.500000  1
  Co  Co2  1  0.159703  0.840297  0.500000  1
  Co  Co3  1  0.159703  0.319407  0.500000  1
  Co  Co4  1  0.321495  0.160747  0.000000  1
  Co  Co5  1  0.839253  0.160747  0.000000  1
  Co  Co6  1  0.839253  0.678505  0.000000  1
  W  W7  1  0.666667  0.333333  0.500000  1
