# generated using pymatgen
data_Y3Hf4ThIr4
_symmetry_space_group_name_H-M   'P 1'
_cell_length_a   4.60298600
_cell_length_b   7.10198043
_cell_length_c   8.30980917
_cell_angle_alpha   90.72542392
_cell_angle_beta   90.00000000
_cell_angle_gamma   90.00000000
_symmetry_Int_Tables_number   1
_chemical_formula_structural   Y3Hf4ThIr4
_chemical_formula_sum   'Y3 Hf4 Th1 Ir4'
_cell_volume   271.62851889
_cell_formula_units_Z   1
loop_
 _symmetry_equiv_pos_site_id
 _symmetry_equiv_pos_as_xyz
  1  'x, y, z'
loop_
 _atom_site_type_symbol
 _atom_site_label
 _atom_site_symmetry_multiplicity
 _atom_site_fract_x
 _atom_site_fract_y
 _atom_site_fract_z
 _atom_site_occupancy
  Y  Y0  1  0.250000  0.484611  0.175102  1
  Y  Y1  1  0.750000  0.016665  0.682630  1
  Y  Y2  1  0.750000  0.517959  0.824434  1
  Hf  Hf3  1  0.250000  0.357012  0.577619  1
  Hf  Hf4  1  0.250000  0.860226  0.922284  1
  Hf  Hf5  1  0.750000  0.632073  0.428381  1
  Hf  Hf6  1  0.750000  0.146697  0.066379  1
  Th  Th7  1  0.250000  0.982957  0.323228  1
  Ir  Ir8  1  0.250000  0.231392  0.906593  1
  Ir  Ir9  1  0.250000  0.729034  0.588502  1
  Ir  Ir10  1  0.750000  0.777209  0.095111  1
  Ir  Ir11  1  0.750000  0.264165  0.409737  1
