# generated using pymatgen
data_Hf2GeIr4Rh
_symmetry_space_group_name_H-M   'P 1'
_cell_length_a   4.06441600
_cell_length_b   5.60263500
_cell_length_c   11.04656900
_cell_angle_alpha   90.00000000
_cell_angle_beta   90.00000000
_cell_angle_gamma   90.00000000
_symmetry_Int_Tables_number   1
_chemical_formula_structural   Hf2GeIr4Rh
_chemical_formula_sum   'Hf4 Ge2 Ir8 Rh2'
_cell_volume   251.54627586
_cell_formula_units_Z   2
loop_
 _symmetry_equiv_pos_site_id
 _symmetry_equiv_pos_as_xyz
  1  'x, y, z'
loop_
 _atom_site_type_symbol
 _atom_site_label
 _atom_site_symmetry_multiplicity
 _atom_site_fract_x
 _atom_site_fract_y
 _atom_site_fract_z
 _atom_site_occupancy
  Hf  Hf0  1  0.500000  0.182034  0.638714  1
  Hf  Hf1  1  0.500000  0.817966  0.361286  1
  Hf  Hf2  1  0.500000  0.682034  0.861286  1
  Hf  Hf3  1  0.500000  0.317966  0.138714  1
  Ge  Ge4  1  0.000000  0.500000  0.500000  1
  Ge  Ge5  1  0.000000  0.000000  0.000000  1
  Ir  Ir6  1  0.500000  0.188993  0.889728  1
  Ir  Ir7  1  0.500000  0.811007  0.110272  1
  Ir  Ir8  1  0.500000  0.688993  0.610272  1
  Ir  Ir9  1  0.500000  0.311007  0.389728  1
  Ir  Ir10  1  0.000000  0.436281  0.748238  1
  Ir  Ir11  1  0.000000  0.563719  0.251762  1
  Ir  Ir12  1  0.000000  0.063719  0.248238  1
  Ir  Ir13  1  0.000000  0.936281  0.751762  1
  Rh  Rh14  1  0.000000  0.000000  0.500000  1
  Rh  Rh15  1  0.000000  0.500000  0.000000  1
