# generated using pymatgen
data_Y20GaHg4Ru7
_symmetry_space_group_name_H-M   'P 1'
_cell_length_a   7.76443711
_cell_length_b   7.76443711
_cell_length_c   13.52337302
_cell_angle_alpha   90.00409529
_cell_angle_beta   90.00409529
_cell_angle_gamma   90.01874324
_symmetry_Int_Tables_number   1
_chemical_formula_structural   Y20GaHg4Ru7
_chemical_formula_sum   'Y20 Ga1 Hg4 Ru7'
_cell_volume   815.27655806
_cell_formula_units_Z   1
loop_
 _symmetry_equiv_pos_site_id
 _symmetry_equiv_pos_as_xyz
  1  'x, y, z'
loop_
 _atom_site_type_symbol
 _atom_site_label
 _atom_site_symmetry_multiplicity
 _atom_site_fract_x
 _atom_site_fract_y
 _atom_site_fract_z
 _atom_site_occupancy
  Y  Y0  1  0.839922  0.825824  0.888637  1
  Y  Y1  1  0.174176  0.160078  0.611363  1
  Y  Y2  1  0.842416  0.158790  0.386874  1
  Y  Y3  1  0.157127  0.841750  0.382741  1
  Y  Y4  1  0.342331  0.343102  0.383601  1
  Y  Y5  1  0.841210  0.157584  0.113126  1
  Y  Y6  1  0.334576  0.663960  0.884263  1
  Y  Y7  1  0.158250  0.842873  0.117259  1
  Y  Y8  1  0.499033  0.996697  0.751120  1
  Y  Y9  1  0.998252  0.498010  0.249079  1
  Y  Y10  1  0.336040  0.665424  0.615737  1
  Y  Y11  1  0.656898  0.657669  0.116399  1
  Y  Y12  1  0.649392  0.349385  0.614578  1
  Y  Y13  1  0.003303  0.500967  0.748880  1
  Y  Y14  1  0.838514  0.827066  0.611279  1
  Y  Y15  1  0.650615  0.350608  0.885422  1
  Y  Y16  1  0.172934  0.161486  0.888721  1
  Y  Y17  1  0.501990  0.001748  0.250921  1
  Y  Y18  1  0.658091  0.656554  0.383542  1
  Y  Y19  1  0.343446  0.341909  0.116458  1
  Ga  Ga20  1  0.870006  0.129994  0.750000  1
  Hg  Hg21  1  0.000448  0.498003  0.001080  1
  Hg  Hg22  1  0.501599  0.999517  0.000938  1
  Hg  Hg23  1  0.501997  0.999552  0.498920  1
  Hg  Hg24  1  0.000483  0.498401  0.499062  1
  Ru  Ru25  1  0.644907  0.355093  0.250000  1
  Ru  Ru26  1  0.357989  0.642011  0.250000  1
  Ru  Ru27  1  0.140702  0.144875  0.250043  1
  Ru  Ru28  1  0.361705  0.357962  0.749958  1
  Ru  Ru29  1  0.124485  0.875515  0.750000  1
  Ru  Ru30  1  0.855125  0.859298  0.249957  1
  Ru  Ru31  1  0.642038  0.638295  0.750042  1
