# generated using pymatgen
data_Dy2Ho10Co4SnIr
_symmetry_space_group_name_H-M   'P 1'
_cell_length_a   8.26867397
_cell_length_b   8.26867359
_cell_length_c   8.26560444
_cell_angle_alpha   106.85137276
_cell_angle_beta   110.36667655
_cell_angle_gamma   111.24273862
_symmetry_Int_Tables_number   1
_chemical_formula_structural   Dy2Ho10Co4SnIr
_chemical_formula_sum   'Dy2 Ho10 Co4 Sn1 Ir1'
_cell_volume   434.25056481
_cell_formula_units_Z   1
loop_
 _symmetry_equiv_pos_site_id
 _symmetry_equiv_pos_as_xyz
  1  'x, y, z'
loop_
 _atom_site_type_symbol
 _atom_site_label
 _atom_site_symmetry_multiplicity
 _atom_site_fract_x
 _atom_site_fract_y
 _atom_site_fract_z
 _atom_site_occupancy
  Dy  Dy0  1  0.196340  0.786767  0.983107  1
  Dy  Dy1  1  0.803660  0.213233  0.016893  1
  Ho  Ho2  1  0.472460  0.288817  0.183923  1
  Ho  Ho3  1  0.104895  0.288537  0.816077  1
  Ho  Ho4  1  0.895105  0.711463  0.183923  1
  Ho  Ho5  1  0.527540  0.711183  0.816077  1
  Ho  Ho6  1  0.305598  0.619838  0.314683  1
  Ho  Ho7  1  0.305155  0.990916  0.685317  1
  Ho  Ho8  1  0.694402  0.380162  0.685317  1
  Ho  Ho9  1  0.694845  0.009084  0.314683  1
  Ho  Ho10  1  0.196482  0.213102  0.409584  1
  Ho  Ho11  1  0.803518  0.786898  0.590416  1
  Co  Co12  1  0.500145  0.611794  0.111940  1
  Co  Co13  1  0.499855  0.388206  0.888060  1
  Co  Co14  1  0.378523  0.000174  0.378697  1
  Co  Co15  1  0.621477  0.999826  0.621303  1
  Sn  Sn16  1  0.000000  0.500000  0.500000  1
  Ir  Ir17  1  0.000000  0.000000  0.000000  1
