# generated using pymatgen
data_MgPaReB6
_symmetry_space_group_name_H-M   'P 1'
_cell_length_a   3.64379800
_cell_length_b   8.93092200
_cell_length_c   11.30459200
_cell_angle_alpha   90.00000000
_cell_angle_beta   90.00000000
_cell_angle_gamma   90.00000000
_symmetry_Int_Tables_number   1
_chemical_formula_structural   MgPaReB6
_chemical_formula_sum   'Mg4 Pa4 Re4 B24'
_cell_volume   367.87941070
_cell_formula_units_Z   4
loop_
 _symmetry_equiv_pos_site_id
 _symmetry_equiv_pos_as_xyz
  1  'x, y, z'
loop_
 _atom_site_type_symbol
 _atom_site_label
 _atom_site_symmetry_multiplicity
 _atom_site_fract_x
 _atom_site_fract_y
 _atom_site_fract_z
 _atom_site_occupancy
  Mg  Mg0  1  0.000000  0.946808  0.377984  1
  Mg  Mg1  1  0.000000  0.053192  0.622016  1
  Mg  Mg2  1  0.000000  0.446808  0.122016  1
  Mg  Mg3  1  0.000000  0.553192  0.877984  1
  Pa  Pa4  1  0.000000  0.320668  0.413680  1
  Pa  Pa5  1  0.000000  0.679332  0.586320  1
  Pa  Pa6  1  0.000000  0.820668  0.086320  1
  Pa  Pa7  1  0.000000  0.179332  0.913680  1
  Re  Re8  1  0.000000  0.640728  0.319476  1
  Re  Re9  1  0.000000  0.359272  0.680524  1
  Re  Re10  1  0.000000  0.140728  0.180524  1
  Re  Re11  1  0.000000  0.859272  0.819476  1
  B  B12  1  0.500000  0.555189  0.432977  1
  B  B13  1  0.500000  0.444811  0.567023  1
  B  B14  1  0.500000  0.055189  0.067023  1
  B  B15  1  0.500000  0.944811  0.932977  1
  B  B16  1  0.500000  0.754509  0.419704  1
  B  B17  1  0.500000  0.245491  0.580296  1
  B  B18  1  0.500000  0.254509  0.080296  1
  B  B19  1  0.500000  0.745491  0.919704  1
  B  B20  1  0.500000  0.792904  0.263362  1
  B  B21  1  0.500000  0.207096  0.736638  1
  B  B22  1  0.500000  0.292904  0.236638  1
  B  B23  1  0.500000  0.707096  0.763362  1
  B  B24  1  0.500000  0.628629  0.182276  1
  B  B25  1  0.500000  0.371371  0.817724  1
  B  B26  1  0.500000  0.128629  0.317724  1
  B  B27  1  0.500000  0.871371  0.682276  1
  B  B28  1  0.500000  0.981445  0.213226  1
  B  B29  1  0.500000  0.018555  0.786774  1
  B  B30  1  0.500000  0.481445  0.286774  1
  B  B31  1  0.500000  0.518555  0.713226  1
  B  B32  1  0.500000  0.598975  0.027588  1
  B  B33  1  0.500000  0.401025  0.972412  1
  B  B34  1  0.500000  0.098975  0.472412  1
  B  B35  1  0.500000  0.901025  0.527588  1
