# generated using pymatgen
data_Tc3HgSe4
_symmetry_space_group_name_H-M   'P 1'
_cell_length_a   12.98906200
_cell_length_b   6.63506508
_cell_length_c   12.32888793
_cell_angle_alpha   67.24167337
_cell_angle_beta   90.00000000
_cell_angle_gamma   90.00000000
_symmetry_Int_Tables_number   1
_chemical_formula_structural   Tc3HgSe4
_chemical_formula_sum   'Tc12 Hg4 Se16'
_cell_volume   979.81929003
_cell_formula_units_Z   4
loop_
 _symmetry_equiv_pos_site_id
 _symmetry_equiv_pos_as_xyz
  1  'x, y, z'
loop_
 _atom_site_type_symbol
 _atom_site_label
 _atom_site_symmetry_multiplicity
 _atom_site_fract_x
 _atom_site_fract_y
 _atom_site_fract_z
 _atom_site_occupancy
  Tc  Tc0  1  0.564994  0.027132  0.360790  1
  Tc  Tc1  1  0.935006  0.027132  0.860790  1
  Tc  Tc2  1  0.435006  0.972868  0.639210  1
  Tc  Tc3  1  0.064994  0.972868  0.139210  1
  Tc  Tc4  1  0.372780  0.971047  0.438527  1
  Tc  Tc5  1  0.127220  0.971047  0.938527  1
  Tc  Tc6  1  0.627220  0.028953  0.561473  1
  Tc  Tc7  1  0.872780  0.028953  0.061473  1
  Tc  Tc8  1  0.517677  0.695800  0.557562  1
  Tc  Tc9  1  0.982323  0.695800  0.057562  1
  Tc  Tc10  1  0.482323  0.304200  0.442438  1
  Tc  Tc11  1  0.017677  0.304200  0.942438  1
  Hg  Hg12  1  0.186895  0.940350  0.332288  1
  Hg  Hg13  1  0.313105  0.940350  0.832288  1
  Hg  Hg14  1  0.813105  0.059650  0.667712  1
  Hg  Hg15  1  0.686895  0.059650  0.167712  1
  Se  Se16  1  0.453841  0.726016  0.349298  1
  Se  Se17  1  0.046159  0.726016  0.849298  1
  Se  Se18  1  0.546159  0.273984  0.650702  1
  Se  Se19  1  0.953841  0.273984  0.150702  1
  Se  Se20  1  0.333268  0.658341  0.629487  1
  Se  Se21  1  0.166732  0.658341  0.129487  1
  Se  Se22  1  0.666732  0.341659  0.370513  1
  Se  Se23  1  0.833268  0.341659  0.870513  1
  Se  Se24  1  0.423285  0.284586  0.251064  1
  Se  Se25  1  0.076715  0.284586  0.751064  1
  Se  Se26  1  0.576715  0.715414  0.748936  1
  Se  Se27  1  0.923285  0.715414  0.248936  1
  Se  Se28  1  0.700867  0.765045  0.481741  1
  Se  Se29  1  0.799133  0.765045  0.981741  1
  Se  Se30  1  0.299133  0.234955  0.518259  1
  Se  Se31  1  0.200867  0.234955  0.018259  1
