# generated using pymatgen
data_Rb4Si12AsP11
_symmetry_space_group_name_H-M   'P 1'
_cell_length_a   3.57217900
_cell_length_b   10.01030185
_cell_length_c   19.92099628
_cell_angle_alpha   89.99693427
_cell_angle_beta   90.00000000
_cell_angle_gamma   90.00000000
_symmetry_Int_Tables_number   1
_chemical_formula_structural   Rb4Si12AsP11
_chemical_formula_sum   'Rb4 Si12 As1 P11'
_cell_volume   712.34673862
_cell_formula_units_Z   1
loop_
 _symmetry_equiv_pos_site_id
 _symmetry_equiv_pos_as_xyz
  1  'x, y, z'
loop_
 _atom_site_type_symbol
 _atom_site_label
 _atom_site_symmetry_multiplicity
 _atom_site_fract_x
 _atom_site_fract_y
 _atom_site_fract_z
 _atom_site_occupancy
  Rb  Rb0  1  0.000000  0.308299  0.307059  1
  Rb  Rb1  1  0.000000  0.690912  0.692585  1
  Rb  Rb2  1  0.000000  0.191082  0.807332  1
  Rb  Rb3  1  0.000000  0.814726  0.198507  1
  Si  Si4  1  0.500000  0.403019  0.033335  1
  Si  Si5  1  0.500000  0.592139  0.963291  1
  Si  Si6  1  0.500000  0.095942  0.534521  1
  Si  Si7  1  0.500000  0.903829  0.465498  1
  Si  Si8  1  0.000000  0.114638  0.014708  1
  Si  Si9  1  0.000000  0.889611  0.982748  1
  Si  Si10  1  0.000000  0.386007  0.516061  1
  Si  Si11  1  0.000000  0.613311  0.484874  1
  Si  Si12  1  0.000000  0.182087  0.128226  1
  Si  Si13  1  0.000000  0.818624  0.869824  1
  Si  Si14  1  0.000000  0.318187  0.629383  1
  Si  Si15  1  0.000000  0.679913  0.371513  1
  As  As16  1  0.500000  0.780985  0.039692  1
  P  P17  1  0.500000  0.118990  0.188504  1
  P  P18  1  0.500000  0.882885  0.809755  1
  P  P19  1  0.500000  0.382546  0.689220  1
  P  P20  1  0.500000  0.615552  0.311624  1
  P  P21  1  0.500000  0.282518  0.465597  1
  P  P22  1  0.500000  0.717750  0.534774  1
  P  P23  1  0.500000  0.217811  0.964563  1
  P  P24  1  0.000000  0.409279  0.104998  1
  P  P25  1  0.000000  0.590780  0.891809  1
  P  P26  1  0.000000  0.090920  0.606127  1
  P  P27  1  0.000000  0.907657  0.393872  1
