# generated using pymatgen
data_HfZr3Ni6(As2P)2
_symmetry_space_group_name_H-M   'P 1'
_cell_length_a   3.72572000
_cell_length_b   10.30637500
_cell_length_c   12.61827100
_cell_angle_alpha   90.00000000
_cell_angle_beta   90.00000000
_cell_angle_gamma   90.00000000
_symmetry_Int_Tables_number   1
_chemical_formula_structural   HfZr3Ni6(As2P)2
_chemical_formula_sum   'Hf2 Zr6 Ni12 As8 P4'
_cell_volume   484.52479211
_cell_formula_units_Z   2
loop_
 _symmetry_equiv_pos_site_id
 _symmetry_equiv_pos_as_xyz
  1  'x, y, z'
loop_
 _atom_site_type_symbol
 _atom_site_label
 _atom_site_symmetry_multiplicity
 _atom_site_fract_x
 _atom_site_fract_y
 _atom_site_fract_z
 _atom_site_occupancy
  Hf  Hf0  1  0.750000  0.565375  0.293869  1
  Hf  Hf1  1  0.750000  0.934625  0.793869  1
  Zr  Zr2  1  0.250000  0.328903  0.994061  1
  Zr  Zr3  1  0.250000  0.171097  0.494061  1
  Zr  Zr4  1  0.750000  0.671543  0.006295  1
  Zr  Zr5  1  0.750000  0.828457  0.506295  1
  Zr  Zr6  1  0.250000  0.432860  0.706537  1
  Zr  Zr7  1  0.250000  0.067140  0.206537  1
  Ni  Ni8  1  0.250000  0.911076  0.986394  1
  Ni  Ni9  1  0.250000  0.588924  0.486394  1
  Ni  Ni10  1  0.750000  0.088273  0.011871  1
  Ni  Ni11  1  0.750000  0.411727  0.511871  1
  Ni  Ni12  1  0.250000  0.136188  0.724219  1
  Ni  Ni13  1  0.250000  0.363812  0.224219  1
  Ni  Ni14  1  0.750000  0.860106  0.276707  1
  Ni  Ni15  1  0.750000  0.639894  0.776707  1
  Ni  Ni16  1  0.250000  0.784029  0.159479  1
  Ni  Ni17  1  0.250000  0.715971  0.659479  1
  Ni  Ni18  1  0.750000  0.216050  0.839915  1
  Ni  Ni19  1  0.750000  0.283950  0.339915  1
  As  As20  1  0.250000  0.742909  0.853666  1
  As  As21  1  0.250000  0.757091  0.353666  1
  As  As22  1  0.750000  0.258935  0.145806  1
  As  As23  1  0.750000  0.241065  0.645806  1
  As  As24  1  0.250000  0.553684  0.127775  1
  As  As25  1  0.250000  0.946316  0.627775  1
  As  As26  1  0.750000  0.447260  0.873097  1
  As  As27  1  0.750000  0.052740  0.373097  1
  P  P28  1  0.250000  0.100577  0.899653  1
  P  P29  1  0.250000  0.399423  0.399653  1
  P  P30  1  0.750000  0.899353  0.100656  1
  P  P31  1  0.750000  0.600647  0.600656  1
