# generated using pymatgen
data_DyHo15(In3Tc)2
_symmetry_space_group_name_H-M   'P 1'
_cell_length_a   10.38080900
_cell_length_b   10.38598192
_cell_length_c   7.00704022
_cell_angle_alpha   89.97551615
_cell_angle_beta   90.00000000
_cell_angle_gamma   119.98352226
_symmetry_Int_Tables_number   1
_chemical_formula_structural   DyHo15(In3Tc)2
_chemical_formula_sum   'Dy1 Ho15 In6 Tc2'
_cell_volume   654.35893683
_cell_formula_units_Z   1
loop_
 _symmetry_equiv_pos_site_id
 _symmetry_equiv_pos_as_xyz
  1  'x, y, z'
loop_
 _atom_site_type_symbol
 _atom_site_label
 _atom_site_symmetry_multiplicity
 _atom_site_fract_x
 _atom_site_fract_y
 _atom_site_fract_z
 _atom_site_occupancy
  Dy  Dy0  1  0.531159  0.062319  0.510184  1
  Ho  Ho1  1  0.937467  0.468811  0.510426  1
  Ho  Ho2  1  0.531344  0.468811  0.510426  1
  Ho  Ho3  1  0.468605  0.937209  0.010288  1
  Ho  Ho4  1  0.062816  0.531471  0.010587  1
  Ho  Ho5  1  0.468656  0.531471  0.010587  1
  Ho  Ho6  1  0.177550  0.355099  0.713457  1
  Ho  Ho7  1  0.645132  0.822431  0.713528  1
  Ho  Ho8  1  0.177299  0.822431  0.713528  1
  Ho  Ho9  1  0.822559  0.645118  0.213282  1
  Ho  Ho10  1  0.354700  0.177432  0.213171  1
  Ho  Ho11  1  0.822731  0.177432  0.213171  1
  Ho  Ho12  1  0.666761  0.333521  0.880683  1
  Ho  Ho13  1  0.333214  0.666428  0.379989  1
  Ho  Ho14  1  0.999964  0.999928  0.489742  1
  Ho  Ho15  1  0.999943  0.999887  0.989676  1
  In  In16  1  0.837303  0.674605  0.751269  1
  In  In17  1  0.325315  0.162840  0.751444  1
  In  In18  1  0.837526  0.162840  0.751444  1
  In  In19  1  0.162625  0.325251  0.251312  1
  In  In20  1  0.674539  0.837179  0.251492  1
  In  In21  1  0.162639  0.837179  0.251492  1
  Tc  Tc22  1  0.666734  0.333468  0.283530  1
  Tc  Tc23  1  0.333418  0.666837  0.783334  1
