# generated using pymatgen
data_Y6Er2Os3WC8
_symmetry_space_group_name_H-M   'P 1'
_cell_length_a   5.11546600
_cell_length_b   6.54948355
_cell_length_c   9.82005100
_cell_angle_alpha   89.69324198
_cell_angle_beta   90.00000000
_cell_angle_gamma   90.00000000
_symmetry_Int_Tables_number   1
_chemical_formula_structural   Y6Er2Os3WC8
_chemical_formula_sum   'Y6 Er2 Os3 W1 C8'
_cell_volume   329.00293865
_cell_formula_units_Z   1
loop_
 _symmetry_equiv_pos_site_id
 _symmetry_equiv_pos_as_xyz
  1  'x, y, z'
loop_
 _atom_site_type_symbol
 _atom_site_label
 _atom_site_symmetry_multiplicity
 _atom_site_fract_x
 _atom_site_fract_y
 _atom_site_fract_z
 _atom_site_occupancy
  Y  Y0  1  0.250000  0.680100  0.553516  1
  Y  Y1  1  0.250000  0.181802  0.944989  1
  Y  Y2  1  0.250000  0.531492  0.213303  1
  Y  Y3  1  0.750000  0.466969  0.780618  1
  Y  Y4  1  0.750000  0.970489  0.716143  1
  Y  Y5  1  0.250000  0.029739  0.285583  1
  Er  Er6  1  0.750000  0.323846  0.443762  1
  Er  Er7  1  0.750000  0.825040  0.056193  1
  Os  Os8  1  0.750000  0.277684  0.136512  1
  Os  Os9  1  0.750000  0.776389  0.362949  1
  Os  Os10  1  0.250000  0.224392  0.632484  1
  W  W11  1  0.250000  0.721865  0.867538  1
  C  C12  1  0.250000  0.453512  0.759660  1
  C  C13  1  0.750000  0.541875  0.241952  1
  C  C14  1  0.750000  0.043039  0.259436  1
  C  C15  1  0.250000  0.958517  0.739805  1
  C  C16  1  0.250000  0.824218  0.056748  1
  C  C17  1  0.750000  0.173600  0.952284  1
  C  C18  1  0.750000  0.672355  0.548642  1
  C  C19  1  0.250000  0.323076  0.447885  1
