# generated using pymatgen
data_Dy2CoSi14Ir5
_symmetry_space_group_name_H-M   'P 1'
_cell_length_a   7.99481771
_cell_length_b   7.99481772
_cell_length_c   7.97758245
_cell_angle_alpha   56.71930709
_cell_angle_beta   56.71929905
_cell_angle_gamma   56.57176547
_symmetry_Int_Tables_number   1
_chemical_formula_structural   Dy2CoSi14Ir5
_chemical_formula_sum   'Dy2 Co1 Si14 Ir5'
_cell_volume   332.82710723
_cell_formula_units_Z   1
loop_
 _symmetry_equiv_pos_site_id
 _symmetry_equiv_pos_as_xyz
  1  'x, y, z'
loop_
 _atom_site_type_symbol
 _atom_site_label
 _atom_site_symmetry_multiplicity
 _atom_site_fract_x
 _atom_site_fract_y
 _atom_site_fract_z
 _atom_site_occupancy
  Dy  Dy0  1  0.001068  0.000189  0.998735  1
  Dy  Dy1  1  0.499811  0.498932  0.501265  1
  Co  Co2  1  0.069421  0.430579  0.750000  1
  Si  Si3  1  0.759999  0.740001  0.750000  1
  Si  Si4  1  0.249614  0.250386  0.250000  1
  Si  Si5  1  0.850803  0.065465  0.671260  1
  Si  Si6  1  0.671490  0.850686  0.064303  1
  Si  Si7  1  0.062977  0.666242  0.847034  1
  Si  Si8  1  0.649314  0.828510  0.435697  1
  Si  Si9  1  0.434535  0.649197  0.828740  1
  Si  Si10  1  0.833758  0.437023  0.652966  1
  Si  Si11  1  0.170264  0.561808  0.359079  1
  Si  Si12  1  0.565844  0.350644  0.171929  1
  Si  Si13  1  0.343150  0.178929  0.571680  1
  Si  Si14  1  0.938192  0.329736  0.140921  1
  Si  Si15  1  0.321071  0.156850  0.928320  1
  Si  Si16  1  0.149356  0.934156  0.328071  1
  Ir  Ir17  1  0.248710  0.929991  0.571731  1
  Ir  Ir18  1  0.570009  0.251290  0.928269  1
  Ir  Ir19  1  0.929657  0.570343  0.250000  1
  Ir  Ir20  1  0.430073  0.749114  0.070697  1
  Ir  Ir21  1  0.750886  0.069927  0.429303  1
