# generated using pymatgen
data_Ho2TmMg3AgPb2
_symmetry_space_group_name_H-M   'P 1'
_cell_length_a   7.50758945
_cell_length_b   7.50759034
_cell_length_c   4.57509200
_cell_angle_alpha   90.00000000
_cell_angle_beta   90.00000000
_cell_angle_gamma   119.96036194
_symmetry_Int_Tables_number   1
_chemical_formula_structural   Ho2TmMg3AgPb2
_chemical_formula_sum   'Ho2 Tm1 Mg3 Ag1 Pb2'
_cell_volume   223.41116477
_cell_formula_units_Z   1
loop_
 _symmetry_equiv_pos_site_id
 _symmetry_equiv_pos_as_xyz
  1  'x, y, z'
loop_
 _atom_site_type_symbol
 _atom_site_label
 _atom_site_symmetry_multiplicity
 _atom_site_fract_x
 _atom_site_fract_y
 _atom_site_fract_z
 _atom_site_occupancy
  Ho  Ho0  1  0.586499  0.999943  0.000000  1
  Ho  Ho1  1  0.999943  0.586499  0.000000  1
  Tm  Tm2  1  0.413263  0.413263  0.000000  1
  Mg  Mg3  1  0.233340  0.000086  0.500000  1
  Mg  Mg4  1  0.000086  0.233340  0.500000  1
  Mg  Mg5  1  0.766604  0.766604  0.500000  1
  Ag  Ag6  1  0.000371  0.000371  0.000000  1
  Pb  Pb7  1  0.333508  0.666385  0.500000  1
  Pb  Pb8  1  0.666385  0.333508  0.500000  1
