# generated using pymatgen
data_TbY2AuO7
_symmetry_space_group_name_H-M   'P 1'
_cell_length_a   6.51399789
_cell_length_b   6.51399978
_cell_length_c   7.47673000
_cell_angle_alpha   90.00000000
_cell_angle_beta   90.00000000
_cell_angle_gamma   108.99048570
_symmetry_Int_Tables_number   1
_chemical_formula_structural   TbY2AuO7
_chemical_formula_sum   'Tb2 Y4 Au2 O14'
_cell_volume   299.98665900
_cell_formula_units_Z   2
loop_
 _symmetry_equiv_pos_site_id
 _symmetry_equiv_pos_as_xyz
  1  'x, y, z'
loop_
 _atom_site_type_symbol
 _atom_site_label
 _atom_site_symmetry_multiplicity
 _atom_site_fract_x
 _atom_site_fract_y
 _atom_site_fract_z
 _atom_site_occupancy
  Tb  Tb0  1  0.500000  0.500000  0.500000  1
  Tb  Tb1  1  0.500000  0.500000  0.000000  1
  Y  Y2  1  0.528739  0.997590  0.750000  1
  Y  Y3  1  0.997590  0.528739  0.250000  1
  Y  Y4  1  0.471261  0.002410  0.250000  1
  Y  Y5  1  0.002410  0.471261  0.750000  1
  Au  Au6  1  0.000000  0.000000  0.500000  1
  Au  Au7  1  0.000000  0.000000  0.000000  1
  O  O8  1  0.670713  0.918878  0.475409  1
  O  O9  1  0.918878  0.670713  0.524591  1
  O  O10  1  0.670713  0.918878  0.024591  1
  O  O11  1  0.918878  0.670713  0.975409  1
  O  O12  1  0.329287  0.081122  0.524591  1
  O  O13  1  0.081122  0.329287  0.475409  1
  O  O14  1  0.329287  0.081122  0.975409  1
  O  O15  1  0.081122  0.329287  0.024591  1
  O  O16  1  0.921174  0.078826  0.750000  1
  O  O17  1  0.078826  0.921174  0.250000  1
  O  O18  1  0.368014  0.631986  0.750000  1
  O  O19  1  0.631986  0.368014  0.250000  1
  O  O20  1  0.638831  0.361169  0.750000  1
  O  O21  1  0.361169  0.638831  0.250000  1
