# generated using pymatgen
data_YU3(Si5Pt3)2
_symmetry_space_group_name_H-M   'P 1'
_cell_length_a   8.16270238
_cell_length_b   8.14901558
_cell_length_c   8.14901695
_cell_angle_alpha   135.79480570
_cell_angle_beta   104.73028047
_cell_angle_gamma   91.62791589
_symmetry_Int_Tables_number   1
_chemical_formula_structural   YU3(Si5Pt3)2
_chemical_formula_sum   'Y1 U3 Si10 Pt6'
_cell_volume   347.21811053
_cell_formula_units_Z   1
loop_
 _symmetry_equiv_pos_site_id
 _symmetry_equiv_pos_as_xyz
  1  'x, y, z'
loop_
 _atom_site_type_symbol
 _atom_site_label
 _atom_site_symmetry_multiplicity
 _atom_site_fract_x
 _atom_site_fract_y
 _atom_site_fract_z
 _atom_site_occupancy
  Y  Y0  1  0.901069  0.128238  0.772831  1
  U  U1  1  0.637938  0.368607  0.269332  1
  U  U2  1  0.361028  0.630571  0.730457  1
  U  U3  1  0.100516  0.870772  0.229744  1
  Si  Si4  1  0.460623  0.112322  0.348302  1
  Si  Si5  1  0.535958  0.885758  0.650198  1
  Si  Si6  1  0.762508  0.613221  0.149287  1
  Si  Si7  1  0.239503  0.389397  0.850105  1
  Si  Si8  1  0.272803  0.524952  0.251255  1
  Si  Si9  1  0.727419  0.478562  0.749140  1
  Si  Si10  1  0.727419  0.978278  0.248856  1
  Si  Si11  1  0.272803  0.021548  0.747851  1
  Si  Si12  1  0.999927  0.252207  0.255075  1
  Si  Si13  1  0.999927  0.744853  0.747722  1
  Pt  Pt14  1  0.502838  0.249990  0.750444  1
  Pt  Pt15  1  0.502838  0.752395  0.252848  1
  Pt  Pt16  1  0.245288  0.137107  0.108181  1
  Pt  Pt17  1  0.752908  0.864579  0.888328  1
  Pt  Pt18  1  0.024658  0.637201  0.387456  1
  Pt  Pt19  1  0.972030  0.359444  0.612587  1
