# generated using pymatgen
data_K4HoPaTe6
_symmetry_space_group_name_H-M   'P 1'
_cell_length_a   8.06099649
_cell_length_b   8.06099537
_cell_length_c   8.77219700
_cell_angle_alpha   81.05818884
_cell_angle_beta   81.05819729
_cell_angle_gamma   120.03546517
_symmetry_Int_Tables_number   1
_chemical_formula_structural   K4HoPaTe6
_chemical_formula_sum   'K4 Ho1 Pa1 Te6'
_cell_volume   468.99443236
_cell_formula_units_Z   1
loop_
 _symmetry_equiv_pos_site_id
 _symmetry_equiv_pos_as_xyz
  1  'x, y, z'
loop_
 _atom_site_type_symbol
 _atom_site_label
 _atom_site_symmetry_multiplicity
 _atom_site_fract_x
 _atom_site_fract_y
 _atom_site_fract_z
 _atom_site_occupancy
  K  K0  1  0.500014  0.499986  0.000000  1
  K  K1  1  0.655752  0.344248  0.500000  1
  K  K2  1  0.344346  0.655654  0.500000  1
  K  K3  1  0.999937  0.000063  0.500000  1
  Ho  Ho4  1  0.832107  0.167893  0.000000  1
  Pa  Pa5  1  0.168007  0.831993  0.000000  1
  Te  Te6  1  0.805576  0.799793  0.207746  1
  Te  Te7  1  0.200207  0.194424  0.792254  1
  Te  Te8  1  0.422406  0.051360  0.209889  1
  Te  Te9  1  0.565162  0.942153  0.789441  1
  Te  Te10  1  0.948640  0.577594  0.790111  1
  Te  Te11  1  0.057847  0.434838  0.210559  1
