# generated using pymatgen
data_Ca2La6SnPd24
_symmetry_space_group_name_H-M   'P 1'
_cell_length_a   8.57473313
_cell_length_b   8.57473313
_cell_length_c   8.57473313
_cell_angle_alpha   89.98568641
_cell_angle_beta   89.98568641
_cell_angle_gamma   89.98568641
_symmetry_Int_Tables_number   1
_chemical_formula_structural   Ca2La6SnPd24
_chemical_formula_sum   'Ca2 La6 Sn1 Pd24'
_cell_volume   630.46618367
_cell_formula_units_Z   1
loop_
 _symmetry_equiv_pos_site_id
 _symmetry_equiv_pos_as_xyz
  1  'x, y, z'
loop_
 _atom_site_type_symbol
 _atom_site_label
 _atom_site_symmetry_multiplicity
 _atom_site_fract_x
 _atom_site_fract_y
 _atom_site_fract_z
 _atom_site_occupancy
  Ca  Ca0  1  0.251321  0.251321  0.251321  1
  Ca  Ca1  1  0.748679  0.748679  0.748679  1
  La  La2  1  0.747573  0.747573  0.252195  1
  La  La3  1  0.747573  0.252195  0.747573  1
  La  La4  1  0.252427  0.252427  0.747805  1
  La  La5  1  0.252427  0.747805  0.252427  1
  La  La6  1  0.252195  0.747573  0.747573  1
  La  La7  1  0.747805  0.252427  0.252427  1
  Sn  Sn8  1  0.000000  0.000000  0.000000  1
  Pd  Pd9  1  0.267361  0.499289  0.001194  1
  Pd  Pd10  1  0.732639  0.500711  0.998806  1
  Pd  Pd11  1  0.001194  0.267361  0.499289  1
  Pd  Pd12  1  0.499289  0.267361  0.001194  1
  Pd  Pd13  1  0.998806  0.732639  0.500711  1
  Pd  Pd14  1  0.500711  0.732639  0.998806  1
  Pd  Pd15  1  0.499289  0.001194  0.267361  1
  Pd  Pd16  1  0.267361  0.001194  0.499289  1
  Pd  Pd17  1  0.500711  0.998806  0.732639  1
  Pd  Pd18  1  0.732639  0.998806  0.500711  1
  Pd  Pd19  1  0.001194  0.499289  0.267361  1
  Pd  Pd20  1  0.998806  0.500711  0.732639  1
  Pd  Pd21  1  0.255772  0.499014  0.499014  1
  Pd  Pd22  1  0.744228  0.500986  0.500986  1
  Pd  Pd23  1  0.499014  0.255772  0.499014  1
  Pd  Pd24  1  0.500986  0.744228  0.500986  1
  Pd  Pd25  1  0.499014  0.499014  0.255772  1
  Pd  Pd26  1  0.500986  0.500986  0.744228  1
  Pd  Pd27  1  0.313896  0.001169  0.001169  1
  Pd  Pd28  1  0.686104  0.998831  0.998831  1
  Pd  Pd29  1  0.001169  0.313896  0.001169  1
  Pd  Pd30  1  0.998831  0.686104  0.998831  1
  Pd  Pd31  1  0.001169  0.001169  0.313896  1
  Pd  Pd32  1  0.998831  0.998831  0.686104  1
