# generated using pymatgen
data_SmDy4V3(Co4P3)4
_symmetry_space_group_name_H-M   'P 1'
_cell_length_a   12.06566500
_cell_length_b   12.06566527
_cell_length_c   3.67362400
_cell_angle_alpha   90.00000000
_cell_angle_beta   90.00000000
_cell_angle_gamma   119.99999653
_symmetry_Int_Tables_number   1
_chemical_formula_structural   SmDy4V3(Co4P3)4
_chemical_formula_sum   'Sm1 Dy4 V3 Co16 P12'
_cell_volume   463.15663109
_cell_formula_units_Z   1
loop_
 _symmetry_equiv_pos_site_id
 _symmetry_equiv_pos_as_xyz
  1  'x, y, z'
loop_
 _atom_site_type_symbol
 _atom_site_label
 _atom_site_symmetry_multiplicity
 _atom_site_fract_x
 _atom_site_fract_y
 _atom_site_fract_z
 _atom_site_occupancy
  Sm  Sm0  1  0.666667  0.333333  0.000000  1
  Dy  Dy1  1  0.333333  0.666667  0.000000  1
  Dy  Dy2  1  0.186427  0.186434  0.500000  1
  Dy  Dy3  1  0.813566  0.999993  0.500000  1
  Dy  Dy4  1  0.000007  0.813573  0.500000  1
  V  V5  1  0.556748  0.557232  0.000000  1
  V  V6  1  0.442768  0.999515  0.000000  1
  V  V7  1  0.000485  0.443252  0.000000  1
  Co  Co8  1  0.823950  0.199432  0.000000  1
  Co  Co9  1  0.800568  0.624518  0.000000  1
  Co  Co10  1  0.375482  0.176050  0.000000  1
  Co  Co11  1  0.199934  0.823144  0.000000  1
  Co  Co12  1  0.623209  0.800066  0.000000  1
  Co  Co13  1  0.176856  0.376791  0.000000  1
  Co  Co14  1  0.644376  0.124156  0.500000  1
  Co  Co15  1  0.875844  0.520220  0.500000  1
  Co  Co16  1  0.479780  0.355624  0.500000  1
  Co  Co17  1  0.126183  0.644503  0.500000  1
  Co  Co18  1  0.518320  0.873817  0.500000  1
  Co  Co19  1  0.355497  0.481680  0.500000  1
  Co  Co20  1  0.717977  0.718732  0.500000  1
  Co  Co21  1  0.281268  0.999245  0.500000  1
  Co  Co22  1  0.000755  0.282023  0.500000  1
  Co  Co23  1  0.000000  0.000000  0.000000  1
  P  P24  1  0.363720  0.363690  0.000000  1
  P  P25  1  0.636310  0.000030  0.000000  1
  P  P26  1  0.999970  0.636280  0.000000  1
  P  P27  1  0.837946  0.315748  0.500000  1
  P  P28  1  0.684252  0.522198  0.500000  1
  P  P29  1  0.477802  0.162054  0.500000  1
  P  P30  1  0.315749  0.835685  0.500000  1
  P  P31  1  0.519936  0.684251  0.500000  1
  P  P32  1  0.164315  0.480064  0.500000  1
  P  P33  1  0.820409  0.820683  0.000000  1
  P  P34  1  0.179317  0.999726  0.000000  1
  P  P35  1  0.000274  0.179591  0.000000  1
