# generated using pymatgen
data_Mn2GaSbO6
_symmetry_space_group_name_H-M   'P 1'
_cell_length_a   5.28631551
_cell_length_b   5.28631396
_cell_length_c   5.75378011
_cell_angle_alpha   62.65305294
_cell_angle_beta   117.34694959
_cell_angle_gamma   119.99999654
_symmetry_Int_Tables_number   1
_chemical_formula_structural   Mn2GaSbO6
_chemical_formula_sum   'Mn2 Ga1 Sb1 O6'
_cell_volume   118.04362028
_cell_formula_units_Z   1
loop_
 _symmetry_equiv_pos_site_id
 _symmetry_equiv_pos_as_xyz
  1  'x, y, z'
loop_
 _atom_site_type_symbol
 _atom_site_label
 _atom_site_symmetry_multiplicity
 _atom_site_fract_x
 _atom_site_fract_y
 _atom_site_fract_z
 _atom_site_occupancy
  Mn  Mn0  1  0.861945  0.138055  0.585833  1
  Mn  Mn1  1  0.135628  0.864372  0.406884  1
  Ga  Ga2  1  0.652535  0.347465  0.957605  1
  Sb  Sb3  1  0.344709  0.655291  0.034128  1
  O  O4  1  0.456482  0.282056  0.234328  1
  O  O5  1  0.059902  0.543518  0.234328  1
  O  O6  1  0.717944  0.940098  0.234328  1
  O  O7  1  0.545011  0.717555  0.770856  1
  O  O8  1  0.943400  0.454989  0.770856  1
  O  O9  1  0.282445  0.056600  0.770856  1
