# generated using pymatgen
data_Ho3Er9Fe2I17
_symmetry_space_group_name_H-M   'P 1'
_cell_length_a   9.69991757
_cell_length_b   11.63349222
_cell_length_c   11.65494880
_cell_angle_alpha   93.54371016
_cell_angle_beta   104.78118523
_cell_angle_gamma   113.94153237
_symmetry_Int_Tables_number   1
_chemical_formula_structural   Ho3Er9Fe2I17
_chemical_formula_sum   'Ho3 Er9 Fe2 I17'
_cell_volume   1141.72845856
_cell_formula_units_Z   1
loop_
 _symmetry_equiv_pos_site_id
 _symmetry_equiv_pos_as_xyz
  1  'x, y, z'
loop_
 _atom_site_type_symbol
 _atom_site_label
 _atom_site_symmetry_multiplicity
 _atom_site_fract_x
 _atom_site_fract_y
 _atom_site_fract_z
 _atom_site_occupancy
  Ho  Ho0  1  0.050832  0.500758  0.318858  1
  Ho  Ho1  1  0.993090  0.808411  0.590484  1
  Ho  Ho2  1  0.657610  0.241673  0.279541  1
  Er  Er3  1  0.007030  0.191218  0.409725  1
  Er  Er4  1  0.217367  0.672124  0.979932  1
  Er  Er5  1  0.252783  0.974959  0.887588  1
  Er  Er6  1  0.342073  0.757947  0.720441  1
  Er  Er7  1  0.950452  0.500830  0.681918  1
  Er  Er8  1  0.747055  0.024399  0.112276  1
  Er  Er9  1  0.137686  0.285900  0.154325  1
  Er  Er10  1  0.782065  0.327947  0.018676  1
  Er  Er11  1  0.861521  0.713806  0.845835  1
  Fe  Fe12  1  0.104103  0.738120  0.786111  1
  Fe  Fe13  1  0.895829  0.261638  0.213946  1
  I  I14  1  0.785646  0.528349  0.417977  1
  I  I15  1  0.648380  0.420724  0.764281  1
  I  I16  1  0.845257  0.897557  0.327922  1
  I  I17  1  0.326141  0.214160  0.367111  1
  I  I18  1  0.154896  0.102806  0.672138  1
  I  I19  1  0.584651  0.052817  0.843724  1
  I  I20  1  0.760924  0.191128  0.538169  1
  I  I21  1  0.551456  0.712861  0.953758  1
  I  I22  1  0.351822  0.579140  0.235530  1
  I  I23  1  0.214208  0.471357  0.582236  1
  I  I24  1  0.056391  0.368218  0.897769  1
  I  I25  1  0.448401  0.287157  0.045971  1
  I  I26  1  0.000170  0.000143  0.000076  1
  I  I27  1  0.239913  0.809075  0.462251  1
  I  I28  1  0.415396  0.947182  0.156195  1
  I  I29  1  0.673297  0.785782  0.633031  1
  I  I30  1  0.943556  0.631815  0.102206  1
