# generated using pymatgen
data_Nd2B3Os2Ru2C
_symmetry_space_group_name_H-M   'P 1'
_cell_length_a   6.78456097
_cell_length_b   6.02433433
_cell_length_c   5.60596439
_cell_angle_alpha   71.26993507
_cell_angle_beta   56.52949437
_cell_angle_gamma   51.49227194
_symmetry_Int_Tables_number   1
_chemical_formula_structural   Nd2B3Os2Ru2C
_chemical_formula_sum   'Nd2 B3 Os2 Ru2 C1'
_cell_volume   149.47911114
_cell_formula_units_Z   1
loop_
 _symmetry_equiv_pos_site_id
 _symmetry_equiv_pos_as_xyz
  1  'x, y, z'
loop_
 _atom_site_type_symbol
 _atom_site_label
 _atom_site_symmetry_multiplicity
 _atom_site_fract_x
 _atom_site_fract_y
 _atom_site_fract_z
 _atom_site_occupancy
  Nd  Nd0  1  0.001100  0.998900  0.001100  1
  Nd  Nd1  1  0.249686  0.250314  0.249686  1
  B  B2  1  0.681844  0.318156  0.681844  1
  B  B3  1  0.564153  0.935847  0.564153  1
  B  B4  1  0.935457  0.564543  0.935457  1
  Os  Os5  1  0.628141  0.640654  0.366676  1
  Os  Os6  1  0.366676  0.364528  0.628141  1
  Ru  Ru7  1  0.605794  0.616813  0.894933  1
  Ru  Ru8  1  0.894933  0.882461  0.605794  1
  C  C9  1  0.322216  0.677784  0.322216  1
