# generated using pymatgen
data_Tb4YbPr15Sn16
_symmetry_space_group_name_H-M   'P 1'
_cell_length_a   8.23059876
_cell_length_b   8.46834522
_cell_length_c   16.09646670
_cell_angle_alpha   90.11194563
_cell_angle_beta   89.98802829
_cell_angle_gamma   90.09368644
_symmetry_Int_Tables_number   1
_chemical_formula_structural   Tb4YbPr15Sn16
_chemical_formula_sum   'Tb4 Yb1 Pr15 Sn16'
_cell_volume   1121.91284691
_cell_formula_units_Z   1
loop_
 _symmetry_equiv_pos_site_id
 _symmetry_equiv_pos_as_xyz
  1  'x, y, z'
loop_
 _atom_site_type_symbol
 _atom_site_label
 _atom_site_symmetry_multiplicity
 _atom_site_fract_x
 _atom_site_fract_y
 _atom_site_fract_z
 _atom_site_occupancy
  Tb  Tb0  1  0.650496  0.168017  0.625600  1
  Tb  Tb1  1  0.816593  0.502148  0.749155  1
  Tb  Tb2  1  0.318451  0.999656  0.749609  1
  Tb  Tb3  1  0.182002  0.495652  0.250099  1
  Yb  Yb4  1  0.681167  0.001418  0.250413  1
  Pr  Pr5  1  0.150154  0.334059  0.876262  1
  Pr  Pr6  1  0.353369  0.832243  0.122637  1
  Pr  Pr7  1  0.850062  0.669100  0.378929  1
  Pr  Pr8  1  0.352220  0.831561  0.377397  1
  Pr  Pr9  1  0.850658  0.668884  0.122898  1
  Pr  Pr10  1  0.648999  0.168547  0.875651  1
  Pr  Pr11  1  0.149052  0.334515  0.622119  1
  Pr  Pr12  1  0.495004  0.680611  0.597489  1
  Pr  Pr13  1  0.994465  0.820318  0.901949  1
  Pr  Pr14  1  0.505323  0.316219  0.096995  1
  Pr  Pr15  1  0.002369  0.180999  0.404118  1
  Pr  Pr16  1  0.506009  0.316364  0.404114  1
  Pr  Pr17  1  0.002613  0.180373  0.096212  1
  Pr  Pr18  1  0.494912  0.680945  0.901713  1
  Pr  Pr19  1  0.994672  0.820148  0.597607  1
  Sn  Sn20  1  0.689194  0.964850  0.464898  1
  Sn  Sn21  1  0.190728  0.534484  0.043118  1
  Sn  Sn22  1  0.309500  0.036811  0.957790  1
  Sn  Sn23  1  0.804172  0.460525  0.543215  1
  Sn  Sn24  1  0.318510  0.038390  0.542743  1
  Sn  Sn25  1  0.809069  0.465225  0.957419  1
  Sn  Sn26  1  0.691630  0.961738  0.038267  1
  Sn  Sn27  1  0.190959  0.534382  0.456344  1
  Sn  Sn28  1  0.454800  0.385331  0.748240  1
  Sn  Sn29  1  0.952099  0.114159  0.747782  1
  Sn  Sn30  1  0.547913  0.606075  0.250178  1
  Sn  Sn31  1  0.049505  0.887931  0.250611  1
  Sn  Sn32  1  0.688747  0.856285  0.748532  1
  Sn  Sn33  1  0.188711  0.647448  0.749388  1
  Sn  Sn34  1  0.303035  0.145550  0.250164  1
  Sn  Sn35  1  0.812839  0.359034  0.250348  1
