# generated using pymatgen
data_Sc6Al8Si8Os6Pd
_symmetry_space_group_name_H-M   'P 1'
_cell_length_a   8.61282640
_cell_length_b   8.61282713
_cell_length_c   8.61282700
_cell_angle_alpha   59.99999665
_cell_angle_beta   59.99999386
_cell_angle_gamma   60.00000313
_symmetry_Int_Tables_number   1
_chemical_formula_structural   Sc6Al8Si8Os6Pd
_chemical_formula_sum   'Sc6 Al8 Si8 Os6 Pd1'
_cell_volume   451.77493216
_cell_formula_units_Z   1
loop_
 _symmetry_equiv_pos_site_id
 _symmetry_equiv_pos_as_xyz
  1  'x, y, z'
loop_
 _atom_site_type_symbol
 _atom_site_label
 _atom_site_symmetry_multiplicity
 _atom_site_fract_x
 _atom_site_fract_y
 _atom_site_fract_z
 _atom_site_occupancy
  Sc  Sc0  1  0.198112  0.801888  0.801888  1
  Sc  Sc1  1  0.801888  0.198112  0.198112  1
  Sc  Sc2  1  0.801888  0.198112  0.801888  1
  Sc  Sc3  1  0.801888  0.801888  0.198112  1
  Sc  Sc4  1  0.198112  0.801888  0.198112  1
  Sc  Sc5  1  0.198112  0.198112  0.801888  1
  Al  Al6  1  0.623750  0.623750  0.623750  1
  Al  Al7  1  0.623750  0.623750  0.128750  1
  Al  Al8  1  0.128750  0.623750  0.623750  1
  Al  Al9  1  0.623750  0.128750  0.623750  1
  Al  Al10  1  0.376250  0.376250  0.376250  1
  Al  Al11  1  0.376250  0.376250  0.871250  1
  Al  Al12  1  0.376250  0.871250  0.376250  1
  Al  Al13  1  0.871250  0.376250  0.376250  1
  Si  Si14  1  0.843193  0.843193  0.843193  1
  Si  Si15  1  0.843193  0.843193  0.470425  1
  Si  Si16  1  0.470425  0.843193  0.843193  1
  Si  Si17  1  0.843193  0.470425  0.843193  1
  Si  Si18  1  0.156807  0.156807  0.156807  1
  Si  Si19  1  0.156807  0.156807  0.529575  1
  Si  Si20  1  0.156807  0.529575  0.156807  1
  Si  Si21  1  0.529575  0.156807  0.156807  1
  Os  Os22  1  0.000000  0.500000  0.500000  1
  Os  Os23  1  0.500000  0.000000  0.000000  1
  Os  Os24  1  0.500000  0.000000  0.500000  1
  Os  Os25  1  0.500000  0.500000  0.000000  1
  Os  Os26  1  0.000000  0.500000  0.000000  1
  Os  Os27  1  0.000000  0.000000  0.500000  1
  Pd  Pd28  1  0.500000  0.500000  0.500000  1
