# generated using pymatgen
data_CaCeFe3Re14C3
_symmetry_space_group_name_H-M   'P 1'
_cell_length_a   6.93909025
_cell_length_b   6.93908959
_cell_length_c   6.93909028
_cell_angle_alpha   82.64353529
_cell_angle_beta   82.64352977
_cell_angle_gamma   82.64353313
_symmetry_Int_Tables_number   1
_chemical_formula_structural   CaCeFe3Re14C3
_chemical_formula_sum   'Ca1 Ce1 Fe3 Re14 C3'
_cell_volume   326.52201044
_cell_formula_units_Z   1
loop_
 _symmetry_equiv_pos_site_id
 _symmetry_equiv_pos_as_xyz
  1  'x, y, z'
loop_
 _atom_site_type_symbol
 _atom_site_label
 _atom_site_symmetry_multiplicity
 _atom_site_fract_x
 _atom_site_fract_y
 _atom_site_fract_z
 _atom_site_occupancy
  Ca  Ca0  1  0.649486  0.649486  0.649486  1
  Ce  Ce1  1  0.354002  0.354002  0.354002  1
  Fe  Fe2  1  0.998681  0.998681  0.499584  1
  Fe  Fe3  1  0.499584  0.998681  0.998681  1
  Fe  Fe4  1  0.998681  0.499584  0.998681  1
  Re  Re5  1  0.721156  0.277323  0.999758  1
  Re  Re6  1  0.999758  0.721156  0.277323  1
  Re  Re7  1  0.277323  0.999758  0.721156  1
  Re  Re8  1  0.999758  0.277323  0.721156  1
  Re  Re9  1  0.721156  0.999758  0.277323  1
  Re  Re10  1  0.277323  0.721156  0.999758  1
  Re  Re11  1  0.345333  0.345333  0.864395  1
  Re  Re12  1  0.864395  0.345333  0.345333  1
  Re  Re13  1  0.345333  0.864395  0.345333  1
  Re  Re14  1  0.653758  0.653758  0.139037  1
  Re  Re15  1  0.139037  0.653758  0.653758  1
  Re  Re16  1  0.653758  0.139037  0.653758  1
  Re  Re17  1  0.898873  0.898873  0.898873  1
  Re  Re18  1  0.102125  0.102125  0.102125  1
  C  C19  1  0.501425  0.501425  0.997630  1
  C  C20  1  0.997630  0.501425  0.501425  1
  C  C21  1  0.501425  0.997630  0.501425  1
