# generated using pymatgen
data_Zr3In3IrPd2
_symmetry_space_group_name_H-M   'P 1'
_cell_length_a   7.63143500
_cell_length_b   7.63143525
_cell_length_c   3.52107600
_cell_angle_alpha   90.00000000
_cell_angle_beta   90.00000000
_cell_angle_gamma   120.00001192
_symmetry_Int_Tables_number   1
_chemical_formula_structural   Zr3In3IrPd2
_chemical_formula_sum   'Zr3 In3 Ir1 Pd2'
_cell_volume   177.58996102
_cell_formula_units_Z   1
loop_
 _symmetry_equiv_pos_site_id
 _symmetry_equiv_pos_as_xyz
  1  'x, y, z'
loop_
 _atom_site_type_symbol
 _atom_site_label
 _atom_site_symmetry_multiplicity
 _atom_site_fract_x
 _atom_site_fract_y
 _atom_site_fract_z
 _atom_site_occupancy
  Zr  Zr0  1  0.018887  0.410462  0.500000  1
  Zr  Zr1  1  0.589538  0.608425  0.500000  1
  Zr  Zr2  1  0.391575  0.981113  0.500000  1
  In  In3  1  0.988601  0.724844  0.000000  1
  In  In4  1  0.275156  0.263756  0.000000  1
  In  In5  1  0.736244  0.011399  0.000000  1
  Ir  Ir6  1  0.333333  0.666667  0.000000  1
  Pd  Pd7  1  0.666667  0.333333  0.000000  1
  Pd  Pd8  1  0.000000  0.000000  0.500000  1
