# generated using pymatgen
data_Dy16In4PtRh3
_symmetry_space_group_name_H-M   'P 1'
_cell_length_a   9.68716253
_cell_length_b   9.67909593
_cell_length_c   9.68716300
_cell_angle_alpha   59.97242920
_cell_angle_beta   60.00000183
_cell_angle_gamma   59.97243451
_symmetry_Int_Tables_number   1
_chemical_formula_structural   Dy16In4PtRh3
_chemical_formula_sum   'Dy16 In4 Pt1 Rh3'
_cell_volume   641.99538112
_cell_formula_units_Z   1
loop_
 _symmetry_equiv_pos_site_id
 _symmetry_equiv_pos_as_xyz
  1  'x, y, z'
loop_
 _atom_site_type_symbol
 _atom_site_label
 _atom_site_symmetry_multiplicity
 _atom_site_fract_x
 _atom_site_fract_y
 _atom_site_fract_z
 _atom_site_occupancy
  Dy  Dy0  1  0.188084  0.187979  0.811969  1
  Dy  Dy1  1  0.601145  0.597907  0.199805  1
  Dy  Dy2  1  0.439405  0.063301  0.439405  1
  Dy  Dy3  1  0.438747  0.438931  0.061161  1
  Dy  Dy4  1  0.811969  0.187979  0.811969  1
  Dy  Dy5  1  0.187973  0.811758  0.187973  1
  Dy  Dy6  1  0.439405  0.063301  0.057889  1
  Dy  Dy7  1  0.187973  0.811758  0.812296  1
  Dy  Dy8  1  0.061161  0.438931  0.061161  1
  Dy  Dy9  1  0.812296  0.811758  0.187973  1
  Dy  Dy10  1  0.199805  0.597907  0.601145  1
  Dy  Dy11  1  0.061161  0.438931  0.438747  1
  Dy  Dy12  1  0.057889  0.063301  0.439405  1
  Dy  Dy13  1  0.811969  0.187979  0.188084  1
  Dy  Dy14  1  0.599605  0.201186  0.599605  1
  Dy  Dy15  1  0.601145  0.597907  0.601145  1
  In  In16  1  0.833391  0.832884  0.833391  1
  In  In17  1  0.833391  0.832884  0.500333  1
  In  In18  1  0.500333  0.832884  0.833391  1
  In  In19  1  0.832896  0.501314  0.832896  1
  Pt  Pt20  1  0.392705  0.821885  0.392705  1
  Rh  Rh21  1  0.392452  0.392448  0.392452  1
  Rh  Rh22  1  0.822649  0.392448  0.392452  1
  Rh  Rh23  1  0.392452  0.392448  0.822649  1
