# generated using pymatgen
data_La3Ho(CO3)6
_symmetry_space_group_name_H-M   'P 1'
_cell_length_a   8.67895859
_cell_length_b   8.61530543
_cell_length_c   8.62645100
_cell_angle_alpha   119.96519805
_cell_angle_beta   90.09757960
_cell_angle_gamma   90.02613903
_symmetry_Int_Tables_number   1
_chemical_formula_structural   La3Ho(CO3)6
_chemical_formula_sum   'La3 Ho1 C6 O18'
_cell_volume   558.79454400
_cell_formula_units_Z   1
loop_
 _symmetry_equiv_pos_site_id
 _symmetry_equiv_pos_as_xyz
  1  'x, y, z'
loop_
 _atom_site_type_symbol
 _atom_site_label
 _atom_site_symmetry_multiplicity
 _atom_site_fract_x
 _atom_site_fract_y
 _atom_site_fract_z
 _atom_site_occupancy
  La  La0  1  0.970274  0.664847  0.332042  1
  La  La1  1  0.524129  0.667889  0.333766  1
  La  La2  1  0.463518  0.331428  0.665544  1
  Ho  Ho3  1  0.025692  0.334642  0.667556  1
  C  C4  1  0.245211  0.980084  0.385199  1
  C  C5  1  0.246063  0.404893  0.020457  1
  C  C6  1  0.754095  0.382780  0.417628  1
  C  C7  1  0.245884  0.615444  0.594561  1
  C  C8  1  0.754062  0.582342  0.965036  1
  C  C9  1  0.754847  0.034662  0.617350  1
  O  O10  1  0.131108  0.873213  0.311800  1
  O  O11  1  0.385853  0.922951  0.368723  1
  O  O12  1  0.744533  0.658443  0.139884  1
  O  O13  1  0.385842  0.447102  0.080411  1
  O  O14  1  0.130797  0.436426  0.124929  1
  O  O15  1  0.744110  0.481444  0.341226  1
  O  O16  1  0.746793  0.859547  0.517684  1
  O  O17  1  0.130374  0.687787  0.562177  1
  O  O18  1  0.385551  0.633370  0.552525  1
  O  O19  1  0.630873  0.316622  0.443982  1
  O  O20  1  0.888992  0.356141  0.463531  1
  O  O21  1  0.222652  0.152999  0.481665  1
  O  O22  1  0.225316  0.518738  0.671165  1
  O  O23  1  0.888850  0.537523  0.892614  1
  O  O24  1  0.630540  0.555164  0.872608  1
  O  O25  1  0.224983  0.328993  0.847411  1
  O  O26  1  0.630398  0.124731  0.682444  1
  O  O27  1  0.888660  0.109796  0.646086  1
