# generated using pymatgen
data_Dy6MgNb(Co4P3)4
_symmetry_space_group_name_H-M   'P 1'
_cell_length_a   3.72078700
_cell_length_b   10.63690500
_cell_length_c   12.32556800
_cell_angle_alpha   90.00000000
_cell_angle_beta   90.00000000
_cell_angle_gamma   90.00000000
_symmetry_Int_Tables_number   1
_chemical_formula_structural   Dy6MgNb(Co4P3)4
_chemical_formula_sum   'Dy6 Mg1 Nb1 Co16 P12'
_cell_volume   487.81711304
_cell_formula_units_Z   1
loop_
 _symmetry_equiv_pos_site_id
 _symmetry_equiv_pos_as_xyz
  1  'x, y, z'
loop_
 _atom_site_type_symbol
 _atom_site_label
 _atom_site_symmetry_multiplicity
 _atom_site_fract_x
 _atom_site_fract_y
 _atom_site_fract_z
 _atom_site_occupancy
  Dy  Dy0  1  0.000000  0.500000  0.525086  1
  Dy  Dy1  1  0.500000  0.000000  0.473867  1
  Dy  Dy2  1  0.500000  0.821239  0.205395  1
  Dy  Dy3  1  0.500000  0.178761  0.205395  1
  Dy  Dy4  1  0.000000  0.680175  0.793730  1
  Dy  Dy5  1  0.000000  0.319825  0.793730  1
  Mg  Mg6  1  0.500000  0.500000  0.155862  1
  Nb  Nb7  1  0.000000  0.000000  0.842420  1
  Co  Co8  1  0.500000  0.500000  0.704251  1
  Co  Co9  1  0.000000  0.000000  0.297315  1
  Co  Co10  1  0.000000  0.500000  0.986916  1
  Co  Co11  1  0.500000  0.000000  0.013067  1
  Co  Co12  1  0.500000  0.332109  0.995168  1
  Co  Co13  1  0.500000  0.667891  0.995168  1
  Co  Co14  1  0.000000  0.166999  0.006770  1
  Co  Co15  1  0.000000  0.833001  0.006770  1
  Co  Co16  1  0.500000  0.295624  0.432701  1
  Co  Co17  1  0.500000  0.704376  0.432701  1
  Co  Co18  1  0.000000  0.204314  0.568120  1
  Co  Co19  1  0.000000  0.795686  0.568120  1
  Co  Co20  1  0.500000  0.877700  0.704455  1
  Co  Co21  1  0.500000  0.122300  0.704455  1
  Co  Co22  1  0.000000  0.622730  0.294695  1
  Co  Co23  1  0.000000  0.377270  0.294695  1
  P  P24  1  0.500000  0.500000  0.884096  1
  P  P25  1  0.000000  0.000000  0.117418  1
  P  P26  1  0.500000  0.500000  0.354389  1
  P  P27  1  0.000000  0.000000  0.642977  1
  P  P28  1  0.500000  0.310497  0.615261  1
  P  P29  1  0.500000  0.689503  0.615261  1
  P  P30  1  0.000000  0.190429  0.384453  1
  P  P31  1  0.000000  0.809571  0.384453  1
  P  P32  1  0.500000  0.840546  0.893683  1
  P  P33  1  0.500000  0.159454  0.893683  1
  P  P34  1  0.000000  0.659619  0.106737  1
  P  P35  1  0.000000  0.340381  0.106737  1
