# generated using pymatgen
data_Ce2Y(ZnPt)3
_symmetry_space_group_name_H-M   'P 1'
_cell_length_a   7.41128500
_cell_length_b   7.42504747
_cell_length_c   3.85655100
_cell_angle_alpha   90.00000000
_cell_angle_beta   90.00000000
_cell_angle_gamma   119.93870053
_symmetry_Int_Tables_number   1
_chemical_formula_structural   Ce2Y(ZnPt)3
_chemical_formula_sum   'Ce2 Y1 Zn3 Pt3'
_cell_volume   183.90366719
_cell_formula_units_Z   1
loop_
 _symmetry_equiv_pos_site_id
 _symmetry_equiv_pos_as_xyz
  1  'x, y, z'
loop_
 _atom_site_type_symbol
 _atom_site_label
 _atom_site_symmetry_multiplicity
 _atom_site_fract_x
 _atom_site_fract_y
 _atom_site_fract_z
 _atom_site_occupancy
  Ce  Ce0  1  0.593459  0.592876  0.500000  1
  Ce  Ce1  1  0.000583  0.407124  0.500000  1
  Y  Y2  1  0.403838  0.000000  0.500000  1
  Zn  Zn3  1  0.005830  0.755306  0.000000  1
  Zn  Zn4  1  0.744357  0.000000  0.000000  1
  Zn  Zn5  1  0.250523  0.244694  0.000000  1
  Pt  Pt6  1  0.996957  0.000000  0.500000  1
  Pt  Pt7  1  0.672461  0.340468  0.000000  1
  Pt  Pt8  1  0.331992  0.659532  0.000000  1
