# generated using pymatgen
data_V5SiGeOs
_symmetry_space_group_name_H-M   'P 1'
_cell_length_a   4.71136700
_cell_length_b   4.68236500
_cell_length_c   4.80368700
_cell_angle_alpha   90.00000000
_cell_angle_beta   90.00000000
_cell_angle_gamma   90.00000000
_symmetry_Int_Tables_number   1
_chemical_formula_structural   V5SiGeOs
_chemical_formula_sum   'V5 Si1 Ge1 Os1'
_cell_volume   105.97096820
_cell_formula_units_Z   1
loop_
 _symmetry_equiv_pos_site_id
 _symmetry_equiv_pos_as_xyz
  1  'x, y, z'
loop_
 _atom_site_type_symbol
 _atom_site_label
 _atom_site_symmetry_multiplicity
 _atom_site_fract_x
 _atom_site_fract_y
 _atom_site_fract_z
 _atom_site_occupancy
  V  V0  1  0.500000  0.245226  0.999420  1
  V  V1  1  0.753475  0.000000  0.498948  1
  V  V2  1  0.000000  0.500000  0.250759  1
  V  V3  1  0.500000  0.754774  0.999420  1
  V  V4  1  0.246525  0.000000  0.498948  1
  Si  Si5  1  0.000000  0.000000  0.007635  1
  Ge  Ge6  1  0.500000  0.500000  0.490078  1
  Os  Os7  1  0.000000  0.500000  0.754793  1
