# generated using pymatgen
data_LaPr2In2HgRh3
_symmetry_space_group_name_H-M   'P 1'
_cell_length_a   7.62605394
_cell_length_b   7.75790903
_cell_length_c   4.09612400
_cell_angle_alpha   90.00000000
_cell_angle_beta   90.00000000
_cell_angle_gamma   119.94706158
_symmetry_Int_Tables_number   1
_chemical_formula_structural   LaPr2In2HgRh3
_chemical_formula_sum   'La1 Pr2 In2 Hg1 Rh3'
_cell_volume   209.98085835
_cell_formula_units_Z   1
loop_
 _symmetry_equiv_pos_site_id
 _symmetry_equiv_pos_as_xyz
  1  'x, y, z'
loop_
 _atom_site_type_symbol
 _atom_site_label
 _atom_site_symmetry_multiplicity
 _atom_site_fract_x
 _atom_site_fract_y
 _atom_site_fract_z
 _atom_site_occupancy
  La  La0  1  0.998468  0.589073  0.500000  1
  Pr  Pr1  1  0.410374  0.409270  0.500000  1
  Pr  Pr2  1  0.593630  0.997967  0.500000  1
  In  In3  1  0.000416  0.248000  0.000000  1
  In  In4  1  0.256463  0.002836  0.000000  1
  Hg  Hg5  1  0.742991  0.747504  0.000000  1
  Rh  Rh6  1  0.310630  0.661268  0.000000  1
  Rh  Rh7  1  0.018738  0.017057  0.500000  1
  Rh  Rh8  1  0.668289  0.327023  0.000000  1
