# generated using pymatgen
data_SrAl2(PdO3)4
_symmetry_space_group_name_H-M   'P 1'
_cell_length_a   8.29091022
_cell_length_b   8.29090949
_cell_length_c   9.81993100
_cell_angle_alpha   54.58042837
_cell_angle_beta   54.58042351
_cell_angle_gamma   65.04582624
_symmetry_Int_Tables_number   1
_chemical_formula_structural   SrAl2(PdO3)4
_chemical_formula_sum   'Sr2 Al4 Pd8 O24'
_cell_volume   444.50908490
_cell_formula_units_Z   2
loop_
 _symmetry_equiv_pos_site_id
 _symmetry_equiv_pos_as_xyz
  1  'x, y, z'
loop_
 _atom_site_type_symbol
 _atom_site_label
 _atom_site_symmetry_multiplicity
 _atom_site_fract_x
 _atom_site_fract_y
 _atom_site_fract_z
 _atom_site_occupancy
  Sr  Sr0  1  0.270510  0.729490  0.000000  1
  Sr  Sr1  1  0.729490  0.270510  0.000000  1
  Al  Al2  1  0.856986  0.856986  0.471504  1
  Al  Al3  1  0.334074  0.334074  0.816807  1
  Al  Al4  1  0.143014  0.143014  0.528496  1
  Al  Al5  1  0.665926  0.665926  0.183193  1
  Pd  Pd6  1  0.667696  0.002010  0.819454  1
  Pd  Pd7  1  0.185654  0.519641  0.476923  1
  Pd  Pd8  1  0.814346  0.480359  0.523077  1
  Pd  Pd9  1  0.332304  0.997990  0.180546  1
  Pd  Pd10  1  0.997990  0.332304  0.180546  1
  Pd  Pd11  1  0.002010  0.667696  0.819454  1
  Pd  Pd12  1  0.519641  0.185654  0.476923  1
  Pd  Pd13  1  0.480359  0.814346  0.523077  1
  O  O14  1  0.697784  0.697784  0.952524  1
  O  O15  1  0.010715  0.685477  0.341883  1
  O  O16  1  0.685477  0.010715  0.341883  1
  O  O17  1  0.698330  0.010339  0.598821  1
  O  O18  1  0.010339  0.698330  0.598821  1
  O  O19  1  0.039322  0.039322  0.269362  1
  O  O20  1  0.703917  0.390126  0.263674  1
  O  O21  1  0.390126  0.703917  0.263674  1
  O  O22  1  0.989661  0.301670  0.401179  1
  O  O23  1  0.989285  0.314523  0.658117  1
  O  O24  1  0.041253  0.363154  0.939224  1
  O  O25  1  0.363154  0.041253  0.939224  1
  O  O26  1  0.302216  0.302216  0.047476  1
  O  O27  1  0.958747  0.636846  0.060776  1
  O  O28  1  0.335424  0.335424  0.352492  1
  O  O29  1  0.350443  0.350443  0.613397  1
  O  O30  1  0.296083  0.609874  0.736326  1
  O  O31  1  0.609874  0.296083  0.736326  1
  O  O32  1  0.960678  0.960678  0.730638  1
  O  O33  1  0.649557  0.649557  0.386603  1
  O  O34  1  0.301670  0.989661  0.401179  1
  O  O35  1  0.664576  0.664576  0.647508  1
  O  O36  1  0.314523  0.989285  0.658117  1
  O  O37  1  0.636846  0.958747  0.060776  1
