# generated using pymatgen
data_Rb3Re2(O2F3)2
_symmetry_space_group_name_H-M   'P 1'
_cell_length_a   8.62025066
_cell_length_b   8.62025077
_cell_length_c   8.45732529
_cell_angle_alpha   73.41198084
_cell_angle_beta   73.41198135
_cell_angle_gamma   90.46703961
_symmetry_Int_Tables_number   1
_chemical_formula_structural   Rb3Re2(O2F3)2
_chemical_formula_sum   'Rb6 Re4 O8 F12'
_cell_volume   574.47554609
_cell_formula_units_Z   2
loop_
 _symmetry_equiv_pos_site_id
 _symmetry_equiv_pos_as_xyz
  1  'x, y, z'
loop_
 _atom_site_type_symbol
 _atom_site_label
 _atom_site_symmetry_multiplicity
 _atom_site_fract_x
 _atom_site_fract_y
 _atom_site_fract_z
 _atom_site_occupancy
  Rb  Rb0  1  0.961238  0.748806  0.999219  1
  Rb  Rb1  1  0.251194  0.038762  0.500781  1
  Rb  Rb2  1  0.038762  0.251194  0.000781  1
  Rb  Rb3  1  0.748806  0.961238  0.499219  1
  Rb  Rb4  1  0.500000  0.500000  0.000000  1
  Rb  Rb5  1  0.500000  0.500000  0.500000  1
  Re  Re6  1  0.021374  0.434247  0.383085  1
  Re  Re7  1  0.565753  0.978626  0.116915  1
  Re  Re8  1  0.978626  0.565753  0.616915  1
  Re  Re9  1  0.434247  0.021374  0.883085  1
  O  O10  1  0.944343  0.332962  0.627739  1
  O  O11  1  0.667038  0.055657  0.872261  1
  O  O12  1  0.055657  0.667038  0.372261  1
  O  O13  1  0.332962  0.944343  0.127739  1
  O  O14  1  0.840633  0.456688  0.327155  1
  O  O15  1  0.543312  0.159367  0.172845  1
  O  O16  1  0.159367  0.543312  0.672845  1
  O  O17  1  0.456688  0.840633  0.827155  1
  F  F18  1  0.147298  0.502245  0.126332  1
  F  F19  1  0.497755  0.852702  0.373668  1
  F  F20  1  0.852702  0.497755  0.873668  1
  F  F21  1  0.502245  0.147298  0.626332  1
  F  F22  1  0.020955  0.205973  0.359206  1
  F  F23  1  0.794027  0.979045  0.140794  1
  F  F24  1  0.979045  0.794027  0.640794  1
  F  F25  1  0.205973  0.020955  0.859206  1
  F  F26  1  0.746456  0.602695  0.616556  1
  F  F27  1  0.397305  0.253544  0.883444  1
  F  F28  1  0.253544  0.397305  0.383444  1
  F  F29  1  0.602695  0.746456  0.116556  1
