# generated using pymatgen
data_YbTm3PtRh3O14
_symmetry_space_group_name_H-M   'P 1'
_cell_length_a   7.18240373
_cell_length_b   7.18789301
_cell_length_c   7.18789100
_cell_angle_alpha   60.00000464
_cell_angle_beta   59.97471966
_cell_angle_gamma   59.97472186
_symmetry_Int_Tables_number   1
_chemical_formula_structural   YbTm3PtRh3O14
_chemical_formula_sum   'Yb1 Tm3 Pt1 Rh3 O14'
_cell_volume   262.29612220
_cell_formula_units_Z   1
loop_
 _symmetry_equiv_pos_site_id
 _symmetry_equiv_pos_as_xyz
  1  'x, y, z'
loop_
 _atom_site_type_symbol
 _atom_site_label
 _atom_site_symmetry_multiplicity
 _atom_site_fract_x
 _atom_site_fract_y
 _atom_site_fract_z
 _atom_site_occupancy
  Yb  Yb0  1  0.125000  0.625000  0.625000  1
  Tm  Tm1  1  0.625000  0.625000  0.125000  1
  Tm  Tm2  1  0.625000  0.625000  0.625000  1
  Tm  Tm3  1  0.625000  0.125000  0.625000  1
  Pt  Pt4  1  0.625000  0.125000  0.125000  1
  Rh  Rh5  1  0.125000  0.125000  0.125000  1
  Rh  Rh6  1  0.125000  0.625000  0.125000  1
  Rh  Rh7  1  0.125000  0.125000  0.625000  1
  O  O8  1  0.035638  0.458248  0.458248  1
  O  O9  1  0.784211  0.785432  0.215179  1
  O  O10  1  0.784211  0.215179  0.215179  1
  O  O11  1  0.465789  0.034821  0.464568  1
  O  O12  1  0.035638  0.047865  0.458248  1
  O  O13  1  0.035638  0.458248  0.047865  1
  O  O14  1  0.741069  0.752977  0.752977  1
  O  O15  1  0.508931  0.497023  0.497023  1
  O  O16  1  0.784211  0.215179  0.785432  1
  O  O17  1  0.214362  0.791752  0.202135  1
  O  O18  1  0.214362  0.202135  0.791752  1
  O  O19  1  0.465789  0.034821  0.034821  1
  O  O20  1  0.465789  0.464568  0.034821  1
  O  O21  1  0.214362  0.791752  0.791752  1
