# generated using pymatgen
data_CePrLuAl11
_symmetry_space_group_name_H-M   'P 1'
_cell_length_a   8.40437856
_cell_length_b   8.40437778
_cell_length_c   8.40437795
_cell_angle_alpha   149.72165738
_cell_angle_beta   108.77791365
_cell_angle_gamma   79.31047457
_symmetry_Int_Tables_number   1
_chemical_formula_structural   CePrLuAl11
_chemical_formula_sum   'Ce1 Pr1 Lu1 Al11'
_cell_volume   278.00712521
_cell_formula_units_Z   1
loop_
 _symmetry_equiv_pos_site_id
 _symmetry_equiv_pos_as_xyz
  1  'x, y, z'
loop_
 _atom_site_type_symbol
 _atom_site_label
 _atom_site_symmetry_multiplicity
 _atom_site_fract_x
 _atom_site_fract_y
 _atom_site_fract_z
 _atom_site_occupancy
  Ce  Ce0  1  0.685377  0.685377  0.000000  1
  Pr  Pr1  1  0.000605  0.000605  0.000000  1
  Lu  Lu2  1  0.316649  0.316649  0.000000  1
  Al  Al3  1  0.699921  0.334089  0.365831  1
  Al  Al4  1  0.301972  0.667739  0.634233  1
  Al  Al5  1  0.968258  0.334089  0.634168  1
  Al  Al6  1  0.033505  0.667739  0.365766  1
  Al  Al7  1  0.707412  0.499024  0.208389  1
  Al  Al8  1  0.290635  0.499024  0.791611  1
  Al  Al9  1  0.413567  0.136028  0.277539  1
  Al  Al10  1  0.584883  0.862762  0.722120  1
  Al  Al11  1  0.858489  0.136028  0.722461  1
  Al  Al12  1  0.140642  0.862762  0.277880  1
  Al  Al13  1  0.498085  0.998085  0.500000  1
