# generated using pymatgen
data_YZr3(BRu)16
_symmetry_space_group_name_H-M   'P 1'
_cell_length_a   7.43862518
_cell_length_b   7.43862441
_cell_length_c   9.14852236
_cell_angle_alpha   114.00775312
_cell_angle_beta   114.00774661
_cell_angle_gamma   89.95598162
_symmetry_Int_Tables_number   1
_chemical_formula_structural   YZr3(BRu)16
_chemical_formula_sum   'Y1 Zr3 B16 Ru16'
_cell_volume   414.10341266
_cell_formula_units_Z   1
loop_
 _symmetry_equiv_pos_site_id
 _symmetry_equiv_pos_as_xyz
  1  'x, y, z'
loop_
 _atom_site_type_symbol
 _atom_site_label
 _atom_site_symmetry_multiplicity
 _atom_site_fract_x
 _atom_site_fract_y
 _atom_site_fract_z
 _atom_site_occupancy
  Y  Y0  1  0.749999  0.749999  0.499999  1
  Zr  Zr1  1  0.500000  0.000000  0.000000  1
  Zr  Zr2  1  0.000000  0.500000  0.000000  1
  Zr  Zr3  1  0.250000  0.250000  0.499999  1
  B  B4  1  0.252314  0.220419  0.165479  1
  B  B5  1  0.751124  0.443507  0.164413  1
  B  B6  1  0.413290  0.720907  0.164413  1
  B  B7  1  0.913165  0.945060  0.165479  1
  B  B8  1  0.835754  0.028915  0.336689  1
  B  B9  1  0.500935  0.307774  0.336689  1
  B  B10  1  0.999738  0.528752  0.336141  1
  B  B11  1  0.336402  0.807387  0.336141  1
  B  B12  1  0.692613  0.163598  0.663860  1
  B  B13  1  0.971247  0.500262  0.663860  1
  B  B14  1  0.471086  0.664247  0.663312  1
  B  B15  1  0.192226  0.999066  0.663312  1
  B  B16  1  0.779093  0.086710  0.835587  1
  B  B17  1  0.279581  0.247686  0.834521  1
  B  B18  1  0.554940  0.586835  0.834521  1
  B  B19  1  0.056493  0.748877  0.835587  1
  Ru  Ru20  1  0.948383  0.215317  0.123176  1
  Ru  Ru21  1  0.446582  0.406528  0.120585  1
  Ru  Ru22  1  0.674002  0.714057  0.120585  1
  Ru  Ru23  1  0.174792  0.907859  0.123176  1
  Ru  Ru24  1  0.571771  0.040703  0.375467  1
  Ru  Ru25  1  0.803696  0.334765  0.375467  1
  Ru  Ru26  1  0.300570  0.535636  0.374798  1
  Ru  Ru27  1  0.074228  0.839161  0.374798  1
  Ru  Ru28  1  0.964363  0.199430  0.625202  1
  Ru  Ru29  1  0.660838  0.425772  0.625202  1
  Ru  Ru30  1  0.165236  0.696304  0.624533  1
  Ru  Ru31  1  0.459297  0.928229  0.624533  1
  Ru  Ru32  1  0.093472  0.053418  0.879415  1
  Ru  Ru33  1  0.592141  0.325208  0.876824  1
  Ru  Ru34  1  0.284683  0.551616  0.876824  1
  Ru  Ru35  1  0.785943  0.825997  0.879415  1
