# generated using pymatgen
data_Dy6Al12Tc4O
_symmetry_space_group_name_H-M   'P 1'
_cell_length_a   8.17625032
_cell_length_b   8.17625083
_cell_length_c   8.17625000
_cell_angle_alpha   109.47121363
_cell_angle_beta   109.47121489
_cell_angle_gamma   109.47122862
_symmetry_Int_Tables_number   1
_chemical_formula_structural   Dy6Al12Tc4O
_chemical_formula_sum   'Dy6 Al12 Tc4 O1'
_cell_volume   420.76604128
_cell_formula_units_Z   1
loop_
 _symmetry_equiv_pos_site_id
 _symmetry_equiv_pos_as_xyz
  1  'x, y, z'
loop_
 _atom_site_type_symbol
 _atom_site_label
 _atom_site_symmetry_multiplicity
 _atom_site_fract_x
 _atom_site_fract_y
 _atom_site_fract_z
 _atom_site_occupancy
  Dy  Dy0  1  0.261944  0.000000  0.261944  1
  Dy  Dy1  1  0.000000  0.261944  0.261944  1
  Dy  Dy2  1  0.000000  0.738056  0.738056  1
  Dy  Dy3  1  0.261944  0.261944  0.000000  1
  Dy  Dy4  1  0.738056  0.738056  0.000000  1
  Dy  Dy5  1  0.738056  0.000000  0.738056  1
  Al  Al6  1  0.329661  0.000000  0.670339  1
  Al  Al7  1  0.659324  0.329661  0.329661  1
  Al  Al8  1  0.000000  0.329661  0.670339  1
  Al  Al9  1  0.670339  0.670339  0.340676  1
  Al  Al10  1  0.329661  0.670339  0.000000  1
  Al  Al11  1  0.329661  0.659324  0.329661  1
  Al  Al12  1  0.670339  0.340676  0.670339  1
  Al  Al13  1  0.329661  0.329661  0.659324  1
  Al  Al14  1  0.340676  0.670339  0.670339  1
  Al  Al15  1  0.670339  0.329661  0.000000  1
  Al  Al16  1  0.000000  0.670339  0.329661  1
  Al  Al17  1  0.670339  0.000000  0.329661  1
  Tc  Tc18  1  0.000000  0.000000  0.500000  1
  Tc  Tc19  1  0.500000  0.000000  0.000000  1
  Tc  Tc20  1  0.000000  0.500000  0.000000  1
  Tc  Tc21  1  0.500000  0.500000  0.500000  1
  O  O22  1  0.000000  0.000000  0.000000  1
