# generated using pymatgen
data_Zr4TlIn(Ni2Sb)2
_symmetry_space_group_name_H-M   'P 1'
_cell_length_a   7.54702169
_cell_length_b   7.54707556
_cell_length_c   6.15464005
_cell_angle_alpha   114.06912480
_cell_angle_beta   114.06751419
_cell_angle_gamma   48.12763377
_symmetry_Int_Tables_number   1
_chemical_formula_structural   Zr4TlIn(Ni2Sb)2
_chemical_formula_sum   'Zr4 Tl1 In1 Ni4 Sb2'
_cell_volume   233.55171414
_cell_formula_units_Z   1
loop_
 _symmetry_equiv_pos_site_id
 _symmetry_equiv_pos_as_xyz
  1  'x, y, z'
loop_
 _atom_site_type_symbol
 _atom_site_label
 _atom_site_symmetry_multiplicity
 _atom_site_fract_x
 _atom_site_fract_y
 _atom_site_fract_z
 _atom_site_occupancy
  Zr  Zr0  1  0.753706  0.003674  0.128689  1
  Zr  Zr1  1  0.503890  0.753926  0.378919  1
  Zr  Zr2  1  0.246363  0.496323  0.621347  1
  Zr  Zr3  1  0.996010  0.246068  0.871012  1
  Tl  Tl4  1  0.000008  0.250050  0.375034  1
  In  In5  1  0.749991  0.999970  0.624980  1
  Ni  Ni6  1  0.136025  0.861911  0.996488  1
  Ni  Ni7  1  0.873584  0.628479  0.238981  1
  Ni  Ni8  1  0.611908  0.386030  0.501423  1
  Ni  Ni9  1  0.378508  0.123561  0.763101  1
  Sb  Sb10  1  0.250005  0.499977  0.124995  1
  Sb  Sb11  1  0.500003  0.750026  0.875029  1
