# generated using pymatgen
data_Ce2Ho6Si12IrRh3
_symmetry_space_group_name_H-M   'P 1'
_cell_length_a   8.17810000
_cell_length_b   8.17810019
_cell_length_c   7.98980100
_cell_angle_alpha   90.00000000
_cell_angle_beta   90.00000000
_cell_angle_gamma   120.00000731
_symmetry_Int_Tables_number   1
_chemical_formula_structural   Ce2Ho6Si12IrRh3
_chemical_formula_sum   'Ce2 Ho6 Si12 Ir1 Rh3'
_cell_volume   462.77661591
_cell_formula_units_Z   1
loop_
 _symmetry_equiv_pos_site_id
 _symmetry_equiv_pos_as_xyz
  1  'x, y, z'
loop_
 _atom_site_type_symbol
 _atom_site_label
 _atom_site_symmetry_multiplicity
 _atom_site_fract_x
 _atom_site_fract_y
 _atom_site_fract_z
 _atom_site_occupancy
  Ce  Ce0  1  0.000000  0.000000  0.249088  1
  Ce  Ce1  1  0.000000  0.000000  0.750089  1
  Ho  Ho2  1  0.508290  0.491710  0.250267  1
  Ho  Ho3  1  0.508290  0.016579  0.250267  1
  Ho  Ho4  1  0.983421  0.491710  0.250267  1
  Ho  Ho5  1  0.490787  0.509213  0.749731  1
  Ho  Ho6  1  0.490787  0.981573  0.749731  1
  Ho  Ho7  1  0.018427  0.509213  0.749731  1
  Si  Si8  1  0.166771  0.833229  0.500197  1
  Si  Si9  1  0.166771  0.333540  0.500197  1
  Si  Si10  1  0.666460  0.833229  0.500197  1
  Si  Si11  1  0.832275  0.167725  0.499015  1
  Si  Si12  1  0.832275  0.664553  0.499015  1
  Si  Si13  1  0.335447  0.167725  0.499015  1
  Si  Si14  1  0.832477  0.167523  0.000700  1
  Si  Si15  1  0.832477  0.664955  0.000700  1
  Si  Si16  1  0.335045  0.167523  0.000700  1
  Si  Si17  1  0.167473  0.832527  0.998670  1
  Si  Si18  1  0.167473  0.334944  0.998670  1
  Si  Si19  1  0.665056  0.832527  0.998670  1
  Ir  Ir20  1  0.333333  0.666667  0.470096  1
  Rh  Rh21  1  0.666667  0.333333  0.533136  1
  Rh  Rh22  1  0.666667  0.333333  0.966490  1
  Rh  Rh23  1  0.333333  0.666667  0.035362  1
