# generated using pymatgen
data_RbSmGeS4
_symmetry_space_group_name_H-M   'P 1'
_cell_length_a   6.80997300
_cell_length_b   6.62734137
_cell_length_c   9.10995265
_cell_angle_alpha   72.67982188
_cell_angle_beta   90.00000000
_cell_angle_gamma   90.00000000
_symmetry_Int_Tables_number   1
_chemical_formula_structural   RbSmGeS4
_chemical_formula_sum   'Rb2 Sm2 Ge2 S8'
_cell_volume   392.50732260
_cell_formula_units_Z   2
loop_
 _symmetry_equiv_pos_site_id
 _symmetry_equiv_pos_as_xyz
  1  'x, y, z'
loop_
 _atom_site_type_symbol
 _atom_site_label
 _atom_site_symmetry_multiplicity
 _atom_site_fract_x
 _atom_site_fract_y
 _atom_site_fract_z
 _atom_site_occupancy
  Rb  Rb0  1  0.989165  0.731362  0.065303  1
  Rb  Rb1  1  0.489165  0.268638  0.934697  1
  Sm  Sm2  1  0.508089  0.227360  0.451144  1
  Sm  Sm3  1  0.008089  0.772640  0.548856  1
  Ge  Ge4  1  0.473132  0.776072  0.329850  1
  Ge  Ge5  1  0.973132  0.223928  0.670150  1
  S  S6  1  0.476318  0.574349  0.176014  1
  S  S7  1  0.238213  0.023402  0.285996  1
  S  S8  1  0.742643  0.977861  0.305573  1
  S  S9  1  0.905442  0.428581  0.433062  1
  S  S10  1  0.405442  0.571419  0.566938  1
  S  S11  1  0.242643  0.022139  0.694427  1
  S  S12  1  0.738213  0.976598  0.714004  1
  S  S13  1  0.976318  0.425651  0.823986  1
