# generated using pymatgen
data_Th7TcOsPd
_symmetry_space_group_name_H-M   'P 1'
_cell_length_a   10.05173670
_cell_length_b   10.07195048
_cell_length_c   6.32980899
_cell_angle_alpha   90.00000025
_cell_angle_beta   90.09295446
_cell_angle_gamma   120.06654608
_symmetry_Int_Tables_number   1
_chemical_formula_structural   Th7TcOsPd
_chemical_formula_sum   'Th14 Tc2 Os2 Pd2'
_cell_volume   554.60470161
_cell_formula_units_Z   2
loop_
 _symmetry_equiv_pos_site_id
 _symmetry_equiv_pos_as_xyz
  1  'x, y, z'
loop_
 _atom_site_type_symbol
 _atom_site_label
 _atom_site_symmetry_multiplicity
 _atom_site_fract_x
 _atom_site_fract_y
 _atom_site_fract_z
 _atom_site_occupancy
  Th  Th0  1  0.459273  0.538226  0.288910  1
  Th  Th1  1  0.085086  0.542543  0.298207  1
  Th  Th2  1  0.911450  0.455724  0.796711  1
  Th  Th3  1  0.247826  0.123913  0.508238  1
  Th  Th4  1  0.543090  0.081035  0.789586  1
  Th  Th5  1  0.756339  0.878170  0.007222  1
  Th  Th6  1  0.672694  0.336347  0.301262  1
  Th  Th7  1  0.119888  0.862938  0.999605  1
  Th  Th8  1  0.459273  0.921048  0.288910  1
  Th  Th9  1  0.543090  0.462055  0.789586  1
  Th  Th10  1  0.878715  0.136306  0.501053  1
  Th  Th11  1  0.119888  0.256950  0.999605  1
  Th  Th12  1  0.878715  0.742410  0.501053  1
  Th  Th13  1  0.327605  0.663803  0.801648  1
  Tc  Tc14  1  0.805377  0.628323  0.046743  1
  Tc  Tc15  1  0.805377  0.177055  0.046743  1
  Os  Os16  1  0.194245  0.376379  0.552669  1
  Os  Os17  1  0.194245  0.817867  0.552669  1
  Pd  Pd18  1  0.626074  0.813037  0.556718  1
  Pd  Pd19  1  0.371746  0.185872  0.056856  1
