# generated using pymatgen
data_Ba4Ca2Sm2Co4O15
_symmetry_space_group_name_H-M   'P 1'
_cell_length_a   11.62868219
_cell_length_b   11.62868199
_cell_length_c   6.75892545
_cell_angle_alpha   89.95541106
_cell_angle_beta   89.95541002
_cell_angle_gamma   119.98560014
_symmetry_Int_Tables_number   1
_chemical_formula_structural   Ba4Ca2Sm2Co4O15
_chemical_formula_sum   'Ba8 Ca4 Sm4 Co8 O30'
_cell_volume   791.64733982
_cell_formula_units_Z   2
loop_
 _symmetry_equiv_pos_site_id
 _symmetry_equiv_pos_as_xyz
  1  'x, y, z'
loop_
 _atom_site_type_symbol
 _atom_site_label
 _atom_site_symmetry_multiplicity
 _atom_site_fract_x
 _atom_site_fract_y
 _atom_site_fract_z
 _atom_site_occupancy
  Ba  Ba0  1  0.829842  0.654053  0.317407  1
  Ba  Ba1  1  0.344036  0.171195  0.326528  1
  Ba  Ba2  1  0.826083  0.175247  0.323382  1
  Ba  Ba3  1  0.171195  0.344036  0.826528  1
  Ba  Ba4  1  0.654053  0.829842  0.817407  1
  Ba  Ba5  1  0.175247  0.826083  0.823382  1
  Ba  Ba6  1  0.666278  0.331683  0.014551  1
  Ba  Ba7  1  0.331683  0.666278  0.514551  1
  Ca  Ca8  1  0.999466  0.000016  0.517883  1
  Ca  Ca9  1  0.000016  0.999466  0.017883  1
  Ca  Ca10  1  0.524270  0.049555  0.653670  1
  Ca  Ca11  1  0.049555  0.524270  0.153670  1
  Sm  Sm12  1  0.950785  0.475883  0.659291  1
  Sm  Sm13  1  0.523714  0.474836  0.659278  1
  Sm  Sm14  1  0.475883  0.950785  0.159291  1
  Sm  Sm15  1  0.474836  0.523714  0.159278  1
  Co  Co16  1  0.827376  0.652847  0.828586  1
  Co  Co17  1  0.348790  0.170867  0.832058  1
  Co  Co18  1  0.823949  0.174028  0.830907  1
  Co  Co19  1  0.170867  0.348790  0.332058  1
  Co  Co20  1  0.652847  0.827376  0.328586  1
  Co  Co21  1  0.174028  0.823949  0.330907  1
  Co  Co22  1  0.664980  0.332068  0.484178  1
  Co  Co23  1  0.332068  0.664980  0.984178  1
  O  O24  1  0.091004  0.176276  0.252569  1
  O  O25  1  0.827360  0.911847  0.258522  1
  O  O26  1  0.085599  0.910125  0.254756  1
  O  O27  1  0.911847  0.827360  0.758522  1
  O  O28  1  0.176276  0.091004  0.752569  1
  O  O29  1  0.910125  0.085599  0.754756  1
  O  O30  1  0.585361  0.170757  0.329273  1
  O  O31  1  0.829445  0.414585  0.337517  1
  O  O32  1  0.583369  0.415835  0.332294  1
  O  O33  1  0.414585  0.829445  0.837517  1
  O  O34  1  0.170757  0.585361  0.829273  1
  O  O35  1  0.415835  0.583369  0.832294  1
  O  O36  1  0.748185  0.500952  0.652855  1
  O  O37  1  0.499933  0.254247  0.657690  1
  O  O38  1  0.749968  0.253657  0.659663  1
  O  O39  1  0.254247  0.499933  0.157690  1
  O  O40  1  0.500952  0.748185  0.152855  1
  O  O41  1  0.253657  0.749968  0.159663  1
  O  O42  1  0.334898  0.397131  0.459924  1
  O  O43  1  0.602800  0.936464  0.452380  1
  O  O44  1  0.060805  0.668545  0.468345  1
  O  O45  1  0.604528  0.664962  0.456172  1
  O  O46  1  0.063317  0.393908  0.470154  1
  O  O47  1  0.333266  0.938376  0.455043  1
  O  O48  1  0.664962  0.604528  0.956172  1
  O  O49  1  0.393908  0.063317  0.970154  1
  O  O50  1  0.938376  0.333266  0.955043  1
  O  O51  1  0.397131  0.334898  0.959924  1
  O  O52  1  0.936464  0.602800  0.952380  1
  O  O53  1  0.668545  0.060805  0.968345  1
