# generated using pymatgen
data_Sr4Li4Si7Pb
_symmetry_space_group_name_H-M   'P 1'
_cell_length_a   4.46818200
_cell_length_b   7.20556182
_cell_length_c   11.57570204
_cell_angle_alpha   89.80046627
_cell_angle_beta   90.00000000
_cell_angle_gamma   90.00000000
_symmetry_Int_Tables_number   1
_chemical_formula_structural   Sr4Li4Si7Pb
_chemical_formula_sum   'Sr4 Li4 Si7 Pb1'
_cell_volume   372.68628363
_cell_formula_units_Z   1
loop_
 _symmetry_equiv_pos_site_id
 _symmetry_equiv_pos_as_xyz
  1  'x, y, z'
loop_
 _atom_site_type_symbol
 _atom_site_label
 _atom_site_symmetry_multiplicity
 _atom_site_fract_x
 _atom_site_fract_y
 _atom_site_fract_z
 _atom_site_occupancy
  Sr  Sr0  1  0.250000  0.135786  0.153175  1
  Sr  Sr1  1  0.750000  0.847628  0.853915  1
  Sr  Sr2  1  0.250000  0.636900  0.358521  1
  Sr  Sr3  1  0.750000  0.361118  0.636223  1
  Li  Li4  1  0.250000  0.123828  0.436547  1
  Li  Li5  1  0.750000  0.877523  0.556580  1
  Li  Li6  1  0.250000  0.624745  0.060103  1
  Li  Li7  1  0.750000  0.401630  0.945822  1
  Si  Si8  1  0.750000  0.472057  0.168292  1
  Si  Si9  1  0.250000  0.551016  0.832138  1
  Si  Si10  1  0.750000  0.968672  0.334326  1
  Si  Si11  1  0.250000  0.019369  0.652337  1
  Si  Si12  1  0.750000  0.299955  0.346622  1
  Si  Si13  1  0.250000  0.693419  0.647171  1
  Si  Si14  1  0.750000  0.801059  0.154831  1
  Pb  Pb15  1  0.250000  0.185296  0.863395  1
