# generated using pymatgen
data_Th8Al8Fe5Rh3
_symmetry_space_group_name_H-M   'P 1'
_cell_length_a   4.11601200
_cell_length_b   7.21217195
_cell_length_c   15.95156187
_cell_angle_alpha   90.03514070
_cell_angle_beta   90.00000000
_cell_angle_gamma   90.00000000
_symmetry_Int_Tables_number   1
_chemical_formula_structural   Th8Al8Fe5Rh3
_chemical_formula_sum   'Th8 Al8 Fe5 Rh3'
_cell_volume   473.52818728
_cell_formula_units_Z   1
loop_
 _symmetry_equiv_pos_site_id
 _symmetry_equiv_pos_as_xyz
  1  'x, y, z'
loop_
 _atom_site_type_symbol
 _atom_site_label
 _atom_site_symmetry_multiplicity
 _atom_site_fract_x
 _atom_site_fract_y
 _atom_site_fract_z
 _atom_site_occupancy
  Th  Th0  1  0.250000  0.160000  0.560133  1
  Th  Th1  1  0.750000  0.844566  0.443454  1
  Th  Th2  1  0.250000  0.662541  0.936080  1
  Th  Th3  1  0.750000  0.341675  0.054501  1
  Th  Th4  1  0.250000  0.032493  0.786223  1
  Th  Th5  1  0.750000  0.958026  0.214374  1
  Th  Th6  1  0.250000  0.547952  0.720193  1
  Th  Th7  1  0.750000  0.459543  0.284275  1
  Al  Al8  1  0.250000  0.147257  0.355439  1
  Al  Al9  1  0.750000  0.855215  0.649232  1
  Al  Al10  1  0.250000  0.644069  0.143260  1
  Al  Al11  1  0.750000  0.357230  0.853159  1
  Al  Al12  1  0.250000  0.996015  0.057200  1
  Al  Al13  1  0.750000  0.997387  0.938764  1
  Al  Al14  1  0.250000  0.501920  0.442614  1
  Al  Al15  1  0.750000  0.505129  0.561005  1
  Fe  Fe16  1  0.750000  0.269843  0.434428  1
  Fe  Fe17  1  0.250000  0.739723  0.567487  1
  Fe  Fe18  1  0.750000  0.762877  0.064112  1
  Fe  Fe19  1  0.250000  0.225839  0.931004  1
  Fe  Fe20  1  0.750000  0.736295  0.819871  1
  Rh  Rh21  1  0.250000  0.252205  0.183355  1
  Rh  Rh22  1  0.750000  0.248662  0.685152  1
  Rh  Rh23  1  0.250000  0.753540  0.314686  1
