# generated using pymatgen
data_Nd3Mg2ScSi2Pt
_symmetry_space_group_name_H-M   'P 1'
_cell_length_a   7.50500163
_cell_length_b   7.41564082
_cell_length_c   4.36879900
_cell_angle_alpha   90.00000000
_cell_angle_beta   90.00000000
_cell_angle_gamma   119.60690968
_symmetry_Int_Tables_number   1
_chemical_formula_structural   Nd3Mg2ScSi2Pt
_chemical_formula_sum   'Nd3 Mg2 Sc1 Si2 Pt1'
_cell_volume   211.39700911
_cell_formula_units_Z   1
loop_
 _symmetry_equiv_pos_site_id
 _symmetry_equiv_pos_as_xyz
  1  'x, y, z'
loop_
 _atom_site_type_symbol
 _atom_site_label
 _atom_site_symmetry_multiplicity
 _atom_site_fract_x
 _atom_site_fract_y
 _atom_site_fract_z
 _atom_site_occupancy
  Nd  Nd0  1  0.416221  0.410782  0.000000  1
  Nd  Nd1  1  0.583779  0.994561  0.000000  1
  Nd  Nd2  1  0.000000  0.594408  0.000000  1
  Mg  Mg3  1  0.757258  0.756275  0.500000  1
  Mg  Mg4  1  0.242742  0.999017  0.500000  1
  Sc  Sc5  1  0.000000  0.236980  0.500000  1
  Si  Si6  1  0.672895  0.332658  0.500000  1
  Si  Si7  1  0.327105  0.659764  0.500000  1
  Pt  Pt8  1  0.000000  0.015554  0.000000  1
