# generated using pymatgen
data_Y2HoZnIn3Pt2
_symmetry_space_group_name_H-M   'P 1'
_cell_length_a   7.71300211
_cell_length_b   7.73462101
_cell_length_c   3.84026900
_cell_angle_alpha   90.00000000
_cell_angle_beta   90.00000000
_cell_angle_gamma   120.09276353
_symmetry_Int_Tables_number   1
_chemical_formula_structural   Y2HoZnIn3Pt2
_chemical_formula_sum   'Y2 Ho1 Zn1 In3 Pt2'
_cell_volume   198.22026486
_cell_formula_units_Z   1
loop_
 _symmetry_equiv_pos_site_id
 _symmetry_equiv_pos_as_xyz
  1  'x, y, z'
loop_
 _atom_site_type_symbol
 _atom_site_label
 _atom_site_symmetry_multiplicity
 _atom_site_fract_x
 _atom_site_fract_y
 _atom_site_fract_z
 _atom_site_occupancy
  Y  Y0  1  0.592099  0.000110  0.500000  1
  Y  Y1  1  0.407901  0.408011  0.500000  1
  Ho  Ho2  1  0.000000  0.591627  0.500000  1
  Zn  Zn3  1  0.000000  0.999802  0.500000  1
  In  In4  1  0.741221  0.740878  0.000000  1
  In  In5  1  0.000000  0.259395  0.000000  1
  In  In6  1  0.258779  0.999657  0.000000  1
  Pt  Pt7  1  0.332351  0.666436  0.000000  1
  Pt  Pt8  1  0.667649  0.334084  0.000000  1
