# generated using pymatgen
data_Y4Er3Lu5Co5Hg
_symmetry_space_group_name_H-M   'P 1'
_cell_length_a   8.20172571
_cell_length_b   8.20087667
_cell_length_c   8.20172647
_cell_angle_alpha   111.08525959
_cell_angle_beta   109.86601019
_cell_angle_gamma   107.48702568
_symmetry_Int_Tables_number   1
_chemical_formula_structural   Y4Er3Lu5Co5Hg
_chemical_formula_sum   'Y4 Er3 Lu5 Co5 Hg1'
_cell_volume   424.21492179
_cell_formula_units_Z   1
loop_
 _symmetry_equiv_pos_site_id
 _symmetry_equiv_pos_as_xyz
  1  'x, y, z'
loop_
 _atom_site_type_symbol
 _atom_site_label
 _atom_site_symmetry_multiplicity
 _atom_site_fract_x
 _atom_site_fract_y
 _atom_site_fract_z
 _atom_site_occupancy
  Y  Y0  1  0.288750  0.187603  0.475665  1
  Y  Y1  1  0.710086  0.811624  0.522431  1
  Y  Y2  1  0.289193  0.811624  0.101538  1
  Y  Y3  1  0.711939  0.187603  0.898853  1
  Er  Er4  1  0.787154  0.596470  0.809317  1
  Er  Er5  1  0.212913  0.022722  0.809808  1
  Er  Er6  1  0.787245  0.978445  0.191200  1
  Lu  Lu7  1  0.622678  0.315911  0.307817  1
  Lu  Lu8  1  0.376341  0.683865  0.691283  1
  Lu  Lu9  1  0.008095  0.315911  0.693233  1
  Lu  Lu10  1  0.992582  0.683865  0.307524  1
  Lu  Lu11  1  0.212785  0.404081  0.191294  1
  Co  Co12  1  0.000157  0.376937  0.376780  1
  Co  Co13  1  0.999756  0.622051  0.622296  1
  Co  Co14  1  0.385526  0.885086  0.499560  1
  Co  Co15  1  0.614373  0.114074  0.499701  1
  Co  Co16  1  0.000874  0.002215  0.001341  1
  Hg  Hg17  1  0.499553  0.499912  0.000360  1
