# generated using pymatgen
data_La2Si7Ir12
_symmetry_space_group_name_H-M   'P 1'
_cell_length_a   9.84422600
_cell_length_b   9.84422618
_cell_length_c   3.92766900
_cell_angle_alpha   90.00000000
_cell_angle_beta   90.00000000
_cell_angle_gamma   120.00000523
_symmetry_Int_Tables_number   1
_chemical_formula_structural   La2Si7Ir12
_chemical_formula_sum   'La2 Si7 Ir12'
_cell_volume   329.63145586
_cell_formula_units_Z   1
loop_
 _symmetry_equiv_pos_site_id
 _symmetry_equiv_pos_as_xyz
  1  'x, y, z'
loop_
 _atom_site_type_symbol
 _atom_site_label
 _atom_site_symmetry_multiplicity
 _atom_site_fract_x
 _atom_site_fract_y
 _atom_site_fract_z
 _atom_site_occupancy
  La  La0  1  0.666667  0.333333  0.248503  1
  La  La1  1  0.000000  0.000000  0.748772  1
  Si  Si2  1  0.333333  0.666667  0.475156  1
  Si  Si3  1  0.733963  0.777681  0.247115  1
  Si  Si4  1  0.043719  0.266037  0.247115  1
  Si  Si5  1  0.222319  0.956281  0.247115  1
  Si  Si6  1  0.932624  0.556047  0.750536  1
  Si  Si7  1  0.623422  0.067376  0.750536  1
  Si  Si8  1  0.443953  0.376578  0.750536  1
  Ir  Ir9  1  0.774809  0.047447  0.247815  1
  Ir  Ir10  1  0.272637  0.225191  0.247815  1
  Ir  Ir11  1  0.952553  0.727363  0.247815  1
  Ir  Ir12  1  0.892251  0.285224  0.750468  1
  Ir  Ir13  1  0.392971  0.107749  0.750468  1
  Ir  Ir14  1  0.714776  0.607029  0.750468  1
  Ir  Ir15  1  0.478119  0.549342  0.252897  1
  Ir  Ir16  1  0.071223  0.521881  0.252897  1
  Ir  Ir17  1  0.450658  0.928777  0.252897  1
  Ir  Ir18  1  0.190377  0.782327  0.744197  1
  Ir  Ir19  1  0.591950  0.809623  0.744197  1
  Ir  Ir20  1  0.217673  0.408050  0.744197  1
