# generated using pymatgen
data_Y20Ir8Os3Au
_symmetry_space_group_name_H-M   'P 1'
_cell_length_a   10.94240106
_cell_length_b   10.93991377
_cell_length_c   6.45660021
_cell_angle_alpha   89.99134277
_cell_angle_beta   89.97231380
_cell_angle_gamma   89.84709715
_symmetry_Int_Tables_number   1
_chemical_formula_structural   Y20Ir8Os3Au
_chemical_formula_sum   'Y20 Ir8 Os3 Au1'
_cell_volume   772.90981252
_cell_formula_units_Z   1
loop_
 _symmetry_equiv_pos_site_id
 _symmetry_equiv_pos_as_xyz
  1  'x, y, z'
loop_
 _atom_site_type_symbol
 _atom_site_label
 _atom_site_symmetry_multiplicity
 _atom_site_fract_x
 _atom_site_fract_y
 _atom_site_fract_z
 _atom_site_occupancy
  Y  Y0  1  0.292519  0.085895  0.377834  1
  Y  Y1  1  0.295680  0.913415  0.878172  1
  Y  Y2  1  0.701699  0.082823  0.865968  1
  Y  Y3  1  0.703295  0.906729  0.380809  1
  Y  Y4  1  0.585787  0.793394  0.880062  1
  Y  Y5  1  0.577905  0.207166  0.378649  1
  Y  Y6  1  0.412089  0.793391  0.378810  1
  Y  Y7  1  0.413019  0.205829  0.879845  1
  Y  Y8  1  0.208771  0.413052  0.622201  1
  Y  Y9  1  0.207732  0.588819  0.119399  1
  Y  Y10  1  0.791403  0.421651  0.119125  1
  Y  Y11  1  0.792016  0.588257  0.622506  1
  Y  Y12  1  0.913300  0.708407  0.120185  1
  Y  Y13  1  0.916057  0.296496  0.637294  1
  Y  Y14  1  0.087923  0.706253  0.624510  1
  Y  Y15  1  0.094810  0.295820  0.116690  1
  Y  Y16  1  0.003425  0.995590  0.501673  1
  Y  Y17  1  0.004326  0.996384  0.995752  1
  Y  Y18  1  0.499185  0.500307  0.997693  1
  Y  Y19  1  0.499759  0.500723  0.499486  1
  Ir  Ir20  1  0.849101  0.848385  0.750087  1
  Ir  Ir21  1  0.150112  0.152281  0.749178  1
  Ir  Ir22  1  0.152623  0.845323  0.249846  1
  Ir  Ir23  1  0.654156  0.347103  0.749915  1
  Ir  Ir24  1  0.653227  0.650831  0.249696  1
  Ir  Ir25  1  0.347314  0.348898  0.250197  1
  Ir  Ir26  1  0.346703  0.652242  0.749592  1
  Ir  Ir27  1  0.000216  0.499116  0.374914  1
  Os  Os28  1  0.500582  0.999782  0.128673  1
  Os  Os29  1  0.499360  0.999551  0.625027  1
  Os  Os30  1  0.000352  0.500482  0.876060  1
  Au  Au31  1  0.845556  0.155604  0.250152  1
