# generated using pymatgen
data_Ho2Si4W3
_symmetry_space_group_name_H-M   'P 1'
_cell_length_a   6.77097400
_cell_length_b   6.93352100
_cell_length_c   12.90490600
_cell_angle_alpha   90.00000000
_cell_angle_beta   90.00000000
_cell_angle_gamma   90.00000000
_symmetry_Int_Tables_number   1
_chemical_formula_structural   Ho2Si4W3
_chemical_formula_sum   'Ho8 Si16 W12'
_cell_volume   605.84262687
_cell_formula_units_Z   4
loop_
 _symmetry_equiv_pos_site_id
 _symmetry_equiv_pos_as_xyz
  1  'x, y, z'
loop_
 _atom_site_type_symbol
 _atom_site_label
 _atom_site_symmetry_multiplicity
 _atom_site_fract_x
 _atom_site_fract_y
 _atom_site_fract_z
 _atom_site_occupancy
  Ho  Ho0  1  0.494695  0.332258  0.093635  1
  Ho  Ho1  1  0.994695  0.167742  0.406365  1
  Ho  Ho2  1  0.505305  0.667742  0.593635  1
  Ho  Ho3  1  0.005305  0.832258  0.906365  1
  Ho  Ho4  1  0.505305  0.667742  0.906365  1
  Ho  Ho5  1  0.005305  0.832258  0.593635  1
  Ho  Ho6  1  0.494695  0.332258  0.406365  1
  Ho  Ho7  1  0.994695  0.167742  0.093635  1
  Si  Si8  1  0.804534  0.633075  0.750000  1
  Si  Si9  1  0.304534  0.866925  0.750000  1
  Si  Si10  1  0.195466  0.366925  0.250000  1
  Si  Si11  1  0.695466  0.133075  0.250000  1
  Si  Si12  1  0.538372  0.370472  0.750000  1
  Si  Si13  1  0.038372  0.129528  0.750000  1
  Si  Si14  1  0.461628  0.629528  0.250000  1
  Si  Si15  1  0.961628  0.870472  0.250000  1
  Si  Si16  1  0.662589  0.041906  0.546794  1
  Si  Si17  1  0.162589  0.458094  0.953206  1
  Si  Si18  1  0.337411  0.958094  0.046794  1
  Si  Si19  1  0.837411  0.541906  0.453206  1
  Si  Si20  1  0.337411  0.958094  0.453206  1
  Si  Si21  1  0.837411  0.541906  0.046794  1
  Si  Si22  1  0.662589  0.041906  0.953206  1
  Si  Si23  1  0.162589  0.458094  0.546794  1
  W  W24  1  0.668100  0.999742  0.750000  1
  W  W25  1  0.168100  0.500258  0.750000  1
  W  W26  1  0.331900  0.000258  0.250000  1
  W  W27  1  0.831900  0.499742  0.250000  1
  W  W28  1  0.833581  0.335992  0.625393  1
  W  W29  1  0.333581  0.164008  0.874607  1
  W  W30  1  0.166419  0.664008  0.125393  1
  W  W31  1  0.666419  0.835992  0.374607  1
  W  W32  1  0.166419  0.664008  0.374607  1
  W  W33  1  0.666419  0.835992  0.125393  1
  W  W34  1  0.833581  0.335992  0.874607  1
  W  W35  1  0.333581  0.164008  0.625393  1
