# generated using pymatgen
data_TbPr4Tm5Si8
_symmetry_space_group_name_H-M   'P 1'
_cell_length_a   7.78540294
_cell_length_b   7.78488345
_cell_length_c   14.42811100
_cell_angle_alpha   90.05390374
_cell_angle_beta   89.84649040
_cell_angle_gamma   90.00214630
_symmetry_Int_Tables_number   1
_chemical_formula_structural   TbPr4Tm5Si8
_chemical_formula_sum   'Tb2 Pr8 Tm10 Si16'
_cell_volume   874.46198327
_cell_formula_units_Z   2
loop_
 _symmetry_equiv_pos_site_id
 _symmetry_equiv_pos_as_xyz
  1  'x, y, z'
loop_
 _atom_site_type_symbol
 _atom_site_label
 _atom_site_symmetry_multiplicity
 _atom_site_fract_x
 _atom_site_fract_y
 _atom_site_fract_z
 _atom_site_occupancy
  Tb  Tb0  1  0.510281  0.637518  0.126024  1
  Tb  Tb1  1  0.138030  0.990191  0.874027  1
  Pr  Pr2  1  0.991528  0.639960  0.043094  1
  Pr  Pr3  1  0.009338  0.359330  0.541260  1
  Pr  Pr4  1  0.639422  0.989562  0.956802  1
  Pr  Pr5  1  0.140458  0.508867  0.791234  1
  Pr  Pr6  1  0.859776  0.490972  0.293140  1
  Pr  Pr7  1  0.510491  0.140544  0.208498  1
  Pr  Pr8  1  0.489386  0.859443  0.707333  1
  Pr  Pr9  1  0.358434  0.010650  0.459032  1
  Tm  Tm10  1  0.361992  0.492349  0.375087  1
  Tm  Tm11  1  0.862823  0.008809  0.376402  1
  Tm  Tm12  1  0.991207  0.138450  0.125542  1
  Tm  Tm13  1  0.007701  0.861856  0.624046  1
  Tm  Tm14  1  0.638660  0.508742  0.874533  1
  Tm  Tm15  1  0.491817  0.362307  0.624440  1
  Tm  Tm16  1  0.682137  0.683454  0.500343  1
  Tm  Tm17  1  0.815805  0.183255  0.749308  1
  Tm  Tm18  1  0.183376  0.818073  0.250769  1
  Tm  Tm19  1  0.316795  0.315867  0.999750  1
  Si  Si20  1  0.065608  0.712678  0.437676  1
  Si  Si21  1  0.934113  0.287960  0.937672  1
  Si  Si22  1  0.711508  0.065203  0.562463  1
  Si  Si23  1  0.211737  0.433399  0.188327  1
  Si  Si24  1  0.787150  0.564934  0.687018  1
  Si  Si25  1  0.436155  0.213296  0.811308  1
  Si  Si26  1  0.565859  0.789927  0.314305  1
  Si  Si27  1  0.288041  0.935621  0.063149  1
  Si  Si28  1  0.843586  0.797386  0.806513  1
  Si  Si29  1  0.153843  0.202572  0.309487  1
  Si  Si30  1  0.801055  0.847222  0.193758  1
  Si  Si31  1  0.297616  0.653707  0.558716  1
  Si  Si32  1  0.702837  0.343566  0.057233  1
  Si  Si33  1  0.653397  0.298421  0.441189  1
  Si  Si34  1  0.345974  0.699290  0.941559  1
  Si  Si35  1  0.202066  0.154618  0.688964  1
