# generated using pymatgen
data_Ho4TmSn3P
_symmetry_space_group_name_H-M   'P 1'
_cell_length_a   9.01626600
_cell_length_b   9.01626738
_cell_length_c   6.63722500
_cell_angle_alpha   90.00000000
_cell_angle_beta   90.00000000
_cell_angle_gamma   119.99999493
_symmetry_Int_Tables_number   1
_chemical_formula_structural   Ho4TmSn3P
_chemical_formula_sum   'Ho8 Tm2 Sn6 P2'
_cell_volume   467.27300571
_cell_formula_units_Z   2
loop_
 _symmetry_equiv_pos_site_id
 _symmetry_equiv_pos_as_xyz
  1  'x, y, z'
loop_
 _atom_site_type_symbol
 _atom_site_label
 _atom_site_symmetry_multiplicity
 _atom_site_fract_x
 _atom_site_fract_y
 _atom_site_fract_z
 _atom_site_occupancy
  Ho  Ho0  1  0.666667  0.333333  0.000000  1
  Ho  Ho1  1  0.333333  0.666667  0.000000  1
  Ho  Ho2  1  0.758054  0.758054  0.749834  1
  Ho  Ho3  1  0.241946  0.000000  0.749834  1
  Ho  Ho4  1  0.000000  0.241946  0.749834  1
  Ho  Ho5  1  0.241946  0.241946  0.250166  1
  Ho  Ho6  1  0.758054  0.000000  0.250166  1
  Ho  Ho7  1  0.000000  0.758054  0.250166  1
  Tm  Tm8  1  0.333333  0.666667  0.500000  1
  Tm  Tm9  1  0.666667  0.333333  0.500000  1
  Sn  Sn10  1  0.398894  0.398894  0.749465  1
  Sn  Sn11  1  0.601106  0.000000  0.749465  1
  Sn  Sn12  1  0.000000  0.601106  0.749465  1
  Sn  Sn13  1  0.601106  0.601106  0.250535  1
  Sn  Sn14  1  0.398894  0.000000  0.250535  1
  Sn  Sn15  1  0.000000  0.398894  0.250535  1
  P  P16  1  0.000000  0.000000  0.000000  1
  P  P17  1  0.000000  0.000000  0.500000  1
