# generated using pymatgen
data_Mo2SCl2
_symmetry_space_group_name_H-M   'P 1'
_cell_length_a   9.54158882
_cell_length_b   9.54158931
_cell_length_c   11.98979800
_cell_angle_alpha   90.00000000
_cell_angle_beta   90.00000000
_cell_angle_gamma   139.10150726
_symmetry_Int_Tables_number   1
_chemical_formula_structural   Mo2SCl2
_chemical_formula_sum   'Mo12 S6 Cl12'
_cell_volume   714.67650910
_cell_formula_units_Z   6
loop_
 _symmetry_equiv_pos_site_id
 _symmetry_equiv_pos_as_xyz
  1  'x, y, z'
loop_
 _atom_site_type_symbol
 _atom_site_label
 _atom_site_symmetry_multiplicity
 _atom_site_fract_x
 _atom_site_fract_y
 _atom_site_fract_z
 _atom_site_occupancy
  Mo  Mo0  1  0.743623  0.743623  0.939595  1
  Mo  Mo1  1  0.743623  0.743623  0.560405  1
  Mo  Mo2  1  0.256377  0.256377  0.439595  1
  Mo  Mo3  1  0.256377  0.256377  0.060405  1
  Mo  Mo4  1  0.007816  0.156438  0.897679  1
  Mo  Mo5  1  0.156438  0.007816  0.602321  1
  Mo  Mo6  1  0.992184  0.843562  0.397679  1
  Mo  Mo7  1  0.843562  0.992184  0.102321  1
  Mo  Mo8  1  0.992184  0.843562  0.102321  1
  Mo  Mo9  1  0.843562  0.992184  0.397679  1
  Mo  Mo10  1  0.007816  0.156438  0.602321  1
  Mo  Mo11  1  0.156438  0.007816  0.897679  1
  S  S12  1  0.381120  0.381120  0.629710  1
  S  S13  1  0.381120  0.381120  0.870290  1
  S  S14  1  0.618880  0.618880  0.129710  1
  S  S15  1  0.618880  0.618880  0.370290  1
  S  S16  1  0.906358  0.906358  0.750000  1
  S  S17  1  0.093642  0.093642  0.250000  1
  Cl  Cl18  1  0.989315  0.649730  0.250000  1
  Cl  Cl19  1  0.649730  0.989315  0.250000  1
  Cl  Cl20  1  0.010685  0.350270  0.750000  1
  Cl  Cl21  1  0.350270  0.010685  0.750000  1
  Cl  Cl22  1  0.103552  0.383733  0.058250  1
  Cl  Cl23  1  0.383733  0.103552  0.441750  1
  Cl  Cl24  1  0.383733  0.103552  0.058250  1
  Cl  Cl25  1  0.103552  0.383733  0.441750  1
  Cl  Cl26  1  0.616267  0.896448  0.558250  1
  Cl  Cl27  1  0.896448  0.616267  0.941750  1
  Cl  Cl28  1  0.616267  0.896448  0.941750  1
  Cl  Cl29  1  0.896448  0.616267  0.558250  1
