# generated using pymatgen
data_Tb4Al17GaCuRh5
_symmetry_space_group_name_H-M   'P 1'
_cell_length_a   7.56313132
_cell_length_b   7.56313121
_cell_length_c   9.46381316
_cell_angle_alpha   90.08967774
_cell_angle_beta   90.08967128
_cell_angle_gamma   119.44751720
_symmetry_Int_Tables_number   1
_chemical_formula_structural   Tb4Al17GaCuRh5
_chemical_formula_sum   'Tb4 Al17 Ga1 Cu1 Rh5'
_cell_volume   471.39931661
_cell_formula_units_Z   1
loop_
 _symmetry_equiv_pos_site_id
 _symmetry_equiv_pos_as_xyz
  1  'x, y, z'
loop_
 _atom_site_type_symbol
 _atom_site_label
 _atom_site_symmetry_multiplicity
 _atom_site_fract_x
 _atom_site_fract_y
 _atom_site_fract_z
 _atom_site_occupancy
  Tb  Tb0  1  0.994413  0.675738  0.249691  1
  Tb  Tb1  1  0.004550  0.326965  0.750601  1
  Tb  Tb2  1  0.675738  0.994413  0.249691  1
  Tb  Tb3  1  0.326965  0.004550  0.750601  1
  Al  Al4  1  0.869303  0.869303  0.748243  1
  Al  Al5  1  0.001528  0.339994  0.077132  1
  Al  Al6  1  0.998407  0.661365  0.923078  1
  Al  Al7  1  0.999744  0.664790  0.574112  1
  Al  Al8  1  0.335795  0.000849  0.425723  1
  Al  Al9  1  0.000849  0.335795  0.425723  1
  Al  Al10  1  0.664790  0.999744  0.574112  1
  Al  Al11  1  0.661365  0.998407  0.923078  1
  Al  Al12  1  0.339994  0.001528  0.077132  1
  Al  Al13  1  0.332531  0.332531  0.552512  1
  Al  Al14  1  0.665910  0.665910  0.450977  1
  Al  Al15  1  0.662509  0.662509  0.051035  1
  Al  Al16  1  0.335666  0.335666  0.945929  1
  Al  Al17  1  0.338838  0.551230  0.250503  1
  Al  Al18  1  0.660675  0.449673  0.749603  1
  Al  Al19  1  0.551230  0.338838  0.250503  1
  Al  Al20  1  0.449673  0.660675  0.749603  1
  Ga  Ga21  1  0.133616  0.133616  0.249865  1
  Cu  Cu22  1  0.999114  0.999114  0.998669  1
  Rh  Rh23  1  0.671164  0.327321  0.999979  1
  Rh  Rh24  1  0.327321  0.671164  0.999979  1
  Rh  Rh25  1  0.327673  0.671361  0.500015  1
  Rh  Rh26  1  0.671361  0.327673  0.500015  1
  Rh  Rh27  1  0.999279  0.999279  0.501894  1
