# generated using pymatgen
data_K2NpSe3
_symmetry_space_group_name_H-M   'P 1'
_cell_length_a   7.56358960
_cell_length_b   7.56359015
_cell_length_c   8.09560719
_cell_angle_alpha   80.89188896
_cell_angle_beta   80.89188848
_cell_angle_gamma   119.96720758
_symmetry_Int_Tables_number   1
_chemical_formula_structural   K2NpSe3
_chemical_formula_sum   'K4 Np2 Se6'
_cell_volume   380.59970133
_cell_formula_units_Z   2
loop_
 _symmetry_equiv_pos_site_id
 _symmetry_equiv_pos_as_xyz
  1  'x, y, z'
loop_
 _atom_site_type_symbol
 _atom_site_label
 _atom_site_symmetry_multiplicity
 _atom_site_fract_x
 _atom_site_fract_y
 _atom_site_fract_z
 _atom_site_occupancy
  K  K0  1  0.344509  0.655491  0.500000  1
  K  K1  1  0.655491  0.344509  0.500000  1
  K  K2  1  0.000000  0.000000  0.500000  1
  K  K3  1  0.500000  0.500000  0.000000  1
  Np  Np4  1  0.167548  0.832452  0.000000  1
  Np  Np5  1  0.832452  0.167548  0.000000  1
  Se  Se6  1  0.804312  0.804312  0.205422  1
  Se  Se7  1  0.429052  0.053325  0.207601  1
  Se  Se8  1  0.053325  0.429052  0.207601  1
  Se  Se9  1  0.570948  0.946675  0.792399  1
  Se  Se10  1  0.946675  0.570948  0.792399  1
  Se  Se11  1  0.195688  0.195688  0.794578  1
