# generated using pymatgen
data_Yb7Mg(Si4Mo3)4
_symmetry_space_group_name_H-M   'P 1'
_cell_length_a   6.70689040
_cell_length_b   6.89500299
_cell_length_c   13.02583678
_cell_angle_alpha   89.86476128
_cell_angle_beta   89.98494958
_cell_angle_gamma   89.88147914
_symmetry_Int_Tables_number   1
_chemical_formula_structural   Yb7Mg(Si4Mo3)4
_chemical_formula_sum   'Yb7 Mg1 Si16 Mo12'
_cell_volume   602.36419162
_cell_formula_units_Z   1
loop_
 _symmetry_equiv_pos_site_id
 _symmetry_equiv_pos_as_xyz
  1  'x, y, z'
loop_
 _atom_site_type_symbol
 _atom_site_label
 _atom_site_symmetry_multiplicity
 _atom_site_fract_x
 _atom_site_fract_y
 _atom_site_fract_z
 _atom_site_occupancy
  Yb  Yb0  1  0.498914  0.334269  0.090493  1
  Yb  Yb1  1  0.998793  0.166238  0.409489  1
  Yb  Yb2  1  0.502205  0.665704  0.590845  1
  Yb  Yb3  1  0.000928  0.832171  0.910684  1
  Yb  Yb4  1  0.500418  0.666503  0.911154  1
  Yb  Yb5  1  0.001924  0.833249  0.590735  1
  Yb  Yb6  1  0.498648  0.333238  0.407323  1
  Mg  Mg7  1  0.983444  0.169450  0.092235  1
  Si  Si8  1  0.657997  0.043706  0.545057  1
  Si  Si9  1  0.158477  0.452502  0.957694  1
  Si  Si10  1  0.333340  0.964227  0.045684  1
  Si  Si11  1  0.842157  0.544377  0.454171  1
  Si  Si12  1  0.342926  0.955819  0.454103  1
  Si  Si13  1  0.844116  0.538713  0.046369  1
  Si  Si14  1  0.658885  0.041871  0.956478  1
  Si  Si15  1  0.158595  0.456816  0.544766  1
  Si  Si16  1  0.536685  0.374655  0.750852  1
  Si  Si17  1  0.035909  0.123384  0.750218  1
  Si  Si18  1  0.465723  0.627058  0.249134  1
  Si  Si19  1  0.966000  0.876393  0.248092  1
  Si  Si20  1  0.801744  0.631332  0.751186  1
  Si  Si21  1  0.300809  0.865852  0.750661  1
  Si  Si22  1  0.196988  0.364028  0.246914  1
  Si  Si23  1  0.701593  0.134796  0.248176  1
  Mo  Mo24  1  0.836107  0.330376  0.628604  1
  Mo  Mo25  1  0.336302  0.169042  0.872219  1
  Mo  Mo26  1  0.167359  0.670932  0.127479  1
  Mo  Mo27  1  0.666389  0.833441  0.370701  1
  Mo  Mo28  1  0.165313  0.669153  0.370973  1
  Mo  Mo29  1  0.665666  0.834911  0.126573  1
  Mo  Mo30  1  0.838126  0.327404  0.874169  1
  Mo  Mo31  1  0.336371  0.168696  0.628174  1
  Mo  Mo32  1  0.661441  0.007832  0.750938  1
  Mo  Mo33  1  0.161805  0.489613  0.750631  1
  Mo  Mo34  1  0.337475  0.993766  0.248172  1
  Mo  Mo35  1  0.840423  0.508479  0.248855  1
