# generated using pymatgen
data_Ce6Nd7Dy3(CdRu)4
_symmetry_space_group_name_H-M   'P 1'
_cell_length_a   9.70065888
_cell_length_b   9.70065826
_cell_length_c   9.81512693
_cell_angle_alpha   60.35329347
_cell_angle_beta   60.35329664
_cell_angle_gamma   60.51970903
_symmetry_Int_Tables_number   1
_chemical_formula_structural   Ce6Nd7Dy3(CdRu)4
_chemical_formula_sum   'Ce6 Nd7 Dy3 Cd4 Ru4'
_cell_volume   659.13888733
_cell_formula_units_Z   1
loop_
 _symmetry_equiv_pos_site_id
 _symmetry_equiv_pos_as_xyz
  1  'x, y, z'
loop_
 _atom_site_type_symbol
 _atom_site_label
 _atom_site_symmetry_multiplicity
 _atom_site_fract_x
 _atom_site_fract_y
 _atom_site_fract_z
 _atom_site_occupancy
  Ce  Ce0  1  0.185745  0.811374  0.184727  1
  Ce  Ce1  1  0.811374  0.185746  0.184728  1
  Ce  Ce2  1  0.346301  0.346301  0.964013  1
  Ce  Ce3  1  0.346670  0.962320  0.346249  1
  Ce  Ce4  1  0.962320  0.346670  0.346249  1
  Ce  Ce5  1  0.344170  0.344170  0.351286  1
  Nd  Nd6  1  0.557791  0.557791  0.941940  1
  Nd  Nd7  1  0.938930  0.558521  0.941221  1
  Nd  Nd8  1  0.558521  0.938930  0.941221  1
  Nd  Nd9  1  0.941290  0.941290  0.558734  1
  Nd  Nd10  1  0.562679  0.938634  0.557328  1
  Nd  Nd11  1  0.938634  0.562679  0.557328  1
  Nd  Nd12  1  0.189753  0.189753  0.804954  1
  Dy  Dy13  1  0.811670  0.185621  0.809882  1
  Dy  Dy14  1  0.185620  0.811671  0.809882  1
  Dy  Dy15  1  0.810172  0.810173  0.184461  1
  Cd  Cd16  1  0.580014  0.580014  0.262171  1
  Cd  Cd17  1  0.580446  0.260070  0.581773  1
  Cd  Cd18  1  0.260070  0.580446  0.581773  1
  Cd  Cd19  1  0.578888  0.578888  0.579615  1
  Ru  Ru20  1  0.142968  0.142968  0.558056  1
  Ru  Ru21  1  0.152800  0.582578  0.149464  1
  Ru  Ru22  1  0.582578  0.152800  0.149464  1
  Ru  Ru23  1  0.130595  0.130595  0.153481  1
