# generated using pymatgen
data_Y3HoScIr3O14
_symmetry_space_group_name_H-M   'P 1'
_cell_length_a   7.26253490
_cell_length_b   7.26253438
_cell_length_c   7.33169501
_cell_angle_alpha   60.31156114
_cell_angle_beta   60.31156481
_cell_angle_gamma   60.00000405
_symmetry_Int_Tables_number   1
_chemical_formula_structural   Y3HoScIr3O14
_chemical_formula_sum   'Y3 Ho1 Sc1 Ir3 O14'
_cell_volume   274.72303660
_cell_formula_units_Z   1
loop_
 _symmetry_equiv_pos_site_id
 _symmetry_equiv_pos_as_xyz
  1  'x, y, z'
loop_
 _atom_site_type_symbol
 _atom_site_label
 _atom_site_symmetry_multiplicity
 _atom_site_fract_x
 _atom_site_fract_y
 _atom_site_fract_z
 _atom_site_occupancy
  Y  Y0  1  0.625000  0.125000  0.125000  1
  Y  Y1  1  0.125000  0.625000  0.125000  1
  Y  Y2  1  0.125000  0.125000  0.125000  1
  Ho  Ho3  1  0.125000  0.125000  0.625000  1
  Sc  Sc4  1  0.625000  0.625000  0.125000  1
  Ir  Ir5  1  0.125000  0.625000  0.625000  1
  Ir  Ir6  1  0.625000  0.125000  0.625000  1
  Ir  Ir7  1  0.625000  0.625000  0.625000  1
  O  O8  1  0.720279  0.720279  0.289324  1
  O  O9  1  0.295981  0.295981  0.687067  1
  O  O10  1  0.720970  0.295981  0.687067  1
  O  O11  1  0.270118  0.720279  0.289324  1
  O  O12  1  0.295981  0.720970  0.687067  1
  O  O13  1  0.720279  0.270118  0.289324  1
  O  O14  1  0.529721  0.529721  0.960676  1
  O  O15  1  0.954019  0.954019  0.562933  1
  O  O16  1  0.529030  0.954019  0.562933  1
  O  O17  1  0.979882  0.529721  0.960676  1
  O  O18  1  0.954019  0.529030  0.562933  1
  O  O19  1  0.529721  0.979882  0.960676  1
  O  O20  1  0.246525  0.246525  0.260424  1
  O  O21  1  0.003475  0.003475  0.989576  1
