# generated using pymatgen
data_Tb5Yb4Dy(CuPb3)2
_symmetry_space_group_name_H-M   'P 1'
_cell_length_a   9.25335500
_cell_length_b   9.25197441
_cell_length_c   6.81043700
_cell_angle_alpha   90.00000000
_cell_angle_beta   90.00000000
_cell_angle_gamma   120.00493991
_symmetry_Int_Tables_number   1
_chemical_formula_structural   Tb5Yb4Dy(CuPb3)2
_chemical_formula_sum   'Tb5 Yb4 Dy1 Cu2 Pb6'
_cell_volume   504.91426172
_cell_formula_units_Z   1
loop_
 _symmetry_equiv_pos_site_id
 _symmetry_equiv_pos_as_xyz
  1  'x, y, z'
loop_
 _atom_site_type_symbol
 _atom_site_label
 _atom_site_symmetry_multiplicity
 _atom_site_fract_x
 _atom_site_fract_y
 _atom_site_fract_z
 _atom_site_occupancy
  Tb  Tb0  1  0.740659  0.000000  0.750000  1
  Tb  Tb1  1  0.000073  0.259506  0.250000  1
  Tb  Tb2  1  0.999882  0.740674  0.750000  1
  Tb  Tb3  1  0.740567  0.740494  0.250000  1
  Tb  Tb4  1  0.259208  0.259326  0.750000  1
  Yb  Yb5  1  0.333296  0.666848  0.000046  1
  Yb  Yb6  1  0.666449  0.333152  0.000046  1
  Yb  Yb7  1  0.666449  0.333152  0.499954  1
  Yb  Yb8  1  0.333296  0.666848  0.499954  1
  Dy  Dy9  1  0.259230  0.000000  0.250000  1
  Cu  Cu10  1  0.000546  0.000000  0.999721  1
  Cu  Cu11  1  0.000546  0.000000  0.500279  1
  Pb  Pb12  1  0.612971  0.000000  0.250000  1
  Pb  Pb13  1  0.386723  0.000000  0.750000  1
  Pb  Pb14  1  0.000359  0.613691  0.250000  1
  Pb  Pb15  1  0.999931  0.386784  0.750000  1
  Pb  Pb16  1  0.386668  0.386309  0.250000  1
  Pb  Pb17  1  0.613147  0.613216  0.750000  1
