# generated using pymatgen
data_Tb2PaFe6(CoP2)3
_symmetry_space_group_name_H-M   'P 1'
_cell_length_a   3.69383500
_cell_length_b   10.60758100
_cell_length_c   12.06945600
_cell_angle_alpha   90.00000000
_cell_angle_beta   90.00000000
_cell_angle_gamma   90.00000000
_symmetry_Int_Tables_number   1
_chemical_formula_structural   Tb2PaFe6(CoP2)3
_chemical_formula_sum   'Tb4 Pa2 Fe12 Co6 P12'
_cell_volume   472.91331797
_cell_formula_units_Z   2
loop_
 _symmetry_equiv_pos_site_id
 _symmetry_equiv_pos_as_xyz
  1  'x, y, z'
loop_
 _atom_site_type_symbol
 _atom_site_label
 _atom_site_symmetry_multiplicity
 _atom_site_fract_x
 _atom_site_fract_y
 _atom_site_fract_z
 _atom_site_occupancy
  Tb  Tb0  1  0.500000  0.817493  0.204515  1
  Tb  Tb1  1  0.500000  0.182507  0.204515  1
  Tb  Tb2  1  0.000000  0.682507  0.795485  1
  Tb  Tb3  1  0.000000  0.317493  0.795485  1
  Pa  Pa4  1  0.000000  0.500000  0.528439  1
  Pa  Pa5  1  0.500000  0.000000  0.471561  1
  Fe  Fe6  1  0.500000  0.500000  0.154216  1
  Fe  Fe7  1  0.000000  0.000000  0.845784  1
  Fe  Fe8  1  0.000000  0.500000  0.989137  1
  Fe  Fe9  1  0.500000  0.000000  0.010863  1
  Fe  Fe10  1  0.500000  0.332710  0.995789  1
  Fe  Fe11  1  0.500000  0.667290  0.995789  1
  Fe  Fe12  1  0.000000  0.167290  0.004211  1
  Fe  Fe13  1  0.000000  0.832710  0.004211  1
  Fe  Fe14  1  0.500000  0.303281  0.429209  1
  Fe  Fe15  1  0.500000  0.696719  0.429209  1
  Fe  Fe16  1  0.000000  0.196719  0.570791  1
  Fe  Fe17  1  0.000000  0.803281  0.570791  1
  Co  Co18  1  0.500000  0.500000  0.695590  1
  Co  Co19  1  0.000000  0.000000  0.304410  1
  Co  Co20  1  0.500000  0.882222  0.712624  1
  Co  Co21  1  0.500000  0.117778  0.712624  1
  Co  Co22  1  0.000000  0.617778  0.287376  1
  Co  Co23  1  0.000000  0.382222  0.287376  1
  P  P24  1  0.500000  0.500000  0.884676  1
  P  P25  1  0.000000  0.000000  0.115324  1
  P  P26  1  0.500000  0.500000  0.341449  1
  P  P27  1  0.000000  0.000000  0.658551  1
  P  P28  1  0.500000  0.303508  0.614507  1
  P  P29  1  0.500000  0.696492  0.614507  1
  P  P30  1  0.000000  0.196492  0.385493  1
  P  P31  1  0.000000  0.803508  0.385493  1
  P  P32  1  0.500000  0.846385  0.895750  1
  P  P33  1  0.500000  0.153615  0.895750  1
  P  P34  1  0.000000  0.653615  0.104250  1
  P  P35  1  0.000000  0.346385  0.104250  1
