# generated using pymatgen
data_Y2Ho6Re(B8Os)3
_symmetry_space_group_name_H-M   'P 1'
_cell_length_a   3.65712600
_cell_length_b   9.14285604
_cell_length_c   11.52819900
_cell_angle_alpha   90.08335228
_cell_angle_beta   90.00000000
_cell_angle_gamma   90.00000000
_symmetry_Int_Tables_number   1
_chemical_formula_structural   Y2Ho6Re(B8Os)3
_chemical_formula_sum   'Y2 Ho6 Re1 B24 Os3'
_cell_volume   385.46310043
_cell_formula_units_Z   1
loop_
 _symmetry_equiv_pos_site_id
 _symmetry_equiv_pos_as_xyz
  1  'x, y, z'
loop_
 _atom_site_type_symbol
 _atom_site_label
 _atom_site_symmetry_multiplicity
 _atom_site_fract_x
 _atom_site_fract_y
 _atom_site_fract_z
 _atom_site_occupancy
  Y  Y0  1  0.000000  0.322202  0.414861  1
  Y  Y1  1  0.000000  0.680197  0.588128  1
  Ho  Ho2  1  0.000000  0.822653  0.083608  1
  Ho  Ho3  1  0.000000  0.176361  0.913222  1
  Ho  Ho4  1  0.000000  0.943307  0.371832  1
  Ho  Ho5  1  0.000000  0.055912  0.627787  1
  Ho  Ho6  1  0.000000  0.442984  0.127665  1
  Ho  Ho7  1  0.000000  0.556512  0.872901  1
  Re  Re8  1  0.000000  0.862721  0.821705  1
  B  B9  1  0.500000  0.553921  0.433000  1
  B  B10  1  0.500000  0.446213  0.567306  1
  B  B11  1  0.500000  0.053554  0.067235  1
  B  B12  1  0.500000  0.947192  0.933215  1
  B  B13  1  0.500000  0.748452  0.419187  1
  B  B14  1  0.500000  0.251658  0.580672  1
  B  B15  1  0.500000  0.248003  0.080573  1
  B  B16  1  0.500000  0.751656  0.919432  1
  B  B17  1  0.500000  0.790531  0.266010  1
  B  B18  1  0.500000  0.209046  0.733272  1
  B  B19  1  0.500000  0.290804  0.233655  1
  B  B20  1  0.500000  0.708596  0.766359  1
  B  B21  1  0.500000  0.631157  0.185351  1
  B  B22  1  0.500000  0.368379  0.814267  1
  B  B23  1  0.500000  0.131477  0.314525  1
  B  B24  1  0.500000  0.868881  0.685794  1
  B  B25  1  0.500000  0.983190  0.212608  1
  B  B26  1  0.500000  0.017849  0.787304  1
  B  B27  1  0.500000  0.483219  0.287522  1
  B  B28  1  0.500000  0.516774  0.712975  1
  B  B29  1  0.500000  0.605914  0.030016  1
  B  B30  1  0.500000  0.392585  0.970610  1
  B  B31  1  0.500000  0.106868  0.470047  1
  B  B32  1  0.500000  0.893694  0.528922  1
  Os  Os33  1  0.000000  0.637642  0.321152  1
  Os  Os34  1  0.000000  0.362337  0.678389  1
  Os  Os35  1  0.000000  0.137560  0.178892  1
