# generated using pymatgen
data_YTm3(As4O9)2
_symmetry_space_group_name_H-M   'P 1'
_cell_length_a   6.69374661
_cell_length_b   7.49438002
_cell_length_c   9.79359509
_cell_angle_alpha   94.67635967
_cell_angle_beta   104.09338256
_cell_angle_gamma   104.80955492
_symmetry_Int_Tables_number   1
_chemical_formula_structural   YTm3(As4O9)2
_chemical_formula_sum   'Y1 Tm3 As8 O18'
_cell_volume   455.23588470
_cell_formula_units_Z   1
loop_
 _symmetry_equiv_pos_site_id
 _symmetry_equiv_pos_as_xyz
  1  'x, y, z'
loop_
 _atom_site_type_symbol
 _atom_site_label
 _atom_site_symmetry_multiplicity
 _atom_site_fract_x
 _atom_site_fract_y
 _atom_site_fract_z
 _atom_site_occupancy
  Y  Y0  1  0.241654  0.939759  0.614459  1
  Tm  Tm1  1  0.757543  0.061732  0.385087  1
  Tm  Tm2  1  0.720929  0.528399  0.409894  1
  Tm  Tm3  1  0.278606  0.471012  0.589388  1
  As  As4  1  0.683687  0.774007  0.080859  1
  As  As5  1  0.316650  0.227408  0.920837  1
  As  As6  1  0.169370  0.751082  0.912686  1
  As  As7  1  0.830210  0.248227  0.087989  1
  As  As8  1  0.743066  0.914025  0.709015  1
  As  As9  1  0.258128  0.085793  0.289551  1
  As  As10  1  0.810327  0.351770  0.701015  1
  As  As11  1  0.190549  0.647651  0.298319  1
  O  O12  1  0.722184  0.748044  0.261676  1
  O  O13  1  0.278047  0.254505  0.739928  1
  O  O14  1  0.316273  0.978942  0.869946  1
  O  O15  1  0.684917  0.021933  0.133837  1
  O  O16  1  0.608532  0.326567  0.985572  1
  O  O17  1  0.391644  0.673449  0.014797  1
  O  O18  1  0.125869  0.643228  0.737594  1
  O  O19  1  0.873932  0.356578  0.262497  1
  O  O20  1  0.844656  0.876561  0.556923  1
  O  O21  1  0.149786  0.125678  0.438328  1
  O  O22  1  0.480997  0.764908  0.666414  1
  O  O23  1  0.521676  0.232993  0.334991  1
  O  O24  1  0.373719  0.531708  0.381234  1
  O  O25  1  0.626624  0.467271  0.618019  1
  O  O26  1  0.087495  0.667029  0.453669  1
  O  O27  1  0.911350  0.329343  0.544833  1
  O  O28  1  0.380113  0.899884  0.359115  1
  O  O29  1  0.621467  0.100514  0.641528  1
