# generated using pymatgen
data_SrPr5DyIrBr12
_symmetry_space_group_name_H-M   'P 1'
_cell_length_a   9.68125021
_cell_length_b   9.60431135
_cell_length_c   9.52844611
_cell_angle_alpha   106.42645212
_cell_angle_beta   106.60861859
_cell_angle_gamma   105.91839343
_symmetry_Int_Tables_number   1
_chemical_formula_structural   SrPr5DyIrBr12
_chemical_formula_sum   'Sr1 Pr5 Dy1 Ir1 Br12'
_cell_volume   751.13055056
_cell_formula_units_Z   1
loop_
 _symmetry_equiv_pos_site_id
 _symmetry_equiv_pos_as_xyz
  1  'x, y, z'
loop_
 _atom_site_type_symbol
 _atom_site_label
 _atom_site_symmetry_multiplicity
 _atom_site_fract_x
 _atom_site_fract_y
 _atom_site_fract_z
 _atom_site_occupancy
  Sr  Sr0  1  0.499602  0.500866  0.498540  1
  Pr  Pr1  1  0.314604  0.017525  0.105978  1
  Pr  Pr2  1  0.020948  0.105621  0.308477  1
  Pr  Pr3  1  0.980475  0.899563  0.693740  1
  Pr  Pr4  1  0.685731  0.981190  0.894132  1
  Pr  Pr5  1  0.894973  0.682136  0.980255  1
  Dy  Dy6  1  0.102916  0.306567  0.021249  1
  Ir  Ir7  1  0.000697  0.000564  0.001470  1
  Br  Br8  1  0.215016  0.670276  0.071018  1
  Br  Br9  1  0.437032  0.366804  0.143913  1
  Br  Br10  1  0.680944  0.075244  0.219650  1
  Br  Br11  1  0.927683  0.784402  0.321903  1
  Br  Br12  1  0.151242  0.451052  0.356967  1
  Br  Br13  1  0.368906  0.154521  0.453682  1
  Br  Br14  1  0.631477  0.847337  0.546645  1
  Br  Br15  1  0.846821  0.549398  0.630352  1
  Br  Br16  1  0.075932  0.226176  0.692851  1
  Br  Br17  1  0.318976  0.925731  0.780581  1
  Br  Br18  1  0.550192  0.633121  0.848652  1
  Br  Br19  1  0.795835  0.321906  0.929948  1
