# generated using pymatgen
data_TmTh2(SnRh)3
_symmetry_space_group_name_H-M   'P 1'
_cell_length_a   7.56165840
_cell_length_b   7.56165961
_cell_length_c   4.04837300
_cell_angle_alpha   90.00000000
_cell_angle_beta   90.00000000
_cell_angle_gamma   120.25960091
_symmetry_Int_Tables_number   1
_chemical_formula_structural   TmTh2(SnRh)3
_chemical_formula_sum   'Tm1 Th2 Sn3 Rh3'
_cell_volume   199.94166271
_cell_formula_units_Z   1
loop_
 _symmetry_equiv_pos_site_id
 _symmetry_equiv_pos_as_xyz
  1  'x, y, z'
loop_
 _atom_site_type_symbol
 _atom_site_label
 _atom_site_symmetry_multiplicity
 _atom_site_fract_x
 _atom_site_fract_y
 _atom_site_fract_z
 _atom_site_occupancy
  Tm  Tm0  1  0.406316  0.406316  0.500000  1
  Th  Th1  1  0.586854  0.999377  0.500000  1
  Th  Th2  1  0.999377  0.586854  0.500000  1
  Sn  Sn3  1  0.737033  0.737033  0.000000  1
  Sn  Sn4  1  0.254632  0.011574  0.000000  1
  Sn  Sn5  1  0.011574  0.254632  0.000000  1
  Rh  Rh6  1  0.675213  0.332494  0.000000  1
  Rh  Rh7  1  0.332494  0.675213  0.000000  1
  Rh  Rh8  1  0.996507  0.996507  0.500000  1
