# generated using pymatgen
data_Ac27S40
_symmetry_space_group_name_H-M   'P 1'
_cell_length_a   7.80314779
_cell_length_b   12.74825399
_cell_length_c   19.64546600
_cell_angle_alpha   108.92935835
_cell_angle_beta   97.65621971
_cell_angle_gamma   89.84675140
_symmetry_Int_Tables_number   1
_chemical_formula_structural   Ac27S40
_chemical_formula_sum   'Ac27 S40'
_cell_volume   1830.38071294
_cell_formula_units_Z   1
loop_
 _symmetry_equiv_pos_site_id
 _symmetry_equiv_pos_as_xyz
  1  'x, y, z'
loop_
 _atom_site_type_symbol
 _atom_site_label
 _atom_site_symmetry_multiplicity
 _atom_site_fract_x
 _atom_site_fract_y
 _atom_site_fract_z
 _atom_site_occupancy
  Ac  Ac0  1  0.656059  0.473498  0.201494  1
  Ac  Ac1  1  0.925053  0.324828  0.025282  1
  Ac  Ac2  1  0.059444  0.069445  0.394695  1
  Ac  Ac3  1  0.154033  0.215101  0.201103  1
  Ac  Ac4  1  0.276162  0.604136  0.073882  1
  Ac  Ac5  1  0.427756  0.207391  0.020668  1
  Ac  Ac6  1  0.543897  0.826236  0.392326  1
  Ac  Ac7  1  0.845844  0.280060  0.803770  1
  Ac  Ac8  1  0.711682  0.531503  0.431190  1
  Ac  Ac9  1  0.660813  0.190583  0.275289  1
  Ac  Ac10  1  0.826234  0.805800  0.222636  1
  Ac  Ac11  1  0.770975  0.972643  0.073391  1
  Ac  Ac12  1  0.946305  0.423461  0.601605  1
  Ac  Ac13  1  0.256499  0.879483  0.009145  1
  Ac  Ac14  1  0.124320  0.126872  0.626115  1
  Ac  Ac15  1  0.084080  0.797134  0.478871  1
  Ac  Ac16  1  0.230036  0.409968  0.432464  1
  Ac  Ac17  1  0.174904  0.574325  0.273624  1
  Ac  Ac18  1  0.349253  0.038353  0.801127  1
  Ac  Ac19  1  0.522788  0.725417  0.816726  1
  Ac  Ac20  1  0.470285  0.404557  0.678792  1
  Ac  Ac21  1  0.581561  0.176341  0.476009  1
  Ac  Ac22  1  0.619366  0.987369  0.623927  1
  Ac  Ac23  1  0.734097  0.618187  0.992606  1
  Ac  Ac24  1  0.880080  0.999163  0.876461  1
  Ac  Ac25  1  0.975188  0.768159  0.672021  1
  Ac  Ac26  1  0.036933  0.591863  0.826079  1
  S  S27  1  0.568613  0.440938  0.037726  1
  S  S28  1  0.763293  0.239907  0.130402  1
  S  S29  1  0.933935  0.573130  0.141979  1
  S  S30  1  0.946378  0.042941  0.228815  1
  S  S31  1  0.058554  0.089969  0.032880  1
  S  S32  1  0.329775  0.182610  0.345900  1
  S  S33  1  0.257082  0.386438  0.130621  1
  S  S34  1  0.358317  0.638910  0.424364  1
  S  S35  1  0.437337  0.074918  0.134210  1
  S  S36  1  0.464266  0.679243  0.228233  1
  S  S37  1  0.556001  0.795763  0.097108  1
  S  S38  1  0.754842  0.237441  0.629460  1
  S  S39  1  0.737711  0.772064  0.533361  1
  S  S40  1  0.671472  0.995642  0.334686  1
  S  S41  1  0.828780  0.667918  0.340833  1
  S  S42  1  0.955195  0.044513  0.730554  1
  S  S43  1  0.865704  0.287360  0.428052  1
  S  S44  1  0.955516  0.398153  0.300450  1
  S  S45  1  0.121202  0.362410  0.734391  1
  S  S46  1  0.043399  0.586217  0.528945  1
  S  S47  1  0.164001  0.843323  0.827386  1
  S  S48  1  0.032603  0.794826  0.094630  1
  S  S49  1  0.229966  0.269824  0.539640  1
  S  S50  1  0.153800  0.832901  0.333382  1
  S  S51  1  0.360575  0.653698  0.930819  1
  S  S52  1  0.253657  0.899902  0.633630  1
  S  S53  1  0.354450  0.999845  0.499235  1
  S  S54  1  0.524597  0.970310  0.940131  1
  S  S55  1  0.466815  0.184371  0.723598  1
  S  S56  1  0.451963  0.399222  0.299074  1
  S  S57  1  0.566417  0.430667  0.531046  1
  S  S58  1  0.635856  0.880449  0.745347  1
  S  S59  1  0.667081  0.496772  0.828435  1
  S  S60  1  0.763956  0.598987  0.703039  1
  S  S61  1  0.858160  0.790005  0.926433  1
  S  S62  1  0.858825  0.001715  0.499904  1
  S  S63  1  0.021380  0.472566  0.944533  1
  S  S64  1  0.136588  0.196209  0.902327  1
  S  S65  1  0.239200  0.596131  0.701513  1
  S  S66  1  0.659093  0.194917  0.901633  1
