# generated using pymatgen
data_Nd3Zn2Pt3Au
_symmetry_space_group_name_H-M   'P 1'
_cell_length_a   7.47124800
_cell_length_b   7.47124827
_cell_length_c   3.97168000
_cell_angle_alpha   90.00000000
_cell_angle_beta   90.00000000
_cell_angle_gamma   118.52525207
_symmetry_Int_Tables_number   1
_chemical_formula_structural   Nd3Zn2Pt3Au
_chemical_formula_sum   'Nd3 Zn2 Pt3 Au1'
_cell_volume   194.78481428
_cell_formula_units_Z   1
loop_
 _symmetry_equiv_pos_site_id
 _symmetry_equiv_pos_as_xyz
  1  'x, y, z'
loop_
 _atom_site_type_symbol
 _atom_site_label
 _atom_site_symmetry_multiplicity
 _atom_site_fract_x
 _atom_site_fract_y
 _atom_site_fract_z
 _atom_site_occupancy
  Nd  Nd0  1  0.407178  0.407178  0.000000  1
  Nd  Nd1  1  0.598682  0.993696  0.000000  1
  Nd  Nd2  1  0.993696  0.598682  0.000000  1
  Zn  Zn3  1  0.249935  0.999920  0.500000  1
  Zn  Zn4  1  0.999920  0.249935  0.500000  1
  Pt  Pt5  1  0.026346  0.026346  0.000000  1
  Pt  Pt6  1  0.661874  0.315017  0.500000  1
  Pt  Pt7  1  0.315017  0.661874  0.500000  1
  Au  Au8  1  0.747352  0.747352  0.500000  1
