# generated using pymatgen
data_MnNi(PO3)4
_symmetry_space_group_name_H-M   'P 1'
_cell_length_a   7.34415017
_cell_length_b   7.34415102
_cell_length_c   10.05215333
_cell_angle_alpha   67.45231823
_cell_angle_beta   67.45231138
_cell_angle_gamma   70.76004574
_symmetry_Int_Tables_number   1
_chemical_formula_structural   MnNi(PO3)4
_chemical_formula_sum   'Mn2 Ni2 P8 O24'
_cell_volume   451.75076609
_cell_formula_units_Z   2
loop_
 _symmetry_equiv_pos_site_id
 _symmetry_equiv_pos_as_xyz
  1  'x, y, z'
loop_
 _atom_site_type_symbol
 _atom_site_label
 _atom_site_symmetry_multiplicity
 _atom_site_fract_x
 _atom_site_fract_y
 _atom_site_fract_z
 _atom_site_occupancy
  Mn  Mn0  1  0.449971  0.550029  0.250000  1
  Mn  Mn1  1  0.550029  0.449971  0.750000  1
  Ni  Ni2  1  0.500000  0.000000  0.000000  1
  Ni  Ni3  1  0.000000  0.500000  0.500000  1
  P  P4  1  0.224523  0.761434  0.975716  1
  P  P5  1  0.238566  0.775477  0.524284  1
  P  P6  1  0.775477  0.238566  0.024284  1
  P  P7  1  0.761434  0.224523  0.475716  1
  P  P8  1  0.814406  0.799122  0.196059  1
  P  P9  1  0.200878  0.185594  0.303941  1
  P  P10  1  0.185594  0.200878  0.803941  1
  P  P11  1  0.799122  0.814406  0.696059  1
  O  O12  1  0.659994  0.405499  0.091280  1
  O  O13  1  0.594501  0.340006  0.408720  1
  O  O14  1  0.340006  0.594501  0.908720  1
  O  O15  1  0.405499  0.659994  0.591280  1
  O  O16  1  0.306351  0.802403  0.077443  1
  O  O17  1  0.197597  0.693649  0.422557  1
  O  O18  1  0.693649  0.197597  0.922557  1
  O  O19  1  0.802403  0.306351  0.577443  1
  O  O20  1  0.625859  0.790601  0.171478  1
  O  O21  1  0.209399  0.374141  0.328522  1
  O  O22  1  0.374141  0.209399  0.828522  1
  O  O23  1  0.790601  0.625859  0.671478  1
  O  O24  1  0.032564  0.818113  0.656015  1
  O  O25  1  0.181887  0.967436  0.843985  1
  O  O26  1  0.967436  0.181887  0.343985  1
  O  O27  1  0.818113  0.032564  0.156015  1
  O  O28  1  0.721348  0.000908  0.565639  1
  O  O29  1  0.999092  0.278652  0.934361  1
  O  O30  1  0.278652  0.999092  0.434361  1
  O  O31  1  0.000908  0.721348  0.065639  1
  O  O32  1  0.690496  0.845071  0.846554  1
  O  O33  1  0.154929  0.309504  0.653446  1
  O  O34  1  0.309504  0.154929  0.153446  1
  O  O35  1  0.845071  0.690496  0.346554  1
