# generated using pymatgen
data_La2Al16RePt8
_symmetry_space_group_name_H-M   'P 1'
_cell_length_a   11.21489600
_cell_length_b   11.21489763
_cell_length_c   11.21489722
_cell_angle_alpha   158.42178962
_cell_angle_beta   116.66146018
_cell_angle_gamma   67.75088601
_symmetry_Int_Tables_number   1
_chemical_formula_structural   La2Al16RePt8
_chemical_formula_sum   'La2 Al16 Re1 Pt8'
_cell_volume   460.38425938
_cell_formula_units_Z   1
loop_
 _symmetry_equiv_pos_site_id
 _symmetry_equiv_pos_as_xyz
  1  'x, y, z'
loop_
 _atom_site_type_symbol
 _atom_site_label
 _atom_site_symmetry_multiplicity
 _atom_site_fract_x
 _atom_site_fract_y
 _atom_site_fract_z
 _atom_site_occupancy
  La  La0  1  0.230759  0.230609  0.000150  1
  La  La1  1  0.769541  0.769391  0.000150  1
  Al  Al2  1  0.276713  0.392907  0.883805  1
  Al  Al3  1  0.090243  0.924535  0.165708  1
  Al  Al4  1  0.504103  0.200119  0.303984  1
  Al  Al5  1  0.241172  0.075465  0.165708  1
  Al  Al6  1  0.907946  0.416418  0.491528  1
  Al  Al7  1  0.722690  0.598186  0.124505  1
  Al  Al8  1  0.903298  0.208903  0.694394  1
  Al  Al9  1  0.485491  0.791097  0.694394  1
  Al  Al10  1  0.387661  0.000000  0.387661  1
  Al  Al11  1  0.627680  0.000000  0.627680  1
  Al  Al12  1  0.490898  0.607093  0.883805  1
  Al  Al13  1  0.103865  0.799881  0.303984  1
  Al  Al14  1  0.906109  0.085825  0.820284  1
  Al  Al15  1  0.734459  0.914175  0.820284  1
  Al  Al16  1  0.526319  0.401814  0.124505  1
  Al  Al17  1  0.075110  0.583582  0.491528  1
  Re  Re18  1  0.784225  0.500000  0.284225  1
  Pt  Pt19  1  0.028562  0.344412  0.684151  1
  Pt  Pt20  1  0.626144  0.123090  0.503054  1
  Pt  Pt21  1  0.252539  0.500000  0.752539  1
  Pt  Pt22  1  0.379964  0.876910  0.503054  1
  Pt  Pt23  1  0.984351  0.000000  0.984351  1
  Pt  Pt24  1  0.645461  0.335252  0.310209  1
  Pt  Pt25  1  0.339739  0.655588  0.684151  1
  Pt  Pt26  1  0.974957  0.664748  0.310209  1
