# generated using pymatgen
data_Cr(B3O5)2
_symmetry_space_group_name_H-M   'P 1'
_cell_length_a   9.63576309
_cell_length_b   8.64458100
_cell_length_c   9.01145000
_cell_angle_alpha   90.00000000
_cell_angle_beta   116.26204686
_cell_angle_gamma   90.00000000
_symmetry_Int_Tables_number   1
_chemical_formula_structural   Cr(B3O5)2
_chemical_formula_sum   'Cr4 B24 O40'
_cell_volume   673.14794021
_cell_formula_units_Z   4
loop_
 _symmetry_equiv_pos_site_id
 _symmetry_equiv_pos_as_xyz
  1  'x, y, z'
loop_
 _atom_site_type_symbol
 _atom_site_label
 _atom_site_symmetry_multiplicity
 _atom_site_fract_x
 _atom_site_fract_y
 _atom_site_fract_z
 _atom_site_occupancy
  Cr  Cr0  1  0.283833  0.626795  0.013137  1
  Cr  Cr1  1  0.716167  0.126795  0.486864  1
  Cr  Cr2  1  0.283833  0.873205  0.513137  1
  Cr  Cr3  1  0.716167  0.373205  0.986863  1
  B  B4  1  0.982989  0.236412  0.061663  1
  B  B5  1  0.715444  0.963125  0.059727  1
  B  B6  1  0.423956  0.242766  0.124989  1
  B  B7  1  0.069674  0.620928  0.216030  1
  B  B8  1  0.420964  0.984422  0.240008  1
  B  B9  1  0.171023  0.072067  0.255141  1
  B  B10  1  0.828977  0.572067  0.244859  1
  B  B11  1  0.579036  0.484422  0.259992  1
  B  B12  1  0.930326  0.120928  0.283970  1
  B  B13  1  0.576043  0.742765  0.375011  1
  B  B14  1  0.284555  0.463125  0.440273  1
  B  B15  1  0.017011  0.736412  0.438337  1
  B  B16  1  0.982989  0.263588  0.561662  1
  B  B17  1  0.715445  0.536875  0.559727  1
  B  B18  1  0.423956  0.257234  0.624989  1
  B  B19  1  0.069674  0.879072  0.716031  1
  B  B20  1  0.420963  0.515578  0.740008  1
  B  B21  1  0.171023  0.427933  0.755141  1
  B  B22  1  0.828977  0.927933  0.744859  1
  B  B23  1  0.579037  0.015578  0.759993  1
  B  B24  1  0.930326  0.379072  0.783970  1
  B  B25  1  0.576044  0.757234  0.875011  1
  B  B26  1  0.284555  0.036875  0.940273  1
  B  B27  1  0.017011  0.763587  0.938338  1
  O  O28  1  0.664856  0.810550  0.032292  1
  O  O29  1  0.344641  0.930519  0.068493  1
  O  O30  1  0.100286  0.687417  0.083745  1
  O  O31  1  0.116361  0.152035  0.105525  1
  O  O32  1  0.448109  0.397279  0.145664  1
  O  O33  1  0.906463  0.242653  0.159476  1
  O  O34  1  0.909142  0.566112  0.152674  1
  O  O35  1  0.696867  0.482452  0.189861  1
  O  O36  1  0.820682  0.996278  0.216052  1
  O  O37  1  0.487285  0.141906  0.256938  1
  O  O38  1  0.512716  0.641906  0.243061  1
  O  O39  1  0.179318  0.496278  0.283948  1
  O  O40  1  0.303132  0.982452  0.310138  1
  O  O41  1  0.090858  0.066112  0.347327  1
  O  O42  1  0.093537  0.742653  0.340524  1
  O  O43  1  0.551891  0.897279  0.354335  1
  O  O44  1  0.883639  0.652035  0.394475  1
  O  O45  1  0.899715  0.187417  0.416255  1
  O  O46  1  0.655359  0.430519  0.431507  1
  O  O47  1  0.335144  0.310550  0.467707  1
  O  O48  1  0.664857  0.689450  0.532293  1
  O  O49  1  0.344641  0.569481  0.568493  1
  O  O50  1  0.100285  0.812583  0.583744  1
  O  O51  1  0.116361  0.347965  0.605524  1
  O  O52  1  0.448109  0.102721  0.645665  1
  O  O53  1  0.906463  0.257347  0.659476  1
  O  O54  1  0.909142  0.933887  0.652674  1
  O  O55  1  0.696867  0.017548  0.689861  1
  O  O56  1  0.820682  0.503722  0.716052  1
  O  O57  1  0.487284  0.358094  0.756939  1
  O  O58  1  0.512716  0.858094  0.743061  1
  O  O59  1  0.179317  0.003722  0.783947  1
  O  O60  1  0.303133  0.517548  0.810139  1
  O  O61  1  0.090858  0.433887  0.847326  1
  O  O62  1  0.093537  0.757347  0.840524  1
  O  O63  1  0.551891  0.602721  0.854335  1
  O  O64  1  0.883639  0.847965  0.894476  1
  O  O65  1  0.899714  0.312583  0.916254  1
  O  O66  1  0.655359  0.069481  0.931507  1
  O  O67  1  0.335143  0.189450  0.967707  1
