# generated using pymatgen
data_SrCuGePt3
_symmetry_space_group_name_H-M   'P 1'
_cell_length_a   5.65698290
_cell_length_b   6.93808081
_cell_length_c   6.93807967
_cell_angle_alpha   70.08122019
_cell_angle_beta   66.04497560
_cell_angle_gamma   66.04497390
_symmetry_Int_Tables_number   1
_chemical_formula_structural   SrCuGePt3
_chemical_formula_sum   'Sr2 Cu2 Ge2 Pt6'
_cell_volume   222.32139703
_cell_formula_units_Z   2
loop_
 _symmetry_equiv_pos_site_id
 _symmetry_equiv_pos_as_xyz
  1  'x, y, z'
loop_
 _atom_site_type_symbol
 _atom_site_label
 _atom_site_symmetry_multiplicity
 _atom_site_fract_x
 _atom_site_fract_y
 _atom_site_fract_z
 _atom_site_occupancy
  Sr  Sr0  1  0.510500  0.733409  0.733409  1
  Sr  Sr1  1  0.489500  0.266591  0.266591  1
  Cu  Cu2  1  0.162189  0.577591  0.577591  1
  Cu  Cu3  1  0.837811  0.422409  0.422409  1
  Ge  Ge4  1  0.163290  0.093429  0.093429  1
  Ge  Ge5  1  0.836710  0.906571  0.906571  1
  Pt  Pt6  1  0.500000  0.240655  0.759345  1
  Pt  Pt7  1  0.000000  0.765830  0.234170  1
  Pt  Pt8  1  0.500000  0.759345  0.240655  1
  Pt  Pt9  1  0.000000  0.234170  0.765830  1
  Pt  Pt10  1  0.000000  0.500000  0.000000  1
  Pt  Pt11  1  0.000000  0.000000  0.500000  1
