# generated using pymatgen
data_ThCo3B4Os
_symmetry_space_group_name_H-M   'P 1'
_cell_length_a   7.36622966
_cell_length_b   7.15361053
_cell_length_c   3.84799500
_cell_angle_alpha   90.00000000
_cell_angle_beta   90.00000000
_cell_angle_gamma   89.84051397
_symmetry_Int_Tables_number   1
_chemical_formula_structural   ThCo3B4Os
_chemical_formula_sum   'Th2 Co6 B8 Os2'
_cell_volume   202.76984213
_cell_formula_units_Z   2
loop_
 _symmetry_equiv_pos_site_id
 _symmetry_equiv_pos_as_xyz
  1  'x, y, z'
loop_
 _atom_site_type_symbol
 _atom_site_label
 _atom_site_symmetry_multiplicity
 _atom_site_fract_x
 _atom_site_fract_y
 _atom_site_fract_z
 _atom_site_occupancy
  Th  Th0  1  0.250000  0.250000  0.278520  1
  Th  Th1  1  0.750000  0.750000  0.801818  1
  Co  Co2  1  0.386115  0.632707  0.139987  1
  Co  Co3  1  0.113885  0.867293  0.139987  1
  Co  Co4  1  0.139813  0.615028  0.635543  1
  Co  Co5  1  0.360187  0.884972  0.635543  1
  Co  Co6  1  0.580360  0.365032  0.850156  1
  Co  Co7  1  0.919640  0.134968  0.850156  1
  B  B8  1  0.917377  0.031510  0.350566  1
  B  B9  1  0.582623  0.468490  0.350566  1
  B  B10  1  0.521528  0.082315  0.849481  1
  B  B11  1  0.978472  0.417685  0.849481  1
  B  B12  1  0.089751  0.943156  0.641332  1
  B  B13  1  0.410249  0.556844  0.641332  1
  B  B14  1  0.441125  0.906418  0.136782  1
  B  B15  1  0.058875  0.593582  0.136782  1
  Os  Os16  1  0.860379  0.397318  0.355984  1
  Os  Os17  1  0.639621  0.102682  0.355984  1
