# generated using pymatgen
data_Y16Ni3Ag4Os
_symmetry_space_group_name_H-M   'P 1'
_cell_length_a   9.55107910
_cell_length_b   9.55108032
_cell_length_c   9.55108077
_cell_angle_alpha   59.43825488
_cell_angle_beta   59.43825102
_cell_angle_gamma   59.43825086
_symmetry_Int_Tables_number   1
_chemical_formula_structural   Y16Ni3Ag4Os
_chemical_formula_sum   'Y16 Ni3 Ag4 Os1'
_cell_volume   608.21372577
_cell_formula_units_Z   1
loop_
 _symmetry_equiv_pos_site_id
 _symmetry_equiv_pos_as_xyz
  1  'x, y, z'
loop_
 _atom_site_type_symbol
 _atom_site_label
 _atom_site_symmetry_multiplicity
 _atom_site_fract_x
 _atom_site_fract_y
 _atom_site_fract_z
 _atom_site_occupancy
  Y  Y0  1  0.599486  0.599486  0.599486  1
  Y  Y1  1  0.604045  0.604045  0.198310  1
  Y  Y2  1  0.604045  0.198310  0.604045  1
  Y  Y3  1  0.198310  0.604045  0.604045  1
  Y  Y4  1  0.060458  0.437512  0.437512  1
  Y  Y5  1  0.437396  0.060076  0.060076  1
  Y  Y6  1  0.437512  0.060458  0.437512  1
  Y  Y7  1  0.060076  0.437396  0.060076  1
  Y  Y8  1  0.437512  0.437512  0.060458  1
  Y  Y9  1  0.060076  0.060076  0.437396  1
  Y  Y10  1  0.185011  0.814774  0.814774  1
  Y  Y11  1  0.807506  0.188287  0.188287  1
  Y  Y12  1  0.814774  0.185011  0.814774  1
  Y  Y13  1  0.188287  0.807506  0.188287  1
  Y  Y14  1  0.814774  0.814774  0.185011  1
  Y  Y15  1  0.188287  0.188287  0.807506  1
  Ni  Ni16  1  0.392867  0.392867  0.823216  1
  Ni  Ni17  1  0.392867  0.823216  0.392867  1
  Ni  Ni18  1  0.823216  0.392867  0.392867  1
  Ag  Ag19  1  0.832283  0.832283  0.832283  1
  Ag  Ag20  1  0.830644  0.830644  0.506326  1
  Ag  Ag21  1  0.830644  0.506326  0.830644  1
  Ag  Ag22  1  0.506326  0.830644  0.830644  1
  Os  Os23  1  0.393597  0.393597  0.393597  1
