# generated using pymatgen
data_LiSm(BeB14)2
_symmetry_space_group_name_H-M   'P 1'
_cell_length_a   7.19540488
_cell_length_b   7.19540660
_cell_length_c   7.19540582
_cell_angle_alpha   132.90483682
_cell_angle_beta   110.52701808
_cell_angle_gamma   88.19879921
_symmetry_Int_Tables_number   1
_chemical_formula_structural   LiSm(BeB14)2
_chemical_formula_sum   'Li1 Sm1 Be2 B28'
_cell_volume   243.60379908
_cell_formula_units_Z   1
loop_
 _symmetry_equiv_pos_site_id
 _symmetry_equiv_pos_as_xyz
  1  'x, y, z'
loop_
 _atom_site_type_symbol
 _atom_site_label
 _atom_site_symmetry_multiplicity
 _atom_site_fract_x
 _atom_site_fract_y
 _atom_site_fract_z
 _atom_site_occupancy
  Li  Li0  1  0.128568  0.750000  0.378568  1
  Sm  Sm1  1  0.894718  0.250000  0.644718  1
  Be  Be2  1  0.494161  0.505088  0.499249  1
  Be  Be3  1  0.494161  0.994912  0.989072  1
  B  B4  1  0.721312  0.718999  0.322105  1
  B  B5  1  0.708720  0.344292  0.364429  1
  B  B6  1  0.872182  0.667131  0.700440  1
  B  B7  1  0.127055  0.826587  0.790812  1
  B  B8  1  0.533308  0.832869  0.205052  1
  B  B9  1  0.464225  0.673413  0.300467  1
  B  B10  1  0.127055  0.336243  0.300467  1
  B  B11  1  0.872182  0.171744  0.205052  1
  B  B12  1  0.464225  0.163757  0.790812  1
  B  B13  1  0.533308  0.328256  0.700440  1
  B  B14  1  0.103107  0.781001  0.002313  1
  B  B15  1  0.897892  0.895883  0.677597  1
  B  B16  1  0.897892  0.220296  0.002010  1
  B  B17  1  0.281714  0.604117  0.002010  1
  B  B18  1  0.103107  0.100793  0.322105  1
  B  B19  1  0.520136  0.155708  0.364429  1
  B  B20  1  0.281714  0.279704  0.677597  1
  B  B21  1  0.721312  0.399207  0.002313  1
  B  B22  1  0.739221  0.909101  0.830119  1
  B  B23  1  0.257520  0.089432  0.168089  1
  B  B24  1  0.421018  0.590899  0.830119  1
  B  B25  1  0.578657  0.410568  0.168089  1
  B  B26  1  0.866103  0.833829  0.032274  1
  B  B27  1  0.134271  0.165273  0.968998  1
  B  B28  1  0.698445  0.666171  0.032274  1
  B  B29  1  0.303725  0.334727  0.968998  1
  B  B30  1  0.473090  0.843597  0.629492  1
  B  B31  1  0.285895  0.656403  0.629492  1
