# generated using pymatgen
data_Th2Mn2Si2C
_symmetry_space_group_name_H-M   'P 1'
_cell_length_a   4.09157283
_cell_length_b   5.84774912
_cell_length_c   5.81365472
_cell_angle_alpha   73.38560672
_cell_angle_beta   69.39683799
_cell_angle_gamma   69.52237043
_symmetry_Int_Tables_number   1
_chemical_formula_structural   Th2Mn2Si2C
_chemical_formula_sum   'Th2 Mn2 Si2 C1'
_cell_volume   119.85465138
_cell_formula_units_Z   1
loop_
 _symmetry_equiv_pos_site_id
 _symmetry_equiv_pos_as_xyz
  1  'x, y, z'
loop_
 _atom_site_type_symbol
 _atom_site_label
 _atom_site_symmetry_multiplicity
 _atom_site_fract_x
 _atom_site_fract_y
 _atom_site_fract_z
 _atom_site_occupancy
  Th  Th0  1  0.442637  0.819799  0.294927  1
  Th  Th1  1  0.557363  0.180201  0.705073  1
  Mn  Mn2  1  0.799334  0.304295  0.097036  1
  Mn  Mn3  1  0.200666  0.695705  0.902964  1
  Si  Si4  1  0.830539  0.609081  0.729841  1
  Si  Si5  1  0.169461  0.390919  0.270159  1
  C  C6  1  0.000000  0.000000  0.000000  1
