# generated using pymatgen
data_RbSc2(P2O7)2
_symmetry_space_group_name_H-M   'P 1'
_cell_length_a   6.56006719
_cell_length_b   6.59489882
_cell_length_c   8.40709581
_cell_angle_alpha   96.16949314
_cell_angle_beta   100.88939672
_cell_angle_gamma   106.96729444
_symmetry_Int_Tables_number   1
_chemical_formula_structural   RbSc2(P2O7)2
_chemical_formula_sum   'Rb1 Sc2 P4 O14'
_cell_volume   336.46186633
_cell_formula_units_Z   1
loop_
 _symmetry_equiv_pos_site_id
 _symmetry_equiv_pos_as_xyz
  1  'x, y, z'
loop_
 _atom_site_type_symbol
 _atom_site_label
 _atom_site_symmetry_multiplicity
 _atom_site_fract_x
 _atom_site_fract_y
 _atom_site_fract_z
 _atom_site_occupancy
  Rb  Rb0  1  0.000000  0.000000  0.000000  1
  Sc  Sc1  1  0.622726  0.311111  0.765093  1
  Sc  Sc2  1  0.377274  0.688889  0.234907  1
  P  P3  1  0.805737  0.527450  0.188244  1
  P  P4  1  0.194263  0.472550  0.811756  1
  P  P5  1  0.509916  0.754895  0.667171  1
  P  P6  1  0.490084  0.245105  0.332829  1
  O  O7  1  0.949006  0.359820  0.752638  1
  O  O8  1  0.050994  0.640180  0.247362  1
  O  O9  1  0.663771  0.641219  0.750014  1
  O  O10  1  0.336229  0.358781  0.249986  1
  O  O11  1  0.682005  0.692492  0.183049  1
  O  O12  1  0.317995  0.307508  0.816951  1
  O  O13  1  0.566085  0.982004  0.763542  1
  O  O14  1  0.433915  0.017996  0.236458  1
  O  O15  1  0.501590  0.753082  0.485527  1
  O  O16  1  0.498410  0.246918  0.514473  1
  O  O17  1  0.262491  0.619938  0.676522  1
  O  O18  1  0.737509  0.380062  0.323478  1
  O  O19  1  0.253811  0.623725  0.976940  1
  O  O20  1  0.746189  0.376275  0.023060  1
