# generated using pymatgen
data_Y2GaRe2Os
_symmetry_space_group_name_H-M   'P 1'
_cell_length_a   5.38033735
_cell_length_b   5.42655123
_cell_length_c   8.89996500
_cell_angle_alpha   90.00000000
_cell_angle_beta   90.00000000
_cell_angle_gamma   120.28454995
_symmetry_Int_Tables_number   1
_chemical_formula_structural   Y2GaRe2Os
_chemical_formula_sum   'Y4 Ga2 Re4 Os2'
_cell_volume   224.38815697
_cell_formula_units_Z   2
loop_
 _symmetry_equiv_pos_site_id
 _symmetry_equiv_pos_as_xyz
  1  'x, y, z'
loop_
 _atom_site_type_symbol
 _atom_site_label
 _atom_site_symmetry_multiplicity
 _atom_site_fract_x
 _atom_site_fract_y
 _atom_site_fract_z
 _atom_site_occupancy
  Y  Y0  1  0.344427  0.672214  0.443237  1
  Y  Y1  1  0.670626  0.335312  0.564018  1
  Y  Y2  1  0.670626  0.335312  0.935982  1
  Y  Y3  1  0.344427  0.672214  0.056763  1
  Ga  Ga4  1  0.812382  0.163124  0.250000  1
  Ga  Ga5  1  0.812382  0.649258  0.250000  1
  Re  Re6  1  0.311420  0.155710  0.250000  1
  Re  Re7  1  0.168104  0.830320  0.750000  1
  Re  Re8  1  0.168104  0.337784  0.750000  1
  Re  Re9  1  0.652857  0.826429  0.750000  1
  Os  Os10  1  0.022322  0.011161  0.495314  1
  Os  Os11  1  0.022322  0.011161  0.004686  1
