# generated using pymatgen
data_Dy4Er(GaB4)2
_symmetry_space_group_name_H-M   'P 1'
_cell_length_a   7.25473600
_cell_length_b   7.25473600
_cell_length_c   8.21040700
_cell_angle_alpha   90.00000000
_cell_angle_beta   90.00000000
_cell_angle_gamma   90.00000000
_symmetry_Int_Tables_number   1
_chemical_formula_structural   Dy4Er(GaB4)2
_chemical_formula_sum   'Dy8 Er2 Ga4 B16'
_cell_volume   432.12352716
_cell_formula_units_Z   2
loop_
 _symmetry_equiv_pos_site_id
 _symmetry_equiv_pos_as_xyz
  1  'x, y, z'
loop_
 _atom_site_type_symbol
 _atom_site_label
 _atom_site_symmetry_multiplicity
 _atom_site_fract_x
 _atom_site_fract_y
 _atom_site_fract_z
 _atom_site_occupancy
  Dy  Dy0  1  0.682058  0.182058  0.218353  1
  Dy  Dy1  1  0.317942  0.817942  0.781647  1
  Dy  Dy2  1  0.317942  0.817942  0.218353  1
  Dy  Dy3  1  0.817942  0.682058  0.218353  1
  Dy  Dy4  1  0.817942  0.682058  0.781647  1
  Dy  Dy5  1  0.682058  0.182058  0.781647  1
  Dy  Dy6  1  0.182058  0.317942  0.781647  1
  Dy  Dy7  1  0.182058  0.317942  0.218353  1
  Er  Er8  1  0.000000  0.000000  0.500000  1
  Er  Er9  1  0.500000  0.500000  0.500000  1
  Ga  Ga10  1  0.118448  0.618448  0.500000  1
  Ga  Ga11  1  0.881552  0.381552  0.500000  1
  Ga  Ga12  1  0.381552  0.118448  0.500000  1
  Ga  Ga13  1  0.618448  0.881552  0.500000  1
  B  B14  1  0.171510  0.040300  0.000000  1
  B  B15  1  0.828490  0.959700  0.000000  1
  B  B16  1  0.959700  0.171510  0.000000  1
  B  B17  1  0.328490  0.540300  0.000000  1
  B  B18  1  0.040300  0.828490  0.000000  1
  B  B19  1  0.671510  0.459700  0.000000  1
  B  B20  1  0.540300  0.671510  0.000000  1
  B  B21  1  0.459700  0.328490  0.000000  1
  B  B22  1  0.091118  0.591118  0.000000  1
  B  B23  1  0.908882  0.408882  0.000000  1
  B  B24  1  0.408882  0.091118  0.000000  1
  B  B25  1  0.591118  0.908882  0.000000  1
  B  B26  1  0.000000  0.000000  0.161408  1
  B  B27  1  0.000000  0.000000  0.838592  1
  B  B28  1  0.500000  0.500000  0.838592  1
  B  B29  1  0.500000  0.500000  0.161408  1
