# generated using pymatgen
data_Li8La8PdPt7
_symmetry_space_group_name_H-M   'P 1'
_cell_length_a   4.17495300
_cell_length_b   7.47703414
_cell_length_c   16.98747200
_cell_angle_alpha   89.78602063
_cell_angle_beta   90.00000000
_cell_angle_gamma   90.00000000
_symmetry_Int_Tables_number   1
_chemical_formula_structural   Li8La8PdPt7
_chemical_formula_sum   'Li8 La8 Pd1 Pt7'
_cell_volume   530.28174869
_cell_formula_units_Z   1
loop_
 _symmetry_equiv_pos_site_id
 _symmetry_equiv_pos_as_xyz
  1  'x, y, z'
loop_
 _atom_site_type_symbol
 _atom_site_label
 _atom_site_symmetry_multiplicity
 _atom_site_fract_x
 _atom_site_fract_y
 _atom_site_fract_z
 _atom_site_occupancy
  Li  Li0  1  0.250000  0.640952  0.352212  1
  Li  Li1  1  0.750000  0.356835  0.649608  1
  Li  Li2  1  0.750000  0.857857  0.851132  1
  Li  Li3  1  0.250000  0.143717  0.148443  1
  Li  Li4  1  0.250000  0.494557  0.058672  1
  Li  Li5  1  0.750000  0.506970  0.941848  1
  Li  Li6  1  0.750000  0.000127  0.558465  1
  Li  Li7  1  0.250000  0.990964  0.441893  1
  La  La8  1  0.250000  0.535967  0.784575  1
  La  La9  1  0.750000  0.465538  0.215674  1
  La  La10  1  0.750000  0.964100  0.285268  1
  La  La11  1  0.250000  0.034144  0.715891  1
  La  La12  1  0.250000  0.661318  0.559779  1
  La  La13  1  0.750000  0.338725  0.438335  1
  La  La14  1  0.750000  0.839179  0.060103  1
  La  La15  1  0.250000  0.161515  0.939794  1
  Pd  Pd16  1  0.250000  0.253415  0.561403  1
  Pt  Pt17  1  0.250000  0.758972  0.188746  1
  Pt  Pt18  1  0.750000  0.241009  0.810412  1
  Pt  Pt19  1  0.750000  0.743742  0.687823  1
  Pt  Pt20  1  0.250000  0.258324  0.312432  1
  Pt  Pt21  1  0.250000  0.748355  0.937614  1
  Pt  Pt22  1  0.750000  0.252096  0.062012  1
  Pt  Pt23  1  0.750000  0.751623  0.437866  1
