# generated using pymatgen
data_Cs6Bi(SbI6)3
_symmetry_space_group_name_H-M   'P 1'
_cell_length_a   8.59341101
_cell_length_b   8.59546413
_cell_length_c   21.83312816
_cell_angle_alpha   90.57052439
_cell_angle_beta   89.43282361
_cell_angle_gamma   59.93317031
_symmetry_Int_Tables_number   1
_chemical_formula_structural   Cs6Bi(SbI6)3
_chemical_formula_sum   'Cs6 Bi1 Sb3 I18'
_cell_volume   1395.41327350
_cell_formula_units_Z   1
loop_
 _symmetry_equiv_pos_site_id
 _symmetry_equiv_pos_as_xyz
  1  'x, y, z'
loop_
 _atom_site_type_symbol
 _atom_site_label
 _atom_site_symmetry_multiplicity
 _atom_site_fract_x
 _atom_site_fract_y
 _atom_site_fract_z
 _atom_site_occupancy
  Cs  Cs0  1  0.324441  0.337097  0.077913  1
  Cs  Cs1  1  0.337173  0.324325  0.422757  1
  Cs  Cs2  1  0.675522  0.662902  0.922920  1
  Cs  Cs3  1  0.663002  0.675479  0.577011  1
  Cs  Cs4  1  0.002774  0.002768  0.749418  1
  Cs  Cs5  1  0.997242  0.997233  0.250058  1
  Bi  Bi6  1  0.326381  0.346982  0.656169  1
  Sb  Sb7  1  0.653148  0.673688  0.156640  1
  Sb  Sb8  1  0.673742  0.653090  0.343688  1
  Sb  Sb9  1  0.347003  0.326098  0.844453  1
  I  I10  1  0.504562  0.000600  0.744711  1
  I  I11  1  0.000984  0.504173  0.758245  1
  I  I12  1  0.497305  0.995920  0.256405  1
  I  I13  1  0.995900  0.497366  0.242897  1
  I  I14  1  0.192116  0.150728  0.916556  1
  I  I15  1  0.146341  0.188558  0.582272  1
  I  I16  1  0.807865  0.849127  0.083562  1
  I  I17  1  0.849259  0.807630  0.416196  1
  I  I18  1  0.505037  0.504917  0.751405  1
  I  I19  1  0.496608  0.496705  0.249663  1
  I  I20  1  0.654432  0.182375  0.575099  1
  I  I21  1  0.186457  0.646661  0.923331  1
  I  I22  1  0.353571  0.813393  0.422977  1
  I  I23  1  0.813519  0.353408  0.076804  1
  I  I24  1  0.686375  0.153542  0.910283  1
  I  I25  1  0.149210  0.695010  0.588915  1
  I  I26  1  0.313655  0.846363  0.089825  1
  I  I27  1  0.846369  0.313867  0.409824  1
