# generated using pymatgen
data_TbY3Ti4Cr4O20
_symmetry_space_group_name_H-M   'P 1'
_cell_length_a   5.85894400
_cell_length_b   7.47477301
_cell_length_c   8.61382401
_cell_angle_alpha   89.99552682
_cell_angle_beta   90.00000000
_cell_angle_gamma   90.00000000
_symmetry_Int_Tables_number   1
_chemical_formula_structural   TbY3Ti4Cr4O20
_chemical_formula_sum   'Tb1 Y3 Ti4 Cr4 O20'
_cell_volume   377.23618871
_cell_formula_units_Z   1
loop_
 _symmetry_equiv_pos_site_id
 _symmetry_equiv_pos_as_xyz
  1  'x, y, z'
loop_
 _atom_site_type_symbol
 _atom_site_label
 _atom_site_symmetry_multiplicity
 _atom_site_fract_x
 _atom_site_fract_y
 _atom_site_fract_z
 _atom_site_occupancy
  Tb  Tb0  1  0.500000  0.359327  0.329847  1
  Y  Y1  1  0.500000  0.641134  0.670256  1
  Y  Y2  1  0.500000  0.141139  0.829759  1
  Y  Y3  1  0.500000  0.858803  0.170228  1
  Ti  Ti4  1  0.000000  0.118131  0.146440  1
  Ti  Ti5  1  0.000000  0.881736  0.853509  1
  Ti  Ti6  1  0.000000  0.381849  0.646470  1
  Ti  Ti7  1  0.000000  0.618269  0.353554  1
  Cr  Cr8  1  0.254116  0.999973  0.500004  1
  Cr  Cr9  1  0.745884  0.999973  0.500004  1
  Cr  Cr10  1  0.745781  0.499998  0.000013  1
  Cr  Cr11  1  0.254219  0.499998  0.000013  1
  O  O12  1  0.252551  0.110255  0.287622  1
  O  O13  1  0.747433  0.889661  0.712341  1
  O  O14  1  0.252567  0.889661  0.712341  1
  O  O15  1  0.747434  0.389666  0.787653  1
  O  O16  1  0.747449  0.110255  0.287622  1
  O  O17  1  0.252537  0.610360  0.212319  1
  O  O18  1  0.747463  0.610360  0.212319  1
  O  O19  1  0.252566  0.389666  0.787653  1
  O  O20  1  0.000000  0.342610  0.077970  1
  O  O21  1  0.000000  0.657392  0.922068  1
  O  O22  1  0.000000  0.157351  0.577897  1
  O  O23  1  0.000000  0.842619  0.422088  1
  O  O24  1  0.500000  0.332680  0.059516  1
  O  O25  1  0.500000  0.667217  0.940267  1
  O  O26  1  0.500000  0.167107  0.559796  1
  O  O27  1  0.500000  0.832777  0.440260  1
  O  O28  1  0.220141  0.000015  0.000014  1
  O  O29  1  0.779859  0.000015  0.000014  1
  O  O30  1  0.779998  0.500001  0.500071  1
  O  O31  1  0.220002  0.500001  0.500071  1
