# generated using pymatgen
data_CeUI10
_symmetry_space_group_name_H-M   'P 1'
_cell_length_a   7.90980056
_cell_length_b   8.53848548
_cell_length_c   11.42765630
_cell_angle_alpha   109.33391311
_cell_angle_beta   90.98002858
_cell_angle_gamma   115.94642568
_symmetry_Int_Tables_number   1
_chemical_formula_structural   CeUI10
_chemical_formula_sum   'Ce1 U1 I10'
_cell_volume   642.82466488
_cell_formula_units_Z   1
loop_
 _symmetry_equiv_pos_site_id
 _symmetry_equiv_pos_as_xyz
  1  'x, y, z'
loop_
 _atom_site_type_symbol
 _atom_site_label
 _atom_site_symmetry_multiplicity
 _atom_site_fract_x
 _atom_site_fract_y
 _atom_site_fract_z
 _atom_site_occupancy
  Ce  Ce0  1  0.107047  0.218445  0.222580  1
  U  U1  1  0.902263  0.799393  0.796035  1
  I  I2  1  0.921487  0.179996  0.437932  1
  I  I3  1  0.057902  0.810448  0.575236  1
  I  I4  1  0.235382  0.168903  0.943008  1
  I  I5  1  0.753223  0.804714  0.031393  1
  I  I6  1  0.107541  0.617750  0.846297  1
  I  I7  1  0.883295  0.383732  0.148351  1
  I  I8  1  0.701013  0.987695  0.751163  1
  I  I9  1  0.303829  0.002878  0.247033  1
  I  I10  1  0.575801  0.444111  0.664820  1
  I  I11  1  0.451216  0.581935  0.336153  1
