# generated using pymatgen
data_NaErNiPt3
_symmetry_space_group_name_H-M   'P 1'
_cell_length_a   5.16423813
_cell_length_b   5.16423893
_cell_length_c   5.16423938
_cell_angle_alpha   62.96102112
_cell_angle_beta   62.96100122
_cell_angle_gamma   62.96101044
_symmetry_Int_Tables_number   1
_chemical_formula_structural   NaErNiPt3
_chemical_formula_sum   'Na1 Er1 Ni1 Pt3'
_cell_volume   103.79147133
_cell_formula_units_Z   1
loop_
 _symmetry_equiv_pos_site_id
 _symmetry_equiv_pos_as_xyz
  1  'x, y, z'
loop_
 _atom_site_type_symbol
 _atom_site_label
 _atom_site_symmetry_multiplicity
 _atom_site_fract_x
 _atom_site_fract_y
 _atom_site_fract_z
 _atom_site_occupancy
  Na  Na0  1  0.998652  0.998652  0.998652  1
  Er  Er1  1  0.249749  0.249749  0.249749  1
  Ni  Ni2  1  0.625356  0.625356  0.625356  1
  Pt  Pt3  1  0.625720  0.625720  0.124803  1
  Pt  Pt4  1  0.625720  0.124803  0.625720  1
  Pt  Pt5  1  0.124803  0.625720  0.625720  1
