# generated using pymatgen
data_Y3Sc(Ni4P3)2
_symmetry_space_group_name_H-M   'P 1'
_cell_length_a   3.81477300
_cell_length_b   10.76479100
_cell_length_c   12.45589600
_cell_angle_alpha   90.00000000
_cell_angle_beta   90.00000000
_cell_angle_gamma   90.00000000
_symmetry_Int_Tables_number   1
_chemical_formula_structural   Y3Sc(Ni4P3)2
_chemical_formula_sum   'Y6 Sc2 Ni16 P12'
_cell_volume   511.50428464
_cell_formula_units_Z   2
loop_
 _symmetry_equiv_pos_site_id
 _symmetry_equiv_pos_as_xyz
  1  'x, y, z'
loop_
 _atom_site_type_symbol
 _atom_site_label
 _atom_site_symmetry_multiplicity
 _atom_site_fract_x
 _atom_site_fract_y
 _atom_site_fract_z
 _atom_site_occupancy
  Y  Y0  1  0.000000  0.500000  0.527690  1
  Y  Y1  1  0.500000  0.000000  0.472310  1
  Y  Y2  1  0.500000  0.820516  0.203800  1
  Y  Y3  1  0.500000  0.179484  0.203800  1
  Y  Y4  1  0.000000  0.679484  0.796200  1
  Y  Y5  1  0.000000  0.320516  0.796200  1
  Sc  Sc6  1  0.500000  0.500000  0.155269  1
  Sc  Sc7  1  0.000000  0.000000  0.844731  1
  Ni  Ni8  1  0.500000  0.500000  0.702759  1
  Ni  Ni9  1  0.000000  0.000000  0.297241  1
  Ni  Ni10  1  0.000000  0.500000  0.985503  1
  Ni  Ni11  1  0.500000  0.000000  0.014497  1
  Ni  Ni12  1  0.500000  0.332910  0.991798  1
  Ni  Ni13  1  0.500000  0.667090  0.991798  1
  Ni  Ni14  1  0.000000  0.167090  0.008202  1
  Ni  Ni15  1  0.000000  0.832910  0.008202  1
  Ni  Ni16  1  0.500000  0.298963  0.431360  1
  Ni  Ni17  1  0.500000  0.701037  0.431360  1
  Ni  Ni18  1  0.000000  0.201037  0.568640  1
  Ni  Ni19  1  0.000000  0.798963  0.568640  1
  Ni  Ni20  1  0.500000  0.878637  0.704830  1
  Ni  Ni21  1  0.500000  0.121363  0.704830  1
  Ni  Ni22  1  0.000000  0.621363  0.295170  1
  Ni  Ni23  1  0.000000  0.378637  0.295170  1
  P  P24  1  0.500000  0.500000  0.881318  1
  P  P25  1  0.000000  0.000000  0.118682  1
  P  P26  1  0.500000  0.500000  0.360645  1
  P  P27  1  0.000000  0.000000  0.639355  1
  P  P28  1  0.500000  0.313211  0.615822  1
  P  P29  1  0.500000  0.686789  0.615822  1
  P  P30  1  0.000000  0.186789  0.384178  1
  P  P31  1  0.000000  0.813211  0.384178  1
  P  P32  1  0.500000  0.839898  0.893369  1
  P  P33  1  0.500000  0.160102  0.893369  1
  P  P34  1  0.000000  0.660102  0.106631  1
  P  P35  1  0.000000  0.339898  0.106631  1
