# generated using pymatgen
data_Li5Al6NiPt12
_symmetry_space_group_name_H-M   'P 1'
_cell_length_a   4.08234900
_cell_length_b   6.58210000
_cell_length_c   12.27239900
_cell_angle_alpha   90.00000000
_cell_angle_beta   89.99909799
_cell_angle_gamma   90.00000000
_symmetry_Int_Tables_number   1
_chemical_formula_structural   Li5Al6NiPt12
_chemical_formula_sum   'Li5 Al6 Ni1 Pt12'
_cell_volume   329.76463030
_cell_formula_units_Z   1
loop_
 _symmetry_equiv_pos_site_id
 _symmetry_equiv_pos_as_xyz
  1  'x, y, z'
loop_
 _atom_site_type_symbol
 _atom_site_label
 _atom_site_symmetry_multiplicity
 _atom_site_fract_x
 _atom_site_fract_y
 _atom_site_fract_z
 _atom_site_occupancy
  Li  Li0  1  0.499887  0.500001  0.166882  1
  Li  Li1  1  0.999913  0.000000  0.333751  1
  Li  Li2  1  0.499999  0.500001  0.500000  1
  Li  Li3  1  0.000087  0.000000  0.666250  1
  Li  Li4  1  0.500113  0.500001  0.833118  1
  Al  Al5  1  0.000000  0.500001  0.000000  1
  Al  Al6  1  0.499902  0.000000  0.163291  1
  Al  Al7  1  0.999884  0.500001  0.333546  1
  Al  Al8  1  0.499999  0.000000  0.500000  1
  Al  Al9  1  0.000116  0.500001  0.666454  1
  Al  Al10  1  0.500101  0.000000  0.836709  1
  Ni  Ni11  1  0.000000  0.000000  0.000000  1
  Pt  Pt12  1  0.499999  0.255091  0.000000  1
  Pt  Pt13  1  0.499999  0.744910  0.000000  1
  Pt  Pt14  1  0.999923  0.249907  0.167252  1
  Pt  Pt15  1  0.999923  0.750094  0.167252  1
  Pt  Pt16  1  0.499862  0.249355  0.333430  1
  Pt  Pt17  1  0.499862  0.750645  0.333430  1
  Pt  Pt18  1  0.000000  0.250524  0.500000  1
  Pt  Pt19  1  0.000000  0.749476  0.500000  1
  Pt  Pt20  1  0.500138  0.249355  0.666569  1
  Pt  Pt21  1  0.500138  0.750645  0.666569  1
  Pt  Pt22  1  0.000077  0.249907  0.832748  1
  Pt  Pt23  1  0.000077  0.750094  0.832748  1
