# generated using pymatgen
data_K5IrPt2N3
_symmetry_space_group_name_H-M   'P 1'
_cell_length_a   9.19461867
_cell_length_b   9.19461854
_cell_length_c   3.75341800
_cell_angle_alpha   90.00000000
_cell_angle_beta   90.00000000
_cell_angle_gamma   120.04383385
_symmetry_Int_Tables_number   1
_chemical_formula_structural   K5IrPt2N3
_chemical_formula_sum   'K5 Ir1 Pt2 N3'
_cell_volume   274.68377402
_cell_formula_units_Z   1
loop_
 _symmetry_equiv_pos_site_id
 _symmetry_equiv_pos_as_xyz
  1  'x, y, z'
loop_
 _atom_site_type_symbol
 _atom_site_label
 _atom_site_symmetry_multiplicity
 _atom_site_fract_x
 _atom_site_fract_y
 _atom_site_fract_z
 _atom_site_occupancy
  K  K0  1  0.735672  0.998454  0.500000  1
  K  K1  1  0.264989  0.264989  0.500000  1
  K  K2  1  0.666627  0.334493  0.500000  1
  K  K3  1  0.334494  0.666628  0.500000  1
  K  K4  1  0.998454  0.735672  0.500000  1
  Ir  Ir5  1  0.636031  0.636031  0.000000  1
  Pt  Pt6  1  0.363715  0.999971  0.000000  1
  Pt  Pt7  1  0.999971  0.363715  0.000000  1
  N  N8  1  0.364882  0.999993  0.500000  1
  N  N9  1  0.999993  0.364882  0.500000  1
  N  N10  1  0.635173  0.635172  0.500000  1
