# generated using pymatgen
data_SmDy2(GaRh2)3
_symmetry_space_group_name_H-M   'P 1'
_cell_length_a   5.60015400
_cell_length_b   5.60015296
_cell_length_c   15.70829900
_cell_angle_alpha   90.00000000
_cell_angle_beta   90.00000000
_cell_angle_gamma   119.99999436
_symmetry_Int_Tables_number   1
_chemical_formula_structural   SmDy2(GaRh2)3
_chemical_formula_sum   'Sm2 Dy4 Ga6 Rh12'
_cell_volume   426.63813726
_cell_formula_units_Z   2
loop_
 _symmetry_equiv_pos_site_id
 _symmetry_equiv_pos_as_xyz
  1  'x, y, z'
loop_
 _atom_site_type_symbol
 _atom_site_label
 _atom_site_symmetry_multiplicity
 _atom_site_fract_x
 _atom_site_fract_y
 _atom_site_fract_z
 _atom_site_occupancy
  Sm  Sm0  1  0.666667  0.333333  0.750000  1
  Sm  Sm1  1  0.333333  0.666667  0.250000  1
  Dy  Dy2  1  0.666667  0.333333  0.960880  1
  Dy  Dy3  1  0.666667  0.333333  0.539120  1
  Dy  Dy4  1  0.333333  0.666667  0.039120  1
  Dy  Dy5  1  0.333333  0.666667  0.460880  1
  Ga  Ga6  1  0.666667  0.333333  0.250000  1
  Ga  Ga7  1  0.000000  0.000000  0.500000  1
  Ga  Ga8  1  0.000000  0.000000  0.250000  1
  Ga  Ga9  1  0.000000  0.000000  0.750000  1
  Ga  Ga10  1  0.333333  0.666667  0.750000  1
  Ga  Ga11  1  0.000000  0.000000  0.000000  1
  Rh  Rh12  1  0.168763  0.337526  0.875052  1
  Rh  Rh13  1  0.168763  0.337526  0.624948  1
  Rh  Rh14  1  0.662474  0.831237  0.875052  1
  Rh  Rh15  1  0.337526  0.168763  0.375052  1
  Rh  Rh16  1  0.831237  0.662474  0.375052  1
  Rh  Rh17  1  0.831237  0.168763  0.375052  1
  Rh  Rh18  1  0.831237  0.168763  0.124948  1
  Rh  Rh19  1  0.337526  0.168763  0.124948  1
  Rh  Rh20  1  0.662474  0.831237  0.624948  1
  Rh  Rh21  1  0.168763  0.831237  0.624948  1
  Rh  Rh22  1  0.831237  0.662474  0.124948  1
  Rh  Rh23  1  0.168763  0.831237  0.875052  1
