# generated using pymatgen
data_La4NdSn4
_symmetry_space_group_name_H-M   'P 1'
_cell_length_a   8.45635400
_cell_length_b   8.62029400
_cell_length_c   16.38061800
_cell_angle_alpha   90.00000000
_cell_angle_beta   90.00000000
_cell_angle_gamma   90.00000000
_symmetry_Int_Tables_number   1
_chemical_formula_structural   La4NdSn4
_chemical_formula_sum   'La16 Nd4 Sn16'
_cell_volume   1194.08575016
_cell_formula_units_Z   4
loop_
 _symmetry_equiv_pos_site_id
 _symmetry_equiv_pos_as_xyz
  1  'x, y, z'
loop_
 _atom_site_type_symbol
 _atom_site_label
 _atom_site_symmetry_multiplicity
 _atom_site_fract_x
 _atom_site_fract_y
 _atom_site_fract_z
 _atom_site_occupancy
  La  La0  1  0.017682  0.181375  0.400879  1
  La  La1  1  0.369228  0.838153  0.119486  1
  La  La2  1  0.130772  0.338153  0.619486  1
  La  La3  1  0.482318  0.681375  0.900879  1
  La  La4  1  0.869228  0.661847  0.119486  1
  La  La5  1  0.130772  0.338153  0.880514  1
  La  La6  1  0.482318  0.681375  0.599121  1
  La  La7  1  0.630772  0.161847  0.619486  1
  La  La8  1  0.869228  0.661847  0.380514  1
  La  La9  1  0.017682  0.181375  0.099121  1
  La  La10  1  0.982318  0.818625  0.900879  1
  La  La11  1  0.630772  0.161847  0.880514  1
  La  La12  1  0.517682  0.318625  0.099121  1
  La  La13  1  0.369228  0.838153  0.380514  1
  La  La14  1  0.982318  0.818625  0.599121  1
  La  La15  1  0.517682  0.318625  0.400879  1
  Nd  Nd16  1  0.199621  0.501020  0.250000  1
  Nd  Nd17  1  0.699621  0.998980  0.250000  1
  Nd  Nd18  1  0.300379  0.001020  0.750000  1
  Nd  Nd19  1  0.800379  0.498980  0.750000  1
  Sn  Sn20  1  0.790313  0.465046  0.543082  1
  Sn  Sn21  1  0.709687  0.965046  0.456918  1
  Sn  Sn22  1  0.677653  0.856413  0.750000  1
  Sn  Sn23  1  0.209687  0.534954  0.456918  1
  Sn  Sn24  1  0.290313  0.034954  0.956918  1
  Sn  Sn25  1  0.822347  0.356413  0.250000  1
  Sn  Sn26  1  0.790313  0.465046  0.956918  1
  Sn  Sn27  1  0.567407  0.614576  0.250000  1
  Sn  Sn28  1  0.209687  0.534954  0.043082  1
  Sn  Sn29  1  0.432593  0.385424  0.750000  1
  Sn  Sn30  1  0.177653  0.643587  0.750000  1
  Sn  Sn31  1  0.932593  0.114576  0.750000  1
  Sn  Sn32  1  0.290313  0.034954  0.543082  1
  Sn  Sn33  1  0.709687  0.965046  0.043082  1
  Sn  Sn34  1  0.322347  0.143587  0.250000  1
  Sn  Sn35  1  0.067407  0.885424  0.250000  1
