# generated using pymatgen
data_Ta6Ga6TcOs11
_symmetry_space_group_name_H-M   'P 1'
_cell_length_a   4.41407700
_cell_length_b   6.25448900
_cell_length_c   13.24761600
_cell_angle_alpha   90.00000000
_cell_angle_beta   90.00030714
_cell_angle_gamma   90.00000000
_symmetry_Int_Tables_number   1
_chemical_formula_structural   Ta6Ga6TcOs11
_chemical_formula_sum   'Ta6 Ga6 Tc1 Os11'
_cell_volume   365.73748056
_cell_formula_units_Z   1
loop_
 _symmetry_equiv_pos_site_id
 _symmetry_equiv_pos_as_xyz
  1  'x, y, z'
loop_
 _atom_site_type_symbol
 _atom_site_label
 _atom_site_symmetry_multiplicity
 _atom_site_fract_x
 _atom_site_fract_y
 _atom_site_fract_z
 _atom_site_occupancy
  Ta  Ta0  1  0.000000  0.497661  0.000000  1
  Ta  Ta1  1  0.499763  0.001099  0.165277  1
  Ta  Ta2  1  0.999763  0.500156  0.332815  1
  Ta  Ta3  1  0.499999  0.999707  0.500000  1
  Ta  Ta4  1  0.000236  0.500156  0.667185  1
  Ta  Ta5  1  0.500237  0.001099  0.834723  1
  Ga  Ga6  1  0.000000  0.001848  0.000000  1
  Ga  Ga7  1  0.499692  0.498968  0.165712  1
  Ga  Ga8  1  0.999674  0.000047  0.333176  1
  Ga  Ga9  1  0.499999  0.500162  0.500000  1
  Ga  Ga10  1  0.000324  0.000047  0.666824  1
  Ga  Ga11  1  0.500309  0.498968  0.834288  1
  Tc  Tc12  1  0.499999  0.250213  0.000000  1
  Os  Os13  1  0.499999  0.750277  0.000000  1
  Os  Os14  1  0.999766  0.249536  0.167812  1
  Os  Os15  1  0.999762  0.750150  0.167427  1
  Os  Os16  1  0.499765  0.250426  0.334187  1
  Os  Os17  1  0.499765  0.749557  0.333691  1
  Os  Os18  1  0.000000  0.249800  0.500000  1
  Os  Os19  1  0.000000  0.750457  0.500000  1
  Os  Os20  1  0.500233  0.250426  0.665813  1
  Os  Os21  1  0.500233  0.749557  0.666309  1
  Os  Os22  1  0.000235  0.249536  0.832188  1
  Os  Os23  1  0.000239  0.750150  0.832573  1
