# generated using pymatgen
data_Ta(Nb3Re2)2
_symmetry_space_group_name_H-M   'P 1'
_cell_length_a   3.23016499
_cell_length_b   3.23016467
_cell_length_c   18.03392505
_cell_angle_alpha   84.89913972
_cell_angle_beta   84.89914050
_cell_angle_gamma   90.27337734
_symmetry_Int_Tables_number   1
_chemical_formula_structural   Ta(Nb3Re2)2
_chemical_formula_sum   'Ta1 Nb6 Re4'
_cell_volume   186.66268124
_cell_formula_units_Z   1
loop_
 _symmetry_equiv_pos_site_id
 _symmetry_equiv_pos_as_xyz
  1  'x, y, z'
loop_
 _atom_site_type_symbol
 _atom_site_label
 _atom_site_symmetry_multiplicity
 _atom_site_fract_x
 _atom_site_fract_y
 _atom_site_fract_z
 _atom_site_occupancy
  Ta  Ta0  1  0.766928  0.766928  0.864172  1
  Nb  Nb1  1  0.118413  0.118413  0.138725  1
  Nb  Nb2  1  0.863121  0.863121  0.686222  1
  Nb  Nb3  1  0.668921  0.668921  0.042128  1
  Nb  Nb4  1  0.411745  0.411745  0.589625  1
  Nb  Nb5  1  0.034930  0.034930  0.316290  1
  Nb  Nb6  1  0.492702  0.492702  0.412055  1
  Re  Re7  1  0.575263  0.575263  0.227254  1
  Re  Re8  1  0.316345  0.316345  0.774622  1
  Re  Re9  1  0.217130  0.217130  0.953714  1
  Re  Re10  1  0.953044  0.953044  0.501093  1
