# generated using pymatgen
data_Dy5HoScFeO12
_symmetry_space_group_name_H-M   'P 1'
_cell_length_a   6.56884847
_cell_length_b   6.56670579
_cell_length_c   6.56840226
_cell_angle_alpha   92.64553169
_cell_angle_beta   92.65972834
_cell_angle_gamma   92.66081508
_symmetry_Int_Tables_number   1
_chemical_formula_structural   Dy5HoScFeO12
_chemical_formula_sum   'Dy5 Ho1 Sc1 Fe1 O12'
_cell_volume   282.39067995
_cell_formula_units_Z   1
loop_
 _symmetry_equiv_pos_site_id
 _symmetry_equiv_pos_as_xyz
  1  'x, y, z'
loop_
 _atom_site_type_symbol
 _atom_site_label
 _atom_site_symmetry_multiplicity
 _atom_site_fract_x
 _atom_site_fract_y
 _atom_site_fract_z
 _atom_site_occupancy
  Dy  Dy0  1  0.743516  0.927567  0.436478  1
  Dy  Dy1  1  0.927242  0.436530  0.743669  1
  Dy  Dy2  1  0.436752  0.743513  0.927540  1
  Dy  Dy3  1  0.256583  0.072709  0.563401  1
  Dy  Dy4  1  0.072552  0.563207  0.256412  1
  Ho  Ho5  1  0.563360  0.256367  0.072688  1
  Sc  Sc6  1  0.999897  0.000170  0.000055  1
  Fe  Fe7  1  0.500065  0.499832  0.499881  1
  O  O8  1  0.588607  0.460241  0.801148  1
  O  O9  1  0.461028  0.800307  0.588708  1
  O  O10  1  0.800373  0.588750  0.461130  1
  O  O11  1  0.411767  0.537963  0.199147  1
  O  O12  1  0.538981  0.199765  0.410077  1
  O  O13  1  0.199659  0.411305  0.538948  1
  O  O14  1  0.068470  0.914379  0.307325  1
  O  O15  1  0.913328  0.307315  0.068612  1
  O  O16  1  0.692371  0.932418  0.085466  1
  O  O17  1  0.085602  0.692772  0.931535  1
  O  O18  1  0.931647  0.085530  0.692664  1
  O  O19  1  0.308200  0.069361  0.915118  1
