# generated using pymatgen
data_Sm3Gd3(PtO7)2
_symmetry_space_group_name_H-M   'P 1'
_cell_length_a   6.53070613
_cell_length_b   6.52475988
_cell_length_c   7.50865502
_cell_angle_alpha   89.99792720
_cell_angle_beta   89.99133826
_cell_angle_gamma   69.79488693
_symmetry_Int_Tables_number   1
_chemical_formula_structural   Sm3Gd3(PtO7)2
_chemical_formula_sum   'Sm3 Gd3 Pt2 O14'
_cell_volume   300.26423719
_cell_formula_units_Z   1
loop_
 _symmetry_equiv_pos_site_id
 _symmetry_equiv_pos_as_xyz
  1  'x, y, z'
loop_
 _atom_site_type_symbol
 _atom_site_label
 _atom_site_symmetry_multiplicity
 _atom_site_fract_x
 _atom_site_fract_y
 _atom_site_fract_z
 _atom_site_occupancy
  Sm  Sm0  1  0.000003  0.999383  0.000221  1
  Sm  Sm1  1  0.480764  0.072450  0.249997  1
  Sm  Sm2  1  0.000001  0.999390  0.499780  1
  Gd  Gd3  1  0.931950  0.517657  0.250087  1
  Gd  Gd4  1  0.067189  0.482047  0.749936  1
  Gd  Gd5  1  0.517753  0.932788  0.749938  1
  Pt  Pt6  1  0.500283  0.500141  0.999363  1
  Pt  Pt7  1  0.500283  0.500144  0.500655  1
  O  O8  1  0.179040  0.563342  0.035888  1
  O  O9  1  0.433894  0.821874  0.035094  1
  O  O10  1  0.109827  0.156517  0.250009  1
  O  O11  1  0.601381  0.399945  0.249991  1
  O  O12  1  0.846673  0.883537  0.250005  1
  O  O13  1  0.179009  0.563295  0.464109  1
  O  O14  1  0.433883  0.821930  0.464886  1
  O  O15  1  0.567231  0.177871  0.537926  1
  O  O16  1  0.821658  0.435560  0.536417  1
  O  O17  1  0.156495  0.114606  0.749996  1
  O  O18  1  0.398420  0.600967  0.750019  1
  O  O19  1  0.885445  0.843094  0.749991  1
  O  O20  1  0.567209  0.177937  0.962091  1
  O  O21  1  0.821608  0.435526  0.963608  1
