# generated using pymatgen
data_Er8Sc12GaSi15
_symmetry_space_group_name_H-M   'P 1'
_cell_length_a   7.07092549
_cell_length_b   7.36240211
_cell_length_c   13.96425204
_cell_angle_alpha   89.93732813
_cell_angle_beta   89.95773872
_cell_angle_gamma   89.99299406
_symmetry_Int_Tables_number   1
_chemical_formula_structural   Er8Sc12GaSi15
_chemical_formula_sum   'Er8 Sc12 Ga1 Si15'
_cell_volume   726.96431429
_cell_formula_units_Z   1
loop_
 _symmetry_equiv_pos_site_id
 _symmetry_equiv_pos_as_xyz
  1  'x, y, z'
loop_
 _atom_site_type_symbol
 _atom_site_label
 _atom_site_symmetry_multiplicity
 _atom_site_fract_x
 _atom_site_fract_y
 _atom_site_fract_z
 _atom_site_occupancy
  Er  Er0  1  0.011611  0.175790  0.096786  1
  Er  Er1  1  0.988253  0.824506  0.904098  1
  Er  Er2  1  0.487805  0.676971  0.903910  1
  Er  Er3  1  0.988049  0.826250  0.597446  1
  Er  Er4  1  0.511874  0.323097  0.096525  1
  Er  Er5  1  0.010374  0.174363  0.401498  1
  Er  Er6  1  0.512648  0.322599  0.401443  1
  Er  Er7  1  0.490274  0.679430  0.597516  1
  Sc  Sc8  1  0.161216  0.503194  0.751824  1
  Sc  Sc9  1  0.838522  0.497022  0.249881  1
  Sc  Sc10  1  0.338442  0.002959  0.249451  1
  Sc  Sc11  1  0.662219  0.996251  0.750314  1
  Sc  Sc12  1  0.333394  0.173678  0.626213  1
  Sc  Sc13  1  0.667762  0.823837  0.374031  1
  Sc  Sc14  1  0.169674  0.676947  0.373312  1
  Sc  Sc15  1  0.669008  0.823573  0.125261  1
  Sc  Sc16  1  0.829167  0.323810  0.625752  1
  Sc  Sc17  1  0.330669  0.176301  0.874937  1
  Sc  Sc18  1  0.830614  0.323067  0.874961  1
  Sc  Sc19  1  0.168606  0.676514  0.125418  1
  Ga  Ga20  1  0.161222  0.462426  0.539514  1
  Si  Si21  1  0.033893  0.116591  0.750845  1
  Si  Si22  1  0.966303  0.884464  0.249520  1
  Si  Si23  1  0.467681  0.613938  0.249604  1
  Si  Si24  1  0.531988  0.386815  0.749867  1
  Si  Si25  1  0.284974  0.871444  0.750721  1
  Si  Si26  1  0.714113  0.128590  0.249145  1
  Si  Si27  1  0.214085  0.370570  0.249125  1
  Si  Si28  1  0.786022  0.629161  0.751112  1
  Si  Si29  1  0.840737  0.535761  0.460403  1
  Si  Si30  1  0.340307  0.964482  0.460070  1
  Si  Si31  1  0.841045  0.535310  0.038534  1
  Si  Si32  1  0.659492  0.036001  0.538761  1
  Si  Si33  1  0.158528  0.464194  0.961976  1
  Si  Si34  1  0.658253  0.035043  0.960581  1
  Si  Si35  1  0.341178  0.965046  0.039647  1
