# generated using pymatgen
data_Li2(VSe2)3
_symmetry_space_group_name_H-M   'P 1'
_cell_length_a   5.87364600
_cell_length_b   5.87364544
_cell_length_c   13.59611000
_cell_angle_alpha   90.00000000
_cell_angle_beta   90.00000000
_cell_angle_gamma   120.00000316
_symmetry_Int_Tables_number   1
_chemical_formula_structural   Li2(VSe2)3
_chemical_formula_sum   'Li4 V6 Se12'
_cell_volume   406.21951442
_cell_formula_units_Z   2
loop_
 _symmetry_equiv_pos_site_id
 _symmetry_equiv_pos_as_xyz
  1  'x, y, z'
loop_
 _atom_site_type_symbol
 _atom_site_label
 _atom_site_symmetry_multiplicity
 _atom_site_fract_x
 _atom_site_fract_y
 _atom_site_fract_z
 _atom_site_occupancy
  Li  Li0  1  0.000000  0.000000  0.250000  1
  Li  Li1  1  0.000000  0.000000  0.750000  1
  Li  Li2  1  0.333333  0.666667  0.250000  1
  Li  Li3  1  0.666667  0.333333  0.750000  1
  V  V4  1  0.000000  0.000000  0.000000  1
  V  V5  1  0.000000  0.000000  0.500000  1
  V  V6  1  0.333333  0.666667  0.499540  1
  V  V7  1  0.333333  0.666667  0.000460  1
  V  V8  1  0.666667  0.333333  0.999540  1
  V  V9  1  0.666667  0.333333  0.500460  1
  Se  Se10  1  0.003002  0.335847  0.884487  1
  Se  Se11  1  0.996998  0.332845  0.115513  1
  Se  Se12  1  0.003002  0.667155  0.615513  1
  Se  Se13  1  0.996998  0.664153  0.384487  1
  Se  Se14  1  0.332845  0.996998  0.884487  1
  Se  Se15  1  0.332845  0.335847  0.615513  1
  Se  Se16  1  0.335847  0.332845  0.384487  1
  Se  Se17  1  0.335847  0.003002  0.115513  1
  Se  Se18  1  0.664153  0.667155  0.884487  1
  Se  Se19  1  0.667155  0.664153  0.115513  1
  Se  Se20  1  0.664153  0.996998  0.615513  1
  Se  Se21  1  0.667155  0.003002  0.384487  1
