# generated using pymatgen
data_Tb3CoSn3IrRh
_symmetry_space_group_name_H-M   'P 1'
_cell_length_a   7.47772200
_cell_length_b   7.47772131
_cell_length_c   3.88972100
_cell_angle_alpha   90.00000000
_cell_angle_beta   90.00000000
_cell_angle_gamma   119.99999419
_symmetry_Int_Tables_number   1
_chemical_formula_structural   Tb3CoSn3IrRh
_chemical_formula_sum   'Tb3 Co1 Sn3 Ir1 Rh1'
_cell_volume   188.35957398
_cell_formula_units_Z   1
loop_
 _symmetry_equiv_pos_site_id
 _symmetry_equiv_pos_as_xyz
  1  'x, y, z'
loop_
 _atom_site_type_symbol
 _atom_site_label
 _atom_site_symmetry_multiplicity
 _atom_site_fract_x
 _atom_site_fract_y
 _atom_site_fract_z
 _atom_site_occupancy
  Tb  Tb0  1  0.405900  0.997638  0.500000  1
  Tb  Tb1  1  0.002362  0.408262  0.500000  1
  Tb  Tb2  1  0.591738  0.594100  0.500000  1
  Co  Co3  1  0.000000  0.000000  0.500000  1
  Sn  Sn4  1  0.750395  0.000786  0.000000  1
  Sn  Sn5  1  0.999214  0.749609  0.000000  1
  Sn  Sn6  1  0.250391  0.249605  0.000000  1
  Ir  Ir7  1  0.333333  0.666667  0.000000  1
  Rh  Rh8  1  0.666667  0.333333  0.000000  1
