# generated using pymatgen
data_ReTc3(PN3)4
_symmetry_space_group_name_H-M   'P 1'
_cell_length_a   6.48015707
_cell_length_b   6.48015587
_cell_length_c   4.83463408
_cell_angle_alpha   81.98515346
_cell_angle_beta   81.98516053
_cell_angle_gamma   82.16435492
_symmetry_Int_Tables_number   1
_chemical_formula_structural   ReTc3(PN3)4
_chemical_formula_sum   'Re1 Tc3 P4 N12'
_cell_volume   197.65169083
_cell_formula_units_Z   1
loop_
 _symmetry_equiv_pos_site_id
 _symmetry_equiv_pos_as_xyz
  1  'x, y, z'
loop_
 _atom_site_type_symbol
 _atom_site_label
 _atom_site_symmetry_multiplicity
 _atom_site_fract_x
 _atom_site_fract_y
 _atom_site_fract_z
 _atom_site_occupancy
  Re  Re0  1  0.096176  0.903824  0.750000  1
  Tc  Tc1  1  0.764080  0.235920  0.750000  1
  Tc  Tc2  1  0.905459  0.094541  0.250000  1
  Tc  Tc3  1  0.235506  0.764494  0.250000  1
  P  P4  1  0.233482  0.395109  0.808503  1
  P  P5  1  0.395872  0.234329  0.307747  1
  P  P6  1  0.765671  0.604128  0.192253  1
  P  P7  1  0.604891  0.766518  0.691497  1
  N  N8  1  0.289492  0.441935  0.113614  1
  N  N9  1  0.062892  0.213552  0.863329  1
  N  N10  1  0.938422  0.783884  0.133650  1
  N  N11  1  0.441607  0.291123  0.612631  1
  N  N12  1  0.613621  0.143534  0.136342  1
  N  N13  1  0.386355  0.859500  0.858140  1
  N  N14  1  0.856466  0.386379  0.363658  1
  N  N15  1  0.708877  0.558393  0.887369  1
  N  N16  1  0.786448  0.937108  0.636671  1
  N  N17  1  0.140500  0.613645  0.641860  1
  N  N18  1  0.216116  0.061578  0.366350  1
  N  N19  1  0.558065  0.710508  0.386386  1
