# generated using pymatgen
data_Nd3Y(CuPt)2
_symmetry_space_group_name_H-M   'P 1'
_cell_length_a   4.51513800
_cell_length_b   5.67928392
_cell_length_c   7.35996634
_cell_angle_alpha   89.59272288
_cell_angle_beta   90.00000000
_cell_angle_gamma   90.00000000
_symmetry_Int_Tables_number   1
_chemical_formula_structural   Nd3Y(CuPt)2
_chemical_formula_sum   'Nd3 Y1 Cu2 Pt2'
_cell_volume   188.72501364
_cell_formula_units_Z   1
loop_
 _symmetry_equiv_pos_site_id
 _symmetry_equiv_pos_as_xyz
  1  'x, y, z'
loop_
 _atom_site_type_symbol
 _atom_site_label
 _atom_site_symmetry_multiplicity
 _atom_site_fract_x
 _atom_site_fract_y
 _atom_site_fract_z
 _atom_site_occupancy
  Nd  Nd0  1  0.000000  0.116203  0.683925  1
  Nd  Nd1  1  0.000000  0.882298  0.181917  1
  Nd  Nd2  1  0.500000  0.391967  0.315276  1
  Y  Y3  1  0.500000  0.606849  0.815700  1
  Cu  Cu4  1  0.500000  0.881239  0.467857  1
  Cu  Cu5  1  0.500000  0.115910  0.960511  1
  Pt  Pt6  1  0.000000  0.618757  0.544940  1
  Pt  Pt7  1  0.000000  0.386776  0.029877  1
