# generated using pymatgen
data_Y20Al5CdCo2
_symmetry_space_group_name_H-M   'P 1'
_cell_length_a   9.62089472
_cell_length_b   9.64902222
_cell_length_c   9.60572900
_cell_angle_alpha   90.00000000
_cell_angle_beta   90.00000000
_cell_angle_gamma   120.09675495
_symmetry_Int_Tables_number   1
_chemical_formula_structural   Y20Al5CdCo2
_chemical_formula_sum   'Y20 Al5 Cd1 Co2'
_cell_volume   771.49920218
_cell_formula_units_Z   1
loop_
 _symmetry_equiv_pos_site_id
 _symmetry_equiv_pos_as_xyz
  1  'x, y, z'
loop_
 _atom_site_type_symbol
 _atom_site_label
 _atom_site_symmetry_multiplicity
 _atom_site_fract_x
 _atom_site_fract_y
 _atom_site_fract_z
 _atom_site_occupancy
  Y  Y0  1  0.000765  0.000383  0.499485  1
  Y  Y1  1  0.000765  0.000383  0.000515  1
  Y  Y2  1  0.543966  0.457113  0.250000  1
  Y  Y3  1  0.543966  0.086853  0.250000  1
  Y  Y4  1  0.916816  0.458407  0.250000  1
  Y  Y5  1  0.455925  0.541118  0.750000  1
  Y  Y6  1  0.455925  0.914808  0.750000  1
  Y  Y7  1  0.084891  0.542446  0.750000  1
  Y  Y8  1  0.209436  0.790490  0.437386  1
  Y  Y9  1  0.209436  0.418947  0.437386  1
  Y  Y10  1  0.579632  0.789817  0.433400  1
  Y  Y11  1  0.790698  0.211225  0.561921  1
  Y  Y12  1  0.790698  0.579472  0.561921  1
  Y  Y13  1  0.418012  0.209005  0.563550  1
  Y  Y14  1  0.790698  0.211225  0.938079  1
  Y  Y15  1  0.790698  0.579472  0.938079  1
  Y  Y16  1  0.418012  0.209005  0.936450  1
  Y  Y17  1  0.209436  0.790490  0.062614  1
  Y  Y18  1  0.209436  0.418947  0.062614  1
  Y  Y19  1  0.579632  0.789817  0.066600  1
  Al  Al20  1  0.886667  0.112736  0.250000  1
  Al  Al21  1  0.886667  0.773930  0.250000  1
  Al  Al22  1  0.226342  0.113171  0.250000  1
  Al  Al23  1  0.115832  0.887323  0.750000  1
  Al  Al24  1  0.115832  0.228508  0.750000  1
  Cd  Cd25  1  0.772221  0.886110  0.750000  1
  Co  Co26  1  0.330391  0.665196  0.250000  1
  Co  Co27  1  0.667209  0.333604  0.750000  1
