# generated using pymatgen
data_TbYb12Y7Ge16
_symmetry_space_group_name_H-M   'P 1'
_cell_length_a   7.45334900
_cell_length_b   7.90279300
_cell_length_c   15.22701100
_cell_angle_alpha   89.99947934
_cell_angle_beta   90.00255543
_cell_angle_gamma   90.00211936
_symmetry_Int_Tables_number   1
_chemical_formula_structural   TbYb12Y7Ge16
_chemical_formula_sum   'Tb1 Yb12 Y7 Ge16'
_cell_volume   896.90557798
_cell_formula_units_Z   1
loop_
 _symmetry_equiv_pos_site_id
 _symmetry_equiv_pos_as_xyz
  1  'x, y, z'
loop_
 _atom_site_type_symbol
 _atom_site_label
 _atom_site_symmetry_multiplicity
 _atom_site_fract_x
 _atom_site_fract_y
 _atom_site_fract_z
 _atom_site_occupancy
  Tb  Tb0  1  0.317611  0.172599  0.121325  1
  Yb  Yb1  1  0.977969  0.812767  0.404509  1
  Yb  Yb2  1  0.477991  0.687224  0.095494  1
  Yb  Yb3  1  0.522026  0.312769  0.595492  1
  Yb  Yb4  1  0.022020  0.187237  0.904507  1
  Yb  Yb5  1  0.022030  0.187231  0.595492  1
  Yb  Yb6  1  0.522032  0.312774  0.904506  1
  Yb  Yb7  1  0.477972  0.687233  0.404510  1
  Yb  Yb8  1  0.977965  0.812771  0.095490  1
  Yb  Yb9  1  0.346327  0.019906  0.749999  1
  Yb  Yb10  1  0.846326  0.480092  0.750002  1
  Yb  Yb11  1  0.153672  0.519913  0.250004  1
  Yb  Yb12  1  0.653679  0.980094  0.250000  1
  Y  Y13  1  0.817599  0.327429  0.378687  1
  Y  Y14  1  0.182411  0.672571  0.878680  1
  Y  Y15  1  0.682408  0.827429  0.621317  1
  Y  Y16  1  0.317578  0.172560  0.378699  1
  Y  Y17  1  0.817581  0.327446  0.121307  1
  Y  Y18  1  0.182412  0.672572  0.621317  1
  Y  Y19  1  0.682415  0.827432  0.878677  1
  Ge  Ge20  1  0.846452  0.532855  0.540350  1
  Ge  Ge21  1  0.346459  0.967131  0.959637  1
  Ge  Ge22  1  0.653543  0.032852  0.459648  1
  Ge  Ge23  1  0.153516  0.467117  0.040346  1
  Ge  Ge24  1  0.153552  0.467144  0.459651  1
  Ge  Ge25  1  0.653579  0.032847  0.040347  1
  Ge  Ge26  1  0.346450  0.967146  0.540350  1
  Ge  Ge27  1  0.846443  0.532866  0.959650  1
  Ge  Ge28  1  0.978608  0.882164  0.750003  1
  Ge  Ge29  1  0.478606  0.617832  0.749998  1
  Ge  Ge30  1  0.521400  0.382178  0.249983  1
  Ge  Ge31  1  0.021387  0.117828  0.250014  1
  Ge  Ge32  1  0.236729  0.384825  0.749999  1
  Ge  Ge33  1  0.736729  0.115171  0.749999  1
  Ge  Ge34  1  0.263254  0.884825  0.250005  1
  Ge  Ge35  1  0.763271  0.615170  0.250006  1
