# generated using pymatgen
data_Tb8Tl2InCo
_symmetry_space_group_name_H-M   'P 1'
_cell_length_a   10.40874600
_cell_length_b   10.41563323
_cell_length_c   7.13049102
_cell_angle_alpha   89.99028391
_cell_angle_beta   89.99967251
_cell_angle_gamma   119.97802632
_symmetry_Int_Tables_number   1
_chemical_formula_structural   Tb8Tl2InCo
_chemical_formula_sum   'Tb16 Tl4 In2 Co2'
_cell_volume   669.62285609
_cell_formula_units_Z   2
loop_
 _symmetry_equiv_pos_site_id
 _symmetry_equiv_pos_as_xyz
  1  'x, y, z'
loop_
 _atom_site_type_symbol
 _atom_site_label
 _atom_site_symmetry_multiplicity
 _atom_site_fract_x
 _atom_site_fract_y
 _atom_site_fract_z
 _atom_site_occupancy
  Tb  Tb0  1  0.536461  0.072925  0.503105  1
  Tb  Tb1  1  0.925916  0.463987  0.504493  1
  Tb  Tb2  1  0.538075  0.463985  0.504493  1
  Tb  Tb3  1  0.462597  0.925188  0.006397  1
  Tb  Tb4  1  0.075227  0.537450  0.006078  1
  Tb  Tb5  1  0.462225  0.537447  0.006074  1
  Tb  Tb6  1  0.177499  0.354995  0.708589  1
  Tb  Tb7  1  0.644995  0.822835  0.710678  1
  Tb  Tb8  1  0.177842  0.822833  0.710675  1
  Tb  Tb9  1  0.822021  0.644042  0.208325  1
  Tb  Tb10  1  0.355528  0.178189  0.208842  1
  Tb  Tb11  1  0.822655  0.178186  0.208845  1
  Tb  Tb12  1  0.666532  0.333069  0.896734  1
  Tb  Tb13  1  0.333616  0.667232  0.397411  1
  Tb  Tb14  1  0.999115  0.998234  0.490371  1
  Tb  Tb15  1  0.999262  0.998531  0.993695  1
  Tl  Tl16  1  0.836755  0.673506  0.756970  1
  Tl  Tl17  1  0.326646  0.163400  0.756761  1
  Tl  Tl18  1  0.836756  0.163408  0.756767  1
  Tl  Tl19  1  0.163195  0.326395  0.257794  1
  In  In20  1  0.674204  0.837193  0.255459  1
  In  In21  1  0.162993  0.837193  0.255444  1
  Co  Co22  1  0.666669  0.333343  0.276916  1
  Co  Co23  1  0.333219  0.666432  0.777132  1
