# generated using pymatgen
data_La4Nd12Cd4CuIr3
_symmetry_space_group_name_H-M   'P 1'
_cell_length_a   9.97502450
_cell_length_b   9.97502410
_cell_length_c   9.97502401
_cell_angle_alpha   60.43067734
_cell_angle_beta   60.43067828
_cell_angle_gamma   60.43067866
_symmetry_Int_Tables_number   1
_chemical_formula_structural   La4Nd12Cd4CuIr3
_chemical_formula_sum   'La4 Nd12 Cd4 Cu1 Ir3'
_cell_volume   708.65594965
_cell_formula_units_Z   1
loop_
 _symmetry_equiv_pos_site_id
 _symmetry_equiv_pos_as_xyz
  1  'x, y, z'
loop_
 _atom_site_type_symbol
 _atom_site_label
 _atom_site_symmetry_multiplicity
 _atom_site_fract_x
 _atom_site_fract_y
 _atom_site_fract_z
 _atom_site_occupancy
  La  La0  1  0.346580  0.346580  0.346580  1
  La  La1  1  0.352276  0.352276  0.948805  1
  La  La2  1  0.352276  0.948805  0.352276  1
  La  La3  1  0.948805  0.352276  0.352276  1
  Nd  Nd4  1  0.805732  0.190251  0.190251  1
  Nd  Nd5  1  0.189826  0.810324  0.810324  1
  Nd  Nd6  1  0.190251  0.805732  0.190251  1
  Nd  Nd7  1  0.810324  0.189826  0.810324  1
  Nd  Nd8  1  0.190251  0.190251  0.805732  1
  Nd  Nd9  1  0.810324  0.810324  0.189826  1
  Nd  Nd10  1  0.940620  0.562270  0.562270  1
  Nd  Nd11  1  0.564623  0.938221  0.938221  1
  Nd  Nd12  1  0.562270  0.940620  0.562270  1
  Nd  Nd13  1  0.938221  0.564623  0.938221  1
  Nd  Nd14  1  0.562270  0.562270  0.940620  1
  Nd  Nd15  1  0.938221  0.938221  0.564623  1
  Cd  Cd16  1  0.580516  0.580516  0.580516  1
  Cd  Cd17  1  0.580423  0.580423  0.259084  1
  Cd  Cd18  1  0.580423  0.259084  0.580423  1
  Cd  Cd19  1  0.259084  0.580423  0.580423  1
  Cu  Cu20  1  0.142507  0.142507  0.142507  1
  Ir  Ir21  1  0.140935  0.140935  0.572304  1
  Ir  Ir22  1  0.140935  0.572304  0.140935  1
  Ir  Ir23  1  0.572304  0.140935  0.140935  1
