# generated using pymatgen
data_Ce2SiIrRuRh
_symmetry_space_group_name_H-M   'P 1'
_cell_length_a   4.98828298
_cell_length_b   5.64984540
_cell_length_c   5.02476842
_cell_angle_alpha   122.50739226
_cell_angle_beta   111.70936666
_cell_angle_gamma   91.01462899
_symmetry_Int_Tables_number   1
_chemical_formula_structural   Ce2SiIrRuRh
_chemical_formula_sum   'Ce2 Si1 Ir1 Ru1 Rh1'
_cell_volume   106.63515472
_cell_formula_units_Z   1
loop_
 _symmetry_equiv_pos_site_id
 _symmetry_equiv_pos_as_xyz
  1  'x, y, z'
loop_
 _atom_site_type_symbol
 _atom_site_label
 _atom_site_symmetry_multiplicity
 _atom_site_fract_x
 _atom_site_fract_y
 _atom_site_fract_z
 _atom_site_occupancy
  Ce  Ce0  1  0.372192  0.120085  0.248307  1
  Ce  Ce1  1  0.627808  0.879915  0.751693  1
  Si  Si2  1  0.000000  0.500000  0.000000  1
  Ir  Ir3  1  0.500000  0.500000  0.000000  1
  Ru  Ru4  1  0.000000  0.000000  0.500000  1
  Rh  Rh5  1  0.000000  0.500000  0.500000  1
