# generated using pymatgen
data_Sm3GaSn3RuRh
_symmetry_space_group_name_H-M   'P 1'
_cell_length_a   7.53476100
_cell_length_b   7.53476260
_cell_length_c   4.16554400
_cell_angle_alpha   90.00000000
_cell_angle_beta   90.00000000
_cell_angle_gamma   119.99999735
_symmetry_Int_Tables_number   1
_chemical_formula_structural   Sm3GaSn3RuRh
_chemical_formula_sum   'Sm3 Ga1 Sn3 Ru1 Rh1'
_cell_volume   204.80540992
_cell_formula_units_Z   1
loop_
 _symmetry_equiv_pos_site_id
 _symmetry_equiv_pos_as_xyz
  1  'x, y, z'
loop_
 _atom_site_type_symbol
 _atom_site_label
 _atom_site_symmetry_multiplicity
 _atom_site_fract_x
 _atom_site_fract_y
 _atom_site_fract_z
 _atom_site_occupancy
  Sm  Sm0  1  0.400737  0.411371  0.500000  1
  Sm  Sm1  1  0.588629  0.989366  0.500000  1
  Sm  Sm2  1  0.010634  0.599263  0.500000  1
  Ga  Ga3  1  0.666667  0.333333  0.000000  1
  Sn  Sn4  1  0.747021  0.753504  0.000000  1
  Sn  Sn5  1  0.246496  0.993517  0.000000  1
  Sn  Sn6  1  0.006483  0.252979  0.000000  1
  Ru  Ru7  1  0.000000  0.000000  0.500000  1
  Rh  Rh8  1  0.333333  0.666667  0.000000  1
