# generated using pymatgen
data_TmU(FeSi)2
_symmetry_space_group_name_H-M   'P 1'
_cell_length_a   4.24961200
_cell_length_b   6.91999565
_cell_length_c   6.77714299
_cell_angle_alpha   84.78999381
_cell_angle_beta   90.00000000
_cell_angle_gamma   90.00000000
_symmetry_Int_Tables_number   1
_chemical_formula_structural   TmU(FeSi)2
_chemical_formula_sum   'Tm2 U2 Fe4 Si4'
_cell_volume   198.47406718
_cell_formula_units_Z   2
loop_
 _symmetry_equiv_pos_site_id
 _symmetry_equiv_pos_as_xyz
  1  'x, y, z'
loop_
 _atom_site_type_symbol
 _atom_site_label
 _atom_site_symmetry_multiplicity
 _atom_site_fract_x
 _atom_site_fract_y
 _atom_site_fract_z
 _atom_site_occupancy
  Tm  Tm0  1  0.250000  0.476516  0.718665  1
  Tm  Tm1  1  0.750000  0.523484  0.281335  1
  U  U2  1  0.250000  0.981996  0.804342  1
  U  U3  1  0.750000  0.018004  0.195658  1
  Fe  Fe4  1  0.750000  0.863530  0.539586  1
  Fe  Fe5  1  0.250000  0.136470  0.460414  1
  Fe  Fe6  1  0.750000  0.242581  0.953854  1
  Fe  Fe7  1  0.250000  0.757419  0.046146  1
  Si  Si8  1  0.250000  0.303766  0.112507  1
  Si  Si9  1  0.750000  0.696234  0.887493  1
  Si  Si10  1  0.250000  0.795787  0.401484  1
  Si  Si11  1  0.750000  0.204213  0.598516  1
