# generated using pymatgen
data_Li4Y(ThSn2)2
_symmetry_space_group_name_H-M   'P 1'
_cell_length_a   4.69177510
_cell_length_b   7.13406812
_cell_length_c   8.72504020
_cell_angle_alpha   114.13118573
_cell_angle_beta   105.59693371
_cell_angle_gamma   90.00000873
_symmetry_Int_Tables_number   1
_chemical_formula_structural   Li4Y(ThSn2)2
_chemical_formula_sum   'Li4 Y1 Th2 Sn4'
_cell_volume   254.68976836
_cell_formula_units_Z   1
loop_
 _symmetry_equiv_pos_site_id
 _symmetry_equiv_pos_as_xyz
  1  'x, y, z'
loop_
 _atom_site_type_symbol
 _atom_site_label
 _atom_site_symmetry_multiplicity
 _atom_site_fract_x
 _atom_site_fract_y
 _atom_site_fract_z
 _atom_site_occupancy
  Li  Li0  1  0.327648  0.014663  0.655295  1
  Li  Li1  1  0.672352  0.985337  0.344705  1
  Li  Li2  1  0.327648  0.640631  0.655295  1
  Li  Li3  1  0.672352  0.359369  0.344705  1
  Y  Y4  1  0.000000  0.000000  0.000000  1
  Th  Th5  1  0.873571  0.373571  0.747140  1
  Th  Th6  1  0.126429  0.626429  0.252860  1
  Sn  Sn7  1  0.213745  0.213745  0.427489  1
  Sn  Sn8  1  0.786255  0.786255  0.572511  1
  Sn  Sn9  1  0.500000  0.292325  0.000000  1
  Sn  Sn10  1  0.500000  0.707675  0.000000  1
