# generated using pymatgen
data_Zn3FeP4(PbO8)2
_symmetry_space_group_name_H-M   'P 1'
_cell_length_a   5.14663658
_cell_length_b   8.75590068
_cell_length_c   9.42577243
_cell_angle_alpha   113.52115511
_cell_angle_beta   102.83400880
_cell_angle_gamma   92.93368016
_symmetry_Int_Tables_number   1
_chemical_formula_structural   Zn3FeP4(PbO8)2
_chemical_formula_sum   'Zn3 Fe1 P4 Pb2 O16'
_cell_volume   375.06253119
_cell_formula_units_Z   1
loop_
 _symmetry_equiv_pos_site_id
 _symmetry_equiv_pos_as_xyz
  1  'x, y, z'
loop_
 _atom_site_type_symbol
 _atom_site_label
 _atom_site_symmetry_multiplicity
 _atom_site_fract_x
 _atom_site_fract_y
 _atom_site_fract_z
 _atom_site_occupancy
  Zn  Zn0  1  0.387923  0.607828  0.411487  1
  Zn  Zn1  1  0.841628  0.078989  0.293076  1
  Zn  Zn2  1  0.157567  0.916577  0.702237  1
  Fe  Fe3  1  0.630463  0.393632  0.598605  1
  P  P4  1  0.897482  0.721450  0.313369  1
  P  P5  1  0.100022  0.273773  0.683217  1
  P  P6  1  0.317855  0.213469  0.195271  1
  P  P7  1  0.682382  0.790696  0.806652  1
  Pb  Pb8  1  0.770758  0.267110  0.961357  1
  Pb  Pb9  1  0.225003  0.734024  0.041018  1
  O  O10  1  0.010763  0.430553  0.802663  1
  O  O11  1  0.969506  0.565247  0.185480  1
  O  O12  1  0.451782  0.060662  0.204448  1
  O  O13  1  0.547262  0.943211  0.798466  1
  O  O14  1  0.080866  0.734144  0.478575  1
  O  O15  1  0.930681  0.259182  0.515039  1
  O  O16  1  0.009515  0.117016  0.707664  1
  O  O17  1  0.987604  0.879010  0.289150  1
  O  O18  1  0.427962  0.367672  0.363855  1
  O  O19  1  0.572101  0.637074  0.638275  1
  O  O20  1  0.636732  0.741864  0.939096  1
  O  O21  1  0.363052  0.260430  0.061658  1
  O  O22  1  0.405070  0.293323  0.696552  1
  O  O23  1  0.595580  0.710847  0.312084  1
  O  O24  1  0.994577  0.835675  0.836702  1
  O  O25  1  0.005862  0.166543  0.164002  1
