# generated using pymatgen
data_Er9ScCd3Co
_symmetry_space_group_name_H-M   'P 1'
_cell_length_a   9.44965600
_cell_length_b   9.44965537
_cell_length_c   9.58292300
_cell_angle_alpha   90.00000000
_cell_angle_beta   90.00000000
_cell_angle_gamma   119.99999521
_symmetry_Int_Tables_number   1
_chemical_formula_structural   Er9ScCd3Co
_chemical_formula_sum   'Er18 Sc2 Cd6 Co2'
_cell_volume   741.07236774
_cell_formula_units_Z   2
loop_
 _symmetry_equiv_pos_site_id
 _symmetry_equiv_pos_as_xyz
  1  'x, y, z'
loop_
 _atom_site_type_symbol
 _atom_site_label
 _atom_site_symmetry_multiplicity
 _atom_site_fract_x
 _atom_site_fract_y
 _atom_site_fract_z
 _atom_site_occupancy
  Er  Er0  1  0.542352  0.457648  0.250000  1
  Er  Er1  1  0.542352  0.084706  0.250000  1
  Er  Er2  1  0.915294  0.457648  0.250000  1
  Er  Er3  1  0.457648  0.542352  0.750000  1
  Er  Er4  1  0.457648  0.915294  0.750000  1
  Er  Er5  1  0.084706  0.542352  0.750000  1
  Er  Er6  1  0.211179  0.788821  0.437411  1
  Er  Er7  1  0.211179  0.422358  0.437411  1
  Er  Er8  1  0.577642  0.788821  0.437411  1
  Er  Er9  1  0.788821  0.211179  0.562589  1
  Er  Er10  1  0.788821  0.577642  0.562589  1
  Er  Er11  1  0.422358  0.211179  0.562589  1
  Er  Er12  1  0.788821  0.211179  0.937411  1
  Er  Er13  1  0.788821  0.577642  0.937411  1
  Er  Er14  1  0.422358  0.211179  0.937411  1
  Er  Er15  1  0.211179  0.788821  0.062589  1
  Er  Er16  1  0.211179  0.422358  0.062589  1
  Er  Er17  1  0.577642  0.788821  0.062589  1
  Sc  Sc18  1  0.000000  0.000000  0.500000  1
  Sc  Sc19  1  0.000000  0.000000  0.000000  1
  Cd  Cd20  1  0.887126  0.112874  0.250000  1
  Cd  Cd21  1  0.887126  0.774254  0.250000  1
  Cd  Cd22  1  0.225746  0.112874  0.250000  1
  Cd  Cd23  1  0.112874  0.887126  0.750000  1
  Cd  Cd24  1  0.112874  0.225746  0.750000  1
  Cd  Cd25  1  0.774254  0.887126  0.750000  1
  Co  Co26  1  0.333333  0.666667  0.250000  1
  Co  Co27  1  0.666667  0.333333  0.750000  1
