# generated using pymatgen
data_LiTi2SiAs2Pd3
_symmetry_space_group_name_H-M   'P 1'
_cell_length_a   6.53059500
_cell_length_b   6.80903015
_cell_length_c   3.58630500
_cell_angle_alpha   90.00000000
_cell_angle_beta   90.00000000
_cell_angle_gamma   118.65628050
_symmetry_Int_Tables_number   1
_chemical_formula_structural   LiTi2SiAs2Pd3
_chemical_formula_sum   'Li1 Ti2 Si1 As2 Pd3'
_cell_volume   139.93890274
_cell_formula_units_Z   1
loop_
 _symmetry_equiv_pos_site_id
 _symmetry_equiv_pos_as_xyz
  1  'x, y, z'
loop_
 _atom_site_type_symbol
 _atom_site_label
 _atom_site_symmetry_multiplicity
 _atom_site_fract_x
 _atom_site_fract_y
 _atom_site_fract_z
 _atom_site_occupancy
  Li  Li0  1  0.598073  0.000000  0.000000  1
  Ti  Ti1  1  0.994263  0.589487  0.000000  1
  Ti  Ti2  1  0.404776  0.410513  0.000000  1
  Si  Si3  1  0.011093  0.000000  0.000000  1
  As  As4  1  0.318402  0.651691  0.500000  1
  As  As5  1  0.666712  0.348309  0.500000  1
  Pd  Pd6  1  0.262885  0.000000  0.500000  1
  Pd  Pd7  1  0.992404  0.241012  0.500000  1
  Pd  Pd8  1  0.751392  0.758988  0.500000  1
