# generated using pymatgen
data_Ca2(GaPd3)3
_symmetry_space_group_name_H-M   'P 1'
_cell_length_a   7.73793371
_cell_length_b   7.73793369
_cell_length_c   9.20029500
_cell_angle_alpha   90.00000000
_cell_angle_beta   90.00000000
_cell_angle_gamma   119.49808452
_symmetry_Int_Tables_number   1
_chemical_formula_structural   Ca2(GaPd3)3
_chemical_formula_sum   'Ca4 Ga6 Pd18'
_cell_volume   479.46482485
_cell_formula_units_Z   2
loop_
 _symmetry_equiv_pos_site_id
 _symmetry_equiv_pos_as_xyz
  1  'x, y, z'
loop_
 _atom_site_type_symbol
 _atom_site_label
 _atom_site_symmetry_multiplicity
 _atom_site_fract_x
 _atom_site_fract_y
 _atom_site_fract_z
 _atom_site_occupancy
  Ca  Ca0  1  0.327002  0.014702  0.750000  1
  Ca  Ca1  1  0.672998  0.985298  0.250000  1
  Ca  Ca2  1  0.014702  0.327002  0.750000  1
  Ca  Ca3  1  0.985298  0.672998  0.250000  1
  Ga  Ga4  1  0.000000  0.000000  0.500000  1
  Ga  Ga5  1  0.673356  0.326644  0.000000  1
  Ga  Ga6  1  0.326644  0.673356  0.500000  1
  Ga  Ga7  1  0.326644  0.673356  0.000000  1
  Ga  Ga8  1  0.000000  0.000000  0.000000  1
  Ga  Ga9  1  0.673356  0.326644  0.500000  1
  Pd  Pd10  1  0.329258  0.329258  0.963438  1
  Pd  Pd11  1  0.449908  0.654400  0.750000  1
  Pd  Pd12  1  0.550092  0.345600  0.250000  1
  Pd  Pd13  1  0.654400  0.449908  0.750000  1
  Pd  Pd14  1  0.995062  0.336386  0.080961  1
  Pd  Pd15  1  0.004938  0.663614  0.580961  1
  Pd  Pd16  1  0.336386  0.995062  0.419039  1
  Pd  Pd17  1  0.663614  0.004938  0.919039  1
  Pd  Pd18  1  0.004938  0.663614  0.919039  1
  Pd  Pd19  1  0.995062  0.336386  0.419039  1
  Pd  Pd20  1  0.663614  0.004938  0.580961  1
  Pd  Pd21  1  0.870126  0.870126  0.750000  1
  Pd  Pd22  1  0.329258  0.329258  0.536562  1
  Pd  Pd23  1  0.670742  0.670742  0.036562  1
  Pd  Pd24  1  0.336386  0.995062  0.080961  1
  Pd  Pd25  1  0.670742  0.670742  0.463438  1
  Pd  Pd26  1  0.129874  0.129874  0.250000  1
  Pd  Pd27  1  0.345600  0.550092  0.250000  1
