# generated using pymatgen
data_Tb16Ho4Sn3Pb13
_symmetry_space_group_name_H-M   'P 1'
_cell_length_a   8.21046087
_cell_length_b   15.68621200
_cell_length_c   8.27210599
_cell_angle_alpha   90.00000000
_cell_angle_beta   89.87875830
_cell_angle_gamma   90.00000000
_symmetry_Int_Tables_number   1
_chemical_formula_structural   Tb16Ho4Sn3Pb13
_chemical_formula_sum   'Tb16 Ho4 Sn3 Pb13'
_cell_volume   1065.37066410
_cell_formula_units_Z   1
loop_
 _symmetry_equiv_pos_site_id
 _symmetry_equiv_pos_as_xyz
  1  'x, y, z'
loop_
 _atom_site_type_symbol
 _atom_site_label
 _atom_site_symmetry_multiplicity
 _atom_site_fract_x
 _atom_site_fract_y
 _atom_site_fract_z
 _atom_site_occupancy
  Tb  Tb0  1  0.620726  0.622976  0.161476  1
  Tb  Tb1  1  0.121462  0.877226  0.338270  1
  Tb  Tb2  1  0.381087  0.122076  0.838077  1
  Tb  Tb3  1  0.876785  0.378977  0.659421  1
  Tb  Tb4  1  0.381087  0.377924  0.838077  1
  Tb  Tb5  1  0.876785  0.121023  0.659421  1
  Tb  Tb6  1  0.620726  0.877024  0.161476  1
  Tb  Tb7  1  0.121462  0.622774  0.338270  1
  Tb  Tb8  1  0.463074  0.601576  0.672789  1
  Tb  Tb9  1  0.963436  0.898427  0.827538  1
  Tb  Tb10  1  0.536709  0.100807  0.327246  1
  Tb  Tb11  1  0.036408  0.400097  0.175989  1
  Tb  Tb12  1  0.536709  0.399193  0.327246  1
  Tb  Tb13  1  0.036408  0.099903  0.175989  1
  Tb  Tb14  1  0.463074  0.898424  0.672789  1
  Tb  Tb15  1  0.963436  0.601573  0.827538  1
  Ho  Ho16  1  0.788614  0.750000  0.492948  1
  Ho  Ho17  1  0.288304  0.750000  0.007044  1
  Ho  Ho18  1  0.212307  0.250000  0.505344  1
  Ho  Ho19  1  0.709256  0.250000  0.993646  1
  Sn  Sn20  1  0.424838  0.750000  0.376559  1
  Sn  Sn21  1  0.925022  0.750000  0.124059  1
  Sn  Sn22  1  0.575428  0.250000  0.623351  1
  Pb  Pb23  1  0.717894  0.458088  0.967914  1
  Pb  Pb24  1  0.218059  0.041896  0.532913  1
  Pb  Pb25  1  0.282651  0.957715  0.031921  1
  Pb  Pb26  1  0.782068  0.542594  0.466488  1
  Pb  Pb27  1  0.282651  0.542285  0.031921  1
  Pb  Pb28  1  0.782068  0.957406  0.466488  1
  Pb  Pb29  1  0.717894  0.041912  0.967914  1
  Pb  Pb30  1  0.218059  0.458104  0.532913  1
  Pb  Pb31  1  0.073648  0.250000  0.875781  1
  Pb  Pb32  1  0.652604  0.750000  0.847411  1
  Pb  Pb33  1  0.152800  0.750000  0.652763  1
  Pb  Pb34  1  0.348832  0.250000  0.153758  1
  Pb  Pb35  1  0.847635  0.250000  0.347255  1
