# generated using pymatgen
data_Ho5Er3Re2(TcB12)2
_symmetry_space_group_name_H-M   'P 1'
_cell_length_a   3.66592300
_cell_length_b   9.13577509
_cell_length_c   11.51292900
_cell_angle_alpha   90.05485725
_cell_angle_beta   90.00000000
_cell_angle_gamma   90.00000000
_symmetry_Int_Tables_number   1
_chemical_formula_structural   Ho5Er3Re2(TcB12)2
_chemical_formula_sum   'Ho5 Er3 Re2 Tc2 B24'
_cell_volume   385.57988128
_cell_formula_units_Z   1
loop_
 _symmetry_equiv_pos_site_id
 _symmetry_equiv_pos_as_xyz
  1  'x, y, z'
loop_
 _atom_site_type_symbol
 _atom_site_label
 _atom_site_symmetry_multiplicity
 _atom_site_fract_x
 _atom_site_fract_y
 _atom_site_fract_z
 _atom_site_occupancy
  Ho  Ho0  1  0.000000  0.323906  0.414028  1
  Ho  Ho1  1  0.000000  0.676072  0.586061  1
  Ho  Ho2  1  0.000000  0.823355  0.085986  1
  Ho  Ho3  1  0.000000  0.176649  0.913899  1
  Ho  Ho4  1  0.000000  0.942346  0.370094  1
  Er  Er5  1  0.000000  0.057736  0.630173  1
  Er  Er6  1  0.000000  0.443874  0.130355  1
  Er  Er7  1  0.000000  0.556118  0.869567  1
  Re  Re8  1  0.000000  0.138954  0.179280  1
  Re  Re9  1  0.000000  0.861227  0.820577  1
  Tc  Tc10  1  0.000000  0.638667  0.320571  1
  Tc  Tc11  1  0.000000  0.361072  0.679434  1
  B  B12  1  0.500000  0.553310  0.433005  1
  B  B13  1  0.500000  0.446554  0.567040  1
  B  B14  1  0.500000  0.053364  0.066837  1
  B  B15  1  0.500000  0.946664  0.933072  1
  B  B16  1  0.500000  0.748972  0.418833  1
  B  B17  1  0.500000  0.250698  0.581204  1
  B  B18  1  0.500000  0.249878  0.081064  1
  B  B19  1  0.500000  0.750164  0.918896  1
  B  B20  1  0.500000  0.792044  0.265346  1
  B  B21  1  0.500000  0.207699  0.734571  1
  B  B22  1  0.500000  0.292805  0.234665  1
  B  B23  1  0.500000  0.707306  0.765306  1
  B  B24  1  0.500000  0.630884  0.185436  1
  B  B25  1  0.500000  0.369032  0.814502  1
  B  B26  1  0.500000  0.130962  0.314647  1
  B  B27  1  0.500000  0.869295  0.685253  1
  B  B28  1  0.500000  0.982058  0.211797  1
  B  B29  1  0.500000  0.018096  0.788010  1
  B  B30  1  0.500000  0.482248  0.288072  1
  B  B31  1  0.500000  0.517701  0.711900  1
  B  B32  1  0.500000  0.599891  0.027800  1
  B  B33  1  0.500000  0.400115  0.972164  1
  B  B34  1  0.500000  0.100119  0.472231  1
  B  B35  1  0.500000  0.900164  0.528325  1
