# generated using pymatgen
data_MgTa3(Pd3Pt)3
_symmetry_space_group_name_H-M   'P 1'
_cell_length_a   5.61517100
_cell_length_b   5.61517098
_cell_length_c   9.18664200
_cell_angle_alpha   90.00000000
_cell_angle_beta   90.00000000
_cell_angle_gamma   119.99999422
_symmetry_Int_Tables_number   1
_chemical_formula_structural   MgTa3(Pd3Pt)3
_chemical_formula_sum   'Mg1 Ta3 Pd9 Pt3'
_cell_volume   250.84960466
_cell_formula_units_Z   1
loop_
 _symmetry_equiv_pos_site_id
 _symmetry_equiv_pos_as_xyz
  1  'x, y, z'
loop_
 _atom_site_type_symbol
 _atom_site_label
 _atom_site_symmetry_multiplicity
 _atom_site_fract_x
 _atom_site_fract_y
 _atom_site_fract_z
 _atom_site_occupancy
  Mg  Mg0  1  0.333333  0.666667  0.000000  1
  Ta  Ta1  1  0.666667  0.333333  0.500000  1
  Ta  Ta2  1  0.000000  0.000000  0.754039  1
  Ta  Ta3  1  0.000000  0.000000  0.245961  1
  Pd  Pd4  1  0.832923  0.167077  0.000000  1
  Pd  Pd5  1  0.832923  0.665846  0.000000  1
  Pd  Pd6  1  0.334154  0.167077  0.000000  1
  Pd  Pd7  1  0.996132  0.498067  0.748969  1
  Pd  Pd8  1  0.501933  0.498067  0.748969  1
  Pd  Pd9  1  0.501933  0.003868  0.748969  1
  Pd  Pd10  1  0.996132  0.498067  0.251031  1
  Pd  Pd11  1  0.501933  0.498067  0.251031  1
  Pd  Pd12  1  0.501933  0.003868  0.251031  1
  Pt  Pt13  1  0.165808  0.834192  0.500000  1
  Pt  Pt14  1  0.165808  0.331619  0.500000  1
  Pt  Pt15  1  0.668381  0.834192  0.500000  1
