# generated using pymatgen
data_Ho4Zr5Sc(Si5Ir2)4
_symmetry_space_group_name_H-M   'P 1'
_cell_length_a   12.48904400
_cell_length_b   12.48904400
_cell_length_c   4.16095900
_cell_angle_alpha   90.00000000
_cell_angle_beta   90.00000000
_cell_angle_gamma   90.00000000
_symmetry_Int_Tables_number   1
_chemical_formula_structural   Ho4Zr5Sc(Si5Ir2)4
_chemical_formula_sum   'Ho4 Zr5 Sc1 Si20 Ir8'
_cell_volume   649.01065654
_cell_formula_units_Z   1
loop_
 _symmetry_equiv_pos_site_id
 _symmetry_equiv_pos_as_xyz
  1  'x, y, z'
loop_
 _atom_site_type_symbol
 _atom_site_label
 _atom_site_symmetry_multiplicity
 _atom_site_fract_x
 _atom_site_fract_y
 _atom_site_fract_z
 _atom_site_occupancy
  Ho  Ho0  1  0.884439  0.384213  0.500000  1
  Ho  Ho1  1  0.115561  0.615787  0.500000  1
  Ho  Ho2  1  0.384213  0.115561  0.500000  1
  Ho  Ho3  1  0.615787  0.884439  0.500000  1
  Zr  Zr4  1  0.500000  0.500000  0.000000  1
  Zr  Zr5  1  0.674978  0.175176  0.500000  1
  Zr  Zr6  1  0.325022  0.824824  0.500000  1
  Zr  Zr7  1  0.175176  0.325022  0.500000  1
  Zr  Zr8  1  0.824824  0.674978  0.500000  1
  Sc  Sc9  1  0.000000  0.000000  0.000000  1
  Si  Si10  1  0.566821  0.066892  0.000000  1
  Si  Si11  1  0.433179  0.933108  0.000000  1
  Si  Si12  1  0.066892  0.433179  0.000000  1
  Si  Si13  1  0.933108  0.566821  0.000000  1
  Si  Si14  1  0.665363  0.700670  0.000000  1
  Si  Si15  1  0.334637  0.299330  0.000000  1
  Si  Si16  1  0.163968  0.801449  0.000000  1
  Si  Si17  1  0.836032  0.198551  0.000000  1
  Si  Si18  1  0.299330  0.665363  0.000000  1
  Si  Si19  1  0.700670  0.334637  0.000000  1
  Si  Si20  1  0.198551  0.163968  0.000000  1
  Si  Si21  1  0.801449  0.836032  0.000000  1
  Si  Si22  1  0.652868  0.507347  0.500000  1
  Si  Si23  1  0.347132  0.492653  0.500000  1
  Si  Si24  1  0.152012  0.992869  0.500000  1
  Si  Si25  1  0.847988  0.007131  0.500000  1
  Si  Si26  1  0.492653  0.652868  0.500000  1
  Si  Si27  1  0.507347  0.347132  0.500000  1
  Si  Si28  1  0.007131  0.152012  0.500000  1
  Si  Si29  1  0.992869  0.847988  0.500000  1
  Ir  Ir30  1  0.743407  0.520731  0.000000  1
  Ir  Ir31  1  0.256593  0.479269  0.000000  1
  Ir  Ir32  1  0.243720  0.979382  0.000000  1
  Ir  Ir33  1  0.756280  0.020618  0.000000  1
  Ir  Ir34  1  0.479269  0.743407  0.000000  1
  Ir  Ir35  1  0.520731  0.256593  0.000000  1
  Ir  Ir36  1  0.020618  0.243720  0.000000  1
  Ir  Ir37  1  0.979382  0.756280  0.000000  1
