# generated using pymatgen
data_Ca6PrNd(Si3Pd)4
_symmetry_space_group_name_H-M   'P 1'
_cell_length_a   8.27123700
_cell_length_b   8.27123817
_cell_length_c   8.44510100
_cell_angle_alpha   90.00000000
_cell_angle_beta   90.00000000
_cell_angle_gamma   119.99999133
_symmetry_Int_Tables_number   1
_chemical_formula_structural   Ca6PrNd(Si3Pd)4
_chemical_formula_sum   'Ca6 Pr1 Nd1 Si12 Pd4'
_cell_volume   500.35300111
_cell_formula_units_Z   1
loop_
 _symmetry_equiv_pos_site_id
 _symmetry_equiv_pos_as_xyz
  1  'x, y, z'
loop_
 _atom_site_type_symbol
 _atom_site_label
 _atom_site_symmetry_multiplicity
 _atom_site_fract_x
 _atom_site_fract_y
 _atom_site_fract_z
 _atom_site_occupancy
  Ca  Ca0  1  0.498387  0.501613  0.750000  1
  Ca  Ca1  1  0.501599  0.498401  0.250000  1
  Ca  Ca2  1  0.003228  0.501613  0.750000  1
  Ca  Ca3  1  0.996801  0.498401  0.250000  1
  Ca  Ca4  1  0.498387  0.996772  0.750000  1
  Ca  Ca5  1  0.501599  0.003199  0.250000  1
  Pr  Pr6  1  0.000000  0.000000  0.750000  1
  Nd  Nd7  1  0.000000  0.000000  0.250000  1
  Si  Si8  1  0.834431  0.165569  0.000055  1
  Si  Si9  1  0.165550  0.834450  0.001415  1
  Si  Si10  1  0.331139  0.165569  0.000055  1
  Si  Si11  1  0.165550  0.834450  0.498585  1
  Si  Si12  1  0.668899  0.834450  0.001415  1
  Si  Si13  1  0.834431  0.165569  0.499945  1
  Si  Si14  1  0.834431  0.668861  0.000055  1
  Si  Si15  1  0.668899  0.834450  0.498585  1
  Si  Si16  1  0.165550  0.331101  0.001415  1
  Si  Si17  1  0.331139  0.165569  0.499945  1
  Si  Si18  1  0.165550  0.331101  0.498585  1
  Si  Si19  1  0.834431  0.668861  0.499945  1
  Pd  Pd20  1  0.666667  0.333333  0.995889  1
  Pd  Pd21  1  0.333333  0.666667  0.003005  1
  Pd  Pd22  1  0.333333  0.666667  0.496995  1
  Pd  Pd23  1  0.666667  0.333333  0.504111  1
