# generated using pymatgen
data_Sr2Er2TlPb11
_symmetry_space_group_name_H-M   'P 1'
_cell_length_a   10.05127700
_cell_length_b   6.92390286
_cell_length_c   6.92829100
_cell_angle_alpha   89.42319307
_cell_angle_beta   90.00000000
_cell_angle_gamma   90.00000000
_symmetry_Int_Tables_number   1
_chemical_formula_structural   Sr2Er2TlPb11
_chemical_formula_sum   'Sr2 Er2 Tl1 Pb11'
_cell_volume   482.14350487
_cell_formula_units_Z   1
loop_
 _symmetry_equiv_pos_site_id
 _symmetry_equiv_pos_as_xyz
  1  'x, y, z'
loop_
 _atom_site_type_symbol
 _atom_site_label
 _atom_site_symmetry_multiplicity
 _atom_site_fract_x
 _atom_site_fract_y
 _atom_site_fract_z
 _atom_site_occupancy
  Sr  Sr0  1  0.750000  0.996059  0.999264  1
  Sr  Sr1  1  0.750000  0.508892  0.498644  1
  Er  Er2  1  0.250000  0.008658  0.003278  1
  Er  Er3  1  0.250000  0.499240  0.505160  1
  Tl  Tl4  1  0.750000  0.493977  0.996903  1
  Pb  Pb5  1  0.007406  0.242149  0.741479  1
  Pb  Pb6  1  0.492739  0.252523  0.249262  1
  Pb  Pb7  1  0.490868  0.750660  0.249592  1
  Pb  Pb8  1  0.008812  0.745550  0.755579  1
  Pb  Pb9  1  0.009132  0.750660  0.249592  1
  Pb  Pb10  1  0.491188  0.745550  0.755579  1
  Pb  Pb11  1  0.492594  0.242149  0.741479  1
  Pb  Pb12  1  0.007261  0.252523  0.249262  1
  Pb  Pb13  1  0.250000  0.997584  0.501955  1
  Pb  Pb14  1  0.250000  0.506278  0.004269  1
  Pb  Pb15  1  0.750000  0.007545  0.498705  1
