# generated using pymatgen
data_Y3Er(Hf3Si4)2
_symmetry_space_group_name_H-M   'P 1'
_cell_length_a   7.29000801
_cell_length_b   7.28746301
_cell_length_c   13.32567200
_cell_angle_alpha   90.00000000
_cell_angle_beta   90.00000000
_cell_angle_gamma   90.00446497
_symmetry_Int_Tables_number   1
_chemical_formula_structural   Y3Er(Hf3Si4)2
_chemical_formula_sum   'Y6 Er2 Hf12 Si16'
_cell_volume   707.93516644
_cell_formula_units_Z   2
loop_
 _symmetry_equiv_pos_site_id
 _symmetry_equiv_pos_as_xyz
  1  'x, y, z'
loop_
 _atom_site_type_symbol
 _atom_site_label
 _atom_site_symmetry_multiplicity
 _atom_site_fract_x
 _atom_site_fract_y
 _atom_site_fract_z
 _atom_site_occupancy
  Y  Y0  1  0.653786  0.004897  0.284969  1
  Y  Y1  1  0.346214  0.995103  0.784969  1
  Y  Y2  1  0.845832  0.504974  0.965126  1
  Y  Y3  1  0.154168  0.495026  0.465126  1
  Y  Y4  1  0.004837  0.653957  0.714993  1
  Y  Y5  1  0.995163  0.346043  0.214993  1
  Er  Er6  1  0.495790  0.153622  0.535080  1
  Er  Er7  1  0.504210  0.846378  0.035080  1
  Hf  Hf8  1  0.675392  0.324227  0.749901  1
  Hf  Hf9  1  0.324608  0.675773  0.249901  1
  Hf  Hf10  1  0.824117  0.824716  0.499998  1
  Hf  Hf11  1  0.175883  0.175284  0.999998  1
  Hf  Hf12  1  0.496788  0.352806  0.124697  1
  Hf  Hf13  1  0.503212  0.647194  0.624697  1
  Hf  Hf14  1  0.852364  0.002825  0.874819  1
  Hf  Hf15  1  0.147636  0.997175  0.374819  1
  Hf  Hf16  1  0.647141  0.503288  0.375367  1
  Hf  Hf17  1  0.352859  0.496712  0.875367  1
  Hf  Hf18  1  0.003098  0.852602  0.125242  1
  Hf  Hf19  1  0.996902  0.147398  0.625242  1
  Si  Si20  1  0.795083  0.139398  0.067518  1
  Si  Si21  1  0.204917  0.860602  0.567518  1
  Si  Si22  1  0.639956  0.704374  0.817625  1
  Si  Si23  1  0.360044  0.295626  0.317625  1
  Si  Si24  1  0.859114  0.203998  0.432754  1
  Si  Si25  1  0.140886  0.796002  0.932754  1
  Si  Si26  1  0.703590  0.640836  0.182051  1
  Si  Si27  1  0.296410  0.359164  0.682051  1
  Si  Si28  1  0.549945  0.203995  0.936411  1
  Si  Si29  1  0.450055  0.796005  0.436411  1
  Si  Si30  1  0.704356  0.950481  0.685848  1
  Si  Si31  1  0.295644  0.049519  0.185848  1
  Si  Si32  1  0.794592  0.449329  0.563783  1
  Si  Si33  1  0.205408  0.550671  0.063783  1
  Si  Si34  1  0.949820  0.705025  0.313817  1
  Si  Si35  1  0.050180  0.294975  0.813817  1
