# generated using pymatgen
data_DyLu4Si10P2Ir19
_symmetry_space_group_name_H-M   'P 1'
_cell_length_a   12.80497028
_cell_length_b   12.78411530
_cell_length_c   3.94138000
_cell_angle_alpha   90.00000000
_cell_angle_beta   90.00000000
_cell_angle_gamma   119.94929963
_symmetry_Int_Tables_number   1
_chemical_formula_structural   DyLu4Si10P2Ir19
_chemical_formula_sum   'Dy1 Lu4 Si10 P2 Ir19'
_cell_volume   559.04896020
_cell_formula_units_Z   1
loop_
 _symmetry_equiv_pos_site_id
 _symmetry_equiv_pos_as_xyz
  1  'x, y, z'
loop_
 _atom_site_type_symbol
 _atom_site_label
 _atom_site_symmetry_multiplicity
 _atom_site_fract_x
 _atom_site_fract_y
 _atom_site_fract_z
 _atom_site_occupancy
  Dy  Dy0  1  0.666956  0.333448  0.500000  1
  Lu  Lu1  1  0.332995  0.666469  0.500000  1
  Lu  Lu2  1  0.000024  0.812652  0.000000  1
  Lu  Lu3  1  0.185123  0.186780  0.000000  1
  Lu  Lu4  1  0.814877  0.001665  0.000000  1
  Si  Si5  1  0.000007  0.633692  0.500000  1
  Si  Si6  1  0.366275  0.366579  0.500000  1
  Si  Si7  1  0.633727  0.000295  0.500000  1
  Si  Si8  1  0.518217  0.686447  0.000000  1
  Si  Si9  1  0.313696  0.831532  0.000000  1
  Si  Si10  1  0.168746  0.481561  0.000000  1
  Si  Si11  1  0.480976  0.167396  0.000000  1
  Si  Si12  1  0.686276  0.518671  0.000000  1
  Si  Si13  1  0.832098  0.312823  0.000000  1
  Si  Si14  1  0.000187  0.177552  0.500000  1
  P  P15  1  0.820796  0.821412  0.500000  1
  P  P16  1  0.179013  0.000234  0.500000  1
  Ir  Ir17  1  0.511833  0.871339  0.000000  1
  Ir  Ir18  1  0.128423  0.640456  0.000000  1
  Ir  Ir19  1  0.360870  0.488420  0.000000  1
  Ir  Ir20  1  0.486933  0.359523  0.000000  1
  Ir  Ir21  1  0.872811  0.513271  0.000000  1
  Ir  Ir22  1  0.639100  0.126325  0.000000  1
  Ir  Ir23  1  0.999906  0.447842  0.500000  1
  Ir  Ir24  1  0.553681  0.552556  0.500000  1
  Ir  Ir25  1  0.446364  0.998971  0.500000  1
  Ir  Ir26  1  0.000279  0.280981  0.000000  1
  Ir  Ir27  1  0.721642  0.722030  0.000000  1
  Ir  Ir28  1  0.278113  0.999903  0.000000  1
  Ir  Ir29  1  0.627461  0.807637  0.500000  1
  Ir  Ir30  1  0.192418  0.820054  0.500000  1
  Ir  Ir31  1  0.181961  0.374968  0.500000  1
  Ir  Ir32  1  0.371886  0.179806  0.500000  1
  Ir  Ir33  1  0.807878  0.628308  0.500000  1
  Ir  Ir34  1  0.818453  0.192677  0.500000  1
  Ir  Ir35  1  0.999999  0.995724  0.500000  1
