# generated using pymatgen
data_ErCoNiB2C
_symmetry_space_group_name_H-M   'P 1'
_cell_length_a   3.49971110
_cell_length_b   3.49971023
_cell_length_c   5.76314424
_cell_angle_alpha   107.67566901
_cell_angle_beta   107.67566789
_cell_angle_gamma   90.00000256
_symmetry_Int_Tables_number   1
_chemical_formula_structural   ErCoNiB2C
_chemical_formula_sum   'Er1 Co1 Ni1 B2 C1'
_cell_volume   63.74814769
_cell_formula_units_Z   1
loop_
 _symmetry_equiv_pos_site_id
 _symmetry_equiv_pos_as_xyz
  1  'x, y, z'
loop_
 _atom_site_type_symbol
 _atom_site_label
 _atom_site_symmetry_multiplicity
 _atom_site_fract_x
 _atom_site_fract_y
 _atom_site_fract_z
 _atom_site_occupancy
  Er  Er0  1  0.000000  0.000000  0.000000  1
  Co  Co1  1  0.750000  0.250000  0.499999  1
  Ni  Ni2  1  0.250000  0.750000  0.499999  1
  B  B3  1  0.645158  0.645158  0.290315  1
  B  B4  1  0.354842  0.354842  0.709684  1
  C  C5  1  0.500001  0.500001  0.000000  1
