# generated using pymatgen
data_Nd2Zr3ScSn6Ir5Rh
_symmetry_space_group_name_H-M   'P 1'
_cell_length_a   7.50181100
_cell_length_b   7.52541208
_cell_length_c   7.59106600
_cell_angle_alpha   90.00000000
_cell_angle_beta   90.00000000
_cell_angle_gamma   119.95055111
_symmetry_Int_Tables_number   1
_chemical_formula_structural   Nd2Zr3ScSn6Ir5Rh
_chemical_formula_sum   'Nd2 Zr3 Sc1 Sn6 Ir5 Rh1'
_cell_volume   371.31798799
_cell_formula_units_Z   1
loop_
 _symmetry_equiv_pos_site_id
 _symmetry_equiv_pos_as_xyz
  1  'x, y, z'
loop_
 _atom_site_type_symbol
 _atom_site_label
 _atom_site_symmetry_multiplicity
 _atom_site_fract_x
 _atom_site_fract_y
 _atom_site_fract_z
 _atom_site_occupancy
  Nd  Nd0  1  0.589097  0.998176  0.250000  1
  Nd  Nd1  1  0.411889  0.408482  0.250000  1
  Zr  Zr2  1  0.610215  0.003821  0.750000  1
  Zr  Zr3  1  0.388366  0.393937  0.750000  1
  Zr  Zr4  1  0.000506  0.604913  0.750000  1
  Sc  Sc5  1  0.003159  0.597393  0.250000  1
  Sn  Sn6  1  0.263218  0.997689  0.989898  1
  Sn  Sn7  1  0.736962  0.733565  0.509640  1
  Sn  Sn8  1  0.999504  0.267834  0.497089  1
  Sn  Sn9  1  0.999504  0.267834  0.002911  1
  Sn  Sn10  1  0.736962  0.733565  0.990360  1
  Sn  Sn11  1  0.263218  0.997689  0.510102  1
  Ir  Ir12  1  0.670148  0.336203  0.962643  1
  Ir  Ir13  1  0.670148  0.336203  0.537357  1
  Ir  Ir14  1  0.328777  0.665793  0.964963  1
  Ir  Ir15  1  0.328777  0.665793  0.535037  1
  Ir  Ir16  1  0.999372  0.005163  0.750000  1
  Rh  Rh17  1  0.000179  0.985946  0.250000  1
