# generated using pymatgen
data_Y2Er(InIr)3
_symmetry_space_group_name_H-M   'P 1'
_cell_length_a   7.52216440
_cell_length_b   7.55410052
_cell_length_c   3.94302300
_cell_angle_alpha   90.00000000
_cell_angle_beta   90.00000000
_cell_angle_gamma   120.14053744
_symmetry_Int_Tables_number   1
_chemical_formula_structural   Y2Er(InIr)3
_chemical_formula_sum   'Y2 Er1 In3 Ir3'
_cell_volume   193.76206462
_cell_formula_units_Z   1
loop_
 _symmetry_equiv_pos_site_id
 _symmetry_equiv_pos_as_xyz
  1  'x, y, z'
loop_
 _atom_site_type_symbol
 _atom_site_label
 _atom_site_symmetry_multiplicity
 _atom_site_fract_x
 _atom_site_fract_y
 _atom_site_fract_z
 _atom_site_occupancy
  Y  Y0  1  0.406464  0.406887  0.000000  1
  Y  Y1  1  0.593536  0.000423  0.000000  1
  Er  Er2  1  0.000000  0.593765  0.000000  1
  In  In3  1  0.000000  0.255399  0.500000  1
  In  In4  1  0.738957  0.741279  0.500000  1
  In  In5  1  0.261043  0.002321  0.500000  1
  Ir  Ir6  1  0.000000  0.995645  0.000000  1
  Ir  Ir7  1  0.326315  0.665298  0.500000  1
  Ir  Ir8  1  0.673685  0.338982  0.500000  1
