# generated using pymatgen
data_K2LiIrCl6
_symmetry_space_group_name_H-M   'P 1'
_cell_length_a   6.97525100
_cell_length_b   6.97525113
_cell_length_c   6.15561400
_cell_angle_alpha   90.00000000
_cell_angle_beta   90.00000000
_cell_angle_gamma   119.99999465
_symmetry_Int_Tables_number   1
_chemical_formula_structural   K2LiIrCl6
_chemical_formula_sum   'K2 Li1 Ir1 Cl6'
_cell_volume   259.37118239
_cell_formula_units_Z   1
loop_
 _symmetry_equiv_pos_site_id
 _symmetry_equiv_pos_as_xyz
  1  'x, y, z'
loop_
 _atom_site_type_symbol
 _atom_site_label
 _atom_site_symmetry_multiplicity
 _atom_site_fract_x
 _atom_site_fract_y
 _atom_site_fract_z
 _atom_site_occupancy
  K  K0  1  0.333333  0.666667  0.311254  1
  K  K1  1  0.666667  0.333333  0.688746  1
  Li  Li2  1  0.000000  0.000000  0.000000  1
  Ir  Ir3  1  0.000000  0.000000  0.500000  1
  Cl  Cl4  1  0.841284  0.158716  0.273005  1
  Cl  Cl5  1  0.158716  0.841284  0.726995  1
  Cl  Cl6  1  0.841284  0.682567  0.273005  1
  Cl  Cl7  1  0.158716  0.317433  0.726995  1
  Cl  Cl8  1  0.317433  0.158716  0.273005  1
  Cl  Cl9  1  0.682567  0.841284  0.726995  1
