# generated using pymatgen
data_Sc12Ir6RuRh5
_symmetry_space_group_name_H-M   'P 1'
_cell_length_a   4.59776900
_cell_length_b   6.38652500
_cell_length_c   13.79098200
_cell_angle_alpha   90.00000000
_cell_angle_beta   90.00002077
_cell_angle_gamma   90.00000000
_symmetry_Int_Tables_number   1
_chemical_formula_structural   Sc12Ir6RuRh5
_chemical_formula_sum   'Sc12 Ir6 Ru1 Rh5'
_cell_volume   404.95517750
_cell_formula_units_Z   1
loop_
 _symmetry_equiv_pos_site_id
 _symmetry_equiv_pos_as_xyz
  1  'x, y, z'
loop_
 _atom_site_type_symbol
 _atom_site_label
 _atom_site_symmetry_multiplicity
 _atom_site_fract_x
 _atom_site_fract_y
 _atom_site_fract_z
 _atom_site_occupancy
  Sc  Sc0  1  0.500001  0.248870  0.998819  1
  Sc  Sc1  1  0.500001  0.751130  0.998819  1
  Sc  Sc2  1  0.999976  0.249715  0.166313  1
  Sc  Sc3  1  0.999976  0.750285  0.166313  1
  Sc  Sc4  1  0.499978  0.249940  0.333363  1
  Sc  Sc5  1  0.499978  0.750060  0.333363  1
  Sc  Sc6  1  0.000001  0.249693  0.500372  1
  Sc  Sc7  1  0.000001  0.750307  0.500372  1
  Sc  Sc8  1  0.500024  0.248869  0.667817  1
  Sc  Sc9  1  0.500024  0.751131  0.667817  1
  Sc  Sc10  1  0.000024  0.247467  0.833325  1
  Sc  Sc11  1  0.000024  0.752533  0.833325  1
  Ir  Ir12  1  0.000003  0.000000  0.000115  1
  Ir  Ir13  1  0.499975  0.499999  0.167149  1
  Ir  Ir14  1  0.999978  0.000000  0.333323  1
  Ir  Ir15  1  0.500001  0.499999  0.499508  1
  Ir  Ir16  1  0.000028  0.000000  0.666562  1
  Ir  Ir17  1  0.500027  0.499999  0.833339  1
  Ru  Ru18  1  0.500018  0.000000  0.833331  1
  Rh  Rh19  1  0.999999  0.499999  0.000586  1
  Rh  Rh20  1  0.499967  0.000000  0.166820  1
  Rh  Rh21  1  0.999977  0.499999  0.333317  1
  Rh  Rh22  1  0.500000  0.000000  0.499839  1
  Rh  Rh23  1  0.000022  0.499999  0.666092  1
