# generated using pymatgen
data_Dy6Cd23Ge
_symmetry_space_group_name_H-M   'P 1'
_cell_length_a   9.96452407
_cell_length_b   9.96452491
_cell_length_c   9.96452600
_cell_angle_alpha   60.00000302
_cell_angle_beta   60.00000023
_cell_angle_gamma   60.00000486
_symmetry_Int_Tables_number   1
_chemical_formula_structural   Dy6Cd23Ge
_chemical_formula_sum   'Dy6 Cd23 Ge1'
_cell_volume   699.60810343
_cell_formula_units_Z   1
loop_
 _symmetry_equiv_pos_site_id
 _symmetry_equiv_pos_as_xyz
  1  'x, y, z'
loop_
 _atom_site_type_symbol
 _atom_site_label
 _atom_site_symmetry_multiplicity
 _atom_site_fract_x
 _atom_site_fract_y
 _atom_site_fract_z
 _atom_site_occupancy
  Dy  Dy0  1  0.795316  0.795316  0.204684  1
  Dy  Dy1  1  0.204684  0.795316  0.204684  1
  Dy  Dy2  1  0.795316  0.204684  0.204684  1
  Dy  Dy3  1  0.204684  0.204684  0.795316  1
  Dy  Dy4  1  0.795316  0.204684  0.795316  1
  Dy  Dy5  1  0.204684  0.795316  0.795316  1
  Cd  Cd6  1  0.838378  0.838378  0.484866  1
  Cd  Cd7  1  0.838378  0.484866  0.838378  1
  Cd  Cd8  1  0.484866  0.838378  0.838378  1
  Cd  Cd9  1  0.838378  0.838378  0.838378  1
  Cd  Cd10  1  0.161622  0.161622  0.515134  1
  Cd  Cd11  1  0.161622  0.515134  0.161622  1
  Cd  Cd12  1  0.515134  0.161622  0.161622  1
  Cd  Cd13  1  0.161622  0.161622  0.161622  1
  Cd  Cd14  1  0.621947  0.621947  0.134158  1
  Cd  Cd15  1  0.621947  0.134158  0.621947  1
  Cd  Cd16  1  0.134158  0.621947  0.621947  1
  Cd  Cd17  1  0.621947  0.621947  0.621947  1
  Cd  Cd18  1  0.378053  0.378053  0.865842  1
  Cd  Cd19  1  0.378053  0.865842  0.378053  1
  Cd  Cd20  1  0.865842  0.378053  0.378053  1
  Cd  Cd21  1  0.378053  0.378053  0.378053  1
  Cd  Cd22  1  0.000000  0.000000  0.500000  1
  Cd  Cd23  1  0.500000  0.000000  0.500000  1
  Cd  Cd24  1  0.000000  0.500000  0.500000  1
  Cd  Cd25  1  0.500000  0.500000  0.000000  1
  Cd  Cd26  1  0.000000  0.500000  0.000000  1
  Cd  Cd27  1  0.500000  0.000000  0.000000  1
  Cd  Cd28  1  0.500000  0.500000  0.500000  1
  Ge  Ge29  1  0.000000  0.000000  0.000000  1
