# generated using pymatgen
data_Ho4Tm4Re3B24Os
_symmetry_space_group_name_H-M   'P 1'
_cell_length_a   3.64660900
_cell_length_b   9.11166312
_cell_length_c   11.49168503
_cell_angle_alpha   90.06724612
_cell_angle_beta   90.00000000
_cell_angle_gamma   90.00000000
_symmetry_Int_Tables_number   1
_chemical_formula_structural   Ho4Tm4Re3B24Os
_chemical_formula_sum   'Ho4 Tm4 Re3 B24 Os1'
_cell_volume   381.83019485
_cell_formula_units_Z   1
loop_
 _symmetry_equiv_pos_site_id
 _symmetry_equiv_pos_as_xyz
  1  'x, y, z'
loop_
 _atom_site_type_symbol
 _atom_site_label
 _atom_site_symmetry_multiplicity
 _atom_site_fract_x
 _atom_site_fract_y
 _atom_site_fract_z
 _atom_site_occupancy
  Ho  Ho0  1  0.000000  0.321180  0.414163  1
  Ho  Ho1  1  0.000000  0.677997  0.587601  1
  Ho  Ho2  1  0.000000  0.823930  0.084414  1
  Ho  Ho3  1  0.000000  0.177354  0.913503  1
  Tm  Tm4  1  0.000000  0.942412  0.370249  1
  Tm  Tm5  1  0.000000  0.056662  0.629171  1
  Tm  Tm6  1  0.000000  0.442630  0.129638  1
  Tm  Tm7  1  0.000000  0.557176  0.871029  1
  Re  Re8  1  0.000000  0.362263  0.678449  1
  Re  Re9  1  0.000000  0.138271  0.179934  1
  Re  Re10  1  0.000000  0.861825  0.820562  1
  B  B11  1  0.500000  0.553616  0.432942  1
  B  B12  1  0.500000  0.447173  0.566653  1
  B  B13  1  0.500000  0.053039  0.066744  1
  B  B14  1  0.500000  0.947195  0.933007  1
  B  B15  1  0.500000  0.749087  0.418647  1
  B  B16  1  0.500000  0.250019  0.580995  1
  B  B17  1  0.500000  0.249773  0.081154  1
  B  B18  1  0.500000  0.750720  0.918976  1
  B  B19  1  0.500000  0.791104  0.265389  1
  B  B20  1  0.500000  0.207943  0.734422  1
  B  B21  1  0.500000  0.291964  0.235055  1
  B  B22  1  0.500000  0.707836  0.765662  1
  B  B23  1  0.500000  0.630556  0.185440  1
  B  B24  1  0.500000  0.370133  0.814550  1
  B  B25  1  0.500000  0.130234  0.315306  1
  B  B26  1  0.500000  0.869571  0.685127  1
  B  B27  1  0.500000  0.981387  0.212195  1
  B  B28  1  0.500000  0.018672  0.787438  1
  B  B29  1  0.500000  0.482360  0.287929  1
  B  B30  1  0.500000  0.519027  0.712278  1
  B  B31  1  0.500000  0.600823  0.028571  1
  B  B32  1  0.500000  0.399570  0.972255  1
  B  B33  1  0.500000  0.099697  0.471832  1
  B  B34  1  0.500000  0.898687  0.527862  1
  Os  Os35  1  0.000000  0.638113  0.320853  1
