# generated using pymatgen
data_Li7Ca6Al9N
_symmetry_space_group_name_H-M   'P 1'
_cell_length_a   8.47400825
_cell_length_b   8.41047203
_cell_length_c   8.41047265
_cell_angle_alpha   109.39789727
_cell_angle_beta   109.35577260
_cell_angle_gamma   109.35577669
_symmetry_Int_Tables_number   1
_chemical_formula_structural   Li7Ca6Al9N
_chemical_formula_sum   'Li7 Ca6 Al9 N1'
_cell_volume   463.15630836
_cell_formula_units_Z   1
loop_
 _symmetry_equiv_pos_site_id
 _symmetry_equiv_pos_as_xyz
  1  'x, y, z'
loop_
 _atom_site_type_symbol
 _atom_site_label
 _atom_site_symmetry_multiplicity
 _atom_site_fract_x
 _atom_site_fract_y
 _atom_site_fract_z
 _atom_site_occupancy
  Li  Li0  1  0.674254  0.337128  0.337128  1
  Li  Li1  1  0.345513  0.006276  0.662440  1
  Li  Li2  1  0.345513  0.683072  0.339238  1
  Li  Li3  1  0.345513  0.339238  0.683072  1
  Li  Li4  1  0.345513  0.662440  0.006276  1
  Li  Li5  1  0.002819  0.344390  0.658429  1
  Li  Li6  1  0.002819  0.658429  0.344390  1
  Ca  Ca7  1  0.997409  0.246269  0.246269  1
  Ca  Ca8  1  0.243458  0.998341  0.245117  1
  Ca  Ca9  1  0.752354  0.999970  0.752384  1
  Ca  Ca10  1  0.752354  0.752384  0.999970  1
  Ca  Ca11  1  0.243458  0.245117  0.998341  1
  Ca  Ca12  1  0.997409  0.751140  0.751140  1
  Al  Al13  1  0.500532  0.501301  0.501301  1
  Al  Al14  1  0.500532  0.999231  0.999231  1
  Al  Al15  1  0.992909  0.496454  0.996454  1
  Al  Al16  1  0.992909  0.996454  0.496454  1
  Al  Al17  1  0.662598  0.660613  0.319073  1
  Al  Al18  1  0.662598  0.001984  0.343525  1
  Al  Al19  1  0.662598  0.343525  0.001984  1
  Al  Al20  1  0.662598  0.319073  0.660613  1
  Al  Al21  1  0.315176  0.657587  0.657587  1
  N  N22  1  0.999164  0.999582  0.999582  1
