# generated using pymatgen
data_Tb5Th4Zr3(ZnAu5)4
_symmetry_space_group_name_H-M   'P 1'
_cell_length_a   8.42884811
_cell_length_b   8.42884872
_cell_length_c   13.50267796
_cell_angle_alpha   90.11809325
_cell_angle_beta   89.88190891
_cell_angle_gamma   127.33408132
_symmetry_Int_Tables_number   1
_chemical_formula_structural   Tb5Th4Zr3(ZnAu5)4
_chemical_formula_sum   'Tb5 Th4 Zr3 Zn4 Au20'
_cell_volume   762.75319754
_cell_formula_units_Z   1
loop_
 _symmetry_equiv_pos_site_id
 _symmetry_equiv_pos_as_xyz
  1  'x, y, z'
loop_
 _atom_site_type_symbol
 _atom_site_label
 _atom_site_symmetry_multiplicity
 _atom_site_fract_x
 _atom_site_fract_y
 _atom_site_fract_z
 _atom_site_occupancy
  Tb  Tb0  1  0.368964  0.631036  0.959857  1
  Tb  Tb1  1  0.881629  0.118371  0.950590  1
  Tb  Tb2  1  0.117801  0.882199  0.049796  1
  Tb  Tb3  1  0.882025  0.117975  0.549761  1
  Tb  Tb4  1  0.118124  0.881876  0.449890  1
  Th  Th5  1  0.929187  0.070813  0.251117  1
  Th  Th6  1  0.069189  0.930811  0.749141  1
  Th  Th7  1  0.320998  0.679002  0.250952  1
  Th  Th8  1  0.680112  0.319888  0.747928  1
  Zr  Zr9  1  0.630407  0.369593  0.459466  1
  Zr  Zr10  1  0.369503  0.630497  0.540491  1
  Zr  Zr11  1  0.631021  0.368979  0.040211  1
  Zn  Zn12  1  0.715928  0.284072  0.251778  1
  Zn  Zn13  1  0.281265  0.718735  0.747811  1
  Zn  Zn14  1  0.538673  0.461327  0.249928  1
  Zn  Zn15  1  0.463160  0.536840  0.748021  1
  Au  Au16  1  0.315748  0.064423  0.251218  1
  Au  Au17  1  0.066145  0.316321  0.750281  1
  Au  Au18  1  0.683679  0.933855  0.750281  1
  Au  Au19  1  0.935577  0.684252  0.251218  1
  Au  Au20  1  0.571157  0.007350  0.400619  1
  Au  Au21  1  0.007651  0.571395  0.598420  1
  Au  Au22  1  0.572521  0.010422  0.101379  1
  Au  Au23  1  0.000884  0.567169  0.899133  1
  Au  Au24  1  0.428605  0.992349  0.598420  1
  Au  Au25  1  0.992650  0.428843  0.400619  1
  Au  Au26  1  0.432831  0.999116  0.899133  1
  Au  Au27  1  0.989578  0.427479  0.101379  1
  Au  Au28  1  0.675710  0.731964  0.398515  1
  Au  Au29  1  0.733053  0.676496  0.600480  1
  Au  Au30  1  0.681746  0.734872  0.103617  1
  Au  Au31  1  0.736114  0.678304  0.897971  1
  Au  Au32  1  0.323504  0.266947  0.600480  1
  Au  Au33  1  0.268036  0.324290  0.398515  1
  Au  Au34  1  0.321696  0.263886  0.897971  1
  Au  Au35  1  0.265128  0.318254  0.103617  1
