# generated using pymatgen
data_Dy2Tm8(SnSb)3
_symmetry_space_group_name_H-M   'P 1'
_cell_length_a   6.33500600
_cell_length_b   8.89932613
_cell_length_c   8.88108522
_cell_angle_alpha   120.06797218
_cell_angle_beta   90.00001946
_cell_angle_gamma   89.99993868
_symmetry_Int_Tables_number   1
_chemical_formula_structural   Dy2Tm8(SnSb)3
_chemical_formula_sum   'Dy2 Tm8 Sn3 Sb3'
_cell_volume   433.31423080
_cell_formula_units_Z   1
loop_
 _symmetry_equiv_pos_site_id
 _symmetry_equiv_pos_as_xyz
  1  'x, y, z'
loop_
 _atom_site_type_symbol
 _atom_site_label
 _atom_site_symmetry_multiplicity
 _atom_site_fract_x
 _atom_site_fract_y
 _atom_site_fract_z
 _atom_site_occupancy
  Dy  Dy0  1  0.250003  0.241348  0.240974  1
  Dy  Dy1  1  0.250003  0.000374  0.759026  1
  Tm  Tm2  1  0.501297  0.333040  0.666148  1
  Tm  Tm3  1  0.501297  0.666892  0.333852  1
  Tm  Tm4  1  0.998706  0.666894  0.333853  1
  Tm  Tm5  1  0.998706  0.333041  0.666147  1
  Tm  Tm6  1  0.750002  0.241275  0.000000  1
  Tm  Tm7  1  0.750003  0.759569  0.759922  1
  Tm  Tm8  1  0.750003  0.999648  0.240078  1
  Tm  Tm9  1  0.250000  0.758173  0.000000  1
  Sn  Sn10  1  0.749958  0.606749  0.000000  1
  Sn  Sn11  1  0.750011  0.393291  0.393298  1
  Sn  Sn12  1  0.750011  0.999993  0.606702  1
  Sb  Sb13  1  0.249992  0.393971  0.000000  1
  Sb  Sb14  1  0.250005  0.607090  0.608435  1
  Sb  Sb15  1  0.250005  0.998655  0.391565  1
