# generated using pymatgen
data_Ho3Er9(TcRu)2
_symmetry_space_group_name_H-M   'P 1'
_cell_length_a   6.24097102
_cell_length_b   7.32794502
_cell_length_c   9.03966700
_cell_angle_alpha   90.00000000
_cell_angle_beta   90.00000000
_cell_angle_gamma   89.99063444
_symmetry_Int_Tables_number   1
_chemical_formula_structural   Ho3Er9(TcRu)2
_chemical_formula_sum   'Ho3 Er9 Tc2 Ru2'
_cell_volume   413.41553779
_cell_formula_units_Z   1
loop_
 _symmetry_equiv_pos_site_id
 _symmetry_equiv_pos_as_xyz
  1  'x, y, z'
loop_
 _atom_site_type_symbol
 _atom_site_label
 _atom_site_symmetry_multiplicity
 _atom_site_fract_x
 _atom_site_fract_y
 _atom_site_fract_z
 _atom_site_occupancy
  Ho  Ho0  1  0.874817  0.539422  0.250000  1
  Ho  Ho1  1  0.130830  0.457303  0.750000  1
  Ho  Ho2  1  0.369063  0.957306  0.750000  1
  Er  Er3  1  0.334909  0.676290  0.063339  1
  Er  Er4  1  0.165508  0.176201  0.436617  1
  Er  Er5  1  0.663936  0.324074  0.562584  1
  Er  Er6  1  0.835879  0.824497  0.937446  1
  Er  Er7  1  0.663936  0.324074  0.937416  1
  Er  Er8  1  0.835879  0.824497  0.562554  1
  Er  Er9  1  0.334909  0.676290  0.436661  1
  Er  Er10  1  0.165508  0.176201  0.063383  1
  Er  Er11  1  0.625292  0.039469  0.250000  1
  Tc  Tc12  1  0.038339  0.885880  0.250000  1
  Tc  Tc13  1  0.461234  0.385562  0.250000  1
  Ru  Ru14  1  0.960110  0.116458  0.750000  1
  Ru  Ru15  1  0.539849  0.616477  0.750000  1
