# generated using pymatgen
data_Gd3In3Ir2Pb
_symmetry_space_group_name_H-M   'P 1'
_cell_length_a   7.81904400
_cell_length_b   7.81904509
_cell_length_c   3.98305800
_cell_angle_alpha   90.00000000
_cell_angle_beta   90.00000000
_cell_angle_gamma   119.99999537
_symmetry_Int_Tables_number   1
_chemical_formula_structural   Gd3In3Ir2Pb
_chemical_formula_sum   'Gd3 In3 Ir2 Pb1'
_cell_volume   210.88935438
_cell_formula_units_Z   1
loop_
 _symmetry_equiv_pos_site_id
 _symmetry_equiv_pos_as_xyz
  1  'x, y, z'
loop_
 _atom_site_type_symbol
 _atom_site_label
 _atom_site_symmetry_multiplicity
 _atom_site_fract_x
 _atom_site_fract_y
 _atom_site_fract_z
 _atom_site_occupancy
  Gd  Gd0  1  0.582257  0.613707  0.000000  1
  Gd  Gd1  1  0.386293  0.968550  0.000000  1
  Gd  Gd2  1  0.031450  0.417743  0.000000  1
  In  In3  1  0.013118  0.758317  0.500000  1
  In  In4  1  0.241683  0.254803  0.500000  1
  In  In5  1  0.745197  0.986882  0.500000  1
  Ir  Ir6  1  0.000000  0.000000  0.000000  1
  Ir  Ir7  1  0.333333  0.666667  0.500000  1
  Pb  Pb8  1  0.666667  0.333333  0.500000  1
