# generated using pymatgen
data_Tb11LuIn20
_symmetry_space_group_name_H-M   'P 1'
_cell_length_a   6.53932109
_cell_length_b   10.44422500
_cell_length_c   12.29800991
_cell_angle_alpha   90.00000000
_cell_angle_beta   89.96826728
_cell_angle_gamma   90.00000000
_symmetry_Int_Tables_number   1
_chemical_formula_structural   Tb11LuIn20
_chemical_formula_sum   'Tb11 Lu1 In20'
_cell_volume   839.93108398
_cell_formula_units_Z   1
loop_
 _symmetry_equiv_pos_site_id
 _symmetry_equiv_pos_as_xyz
  1  'x, y, z'
loop_
 _atom_site_type_symbol
 _atom_site_label
 _atom_site_symmetry_multiplicity
 _atom_site_fract_x
 _atom_site_fract_y
 _atom_site_fract_z
 _atom_site_occupancy
  Tb  Tb0  1  0.350301  0.750000  0.056268  1
  Tb  Tb1  1  0.149853  0.750000  0.556357  1
  Tb  Tb2  1  0.649877  0.250000  0.943043  1
  Tb  Tb3  1  0.890133  0.492970  0.142099  1
  Tb  Tb4  1  0.610549  0.008268  0.641330  1
  Tb  Tb5  1  0.109357  0.993484  0.857666  1
  Tb  Tb6  1  0.390729  0.507161  0.357734  1
  Tb  Tb7  1  0.109357  0.506516  0.857666  1
  Tb  Tb8  1  0.390729  0.992839  0.357734  1
  Tb  Tb9  1  0.890133  0.007030  0.142099  1
  Tb  Tb10  1  0.610549  0.491732  0.641330  1
  Lu  Lu11  1  0.848330  0.250000  0.444073  1
  In  In12  1  0.617983  0.750000  0.505508  1
  In  In13  1  0.881922  0.750000  0.005208  1
  In  In14  1  0.386561  0.250000  0.494310  1
  In  In15  1  0.117515  0.250000  0.995482  1
  In  In16  1  0.652481  0.750000  0.245867  1
  In  In17  1  0.847479  0.750000  0.745643  1
  In  In18  1  0.347909  0.250000  0.753637  1
  In  In19  1  0.149342  0.250000  0.255771  1
  In  In20  1  0.123376  0.750000  0.284489  1
  In  In21  1  0.376031  0.750000  0.784618  1
  In  In22  1  0.876241  0.250000  0.714545  1
  In  In23  1  0.624411  0.250000  0.217281  1
  In  In24  1  0.875350  0.542426  0.401513  1
  In  In25  1  0.624537  0.955638  0.901309  1
  In  In26  1  0.124633  0.044811  0.598336  1
  In  In27  1  0.374907  0.455582  0.098962  1
  In  In28  1  0.124633  0.455189  0.598336  1
  In  In29  1  0.374907  0.044418  0.098962  1
  In  In30  1  0.875350  0.957574  0.401513  1
  In  In31  1  0.624537  0.544362  0.901309  1
