# generated using pymatgen
data_Yb2U3Si12Ir19
_symmetry_space_group_name_H-M   'P 1'
_cell_length_a   12.81453100
_cell_length_b   12.81453259
_cell_length_c   4.00232900
_cell_angle_alpha   90.00000000
_cell_angle_beta   90.00000000
_cell_angle_gamma   119.98571391
_symmetry_Int_Tables_number   1
_chemical_formula_structural   Yb2U3Si12Ir19
_chemical_formula_sum   'Yb2 U3 Si12 Ir19'
_cell_volume   569.26096510
_cell_formula_units_Z   1
loop_
 _symmetry_equiv_pos_site_id
 _symmetry_equiv_pos_as_xyz
  1  'x, y, z'
loop_
 _atom_site_type_symbol
 _atom_site_label
 _atom_site_symmetry_multiplicity
 _atom_site_fract_x
 _atom_site_fract_y
 _atom_site_fract_z
 _atom_site_occupancy
  Yb  Yb0  1  0.811800  0.998536  0.500000  1
  Yb  Yb1  1  0.998536  0.811800  0.500000  1
  U  U2  1  0.334771  0.666634  0.000000  1
  U  U3  1  0.666634  0.334771  0.000000  1
  U  U4  1  0.176843  0.176843  0.500000  1
  Si  Si5  1  0.821794  0.821794  0.000000  1
  Si  Si6  1  0.181486  0.996218  0.000000  1
  Si  Si7  1  0.996218  0.181486  0.000000  1
  Si  Si8  1  0.310020  0.831069  0.500000  1
  Si  Si9  1  0.168857  0.482046  0.500000  1
  Si  Si10  1  0.522297  0.688141  0.500000  1
  Si  Si11  1  0.831069  0.310020  0.500000  1
  Si  Si12  1  0.482046  0.168857  0.500000  1
  Si  Si13  1  0.688141  0.522297  0.500000  1
  Si  Si14  1  0.367189  0.367189  0.000000  1
  Si  Si15  1  0.633793  0.999785  0.000000  1
  Si  Si16  1  0.999785  0.633793  0.000000  1
  Ir  Ir17  1  0.196512  0.816723  0.000000  1
  Ir  Ir18  1  0.182849  0.375148  0.000000  1
  Ir  Ir19  1  0.620343  0.803931  0.000000  1
  Ir  Ir20  1  0.816723  0.196512  0.000000  1
  Ir  Ir21  1  0.375148  0.182849  0.000000  1
  Ir  Ir22  1  0.803931  0.620343  0.000000  1
  Ir  Ir23  1  0.720011  0.720011  0.500000  1
  Ir  Ir24  1  0.283965  0.002394  0.500000  1
  Ir  Ir25  1  0.002394  0.283965  0.500000  1
  Ir  Ir26  1  0.125032  0.638611  0.500000  1
  Ir  Ir27  1  0.361036  0.488136  0.500000  1
  Ir  Ir28  1  0.509291  0.872341  0.500000  1
  Ir  Ir29  1  0.638611  0.125032  0.500000  1
  Ir  Ir30  1  0.488136  0.361036  0.500000  1
  Ir  Ir31  1  0.872341  0.509291  0.500000  1
  Ir  Ir32  1  0.551610  0.551610  0.000000  1
  Ir  Ir33  1  0.450468  0.003621  0.000000  1
  Ir  Ir34  1  0.003621  0.450468  0.000000  1
  Ir  Ir35  1  0.006697  0.006697  0.000000  1
