# generated using pymatgen
data_Ho4IrAu3
_symmetry_space_group_name_H-M   'P 1'
_cell_length_a   4.52688100
_cell_length_b   5.68592925
_cell_length_c   7.19546100
_cell_angle_alpha   91.66937188
_cell_angle_beta   90.00000000
_cell_angle_gamma   90.00000000
_symmetry_Int_Tables_number   1
_chemical_formula_structural   Ho4IrAu3
_chemical_formula_sum   'Ho4 Ir1 Au3'
_cell_volume   185.12914216
_cell_formula_units_Z   1
loop_
 _symmetry_equiv_pos_site_id
 _symmetry_equiv_pos_as_xyz
  1  'x, y, z'
loop_
 _atom_site_type_symbol
 _atom_site_label
 _atom_site_symmetry_multiplicity
 _atom_site_fract_x
 _atom_site_fract_y
 _atom_site_fract_z
 _atom_site_occupancy
  Ho  Ho0  1  0.250000  0.634719  0.178054  1
  Ho  Ho1  1  0.750000  0.346344  0.830527  1
  Ho  Ho2  1  0.750000  0.146541  0.299746  1
  Ho  Ho3  1  0.250000  0.863491  0.691665  1
  Ir  Ir4  1  0.250000  0.164943  0.039006  1
  Au  Au5  1  0.750000  0.841992  0.956874  1
  Au  Au6  1  0.750000  0.657051  0.462475  1
  Au  Au7  1  0.250000  0.344920  0.541654  1
