# generated using pymatgen
data_Dy3Y5Tc2(B12Ru)2
_symmetry_space_group_name_H-M   'P 1'
_cell_length_a   3.68107900
_cell_length_b   9.16243725
_cell_length_c   11.55532523
_cell_angle_alpha   89.85479257
_cell_angle_beta   90.00000000
_cell_angle_gamma   90.00000000
_symmetry_Int_Tables_number   1
_chemical_formula_structural   Dy3Y5Tc2(B12Ru)2
_chemical_formula_sum   'Dy3 Y5 Tc2 B24 Ru2'
_cell_volume   389.73277542
_cell_formula_units_Z   1
loop_
 _symmetry_equiv_pos_site_id
 _symmetry_equiv_pos_as_xyz
  1  'x, y, z'
loop_
 _atom_site_type_symbol
 _atom_site_label
 _atom_site_symmetry_multiplicity
 _atom_site_fract_x
 _atom_site_fract_y
 _atom_site_fract_z
 _atom_site_occupancy
  Dy  Dy0  1  0.000000  0.057872  0.629672  1
  Dy  Dy1  1  0.000000  0.442985  0.130228  1
  Dy  Dy2  1  0.000000  0.557043  0.869787  1
  Y  Y3  1  0.000000  0.325223  0.415626  1
  Y  Y4  1  0.000000  0.674782  0.584376  1
  Y  Y5  1  0.000000  0.821389  0.087345  1
  Y  Y6  1  0.000000  0.178605  0.912639  1
  Y  Y7  1  0.000000  0.942196  0.370622  1
  Tc  Tc8  1  0.000000  0.638424  0.320214  1
  Tc  Tc9  1  0.000000  0.361449  0.679752  1
  B  B10  1  0.500000  0.553287  0.432858  1
  B  B11  1  0.500000  0.446699  0.567139  1
  B  B12  1  0.500000  0.053975  0.067109  1
  B  B13  1  0.500000  0.946023  0.932857  1
  B  B14  1  0.500000  0.748251  0.418785  1
  B  B15  1  0.500000  0.251658  0.581304  1
  B  B16  1  0.500000  0.248344  0.081298  1
  B  B17  1  0.500000  0.751672  0.918681  1
  B  B18  1  0.500000  0.791216  0.265265  1
  B  B19  1  0.500000  0.208767  0.734626  1
  B  B20  1  0.500000  0.290342  0.234125  1
  B  B21  1  0.500000  0.709687  0.765881  1
  B  B22  1  0.500000  0.631325  0.185358  1
  B  B23  1  0.500000  0.368656  0.814627  1
  B  B24  1  0.500000  0.131154  0.313813  1
  B  B25  1  0.500000  0.868957  0.686243  1
  B  B26  1  0.500000  0.983451  0.211714  1
  B  B27  1  0.500000  0.016481  0.788180  1
  B  B28  1  0.500000  0.483041  0.287671  1
  B  B29  1  0.500000  0.516932  0.712322  1
  B  B30  1  0.500000  0.603740  0.028598  1
  B  B31  1  0.500000  0.396256  0.971402  1
  B  B32  1  0.500000  0.103885  0.471064  1
  B  B33  1  0.500000  0.896112  0.528974  1
  Ru  Ru34  1  0.000000  0.137856  0.178275  1
  Ru  Ru35  1  0.000000  0.862265  0.821568  1
