# generated using pymatgen
data_Ca2Pr3GePb3
_symmetry_space_group_name_H-M   'P 1'
_cell_length_a   9.60990700
_cell_length_b   9.60990711
_cell_length_c   6.82285700
_cell_angle_alpha   90.00000000
_cell_angle_beta   90.00000000
_cell_angle_gamma   119.99999620
_symmetry_Int_Tables_number   1
_chemical_formula_structural   Ca2Pr3GePb3
_chemical_formula_sum   'Ca4 Pr6 Ge2 Pb6'
_cell_volume   545.67655121
_cell_formula_units_Z   2
loop_
 _symmetry_equiv_pos_site_id
 _symmetry_equiv_pos_as_xyz
  1  'x, y, z'
loop_
 _atom_site_type_symbol
 _atom_site_label
 _atom_site_symmetry_multiplicity
 _atom_site_fract_x
 _atom_site_fract_y
 _atom_site_fract_z
 _atom_site_occupancy
  Ca  Ca0  1  0.666667  0.333333  0.500000  1
  Ca  Ca1  1  0.333333  0.666667  0.500000  1
  Ca  Ca2  1  0.333333  0.666667  0.000000  1
  Ca  Ca3  1  0.666667  0.333333  0.000000  1
  Pr  Pr4  1  0.743878  0.743878  0.250000  1
  Pr  Pr5  1  0.256122  0.000000  0.250000  1
  Pr  Pr6  1  0.000000  0.256122  0.250000  1
  Pr  Pr7  1  0.256122  0.256122  0.750000  1
  Pr  Pr8  1  0.743878  0.000000  0.750000  1
  Pr  Pr9  1  0.000000  0.743878  0.750000  1
  Ge  Ge10  1  0.000000  0.000000  0.500000  1
  Ge  Ge11  1  0.000000  0.000000  0.000000  1
  Pb  Pb12  1  0.390206  0.390206  0.250000  1
  Pb  Pb13  1  0.609794  0.000000  0.250000  1
  Pb  Pb14  1  0.000000  0.609794  0.250000  1
  Pb  Pb15  1  0.609794  0.609794  0.750000  1
  Pb  Pb16  1  0.390206  0.000000  0.750000  1
  Pb  Pb17  1  0.000000  0.390206  0.750000  1
