# generated using pymatgen
data_Dy4Sc(GaTe)2
_symmetry_space_group_name_H-M   'P 1'
_cell_length_a   8.53120200
_cell_length_b   8.53120046
_cell_length_c   7.84649500
_cell_angle_alpha   90.00000000
_cell_angle_beta   90.00000000
_cell_angle_gamma   125.24733292
_symmetry_Int_Tables_number   1
_chemical_formula_structural   Dy4Sc(GaTe)2
_chemical_formula_sum   'Dy8 Sc2 Ga4 Te4'
_cell_volume   466.38206003
_cell_formula_units_Z   2
loop_
 _symmetry_equiv_pos_site_id
 _symmetry_equiv_pos_as_xyz
  1  'x, y, z'
loop_
 _atom_site_type_symbol
 _atom_site_label
 _atom_site_symmetry_multiplicity
 _atom_site_fract_x
 _atom_site_fract_y
 _atom_site_fract_z
 _atom_site_occupancy
  Dy  Dy0  1  0.041913  0.295519  0.331936  1
  Dy  Dy1  1  0.958087  0.704481  0.668064  1
  Dy  Dy2  1  0.458087  0.204481  0.831936  1
  Dy  Dy3  1  0.795519  0.541913  0.168064  1
  Dy  Dy4  1  0.541913  0.795519  0.168064  1
  Dy  Dy5  1  0.204481  0.458087  0.831936  1
  Dy  Dy6  1  0.704481  0.958087  0.668064  1
  Dy  Dy7  1  0.295519  0.041913  0.331936  1
  Sc  Sc8  1  0.000000  0.000000  0.000000  1
  Sc  Sc9  1  0.500000  0.500000  0.500000  1
  Ga  Ga10  1  0.370832  0.370832  0.128531  1
  Ga  Ga11  1  0.629168  0.629168  0.871469  1
  Ga  Ga12  1  0.129168  0.129168  0.628531  1
  Ga  Ga13  1  0.870832  0.870832  0.371469  1
  Te  Te14  1  0.797114  0.202886  0.000000  1
  Te  Te15  1  0.202886  0.797114  0.000000  1
  Te  Te16  1  0.702886  0.297114  0.500000  1
  Te  Te17  1  0.297114  0.702886  0.500000  1
