# generated using pymatgen
data_Nb6TeSe7
_symmetry_space_group_name_H-M   'P 1'
_cell_length_a   10.23960348
_cell_length_b   10.39783837
_cell_length_c   3.49143900
_cell_angle_alpha   90.00000000
_cell_angle_beta   90.00000000
_cell_angle_gamma   121.10713986
_symmetry_Int_Tables_number   1
_chemical_formula_structural   Nb6TeSe7
_chemical_formula_sum   'Nb6 Te1 Se7'
_cell_volume   318.27846772
_cell_formula_units_Z   1
loop_
 _symmetry_equiv_pos_site_id
 _symmetry_equiv_pos_as_xyz
  1  'x, y, z'
loop_
 _atom_site_type_symbol
 _atom_site_label
 _atom_site_symmetry_multiplicity
 _atom_site_fract_x
 _atom_site_fract_y
 _atom_site_fract_z
 _atom_site_occupancy
  Nb  Nb0  1  0.507663  0.895985  0.750000  1
  Nb  Nb1  1  0.620388  0.505127  0.250000  1
  Nb  Nb2  1  0.892482  0.379393  0.250000  1
  Nb  Nb3  1  0.109166  0.618509  0.750000  1
  Nb  Nb4  1  0.380214  0.485998  0.750000  1
  Nb  Nb5  1  0.482769  0.105560  0.250000  1
  Te  Te6  1  0.679792  0.737789  0.750000  1
  Se  Se7  1  0.939661  0.651892  0.250000  1
  Se  Se8  1  0.714666  0.064604  0.250000  1
  Se  Se9  1  0.275157  0.936128  0.750000  1
  Se  Se10  1  0.060544  0.344349  0.750000  1
  Se  Se11  1  0.338300  0.279451  0.250000  1
  Se  Se12  1  0.664037  0.329233  0.750000  1
  Se  Se13  1  0.335161  0.665984  0.250000  1
