# generated using pymatgen
data_Sm10C2Cl15
_symmetry_space_group_name_H-M   'P 1'
_cell_length_a   8.83064689
_cell_length_b   9.55034273
_cell_length_c   10.39383934
_cell_angle_alpha   90.92804014
_cell_angle_beta   114.64074101
_cell_angle_gamma   110.84653108
_symmetry_Int_Tables_number   1
_chemical_formula_structural   Sm10C2Cl15
_chemical_formula_sum   'Sm10 C2 Cl15'
_cell_volume   730.48598068
_cell_formula_units_Z   1
loop_
 _symmetry_equiv_pos_site_id
 _symmetry_equiv_pos_as_xyz
  1  'x, y, z'
loop_
 _atom_site_type_symbol
 _atom_site_label
 _atom_site_symmetry_multiplicity
 _atom_site_fract_x
 _atom_site_fract_y
 _atom_site_fract_z
 _atom_site_occupancy
  Sm  Sm0  1  0.805176  0.414594  0.275064  1
  Sm  Sm1  1  0.194824  0.585406  0.724936  1
  Sm  Sm2  1  0.677841  0.744057  0.822160  1
  Sm  Sm3  1  0.322159  0.255943  0.177840  1
  Sm  Sm4  1  0.525281  0.696909  0.093622  1
  Sm  Sm5  1  0.474719  0.303091  0.906378  1
  Sm  Sm6  1  0.589856  0.041807  0.330236  1
  Sm  Sm7  1  0.410144  0.958193  0.669764  1
  Sm  Sm8  1  0.725494  0.075499  0.048502  1
  Sm  Sm9  1  0.274506  0.924501  0.951498  1
  C  C10  1  0.465011  0.821210  0.874389  1
  C  C11  1  0.534989  0.178790  0.125611  1
  Cl  Cl12  1  0.000000  0.000000  0.000000  1
  Cl  Cl13  1  0.636452  0.881782  0.586300  1
  Cl  Cl14  1  0.363548  0.118218  0.413700  1
  Cl  Cl15  1  0.884022  0.300800  0.525193  1
  Cl  Cl16  1  0.115978  0.699200  0.474807  1
  Cl  Cl17  1  0.299195  0.765452  0.180882  1
  Cl  Cl18  1  0.700805  0.234548  0.819118  1
  Cl  Cl19  1  0.056189  0.342483  0.226969  1
  Cl  Cl20  1  0.172259  0.060972  0.706597  1
  Cl  Cl21  1  0.827741  0.939028  0.293403  1
  Cl  Cl22  1  0.227227  0.408796  0.943923  1
  Cl  Cl23  1  0.772773  0.591204  0.056077  1
  Cl  Cl24  1  0.406476  0.466530  0.655900  1
  Cl  Cl25  1  0.593524  0.533470  0.344100  1
  Cl  Cl26  1  0.943811  0.657517  0.773031  1
