# generated using pymatgen
data_Er7BeSnPd24
_symmetry_space_group_name_H-M   'P 1'
_cell_length_a   8.26828638
_cell_length_b   8.26828576
_cell_length_c   8.26828600
_cell_angle_alpha   89.96686966
_cell_angle_beta   90.03312341
_cell_angle_gamma   90.03312177
_symmetry_Int_Tables_number   1
_chemical_formula_structural   Er7BeSnPd24
_chemical_formula_sum   'Er7 Be1 Sn1 Pd24'
_cell_volume   565.25740613
_cell_formula_units_Z   1
loop_
 _symmetry_equiv_pos_site_id
 _symmetry_equiv_pos_as_xyz
  1  'x, y, z'
loop_
 _atom_site_type_symbol
 _atom_site_label
 _atom_site_symmetry_multiplicity
 _atom_site_fract_x
 _atom_site_fract_y
 _atom_site_fract_z
 _atom_site_occupancy
  Er  Er0  1  0.250925  0.251339  0.251339  1
  Er  Er1  1  0.748987  0.749360  0.749360  1
  Er  Er2  1  0.748661  0.749075  0.251339  1
  Er  Er3  1  0.748661  0.251339  0.749075  1
  Er  Er4  1  0.250640  0.251013  0.749360  1
  Er  Er5  1  0.250640  0.749360  0.251013  1
  Er  Er6  1  0.251520  0.748480  0.748480  1
  Be  Be7  1  0.002185  0.997815  0.997815  1
  Sn  Sn8  1  0.747273  0.252727  0.252727  1
  Pd  Pd9  1  0.253610  0.499164  0.000768  1
  Pd  Pd10  1  0.746227  0.498106  0.002259  1
  Pd  Pd11  1  0.997741  0.253773  0.498106  1
  Pd  Pd12  1  0.501894  0.253773  0.002259  1
  Pd  Pd13  1  0.999232  0.746390  0.499164  1
  Pd  Pd14  1  0.500836  0.746390  0.000768  1
  Pd  Pd15  1  0.501894  0.002259  0.253773  1
  Pd  Pd16  1  0.253610  0.000768  0.499164  1
  Pd  Pd17  1  0.500836  0.000768  0.746390  1
  Pd  Pd18  1  0.746227  0.002259  0.498106  1
  Pd  Pd19  1  0.997741  0.498106  0.253773  1
  Pd  Pd20  1  0.999232  0.499164  0.746390  1
  Pd  Pd21  1  0.250525  0.499145  0.499145  1
  Pd  Pd22  1  0.749146  0.498283  0.498283  1
  Pd  Pd23  1  0.501717  0.250854  0.498283  1
  Pd  Pd24  1  0.500855  0.749475  0.499145  1
  Pd  Pd25  1  0.501717  0.498283  0.250854  1
  Pd  Pd26  1  0.500855  0.499145  0.749475  1
  Pd  Pd27  1  0.268818  0.000627  0.000627  1
  Pd  Pd28  1  0.734073  0.002512  0.002512  1
  Pd  Pd29  1  0.997488  0.265927  0.002512  1
  Pd  Pd30  1  0.999373  0.731182  0.000627  1
  Pd  Pd31  1  0.997488  0.002512  0.265927  1
  Pd  Pd32  1  0.999373  0.000627  0.731182  1
