# generated using pymatgen
data_Pa4Ta2VZn6
_symmetry_space_group_name_H-M   'P 1'
_cell_length_a   10.75062610
_cell_length_b   10.75062630
_cell_length_c   10.75062705
_cell_angle_alpha   27.74894720
_cell_angle_beta   27.74894527
_cell_angle_gamma   27.74894903
_symmetry_Int_Tables_number   1
_chemical_formula_structural   Pa4Ta2VZn6
_chemical_formula_sum   'Pa4 Ta2 V1 Zn6'
_cell_volume   237.82243604
_cell_formula_units_Z   1
loop_
 _symmetry_equiv_pos_site_id
 _symmetry_equiv_pos_as_xyz
  1  'x, y, z'
loop_
 _atom_site_type_symbol
 _atom_site_label
 _atom_site_symmetry_multiplicity
 _atom_site_fract_x
 _atom_site_fract_y
 _atom_site_fract_z
 _atom_site_occupancy
  Pa  Pa0  1  0.832602  0.832602  0.832602  1
  Pa  Pa1  1  0.167398  0.167398  0.167398  1
  Pa  Pa2  1  0.652263  0.652263  0.652263  1
  Pa  Pa3  1  0.347737  0.347737  0.347737  1
  Ta  Ta4  1  0.542744  0.542744  0.542744  1
  Ta  Ta5  1  0.457256  0.457256  0.457256  1
  V  V6  1  0.000000  0.000000  0.000000  1
  Zn  Zn7  1  0.910775  0.408075  0.910775  1
  Zn  Zn8  1  0.910775  0.910775  0.408075  1
  Zn  Zn9  1  0.408075  0.910775  0.910775  1
  Zn  Zn10  1  0.089225  0.591925  0.089225  1
  Zn  Zn11  1  0.089225  0.089225  0.591925  1
  Zn  Zn12  1  0.591925  0.089225  0.089225  1
