# generated using pymatgen
data_Ce2Y6TlCdRu2
_symmetry_space_group_name_H-M   'P 1'
_cell_length_a   9.70031903
_cell_length_b   9.68768594
_cell_length_c   9.68768666
_cell_angle_alpha   60.19556162
_cell_angle_beta   59.95685329
_cell_angle_gamma   59.95685498
_symmetry_Int_Tables_number   1
_chemical_formula_structural   Ce2Y6TlCdRu2
_chemical_formula_sum   'Ce4 Y12 Tl2 Cd2 Ru4'
_cell_volume   644.26500141
_cell_formula_units_Z   2
loop_
 _symmetry_equiv_pos_site_id
 _symmetry_equiv_pos_as_xyz
  1  'x, y, z'
loop_
 _atom_site_type_symbol
 _atom_site_label
 _atom_site_symmetry_multiplicity
 _atom_site_fract_x
 _atom_site_fract_y
 _atom_site_fract_z
 _atom_site_occupancy
  Ce  Ce0  1  0.342879  0.348460  0.965784  1
  Ce  Ce1  1  0.342879  0.965784  0.348460  1
  Ce  Ce2  1  0.961395  0.345674  0.345674  1
  Ce  Ce3  1  0.347259  0.345674  0.345674  1
  Y  Y4  1  0.562645  0.560812  0.935126  1
  Y  Y5  1  0.941417  0.560812  0.935126  1
  Y  Y6  1  0.560429  0.939571  0.939571  1
  Y  Y7  1  0.941417  0.935126  0.560812  1
  Y  Y8  1  0.562645  0.935126  0.560812  1
  Y  Y9  1  0.941261  0.558739  0.558739  1
  Y  Y10  1  0.189953  0.187938  0.811557  1
  Y  Y11  1  0.810553  0.187938  0.811557  1
  Y  Y12  1  0.187820  0.812180  0.812179  1
  Y  Y13  1  0.810553  0.811558  0.187938  1
  Y  Y14  1  0.189952  0.811557  0.187937  1
  Y  Y15  1  0.809963  0.190037  0.190037  1
  Tl  Tl16  1  0.583531  0.586407  0.246531  1
  Tl  Tl17  1  0.583531  0.246531  0.586407  1
  Cd  Cd18  1  0.256201  0.581727  0.581727  1
  Cd  Cd19  1  0.580345  0.581727  0.581727  1
  Ru  Ru20  1  0.144629  0.146811  0.563931  1
  Ru  Ru21  1  0.144629  0.563931  0.146811  1
  Ru  Ru22  1  0.561799  0.147942  0.147942  1
  Ru  Ru23  1  0.142316  0.147942  0.147942  1
