# generated using pymatgen
data_Sc5TaNb2Co16GeP11
_symmetry_space_group_name_H-M   'P 1'
_cell_length_a   12.06321800
_cell_length_b   12.08186027
_cell_length_c   3.62560400
_cell_angle_alpha   90.00000000
_cell_angle_beta   90.00000000
_cell_angle_gamma   120.07853334
_symmetry_Int_Tables_number   1
_chemical_formula_structural   Sc5TaNb2Co16GeP11
_chemical_formula_sum   'Sc5 Ta1 Nb2 Co16 Ge1 P11'
_cell_volume   457.26057599
_cell_formula_units_Z   1
loop_
 _symmetry_equiv_pos_site_id
 _symmetry_equiv_pos_as_xyz
  1  'x, y, z'
loop_
 _atom_site_type_symbol
 _atom_site_label
 _atom_site_symmetry_multiplicity
 _atom_site_fract_x
 _atom_site_fract_y
 _atom_site_fract_z
 _atom_site_occupancy
  Sc  Sc0  1  0.817904  0.000109  0.500000  1
  Sc  Sc1  1  0.000904  0.817557  0.500000  1
  Sc  Sc2  1  0.180602  0.180836  0.500000  1
  Sc  Sc3  1  0.325257  0.665310  0.000000  1
  Sc  Sc4  1  0.667631  0.334301  0.000000  1
  Ta  Ta5  1  0.445122  0.002079  0.000000  1
  Nb  Nb6  1  0.000287  0.446277  0.000000  1
  Nb  Nb7  1  0.556717  0.551181  0.000000  1
  Co  Co8  1  0.278116  0.000254  0.500000  1
  Co  Co9  1  0.998202  0.276647  0.500000  1
  Co  Co10  1  0.728139  0.722871  0.500000  1
  Co  Co11  1  0.634996  0.811411  0.000000  1
  Co  Co12  1  0.196543  0.824179  0.000000  1
  Co  Co13  1  0.173312  0.368999  0.000000  1
  Co  Co14  1  0.371628  0.176566  0.000000  1
  Co  Co15  1  0.807257  0.627772  0.000000  1
  Co  Co16  1  0.822443  0.195999  0.000000  1
  Co  Co17  1  0.521710  0.882607  0.500000  1
  Co  Co18  1  0.129025  0.647645  0.500000  1
  Co  Co19  1  0.345544  0.466171  0.500000  1
  Co  Co20  1  0.483254  0.352389  0.500000  1
  Co  Co21  1  0.873292  0.519144  0.500000  1
  Co  Co22  1  0.645794  0.130797  0.500000  1
  Co  Co23  1  0.000486  0.000436  0.000000  1
  Ge  Ge24  1  0.511068  0.685113  0.500000  1
  P  P25  1  0.174839  0.999873  0.000000  1
  P  P26  1  0.997950  0.174056  0.000000  1
  P  P27  1  0.825818  0.824506  0.000000  1
  P  P28  1  0.313509  0.831029  0.500000  1
  P  P29  1  0.169808  0.480922  0.500000  1
  P  P30  1  0.483062  0.171568  0.500000  1
  P  P31  1  0.689601  0.517804  0.500000  1
  P  P32  1  0.829506  0.313151  0.500000  1
  P  P33  1  0.650528  0.001648  0.000000  1
  P  P34  1  0.001036  0.649328  0.000000  1
  P  P35  1  0.349107  0.349466  0.000000  1
