# generated using pymatgen
data_DyEr2Al3Ge2Pd
_symmetry_space_group_name_H-M   'P 1'
_cell_length_a   6.95767700
_cell_length_b   6.97763166
_cell_length_c   4.22674700
_cell_angle_alpha   90.00000000
_cell_angle_beta   90.00000000
_cell_angle_gamma   119.90543873
_symmetry_Int_Tables_number   1
_chemical_formula_structural   DyEr2Al3Ge2Pd
_chemical_formula_sum   'Dy1 Er2 Al3 Ge2 Pd1'
_cell_volume   177.87799370
_cell_formula_units_Z   1
loop_
 _symmetry_equiv_pos_site_id
 _symmetry_equiv_pos_as_xyz
  1  'x, y, z'
loop_
 _atom_site_type_symbol
 _atom_site_label
 _atom_site_symmetry_multiplicity
 _atom_site_fract_x
 _atom_site_fract_y
 _atom_site_fract_z
 _atom_site_occupancy
  Dy  Dy0  1  0.414997  0.000000  0.000000  1
  Er  Er1  1  0.001215  0.414948  0.000000  1
  Er  Er2  1  0.586266  0.585052  0.000000  1
  Al  Al3  1  0.765816  0.000000  0.500001  1
  Al  Al4  1  0.233634  0.233401  0.500001  1
  Al  Al5  1  0.000234  0.766599  0.500001  1
  Ge  Ge6  1  0.668877  0.335978  0.500001  1
  Ge  Ge7  1  0.332899  0.664022  0.500001  1
  Pd  Pd8  1  0.996062  0.000000  0.000000  1
