# generated using pymatgen
data_TlRuRh3Pb3O13
_symmetry_space_group_name_H-M   'P 1'
_cell_length_a   7.29806151
_cell_length_b   7.29962174
_cell_length_c   7.29962300
_cell_angle_alpha   60.00000787
_cell_angle_beta   59.99293562
_cell_angle_gamma   59.99293023
_symmetry_Int_Tables_number   1
_chemical_formula_structural   TlRuRh3Pb3O13
_chemical_formula_sum   'Tl1 Ru1 Rh3 Pb3 O13'
_cell_volume   274.94570189
_cell_formula_units_Z   1
loop_
 _symmetry_equiv_pos_site_id
 _symmetry_equiv_pos_as_xyz
  1  'x, y, z'
loop_
 _atom_site_type_symbol
 _atom_site_label
 _atom_site_symmetry_multiplicity
 _atom_site_fract_x
 _atom_site_fract_y
 _atom_site_fract_z
 _atom_site_occupancy
  Tl  Tl0  1  0.880734  0.373089  0.373089  1
  Ru  Ru1  1  0.372751  0.875750  0.875750  1
  Rh  Rh2  1  0.875123  0.373113  0.875882  1
  Rh  Rh3  1  0.875123  0.875882  0.373113  1
  Rh  Rh4  1  0.875123  0.875882  0.875882  1
  Pb  Pb5  1  0.373508  0.374217  0.374217  1
  Pb  Pb6  1  0.373508  0.374217  0.878059  1
  Pb  Pb7  1  0.373508  0.878059  0.374217  1
  O  O8  1  0.204121  0.799069  0.799069  1
  O  O9  1  0.204121  0.799069  0.197741  1
  O  O10  1  0.547852  0.948953  0.948953  1
  O  O11  1  0.547852  0.948953  0.554242  1
  O  O12  1  0.958422  0.953015  0.544282  1
  O  O13  1  0.793447  0.795815  0.205369  1
  O  O14  1  0.547852  0.554242  0.948953  1
  O  O15  1  0.793447  0.205369  0.795815  1
  O  O16  1  0.793447  0.205369  0.205369  1
  O  O17  1  0.958422  0.544282  0.953015  1
  O  O18  1  0.958422  0.544282  0.544282  1
  O  O19  1  0.204121  0.197741  0.799069  1
  O  O20  1  0.489097  0.503635  0.503635  1
