# generated using pymatgen
data_Tb3Pr2Er5(In2Pd)4
_symmetry_space_group_name_H-M   'P 1'
_cell_length_a   3.63222100
_cell_length_b   8.22130171
_cell_length_c   18.40356585
_cell_angle_alpha   89.92594538
_cell_angle_beta   90.00000000
_cell_angle_gamma   90.00000000
_symmetry_Int_Tables_number   1
_chemical_formula_structural   Tb3Pr2Er5(In2Pd)4
_chemical_formula_sum   'Tb3 Pr2 Er5 In8 Pd4'
_cell_volume   549.55918196
_cell_formula_units_Z   1
loop_
 _symmetry_equiv_pos_site_id
 _symmetry_equiv_pos_as_xyz
  1  'x, y, z'
loop_
 _atom_site_type_symbol
 _atom_site_label
 _atom_site_symmetry_multiplicity
 _atom_site_fract_x
 _atom_site_fract_y
 _atom_site_fract_z
 _atom_site_occupancy
  Tb  Tb0  1  0.000000  0.738077  0.281669  1
  Tb  Tb1  1  0.000000  0.261901  0.718320  1
  Tb  Tb2  1  0.000000  0.761995  0.781669  1
  Pr  Pr3  1  0.000000  0.500000  0.499939  1
  Pr  Pr4  1  0.000000  0.999992  0.000002  1
  Er  Er5  1  0.000000  0.238286  0.218606  1
  Er  Er6  1  0.000000  0.619940  0.084390  1
  Er  Er7  1  0.000000  0.379876  0.915704  1
  Er  Er8  1  0.000000  0.879874  0.584253  1
  Er  Er9  1  0.000000  0.120128  0.415567  1
  In  In10  1  0.500000  0.699464  0.931606  1
  In  In11  1  0.500000  0.300242  0.068816  1
  In  In12  1  0.500000  0.800749  0.431593  1
  In  In13  1  0.500000  0.199486  0.568410  1
  In  In14  1  0.500000  0.584016  0.653370  1
  In  In15  1  0.500000  0.415540  0.346306  1
  In  In16  1  0.500000  0.916722  0.153473  1
  In  In17  1  0.500000  0.084001  0.846637  1
  Pd  Pd18  1  0.500000  0.522638  0.195434  1
  Pd  Pd19  1  0.500000  0.475910  0.804681  1
  Pd  Pd20  1  0.500000  0.975920  0.695316  1
  Pd  Pd21  1  0.500000  0.025243  0.304237  1
