# generated using pymatgen
data_BaTa4SiO13
_symmetry_space_group_name_H-M   'P 1'
_cell_length_a   7.36896271
_cell_length_b   7.36896386
_cell_length_c   10.09237100
_cell_angle_alpha   90.00000000
_cell_angle_beta   90.00000000
_cell_angle_gamma   89.92517818
_symmetry_Int_Tables_number   1
_chemical_formula_structural   BaTa4SiO13
_chemical_formula_sum   'Ba2 Ta8 Si2 O26'
_cell_volume   548.03162701
_cell_formula_units_Z   2
loop_
 _symmetry_equiv_pos_site_id
 _symmetry_equiv_pos_as_xyz
  1  'x, y, z'
loop_
 _atom_site_type_symbol
 _atom_site_label
 _atom_site_symmetry_multiplicity
 _atom_site_fract_x
 _atom_site_fract_y
 _atom_site_fract_z
 _atom_site_occupancy
  Ba  Ba0  1  0.427878  0.427878  0.434713  1
  Ba  Ba1  1  0.572122  0.572122  0.934713  1
  Ta  Ta2  1  0.547254  0.901457  0.253139  1
  Ta  Ta3  1  0.098543  0.452746  0.753139  1
  Ta  Ta4  1  0.452746  0.098543  0.753139  1
  Ta  Ta5  1  0.901457  0.547254  0.253139  1
  Ta  Ta6  1  0.169342  0.837798  0.501963  1
  Ta  Ta7  1  0.162202  0.830658  0.001963  1
  Ta  Ta8  1  0.837798  0.169342  0.501963  1
  Ta  Ta9  1  0.830658  0.162202  0.001963  1
  Si  Si10  1  0.156571  0.156571  0.249012  1
  Si  Si11  1  0.843429  0.843429  0.749012  1
  O  O12  1  0.656064  0.656064  0.250747  1
  O  O13  1  0.343936  0.343936  0.750747  1
  O  O14  1  0.375917  0.122567  0.257138  1
  O  O15  1  0.877433  0.624083  0.757138  1
  O  O16  1  0.624083  0.877433  0.757138  1
  O  O17  1  0.122567  0.375917  0.257138  1
  O  O18  1  0.789192  0.364027  0.386147  1
  O  O19  1  0.636438  0.203893  0.611148  1
  O  O20  1  0.796107  0.363562  0.111148  1
  O  O21  1  0.635973  0.210808  0.886147  1
  O  O22  1  0.203893  0.636438  0.611148  1
  O  O23  1  0.364027  0.789192  0.386147  1
  O  O24  1  0.210808  0.635973  0.886147  1
  O  O25  1  0.363562  0.796107  0.111148  1
  O  O26  1  0.067361  0.067361  0.386493  1
  O  O27  1  0.932086  0.932086  0.612801  1
  O  O28  1  0.067914  0.067914  0.112801  1
  O  O29  1  0.932639  0.932639  0.886493  1
  O  O30  1  0.694608  0.998100  0.387171  1
  O  O31  1  0.012489  0.310964  0.606610  1
  O  O32  1  0.689036  0.987511  0.106610  1
  O  O33  1  0.001900  0.305392  0.887171  1
  O  O34  1  0.310964  0.012489  0.606610  1
  O  O35  1  0.998100  0.694608  0.387171  1
  O  O36  1  0.305392  0.001900  0.887171  1
  O  O37  1  0.987511  0.689036  0.106610  1
