# generated using pymatgen
data_Sm3Bi2Rh3Pb
_symmetry_space_group_name_H-M   'P 1'
_cell_length_a   7.68340200
_cell_length_b   7.72081387
_cell_length_c   4.06664400
_cell_angle_alpha   90.00000000
_cell_angle_beta   90.00000000
_cell_angle_gamma   119.83983831
_symmetry_Int_Tables_number   1
_chemical_formula_structural   Sm3Bi2Rh3Pb
_chemical_formula_sum   'Sm3 Bi2 Rh3 Pb1'
_cell_volume   209.25800102
_cell_formula_units_Z   1
loop_
 _symmetry_equiv_pos_site_id
 _symmetry_equiv_pos_as_xyz
  1  'x, y, z'
loop_
 _atom_site_type_symbol
 _atom_site_label
 _atom_site_symmetry_multiplicity
 _atom_site_fract_x
 _atom_site_fract_y
 _atom_site_fract_z
 _atom_site_occupancy
  Sm  Sm0  1  0.592064  0.000000  0.000000  1
  Sm  Sm1  1  0.002966  0.598946  0.000000  1
  Sm  Sm2  1  0.404020  0.401054  0.000000  1
  Bi  Bi3  1  0.001781  0.262539  0.500000  1
  Bi  Bi4  1  0.739242  0.737461  0.500000  1
  Rh  Rh5  1  0.332967  0.665170  0.500000  1
  Rh  Rh6  1  0.667798  0.334830  0.500000  1
  Rh  Rh7  1  0.996255  0.000000  0.000000  1
  Pb  Pb8  1  0.262907  0.000000  0.500000  1
