# generated using pymatgen
data_Tb13Lu3Tl3InRh4
_symmetry_space_group_name_H-M   'P 1'
_cell_length_a   9.69182340
_cell_length_b   9.67416082
_cell_length_c   9.67073656
_cell_angle_alpha   60.03752610
_cell_angle_beta   59.91940137
_cell_angle_gamma   59.82458227
_symmetry_Int_Tables_number   1
_chemical_formula_structural   Tb13Lu3Tl3InRh4
_chemical_formula_sum   'Tb13 Lu3 Tl3 In1 Rh4'
_cell_volume   640.09183196
_cell_formula_units_Z   1
loop_
 _symmetry_equiv_pos_site_id
 _symmetry_equiv_pos_as_xyz
  1  'x, y, z'
loop_
 _atom_site_type_symbol
 _atom_site_label
 _atom_site_symmetry_multiplicity
 _atom_site_fract_x
 _atom_site_fract_y
 _atom_site_fract_z
 _atom_site_occupancy
  Tb  Tb0  1  0.648068  0.053831  0.646904  1
  Tb  Tb1  1  0.058662  0.061787  0.439814  1
  Tb  Tb2  1  0.439104  0.436015  0.060864  1
  Tb  Tb3  1  0.652946  0.650194  0.651175  1
  Tb  Tb4  1  0.814762  0.186931  0.185984  1
  Tb  Tb5  1  0.186958  0.814414  0.812804  1
  Tb  Tb6  1  0.051506  0.647236  0.649175  1
  Tb  Tb7  1  0.441212  0.058810  0.057567  1
  Tb  Tb8  1  0.438501  0.060362  0.438507  1
  Tb  Tb9  1  0.059845  0.436982  0.062160  1
  Tb  Tb10  1  0.649803  0.647012  0.051516  1
  Tb  Tb11  1  0.187635  0.813611  0.186832  1
  Tb  Tb12  1  0.058972  0.436465  0.439402  1
  Lu  Lu13  1  0.811928  0.811801  0.188574  1
  Lu  Lu14  1  0.813681  0.188005  0.812155  1
  Lu  Lu15  1  0.187356  0.187744  0.812404  1
  Tl  Tl16  1  0.415299  0.414135  0.413733  1
  Tl  Tl17  1  0.416239  0.416332  0.755442  1
  Tl  Tl18  1  0.415754  0.756465  0.415841  1
  In  In19  1  0.749492  0.418531  0.418297  1
  Rh  Rh20  1  0.861498  0.424196  0.856692  1
  Rh  Rh21  1  0.855416  0.859680  0.860103  1
  Rh  Rh22  1  0.857791  0.857183  0.426559  1
  Rh  Rh23  1  0.427574  0.862281  0.857498  1
