# generated using pymatgen
data_SrVNi(Sb6Os)2
_symmetry_space_group_name_H-M   'P 1'
_cell_length_a   8.17903387
_cell_length_b   8.11954440
_cell_length_c   8.25619220
_cell_angle_alpha   109.57154094
_cell_angle_beta   109.67640981
_cell_angle_gamma   108.95876467
_symmetry_Int_Tables_number   1
_chemical_formula_structural   SrVNi(Sb6Os)2
_chemical_formula_sum   'Sr1 V1 Ni1 Sb12 Os2'
_cell_volume   423.13692470
_cell_formula_units_Z   1
loop_
 _symmetry_equiv_pos_site_id
 _symmetry_equiv_pos_as_xyz
  1  'x, y, z'
loop_
 _atom_site_type_symbol
 _atom_site_label
 _atom_site_symmetry_multiplicity
 _atom_site_fract_x
 _atom_site_fract_y
 _atom_site_fract_z
 _atom_site_occupancy
  Sr  Sr0  1  0.000000  0.000000  0.000000  1
  V  V1  1  0.000000  0.500000  0.000000  1
  Ni  Ni2  1  0.000000  0.000000  0.500000  1
  Sb  Sb3  1  0.337743  0.183698  0.841280  1
  Sb  Sb4  1  0.662257  0.816302  0.158720  1
  Sb  Sb5  1  0.654854  0.499921  0.837802  1
  Sb  Sb6  1  0.345146  0.500079  0.162198  1
  Sb  Sb7  1  0.186368  0.850213  0.349370  1
  Sb  Sb8  1  0.813632  0.149787  0.650630  1
  Sb  Sb9  1  0.504043  0.844549  0.662528  1
  Sb  Sb10  1  0.495957  0.155451  0.337472  1
  Sb  Sb11  1  0.839770  0.339201  0.184376  1
  Sb  Sb12  1  0.160230  0.660799  0.815624  1
  Sb  Sb13  1  0.844513  0.661464  0.503798  1
  Sb  Sb14  1  0.155487  0.338536  0.496202  1
  Os  Os15  1  0.500000  0.000000  0.000000  1
  Os  Os16  1  0.500000  0.500000  0.500000  1
