# generated using pymatgen
data_SmPu3(AlSi2)2
_symmetry_space_group_name_H-M   'P 1'
_cell_length_a   6.81206277
_cell_length_b   6.81206287
_cell_length_c   4.39746900
_cell_angle_alpha   90.00000000
_cell_angle_beta   90.00000000
_cell_angle_gamma   88.78967469
_symmetry_Int_Tables_number   1
_chemical_formula_structural   SmPu3(AlSi2)2
_chemical_formula_sum   'Sm1 Pu3 Al2 Si4'
_cell_volume   204.01550316
_cell_formula_units_Z   1
loop_
 _symmetry_equiv_pos_site_id
 _symmetry_equiv_pos_as_xyz
  1  'x, y, z'
loop_
 _atom_site_type_symbol
 _atom_site_label
 _atom_site_symmetry_multiplicity
 _atom_site_fract_x
 _atom_site_fract_y
 _atom_site_fract_z
 _atom_site_occupancy
  Sm  Sm0  1  0.675502  0.175502  0.500000  1
  Pu  Pu1  1  0.321700  0.821700  0.500000  1
  Pu  Pu2  1  0.828883  0.673531  0.500000  1
  Pu  Pu3  1  0.173531  0.328883  0.500000  1
  Al  Al4  1  0.498810  0.501464  0.000000  1
  Al  Al5  1  0.001464  0.998810  0.000000  1
  Si  Si6  1  0.622819  0.871016  0.000000  1
  Si  Si7  1  0.879346  0.379346  0.000000  1
  Si  Si8  1  0.371016  0.122819  0.000000  1
  Si  Si9  1  0.126928  0.626928  0.000000  1
