# generated using pymatgen
data_Ho3Er13(In3Os)2
_symmetry_space_group_name_H-M   'P 1'
_cell_length_a   10.32008100
_cell_length_b   10.32008134
_cell_length_c   7.02784700
_cell_angle_alpha   90.00000000
_cell_angle_beta   90.00000000
_cell_angle_gamma   119.99999569
_symmetry_Int_Tables_number   1
_chemical_formula_structural   Ho3Er13(In3Os)2
_chemical_formula_sum   'Ho3 Er13 In6 Os2'
_cell_volume   648.21514695
_cell_formula_units_Z   1
loop_
 _symmetry_equiv_pos_site_id
 _symmetry_equiv_pos_as_xyz
  1  'x, y, z'
loop_
 _atom_site_type_symbol
 _atom_site_label
 _atom_site_symmetry_multiplicity
 _atom_site_fract_x
 _atom_site_fract_y
 _atom_site_fract_z
 _atom_site_occupancy
  Ho  Ho0  1  0.532767  0.065534  0.793821  1
  Ho  Ho1  1  0.934466  0.467233  0.793821  1
  Ho  Ho2  1  0.532767  0.467233  0.793821  1
  Er  Er3  1  0.467032  0.934063  0.293798  1
  Er  Er4  1  0.065937  0.532968  0.293798  1
  Er  Er5  1  0.467032  0.532968  0.293798  1
  Er  Er6  1  0.822791  0.645582  0.499089  1
  Er  Er7  1  0.354418  0.177209  0.499089  1
  Er  Er8  1  0.822791  0.177209  0.499089  1
  Er  Er9  1  0.177284  0.354569  0.999450  1
  Er  Er10  1  0.645431  0.822716  0.999450  1
  Er  Er11  1  0.177284  0.822716  0.999450  1
  Er  Er12  1  0.666667  0.333333  0.171734  1
  Er  Er13  1  0.333333  0.666667  0.671633  1
  Er  Er14  1  0.000000  0.000000  0.778277  1
  Er  Er15  1  0.000000  0.000000  0.278259  1
  In  In16  1  0.837093  0.674187  0.039583  1
  In  In17  1  0.325813  0.162907  0.039583  1
  In  In18  1  0.837093  0.162907  0.039583  1
  In  In19  1  0.162989  0.325976  0.539407  1
  In  In20  1  0.674024  0.837011  0.539407  1
  In  In21  1  0.162989  0.837011  0.539407  1
  Os  Os22  1  0.666667  0.333333  0.570042  1
  Os  Os23  1  0.333333  0.666667  0.070514  1
