# generated using pymatgen
data_Dy10CoHg2Ir3
_symmetry_space_group_name_H-M   'P 1'
_cell_length_a   8.58142512
_cell_length_b   8.58142463
_cell_length_c   8.64160300
_cell_angle_alpha   127.55223574
_cell_angle_beta   127.55223324
_cell_angle_gamma   76.84905424
_symmetry_Int_Tables_number   1
_chemical_formula_structural   Dy10CoHg2Ir3
_chemical_formula_sum   'Dy10 Co1 Hg2 Ir3'
_cell_volume   389.34792837
_cell_formula_units_Z   1
loop_
 _symmetry_equiv_pos_site_id
 _symmetry_equiv_pos_as_xyz
  1  'x, y, z'
loop_
 _atom_site_type_symbol
 _atom_site_label
 _atom_site_symmetry_multiplicity
 _atom_site_fract_x
 _atom_site_fract_y
 _atom_site_fract_z
 _atom_site_occupancy
  Dy  Dy0  1  0.000289  0.000535  0.000825  1
  Dy  Dy1  1  0.499465  0.499711  0.999175  1
  Dy  Dy2  1  0.793209  0.296460  0.818240  1
  Dy  Dy3  1  0.203540  0.706791  0.181761  1
  Dy  Dy4  1  0.474970  0.978220  0.181761  1
  Dy  Dy5  1  0.299934  0.467643  0.500000  1
  Dy  Dy6  1  0.032357  0.200066  0.500000  1
  Dy  Dy7  1  0.521780  0.025030  0.818239  1
  Dy  Dy8  1  0.703498  0.526059  0.500000  1
  Dy  Dy9  1  0.973941  0.796502  0.500000  1
  Co  Co10  1  0.362976  0.137024  0.500000  1
  Hg  Hg11  1  0.249224  0.250776  0.000000  1
  Hg  Hg12  1  0.749224  0.750776  0.000000  1
  Ir  Ir13  1  0.140484  0.639100  0.779585  1
  Ir  Ir14  1  0.860900  0.359516  0.220415  1
  Ir  Ir15  1  0.634211  0.865789  0.500000  1
