# generated using pymatgen
data_GdY(ClO4)6
_symmetry_space_group_name_H-M   'P 1'
_cell_length_a   9.73324200
_cell_length_b   9.73324164
_cell_length_c   5.61381600
_cell_angle_alpha   90.00000000
_cell_angle_beta   90.00000000
_cell_angle_gamma   119.99999441
_symmetry_Int_Tables_number   1
_chemical_formula_structural   GdY(ClO4)6
_chemical_formula_sum   'Gd1 Y1 Cl6 O24'
_cell_volume   460.57870805
_cell_formula_units_Z   1
loop_
 _symmetry_equiv_pos_site_id
 _symmetry_equiv_pos_as_xyz
  1  'x, y, z'
loop_
 _atom_site_type_symbol
 _atom_site_label
 _atom_site_symmetry_multiplicity
 _atom_site_fract_x
 _atom_site_fract_y
 _atom_site_fract_z
 _atom_site_occupancy
  Gd  Gd0  1  0.666667  0.333333  0.250000  1
  Y  Y1  1  0.333333  0.666667  0.750000  1
  Cl  Cl2  1  0.908438  0.299497  0.750000  1
  Cl  Cl3  1  0.097294  0.701998  0.250000  1
  Cl  Cl4  1  0.391058  0.091562  0.750000  1
  Cl  Cl5  1  0.604705  0.902706  0.250000  1
  Cl  Cl6  1  0.700503  0.608942  0.750000  1
  Cl  Cl7  1  0.298002  0.395295  0.250000  1
  O  O8  1  0.852943  0.348880  0.960870  1
  O  O9  1  0.150994  0.651094  0.039052  1
  O  O10  1  0.495936  0.147057  0.960870  1
  O  O11  1  0.150994  0.651094  0.460948  1
  O  O12  1  0.500099  0.849006  0.039052  1
  O  O13  1  0.852943  0.348880  0.539130  1
  O  O14  1  0.651120  0.504064  0.960870  1
  O  O15  1  0.500099  0.849006  0.460948  1
  O  O16  1  0.348906  0.499901  0.039052  1
  O  O17  1  0.495936  0.147057  0.539130  1
  O  O18  1  0.348906  0.499901  0.460948  1
  O  O19  1  0.651120  0.504064  0.539130  1
  O  O20  1  0.849938  0.133369  0.750000  1
  O  O21  1  0.158481  0.868657  0.250000  1
  O  O22  1  0.283430  0.150062  0.750000  1
  O  O23  1  0.710176  0.841519  0.250000  1
  O  O24  1  0.866631  0.716570  0.750000  1
  O  O25  1  0.131343  0.289824  0.250000  1
  O  O26  1  0.612117  0.692592  0.750000  1
  O  O27  1  0.384189  0.309544  0.250000  1
  O  O28  1  0.080476  0.387883  0.750000  1
  O  O29  1  0.925355  0.615811  0.250000  1
  O  O30  1  0.307408  0.919524  0.750000  1
  O  O31  1  0.690456  0.074645  0.250000  1
