# generated using pymatgen
data_Tb9Th3Co4
_symmetry_space_group_name_H-M   'P 1'
_cell_length_a   6.91647598
_cell_length_b   9.63452400
_cell_length_c   6.34773440
_cell_angle_alpha   90.00000000
_cell_angle_beta   88.90908889
_cell_angle_gamma   90.00000000
_symmetry_Int_Tables_number   1
_chemical_formula_structural   Tb9Th3Co4
_chemical_formula_sum   'Tb9 Th3 Co4'
_cell_volume   422.91701409
_cell_formula_units_Z   1
loop_
 _symmetry_equiv_pos_site_id
 _symmetry_equiv_pos_as_xyz
  1  'x, y, z'
loop_
 _atom_site_type_symbol
 _atom_site_label
 _atom_site_symmetry_multiplicity
 _atom_site_fract_x
 _atom_site_fract_y
 _atom_site_fract_z
 _atom_site_occupancy
  Tb  Tb0  1  0.171170  0.069435  0.175858  1
  Tb  Tb1  1  0.171170  0.430565  0.175858  1
  Tb  Tb2  1  0.672548  0.071398  0.324516  1
  Tb  Tb3  1  0.672548  0.428602  0.324516  1
  Tb  Tb4  1  0.328145  0.569248  0.670443  1
  Tb  Tb5  1  0.328145  0.930752  0.670443  1
  Tb  Tb6  1  0.827655  0.568778  0.828184  1
  Tb  Tb7  1  0.827655  0.931222  0.828184  1
  Tb  Tb8  1  0.545852  0.250000  0.855165  1
  Th  Th9  1  0.444514  0.750000  0.153654  1
  Th  Th10  1  0.944605  0.750000  0.343016  1
  Th  Th11  1  0.053167  0.250000  0.658330  1
  Co  Co12  1  0.890542  0.250000  0.031583  1
  Co  Co13  1  0.367716  0.250000  0.461944  1
  Co  Co14  1  0.626865  0.750000  0.531023  1
  Co  Co15  1  0.127703  0.750000  0.967281  1
