# generated using pymatgen
data_Tm5Hf(Si3Pt2)4
_symmetry_space_group_name_H-M   'P 1'
_cell_length_a   4.20957700
_cell_length_b   8.49692953
_cell_length_c   12.90756800
_cell_angle_alpha   80.41651748
_cell_angle_beta   90.00000000
_cell_angle_gamma   90.00000000
_symmetry_Int_Tables_number   1
_chemical_formula_structural   Tm5Hf(Si3Pt2)4
_chemical_formula_sum   'Tm5 Hf1 Si12 Pt8'
_cell_volume   455.24084714
_cell_formula_units_Z   1
loop_
 _symmetry_equiv_pos_site_id
 _symmetry_equiv_pos_as_xyz
  1  'x, y, z'
loop_
 _atom_site_type_symbol
 _atom_site_label
 _atom_site_symmetry_multiplicity
 _atom_site_fract_x
 _atom_site_fract_y
 _atom_site_fract_z
 _atom_site_occupancy
  Tm  Tm0  1  0.250000  0.584035  0.188221  1
  Tm  Tm1  1  0.750000  0.233391  0.561548  1
  Tm  Tm2  1  0.750000  0.414441  0.812817  1
  Tm  Tm3  1  0.750000  0.928630  0.813859  1
  Tm  Tm4  1  0.250000  0.072552  0.186045  1
  Hf  Hf5  1  0.250000  0.767585  0.434668  1
  Si  Si6  1  0.750000  0.591621  0.567584  1
  Si  Si7  1  0.750000  0.124290  0.006146  1
  Si  Si8  1  0.750000  0.871730  0.569910  1
  Si  Si9  1  0.250000  0.696031  0.715427  1
  Si  Si10  1  0.750000  0.303634  0.286472  1
  Si  Si11  1  0.750000  0.803714  0.279669  1
  Si  Si12  1  0.250000  0.875425  0.995636  1
  Si  Si13  1  0.250000  0.196005  0.721537  1
  Si  Si14  1  0.250000  0.378238  0.001237  1
  Si  Si15  1  0.250000  0.125178  0.427303  1
  Si  Si16  1  0.750000  0.621353  0.000535  1
  Si  Si17  1  0.250000  0.412397  0.429877  1
  Pt  Pt18  1  0.750000  0.351207  0.099764  1
  Pt  Pt19  1  0.250000  0.969465  0.621726  1
  Pt  Pt20  1  0.750000  0.848104  0.091916  1
  Pt  Pt21  1  0.750000  0.026266  0.377620  1
  Pt  Pt22  1  0.250000  0.648863  0.901432  1
  Pt  Pt23  1  0.250000  0.151560  0.909520  1
  Pt  Pt24  1  0.750000  0.534105  0.378065  1
  Pt  Pt25  1  0.250000  0.470180  0.621467  1
