# generated using pymatgen
data_HoTm9Zn3Ru
_symmetry_space_group_name_H-M   'P 1'
_cell_length_a   9.27674131
_cell_length_b   9.27649728
_cell_length_c   9.50806700
_cell_angle_alpha   90.00121251
_cell_angle_beta   90.00009930
_cell_angle_gamma   119.97115098
_symmetry_Int_Tables_number   1
_chemical_formula_structural   HoTm9Zn3Ru
_chemical_formula_sum   'Ho2 Tm18 Zn6 Ru2'
_cell_volume   708.80783505
_cell_formula_units_Z   2
loop_
 _symmetry_equiv_pos_site_id
 _symmetry_equiv_pos_as_xyz
  1  'x, y, z'
loop_
 _atom_site_type_symbol
 _atom_site_label
 _atom_site_symmetry_multiplicity
 _atom_site_fract_x
 _atom_site_fract_y
 _atom_site_fract_z
 _atom_site_occupancy
  Ho  Ho0  1  0.459288  0.918066  0.749994  1
  Ho  Ho1  1  0.081924  0.540700  0.749996  1
  Tm  Tm2  1  0.999996  0.999997  0.499969  1
  Tm  Tm3  1  0.999998  0.999996  0.000037  1
  Tm  Tm4  1  0.207593  0.792417  0.442032  1
  Tm  Tm5  1  0.207810  0.415263  0.442150  1
  Tm  Tm6  1  0.584735  0.792195  0.442156  1
  Tm  Tm7  1  0.792348  0.207668  0.557329  1
  Tm  Tm8  1  0.792038  0.584637  0.557468  1
  Tm  Tm9  1  0.415348  0.207959  0.557463  1
  Tm  Tm10  1  0.792347  0.207667  0.942685  1
  Tm  Tm11  1  0.792039  0.584646  0.942526  1
  Tm  Tm12  1  0.415360  0.207966  0.942536  1
  Tm  Tm13  1  0.207579  0.792411  0.057963  1
  Tm  Tm14  1  0.207805  0.415263  0.057847  1
  Tm  Tm15  1  0.584736  0.792185  0.057854  1
  Tm  Tm16  1  0.541156  0.458860  0.249993  1
  Tm  Tm17  1  0.541103  0.082163  0.249995  1
  Tm  Tm18  1  0.917824  0.458891  0.250000  1
  Tm  Tm19  1  0.459257  0.540751  0.750001  1
  Zn  Zn20  1  0.885845  0.114154  0.249997  1
  Zn  Zn21  1  0.885740  0.771710  0.249999  1
  Zn  Zn22  1  0.228291  0.114259  0.250001  1
  Zn  Zn23  1  0.113854  0.886148  0.749999  1
  Zn  Zn24  1  0.114229  0.228065  0.750001  1
  Zn  Zn25  1  0.771932  0.885768  0.750002  1
  Ru  Ru26  1  0.333268  0.666744  0.250004  1
  Ru  Ru27  1  0.666556  0.333451  0.750007  1
