# generated using pymatgen
data_K3PaSe4
_symmetry_space_group_name_H-M   'P 1'
_cell_length_a   8.52274873
_cell_length_b   8.52274870
_cell_length_c   8.52274827
_cell_angle_alpha   102.03921203
_cell_angle_beta   102.03921230
_cell_angle_gamma   102.03922569
_symmetry_Int_Tables_number   1
_chemical_formula_structural   K3PaSe4
_chemical_formula_sum   'K6 Pa2 Se8'
_cell_volume   571.20061301
_cell_formula_units_Z   2
loop_
 _symmetry_equiv_pos_site_id
 _symmetry_equiv_pos_as_xyz
  1  'x, y, z'
loop_
 _atom_site_type_symbol
 _atom_site_label
 _atom_site_symmetry_multiplicity
 _atom_site_fract_x
 _atom_site_fract_y
 _atom_site_fract_z
 _atom_site_occupancy
  K  K0  1  0.447902  0.001826  0.575963  1
  K  K1  1  0.575963  0.447902  0.001826  1
  K  K2  1  0.001826  0.575963  0.447902  1
  K  K3  1  0.075963  0.501826  0.947902  1
  K  K4  1  0.947902  0.075963  0.501826  1
  K  K5  1  0.501826  0.947902  0.075963  1
  Pa  Pa6  1  0.952482  0.952482  0.952482  1
  Pa  Pa7  1  0.452482  0.452482  0.452482  1
  Se  Se8  1  0.170521  0.881347  0.780613  1
  Se  Se9  1  0.700846  0.700846  0.700846  1
  Se  Se10  1  0.280613  0.381347  0.670521  1
  Se  Se11  1  0.780613  0.170521  0.881347  1
  Se  Se12  1  0.881347  0.780613  0.170521  1
  Se  Se13  1  0.381347  0.670521  0.280613  1
  Se  Se14  1  0.670521  0.280613  0.381347  1
  Se  Se15  1  0.200846  0.200846  0.200846  1
