# generated using pymatgen
data_Ba11Na12Sr
_symmetry_space_group_name_H-M   'P 1'
_cell_length_a   11.83565980
_cell_length_b   11.93379788
_cell_length_c   11.93379859
_cell_angle_alpha   60.54434074
_cell_angle_beta   60.27166280
_cell_angle_gamma   60.27166362
_symmetry_Int_Tables_number   1
_chemical_formula_structural   Ba11Na12Sr
_chemical_formula_sum   'Ba11 Na12 Sr1'
_cell_volume   1201.64311262
_cell_formula_units_Z   1
loop_
 _symmetry_equiv_pos_site_id
 _symmetry_equiv_pos_as_xyz
  1  'x, y, z'
loop_
 _atom_site_type_symbol
 _atom_site_label
 _atom_site_symmetry_multiplicity
 _atom_site_fract_x
 _atom_site_fract_y
 _atom_site_fract_z
 _atom_site_occupancy
  Ba  Ba0  1  0.943385  0.941152  0.558647  1
  Ba  Ba1  1  0.807552  0.192448  0.192448  1
  Ba  Ba2  1  0.556816  0.558647  0.941152  1
  Ba  Ba3  1  0.809123  0.190373  0.808434  1
  Ba  Ba4  1  0.558356  0.941644  0.941644  1
  Ba  Ba5  1  0.192070  0.808434  0.190373  1
  Ba  Ba6  1  0.941813  0.558187  0.558187  1
  Ba  Ba7  1  0.809123  0.808434  0.190373  1
  Ba  Ba8  1  0.943385  0.558647  0.941152  1
  Ba  Ba9  1  0.192070  0.190373  0.808434  1
  Ba  Ba10  1  0.556816  0.941152  0.558647  1
  Na  Na11  1  0.578578  0.263721  0.579124  1
  Na  Na12  1  0.486696  0.171029  0.171029  1
  Na  Na13  1  0.577999  0.579375  0.579375  1
  Na  Na14  1  0.171560  0.169798  0.487080  1
  Na  Na15  1  0.263251  0.579375  0.579375  1
  Na  Na16  1  0.171560  0.487080  0.169798  1
  Na  Na17  1  0.578578  0.579124  0.263721  1
  Na  Na18  1  0.171245  0.171029  0.171029  1
  Na  Na19  1  0.374908  0.375025  0.375025  1
  Na  Na20  1  0.374612  0.375965  0.874810  1
  Na  Na21  1  0.374612  0.874810  0.375965  1
  Na  Na22  1  0.875041  0.375025  0.375025  1
  Sr  Sr23  1  0.190849  0.809151  0.809151  1
