# generated using pymatgen
data_Li2Cd(Ni10P3)2
_symmetry_space_group_name_H-M   'P 1'
_cell_length_a   7.82261398
_cell_length_b   7.82261380
_cell_length_c   7.82261400
_cell_angle_alpha   60.00000759
_cell_angle_beta   60.00000836
_cell_angle_gamma   60.00000725
_symmetry_Int_Tables_number   1
_chemical_formula_structural   Li2Cd(Ni10P3)2
_chemical_formula_sum   'Li2 Cd1 Ni20 P6'
_cell_volume   338.48604503
_cell_formula_units_Z   1
loop_
 _symmetry_equiv_pos_site_id
 _symmetry_equiv_pos_as_xyz
  1  'x, y, z'
loop_
 _atom_site_type_symbol
 _atom_site_label
 _atom_site_symmetry_multiplicity
 _atom_site_fract_x
 _atom_site_fract_y
 _atom_site_fract_z
 _atom_site_occupancy
  Li  Li0  1  0.000000  0.000000  0.000000  1
  Li  Li1  1  0.250000  0.250000  0.250000  1
  Cd  Cd2  1  0.750000  0.750000  0.750000  1
  Ni  Ni3  1  0.382706  0.382706  0.851885  1
  Ni  Ni4  1  0.614447  0.614447  0.614446  1
  Ni  Ni5  1  0.001017  0.347434  0.001017  1
  Ni  Ni6  1  0.347434  0.001017  0.001017  1
  Ni  Ni7  1  0.001017  0.347434  0.650532  1
  Ni  Ni8  1  0.851885  0.382706  0.382705  1
  Ni  Ni9  1  0.347434  0.001017  0.650532  1
  Ni  Ni10  1  0.001017  0.001017  0.347434  1
  Ni  Ni11  1  0.650532  0.347434  0.001017  1
  Ni  Ni12  1  0.001017  0.650532  0.347434  1
  Ni  Ni13  1  0.001017  0.001017  0.650532  1
  Ni  Ni14  1  0.347434  0.650532  0.001017  1
  Ni  Ni15  1  0.650532  0.001017  0.001017  1
  Ni  Ni16  1  0.001017  0.650532  0.001017  1
  Ni  Ni17  1  0.382706  0.851886  0.382706  1
  Ni  Ni18  1  0.614446  0.614447  0.156660  1
  Ni  Ni19  1  0.614446  0.156661  0.614446  1
  Ni  Ni20  1  0.156661  0.614447  0.614447  1
  Ni  Ni21  1  0.382705  0.382706  0.382705  1
  Ni  Ni22  1  0.650532  0.001017  0.347434  1
  P  P23  1  0.263789  0.263789  0.736211  1
  P  P24  1  0.736211  0.736211  0.263789  1
  P  P25  1  0.736211  0.263789  0.263789  1
  P  P26  1  0.263789  0.736211  0.736211  1
  P  P27  1  0.263789  0.736211  0.263789  1
  P  P28  1  0.736211  0.263789  0.736211  1
