# generated using pymatgen
data_Na4TmOsO6
_symmetry_space_group_name_H-M   'P 1'
_cell_length_a   5.63315883
_cell_length_b   5.63315810
_cell_length_c   5.81938707
_cell_angle_alpha   99.43332458
_cell_angle_beta   99.43347936
_cell_angle_gamma   119.92650479
_symmetry_Int_Tables_number   1
_chemical_formula_structural   Na4TmOsO6
_chemical_formula_sum   'Na4 Tm1 Os1 O6'
_cell_volume   151.21893626
_cell_formula_units_Z   1
loop_
 _symmetry_equiv_pos_site_id
 _symmetry_equiv_pos_as_xyz
  1  'x, y, z'
loop_
 _atom_site_type_symbol
 _atom_site_label
 _atom_site_symmetry_multiplicity
 _atom_site_fract_x
 _atom_site_fract_y
 _atom_site_fract_z
 _atom_site_occupancy
  Na  Na0  1  0.499102  0.500898  0.000000  1
  Na  Na1  1  0.011267  0.988734  0.500000  1
  Na  Na2  1  0.657040  0.342963  0.500001  1
  Na  Na3  1  0.337198  0.662803  0.500001  1
  Tm  Tm4  1  0.832866  0.167135  0.999999  1
  Os  Os5  1  0.166874  0.833128  0.000001  1
  O  O6  1  0.950326  0.598471  0.207506  1
  O  O7  1  0.540341  0.923418  0.211850  1
  O  O8  1  0.217710  0.190831  0.212340  1
  O  O9  1  0.809169  0.782290  0.787660  1
  O  O10  1  0.076584  0.459660  0.788153  1
  O  O11  1  0.401531  0.049676  0.792493  1
