# generated using pymatgen
data_Pr8Fe(Si4Ir)3
_symmetry_space_group_name_H-M   'P 1'
_cell_length_a   8.25417200
_cell_length_b   8.25417368
_cell_length_c   8.54547100
_cell_angle_alpha   90.00000000
_cell_angle_beta   90.00000000
_cell_angle_gamma   120.00000129
_symmetry_Int_Tables_number   1
_chemical_formula_structural   Pr8Fe(Si4Ir)3
_chemical_formula_sum   'Pr8 Fe1 Si12 Ir3'
_cell_volume   504.21266232
_cell_formula_units_Z   1
loop_
 _symmetry_equiv_pos_site_id
 _symmetry_equiv_pos_as_xyz
  1  'x, y, z'
loop_
 _atom_site_type_symbol
 _atom_site_label
 _atom_site_symmetry_multiplicity
 _atom_site_fract_x
 _atom_site_fract_y
 _atom_site_fract_z
 _atom_site_occupancy
  Pr  Pr0  1  0.500150  0.499850  0.747944  1
  Pr  Pr1  1  0.500425  0.499575  0.251493  1
  Pr  Pr2  1  0.999700  0.499850  0.747944  1
  Pr  Pr3  1  0.999151  0.499575  0.251493  1
  Pr  Pr4  1  0.500150  0.000300  0.747944  1
  Pr  Pr5  1  0.500425  0.000849  0.251493  1
  Pr  Pr6  1  0.000000  0.000000  0.749348  1
  Pr  Pr7  1  0.000000  0.000000  0.251244  1
  Fe  Fe8  1  0.666667  0.333333  0.502649  1
  Si  Si9  1  0.833307  0.166693  0.999562  1
  Si  Si10  1  0.167073  0.832927  0.000518  1
  Si  Si11  1  0.333385  0.166693  0.999562  1
  Si  Si12  1  0.166238  0.833762  0.499496  1
  Si  Si13  1  0.665854  0.832927  0.000518  1
  Si  Si14  1  0.828485  0.171515  0.500513  1
  Si  Si15  1  0.833307  0.666615  0.999562  1
  Si  Si16  1  0.667523  0.833762  0.499496  1
  Si  Si17  1  0.167073  0.334146  0.000518  1
  Si  Si18  1  0.343029  0.171515  0.500513  1
  Si  Si19  1  0.166238  0.332477  0.499496  1
  Si  Si20  1  0.828485  0.656971  0.500513  1
  Ir  Ir21  1  0.666667  0.333333  0.000205  1
  Ir  Ir22  1  0.333333  0.666667  0.998666  1
  Ir  Ir23  1  0.333333  0.666667  0.499305  1
