# generated using pymatgen
data_Sc4Al24Pd8Rh
_symmetry_space_group_name_H-M   'P 1'
_cell_length_a   7.45425585
_cell_length_b   7.47104140
_cell_length_c   13.04449900
_cell_angle_alpha   84.69616812
_cell_angle_beta   79.15715755
_cell_angle_gamma   59.93762997
_symmetry_Int_Tables_number   1
_chemical_formula_structural   Sc4Al24Pd8Rh
_chemical_formula_sum   'Sc4 Al24 Pd8 Rh1'
_cell_volume   617.51234792
_cell_formula_units_Z   1
loop_
 _symmetry_equiv_pos_site_id
 _symmetry_equiv_pos_as_xyz
  1  'x, y, z'
loop_
 _atom_site_type_symbol
 _atom_site_label
 _atom_site_symmetry_multiplicity
 _atom_site_fract_x
 _atom_site_fract_y
 _atom_site_fract_z
 _atom_site_occupancy
  Sc  Sc0  1  0.393591  0.167862  0.810391  1
  Sc  Sc1  1  0.606409  0.832138  0.189609  1
  Sc  Sc2  1  0.732197  0.498630  0.810355  1
  Sc  Sc3  1  0.267803  0.501370  0.189645  1
  Al  Al4  1  0.684739  0.830526  0.943353  1
  Al  Al5  1  0.315261  0.169474  0.056647  1
  Al  Al6  1  0.145816  0.832940  0.562179  1
  Al  Al7  1  0.854184  0.167060  0.437821  1
  Al  Al8  1  0.479522  0.166848  0.560165  1
  Al  Al9  1  0.520478  0.833152  0.439835  1
  Al  Al10  1  0.221995  0.165531  0.321557  1
  Al  Al11  1  0.778005  0.834469  0.678443  1
  Al  Al12  1  0.436945  0.504139  0.678647  1
  Al  Al13  1  0.563055  0.495861  0.321353  1
  Al  Al14  1  0.107071  0.162949  0.676882  1
  Al  Al15  1  0.892929  0.837051  0.323118  1
  Al  Al16  1  0.353220  0.496197  0.943185  1
  Al  Al17  1  0.646780  0.503803  0.056815  1
  Al  Al18  1  0.016669  0.174175  0.950539  1
  Al  Al19  1  0.983331  0.825825  0.049461  1
  Al  Al20  1  0.187262  0.498952  0.439900  1
  Al  Al21  1  0.812738  0.501048  0.560100  1
  Al  Al22  1  0.729654  0.163181  0.182614  1
  Al  Al23  1  0.270346  0.836819  0.817386  1
  Al  Al24  1  0.060551  0.623034  0.818208  1
  Al  Al25  1  0.939449  0.376966  0.181792  1
  Al  Al26  1  0.850186  0.047374  0.817350  1
  Al  Al27  1  0.149814  0.952626  0.182651  1
  Pd  Pd28  1  0.120005  0.492246  0.639215  1
  Pd  Pd29  1  0.879995  0.507754  0.360785  1
  Pd  Pd30  1  0.657009  0.171573  0.999855  1
  Pd  Pd31  1  0.342991  0.828427  0.000145  1
  Pd  Pd32  1  0.537503  0.166634  0.361107  1
  Pd  Pd33  1  0.462497  0.833366  0.638893  1
  Pd  Pd34  1  0.778397  0.175284  0.637873  1
  Pd  Pd35  1  0.221603  0.824716  0.362127  1
  Rh  Rh36  1  0.000000  0.500000  0.000000  1
