# generated using pymatgen
data_TbCoNiB2C
_symmetry_space_group_name_H-M   'P 1'
_cell_length_a   3.54758707
_cell_length_b   3.54758697
_cell_length_c   5.72515549
_cell_angle_alpha   108.04866539
_cell_angle_beta   108.04866233
_cell_angle_gamma   89.99999370
_symmetry_Int_Tables_number   1
_chemical_formula_structural   TbCoNiB2C
_chemical_formula_sum   'Tb1 Co1 Ni1 B2 C1'
_cell_volume   64.76848710
_cell_formula_units_Z   1
loop_
 _symmetry_equiv_pos_site_id
 _symmetry_equiv_pos_as_xyz
  1  'x, y, z'
loop_
 _atom_site_type_symbol
 _atom_site_label
 _atom_site_symmetry_multiplicity
 _atom_site_fract_x
 _atom_site_fract_y
 _atom_site_fract_z
 _atom_site_occupancy
  Tb  Tb0  1  0.000000  0.000000  0.000000  1
  Co  Co1  1  0.749999  0.250000  0.499999  1
  Ni  Ni2  1  0.250000  0.749999  0.499999  1
  B  B3  1  0.646259  0.646259  0.292518  1
  B  B4  1  0.353741  0.353741  0.707483  1
  C  C5  1  0.499999  0.499999  0.000000  1
