# generated using pymatgen
data_Eu4InSiRh4
_symmetry_space_group_name_H-M   'P 1'
_cell_length_a   5.91219498
_cell_length_b   5.91219443
_cell_length_c   7.81124997
_cell_angle_alpha   78.61854446
_cell_angle_beta   78.61854680
_cell_angle_gamma   59.32960255
_symmetry_Int_Tables_number   1
_chemical_formula_structural   Eu4InSiRh4
_chemical_formula_sum   'Eu4 In1 Si1 Rh4'
_cell_volume   228.70520644
_cell_formula_units_Z   1
loop_
 _symmetry_equiv_pos_site_id
 _symmetry_equiv_pos_as_xyz
  1  'x, y, z'
loop_
 _atom_site_type_symbol
 _atom_site_label
 _atom_site_symmetry_multiplicity
 _atom_site_fract_x
 _atom_site_fract_y
 _atom_site_fract_z
 _atom_site_occupancy
  Eu  Eu0  1  0.780352  0.509182  0.351164  1
  Eu  Eu1  1  0.490818  0.219648  0.148836  1
  Eu  Eu2  1  0.210778  0.494875  0.643021  1
  Eu  Eu3  1  0.505125  0.789222  0.856979  1
  In  In4  1  0.874979  0.125021  0.750000  1
  Si  Si5  1  0.093018  0.906982  0.250000  1
  Rh  Rh6  1  0.021375  0.726491  0.030316  1
  Rh  Rh7  1  0.273509  0.978625  0.469684  1
  Rh  Rh8  1  0.013801  0.263757  0.016702  1
  Rh  Rh9  1  0.736243  0.986199  0.483298  1
