# generated using pymatgen
data_TbScGa3Cu
_symmetry_space_group_name_H-M   'P 1'
_cell_length_a   4.31248903
_cell_length_b   4.31244978
_cell_length_c   7.02762700
_cell_angle_alpha   89.99948429
_cell_angle_beta   90.00044266
_cell_angle_gamma   120.00107701
_symmetry_Int_Tables_number   1
_chemical_formula_structural   TbScGa3Cu
_chemical_formula_sum   'Tb1 Sc1 Ga3 Cu1'
_cell_volume   113.18442675
_cell_formula_units_Z   1
loop_
 _symmetry_equiv_pos_site_id
 _symmetry_equiv_pos_as_xyz
  1  'x, y, z'
loop_
 _atom_site_type_symbol
 _atom_site_label
 _atom_site_symmetry_multiplicity
 _atom_site_fract_x
 _atom_site_fract_y
 _atom_site_fract_z
 _atom_site_occupancy
  Tb  Tb0  1  0.000001  0.999993  0.257095  1
  Sc  Sc1  1  0.999998  0.000002  0.727501  1
  Ga  Ga2  1  0.333328  0.666681  0.498246  1
  Ga  Ga3  1  0.333339  0.666653  0.028438  1
  Ga  Ga4  1  0.666671  0.333320  0.935356  1
  Cu  Cu5  1  0.666663  0.333351  0.553363  1
