# generated using pymatgen
data_La2Sn4Pd3Rh
_symmetry_space_group_name_H-M   'P 1'
_cell_length_a   4.71817500
_cell_length_b   4.71817500
_cell_length_c   10.38368200
_cell_angle_alpha   90.00000000
_cell_angle_beta   90.00000000
_cell_angle_gamma   90.00000000
_symmetry_Int_Tables_number   1
_chemical_formula_structural   La2Sn4Pd3Rh
_chemical_formula_sum   'La2 Sn4 Pd3 Rh1'
_cell_volume   231.15296558
_cell_formula_units_Z   1
loop_
 _symmetry_equiv_pos_site_id
 _symmetry_equiv_pos_as_xyz
  1  'x, y, z'
loop_
 _atom_site_type_symbol
 _atom_site_label
 _atom_site_symmetry_multiplicity
 _atom_site_fract_x
 _atom_site_fract_y
 _atom_site_fract_z
 _atom_site_occupancy
  La  La0  1  0.000000  0.500000  0.245611  1
  La  La1  1  0.500000  0.000000  0.751671  1
  Sn  Sn2  1  0.000000  0.000000  0.497254  1
  Sn  Sn3  1  0.500000  0.500000  0.497254  1
  Sn  Sn4  1  0.000000  0.500000  0.877610  1
  Sn  Sn5  1  0.500000  0.000000  0.126744  1
  Pd  Pd6  1  0.000000  0.000000  0.000742  1
  Pd  Pd7  1  0.500000  0.500000  0.000742  1
  Pd  Pd8  1  0.000000  0.500000  0.625833  1
  Rh  Rh9  1  0.500000  0.000000  0.376541  1
