# generated using pymatgen
data_Th4Si3Ge7Rh6
_symmetry_space_group_name_H-M   'P 1'
_cell_length_a   8.39029018
_cell_length_b   8.40307640
_cell_length_c   8.40307766
_cell_angle_alpha   137.42990662
_cell_angle_beta   106.37211997
_cell_angle_gamma   88.97302008
_symmetry_Int_Tables_number   1
_chemical_formula_structural   Th4Si3Ge7Rh6
_chemical_formula_sum   'Th4 Si3 Ge7 Rh6'
_cell_volume   367.75407428
_cell_formula_units_Z   1
loop_
 _symmetry_equiv_pos_site_id
 _symmetry_equiv_pos_as_xyz
  1  'x, y, z'
loop_
 _atom_site_type_symbol
 _atom_site_label
 _atom_site_symmetry_multiplicity
 _atom_site_fract_x
 _atom_site_fract_y
 _atom_site_fract_z
 _atom_site_occupancy
  Th  Th0  1  0.864902  0.630947  0.233956  1
  Th  Th1  1  0.136301  0.368120  0.768180  1
  Th  Th2  1  0.399619  0.132958  0.266661  1
  Th  Th3  1  0.600399  0.867944  0.732455  1
  Si  Si4  1  0.950853  0.102419  0.848433  1
  Si  Si5  1  0.744833  0.397143  0.347690  1
  Si  Si6  1  0.253658  0.602345  0.651313  1
  Ge  Ge7  1  0.500835  0.749963  0.249809  1
  Ge  Ge8  1  0.500835  0.251025  0.750872  1
  Ge  Ge9  1  0.225890  0.976565  0.752303  1
  Ge  Ge10  1  0.770905  0.519678  0.743974  1
  Ge  Ge11  1  0.770905  0.026931  0.251228  1
  Ge  Ge12  1  0.225890  0.473587  0.249326  1
  Ge  Ge13  1  0.050719  0.897423  0.153297  1
  Rh  Rh14  1  0.997971  0.747129  0.741393  1
  Rh  Rh15  1  0.997971  0.256578  0.250842  1
  Rh  Rh16  1  0.249486  0.859838  0.389648  1
  Rh  Rh17  1  0.757461  0.138918  0.618543  1
  Rh  Rh18  1  0.479975  0.361764  0.118210  1
  Rh  Rh19  1  0.520591  0.638724  0.881868  1
