# generated using pymatgen
data_Ce4Re7Si
_symmetry_space_group_name_H-M   'P 1'
_cell_length_a   5.45372327
_cell_length_b   5.28119386
_cell_length_c   8.97795400
_cell_angle_alpha   90.00000000
_cell_angle_beta   90.00000000
_cell_angle_gamma   118.95892292
_symmetry_Int_Tables_number   1
_chemical_formula_structural   Ce4Re7Si
_chemical_formula_sum   'Ce4 Re7 Si1'
_cell_volume   226.25296775
_cell_formula_units_Z   1
loop_
 _symmetry_equiv_pos_site_id
 _symmetry_equiv_pos_as_xyz
  1  'x, y, z'
loop_
 _atom_site_type_symbol
 _atom_site_label
 _atom_site_symmetry_multiplicity
 _atom_site_fract_x
 _atom_site_fract_y
 _atom_site_fract_z
 _atom_site_occupancy
  Ce  Ce0  1  0.333985  0.666992  0.064954  1
  Ce  Ce1  1  0.333985  0.666992  0.435047  1
  Ce  Ce2  1  0.664013  0.332007  0.559212  1
  Ce  Ce3  1  0.664013  0.332007  0.940788  1
  Re  Re4  1  0.009300  0.004650  0.003361  1
  Re  Re5  1  0.833879  0.171148  0.250000  1
  Re  Re6  1  0.833878  0.662729  0.250000  1
  Re  Re7  1  0.009300  0.004650  0.496639  1
  Re  Re8  1  0.162985  0.336347  0.750001  1
  Re  Re9  1  0.162985  0.826638  0.750001  1
  Re  Re10  1  0.649877  0.824938  0.750001  1
  Si  Si11  1  0.341804  0.170902  0.250000  1
