# generated using pymatgen
data_Ho2Pa(GaCo)3
_symmetry_space_group_name_H-M   'P 1'
_cell_length_a   7.03735481
_cell_length_b   7.03735587
_cell_length_c   3.60714600
_cell_angle_alpha   90.00000000
_cell_angle_beta   90.00000000
_cell_angle_gamma   118.48818862
_symmetry_Int_Tables_number   1
_chemical_formula_structural   Ho2Pa(GaCo)3
_chemical_formula_sum   'Ho2 Pa1 Ga3 Co3'
_cell_volume   157.01089363
_cell_formula_units_Z   1
loop_
 _symmetry_equiv_pos_site_id
 _symmetry_equiv_pos_as_xyz
  1  'x, y, z'
loop_
 _atom_site_type_symbol
 _atom_site_label
 _atom_site_symmetry_multiplicity
 _atom_site_fract_x
 _atom_site_fract_y
 _atom_site_fract_z
 _atom_site_occupancy
  Ho  Ho0  1  0.412644  0.002683  0.000000  1
  Ho  Ho1  1  0.002683  0.412644  0.000000  1
  Pa  Pa2  1  0.574526  0.574526  0.000000  1
  Ga  Ga3  1  0.004676  0.751242  0.500000  1
  Ga  Ga4  1  0.232455  0.232455  0.500000  1
  Ga  Ga5  1  0.751242  0.004676  0.500000  1
  Co  Co6  1  0.987750  0.987750  0.000000  1
  Co  Co7  1  0.662620  0.371403  0.500000  1
  Co  Co8  1  0.371403  0.662620  0.500000  1
