# generated using pymatgen
data_La3PrAl5Br2
_symmetry_space_group_name_H-M   'P 1'
_cell_length_a   11.84598532
_cell_length_b   11.84474849
_cell_length_c   4.34748900
_cell_angle_alpha   90.00000000
_cell_angle_beta   90.00000000
_cell_angle_gamma   93.61328882
_symmetry_Int_Tables_number   1
_chemical_formula_structural   La3PrAl5Br2
_chemical_formula_sum   'La6 Pr2 Al10 Br4'
_cell_volume   608.79538105
_cell_formula_units_Z   2
loop_
 _symmetry_equiv_pos_site_id
 _symmetry_equiv_pos_as_xyz
  1  'x, y, z'
loop_
 _atom_site_type_symbol
 _atom_site_label
 _atom_site_symmetry_multiplicity
 _atom_site_fract_x
 _atom_site_fract_y
 _atom_site_fract_z
 _atom_site_occupancy
  La  La0  1  0.039614  0.677619  0.500000  1
  La  La1  1  0.960392  0.324074  0.500000  1
  La  La2  1  0.265424  0.265851  0.000000  1
  La  La3  1  0.636250  0.364392  0.000000  1
  La  La4  1  0.677023  0.038656  0.500000  1
  La  La5  1  0.323430  0.959454  0.500000  1
  Pr  Pr6  1  0.733226  0.733689  0.000000  1
  Pr  Pr7  1  0.364967  0.635807  0.000000  1
  Al  Al8  1  0.579750  0.580191  0.500000  1
  Al  Al9  1  0.420620  0.421152  0.500000  1
  Al  Al10  1  0.216714  0.480865  0.500000  1
  Al  Al11  1  0.783866  0.520787  0.500000  1
  Al  Al12  1  0.528821  0.896725  0.000000  1
  Al  Al13  1  0.519834  0.783204  0.500000  1
  Al  Al14  1  0.471445  0.101887  0.000000  1
  Al  Al15  1  0.102398  0.472187  0.000000  1
  Al  Al16  1  0.479901  0.216035  0.500000  1
  Al  Al17  1  0.897262  0.529554  0.000000  1
  Br  Br18  1  0.876043  0.875963  0.500000  1
  Br  Br19  1  0.173392  0.826586  0.000000  1
  Br  Br20  1  0.122519  0.122436  0.500000  1
  Br  Br21  1  0.827109  0.172886  0.000000  1
