# generated using pymatgen
data_Yb3TiCd2Pt3
_symmetry_space_group_name_H-M   'P 1'
_cell_length_a   7.05530900
_cell_length_b   7.32285831
_cell_length_c   4.28574400
_cell_angle_alpha   90.00000000
_cell_angle_beta   90.00000000
_cell_angle_gamma   118.79858130
_symmetry_Int_Tables_number   1
_chemical_formula_structural   Yb3TiCd2Pt3
_chemical_formula_sum   'Yb3 Ti1 Cd2 Pt3'
_cell_volume   194.03716904
_cell_formula_units_Z   1
loop_
 _symmetry_equiv_pos_site_id
 _symmetry_equiv_pos_as_xyz
  1  'x, y, z'
loop_
 _atom_site_type_symbol
 _atom_site_label
 _atom_site_symmetry_multiplicity
 _atom_site_fract_x
 _atom_site_fract_y
 _atom_site_fract_z
 _atom_site_occupancy
  Yb  Yb0  1  0.411023  0.422080  0.000000  1
  Yb  Yb1  1  0.597487  0.000000  0.000000  1
  Yb  Yb2  1  0.988942  0.577920  0.000000  1
  Ti  Ti3  1  0.246490  0.000000  0.500000  1
  Cd  Cd4  1  0.001537  0.247254  0.500000  1
  Cd  Cd5  1  0.754283  0.752746  0.500000  1
  Pt  Pt6  1  0.630879  0.310456  0.500000  1
  Pt  Pt7  1  0.048937  0.000000  0.000000  1
  Pt  Pt8  1  0.320421  0.689544  0.500000  1
