# generated using pymatgen
data_YHo4(In2Au)2
_symmetry_space_group_name_H-M   'P 1'
_cell_length_a   3.66164400
_cell_length_b   8.20733700
_cell_length_c   18.43016900
_cell_angle_alpha   90.00000000
_cell_angle_beta   90.00000000
_cell_angle_gamma   90.00000000
_symmetry_Int_Tables_number   1
_chemical_formula_structural   YHo4(In2Au)2
_chemical_formula_sum   'Y2 Ho8 In8 Au4'
_cell_volume   553.86982082
_cell_formula_units_Z   2
loop_
 _symmetry_equiv_pos_site_id
 _symmetry_equiv_pos_as_xyz
  1  'x, y, z'
loop_
 _atom_site_type_symbol
 _atom_site_label
 _atom_site_symmetry_multiplicity
 _atom_site_fract_x
 _atom_site_fract_y
 _atom_site_fract_z
 _atom_site_occupancy
  Y  Y0  1  0.000000  0.500000  0.500000  1
  Y  Y1  1  0.000000  0.000000  0.000000  1
  Ho  Ho2  1  0.000000  0.736914  0.281487  1
  Ho  Ho3  1  0.000000  0.263086  0.718513  1
  Ho  Ho4  1  0.000000  0.763086  0.781487  1
  Ho  Ho5  1  0.000000  0.236914  0.218513  1
  Ho  Ho6  1  0.000000  0.618500  0.079868  1
  Ho  Ho7  1  0.000000  0.381500  0.920132  1
  Ho  Ho8  1  0.000000  0.881500  0.579868  1
  Ho  Ho9  1  0.000000  0.118500  0.420132  1
  In  In10  1  0.500000  0.711524  0.932560  1
  In  In11  1  0.500000  0.288476  0.067440  1
  In  In12  1  0.500000  0.788476  0.432560  1
  In  In13  1  0.500000  0.211524  0.567440  1
  In  In14  1  0.500000  0.580759  0.646995  1
  In  In15  1  0.500000  0.419241  0.353005  1
  In  In16  1  0.500000  0.919241  0.146995  1
  In  In17  1  0.500000  0.080759  0.853005  1
  Au  Au18  1  0.500000  0.526587  0.196315  1
  Au  Au19  1  0.500000  0.473413  0.803685  1
  Au  Au20  1  0.500000  0.973413  0.696315  1
  Au  Au21  1  0.500000  0.026587  0.303685  1
