# generated using pymatgen
data_TbY2Ho5(CdPd)2
_symmetry_space_group_name_H-M   'P 1'
_cell_length_a   9.67137574
_cell_length_b   9.67448175
_cell_length_c   9.67448250
_cell_angle_alpha   59.97876676
_cell_angle_beta   60.01061902
_cell_angle_gamma   60.01061912
_symmetry_Int_Tables_number   1
_chemical_formula_structural   TbY2Ho5(CdPd)2
_chemical_formula_sum   'Tb2 Y4 Ho10 Cd4 Pd4'
_cell_volume   640.07171768
_cell_formula_units_Z   2
loop_
 _symmetry_equiv_pos_site_id
 _symmetry_equiv_pos_as_xyz
  1  'x, y, z'
loop_
 _atom_site_type_symbol
 _atom_site_label
 _atom_site_symmetry_multiplicity
 _atom_site_fract_x
 _atom_site_fract_y
 _atom_site_fract_z
 _atom_site_occupancy
  Tb  Tb0  1  0.934867  0.565133  0.565133  1
  Tb  Tb1  1  0.565133  0.934867  0.934867  1
  Y  Y2  1  0.565140  0.934860  0.565140  1
  Y  Y3  1  0.934860  0.565140  0.934860  1
  Y  Y4  1  0.565140  0.565140  0.934860  1
  Y  Y5  1  0.934860  0.934860  0.565140  1
  Ho  Ho6  1  0.353757  0.353852  0.353852  1
  Ho  Ho7  1  0.353852  0.353757  0.938539  1
  Ho  Ho8  1  0.353852  0.938539  0.353757  1
  Ho  Ho9  1  0.938539  0.353852  0.353852  1
  Ho  Ho10  1  0.811171  0.188829  0.188829  1
  Ho  Ho11  1  0.188829  0.811171  0.811171  1
  Ho  Ho12  1  0.188809  0.811191  0.188809  1
  Ho  Ho13  1  0.811191  0.188809  0.811191  1
  Ho  Ho14  1  0.188809  0.188809  0.811191  1
  Ho  Ho15  1  0.811191  0.811191  0.188809  1
  Cd  Cd16  1  0.581756  0.582035  0.582035  1
  Cd  Cd17  1  0.582035  0.581756  0.254177  1
  Cd  Cd18  1  0.582035  0.254177  0.581756  1
  Cd  Cd19  1  0.254177  0.582035  0.582035  1
  Pd  Pd20  1  0.144446  0.144800  0.144800  1
  Pd  Pd21  1  0.144800  0.144446  0.565951  1
  Pd  Pd22  1  0.144800  0.565951  0.144446  1
  Pd  Pd23  1  0.565951  0.144800  0.144800  1
