# generated using pymatgen
data_YNp3PaPd15
_symmetry_space_group_name_H-M   'P 1'
_cell_length_a   4.18148500
_cell_length_b   4.18148500
_cell_length_c   20.85781900
_cell_angle_alpha   90.00000000
_cell_angle_beta   90.00000000
_cell_angle_gamma   90.00000000
_symmetry_Int_Tables_number   1
_chemical_formula_structural   YNp3PaPd15
_chemical_formula_sum   'Y1 Np3 Pa1 Pd15'
_cell_volume   364.69514417
_cell_formula_units_Z   1
loop_
 _symmetry_equiv_pos_site_id
 _symmetry_equiv_pos_as_xyz
  1  'x, y, z'
loop_
 _atom_site_type_symbol
 _atom_site_label
 _atom_site_symmetry_multiplicity
 _atom_site_fract_x
 _atom_site_fract_y
 _atom_site_fract_z
 _atom_site_occupancy
  Y  Y0  1  0.000000  0.000000  0.797735  1
  Np  Np1  1  0.000000  0.000000  0.201144  1
  Np  Np2  1  0.000000  0.000000  0.401338  1
  Np  Np3  1  0.000000  0.000000  0.601441  1
  Pa  Pa4  1  0.000000  0.000000  0.998441  1
  Pd  Pd5  1  0.500000  0.500000  0.999366  1
  Pd  Pd6  1  0.500000  0.500000  0.197396  1
  Pd  Pd7  1  0.500000  0.500000  0.399921  1
  Pd  Pd8  1  0.500000  0.500000  0.601199  1
  Pd  Pd9  1  0.500000  0.500000  0.802095  1
  Pd  Pd10  1  0.500000  0.000000  0.095413  1
  Pd  Pd11  1  0.500000  0.000000  0.299759  1
  Pd  Pd12  1  0.500000  0.000000  0.500666  1
  Pd  Pd13  1  0.500000  0.000000  0.700877  1
  Pd  Pd14  1  0.500000  0.000000  0.903248  1
  Pd  Pd15  1  0.000000  0.500000  0.095413  1
  Pd  Pd16  1  0.000000  0.500000  0.299759  1
  Pd  Pd17  1  0.000000  0.500000  0.500666  1
  Pd  Pd18  1  0.000000  0.500000  0.700877  1
  Pd  Pd19  1  0.000000  0.500000  0.903248  1
