# generated using pymatgen
data_SmYEr4(Co3P2)6
_symmetry_space_group_name_H-M   'P 1'
_cell_length_a   3.69030700
_cell_length_b   10.49477800
_cell_length_c   12.15318500
_cell_angle_alpha   90.00000000
_cell_angle_beta   90.00000000
_cell_angle_gamma   90.00000000
_symmetry_Int_Tables_number   1
_chemical_formula_structural   SmYEr4(Co3P2)6
_chemical_formula_sum   'Sm1 Y1 Er4 Co18 P12'
_cell_volume   470.68012722
_cell_formula_units_Z   1
loop_
 _symmetry_equiv_pos_site_id
 _symmetry_equiv_pos_as_xyz
  1  'x, y, z'
loop_
 _atom_site_type_symbol
 _atom_site_label
 _atom_site_symmetry_multiplicity
 _atom_site_fract_x
 _atom_site_fract_y
 _atom_site_fract_z
 _atom_site_occupancy
  Sm  Sm0  1  0.750000  0.250000  0.477741  1
  Y  Y1  1  0.250000  0.750000  0.521772  1
  Er  Er2  1  0.250000  0.932044  0.794360  1
  Er  Er3  1  0.250000  0.567956  0.794360  1
  Er  Er4  1  0.750000  0.067404  0.205356  1
  Er  Er5  1  0.750000  0.432596  0.205356  1
  Co  Co6  1  0.250000  0.250000  0.842730  1
  Co  Co7  1  0.750000  0.750000  0.158363  1
  Co  Co8  1  0.250000  0.250000  0.294546  1
  Co  Co9  1  0.750000  0.750000  0.704438  1
  Co  Co10  1  0.750000  0.250000  0.013478  1
  Co  Co11  1  0.250000  0.750000  0.986023  1
  Co  Co12  1  0.250000  0.416966  0.005311  1
  Co  Co13  1  0.250000  0.083034  0.005311  1
  Co  Co14  1  0.750000  0.583415  0.994734  1
  Co  Co15  1  0.750000  0.916585  0.994734  1
  Co  Co16  1  0.250000  0.454288  0.570187  1
  Co  Co17  1  0.250000  0.045712  0.570187  1
  Co  Co18  1  0.750000  0.548390  0.429914  1
  Co  Co19  1  0.750000  0.951610  0.429914  1
  Co  Co20  1  0.250000  0.870661  0.289093  1
  Co  Co21  1  0.250000  0.629339  0.289093  1
  Co  Co22  1  0.750000  0.128587  0.711228  1
  Co  Co23  1  0.750000  0.371413  0.711228  1
  P  P24  1  0.250000  0.250000  0.116946  1
  P  P25  1  0.750000  0.750000  0.882571  1
  P  P26  1  0.250000  0.250000  0.658628  1
  P  P27  1  0.750000  0.750000  0.343278  1
  P  P28  1  0.250000  0.441232  0.382653  1
  P  P29  1  0.250000  0.058768  0.382653  1
  P  P30  1  0.750000  0.560873  0.616768  1
  P  P31  1  0.750000  0.939127  0.616768  1
  P  P32  1  0.250000  0.902929  0.106925  1
  P  P33  1  0.250000  0.597071  0.106925  1
  P  P34  1  0.750000  0.096331  0.893217  1
  P  P35  1  0.750000  0.403669  0.893217  1
