# generated using pymatgen
data_Tb3Dy3(HoPt2)2
_symmetry_space_group_name_H-M   'P 1'
_cell_length_a   4.77114100
_cell_length_b   7.15189314
_cell_length_c   8.79119200
_cell_angle_alpha   90.01135198
_cell_angle_beta   90.00000000
_cell_angle_gamma   90.00000000
_symmetry_Int_Tables_number   1
_chemical_formula_structural   Tb3Dy3(HoPt2)2
_chemical_formula_sum   'Tb3 Dy3 Ho2 Pt4'
_cell_volume   299.97911864
_cell_formula_units_Z   1
loop_
 _symmetry_equiv_pos_site_id
 _symmetry_equiv_pos_as_xyz
  1  'x, y, z'
loop_
 _atom_site_type_symbol
 _atom_site_label
 _atom_site_symmetry_multiplicity
 _atom_site_fract_x
 _atom_site_fract_y
 _atom_site_fract_z
 _atom_site_occupancy
  Tb  Tb0  1  0.250000  0.491592  0.168879  1
  Tb  Tb1  1  0.750000  0.008758  0.670018  1
  Tb  Tb2  1  0.250000  0.992035  0.330623  1
  Dy  Dy3  1  0.750000  0.643810  0.420383  1
  Dy  Dy4  1  0.750000  0.144323  0.079263  1
  Dy  Dy5  1  0.750000  0.508898  0.831317  1
  Ho  Ho6  1  0.250000  0.355985  0.581048  1
  Ho  Ho7  1  0.250000  0.855066  0.919507  1
  Pt  Pt8  1  0.750000  0.241869  0.408958  1
  Pt  Pt9  1  0.250000  0.757631  0.592191  1
  Pt  Pt10  1  0.750000  0.742114  0.090515  1
  Pt  Pt11  1  0.250000  0.257920  0.907298  1
