# generated using pymatgen
data_LiNd6Co17P12
_symmetry_space_group_name_H-M   'P 1'
_cell_length_a   3.76649100
_cell_length_b   10.64572800
_cell_length_c   12.36538100
_cell_angle_alpha   90.00000000
_cell_angle_beta   90.00000000
_cell_angle_gamma   90.00000000
_symmetry_Int_Tables_number   1
_chemical_formula_structural   LiNd6Co17P12
_chemical_formula_sum   'Li1 Nd6 Co17 P12'
_cell_volume   495.81516050
_cell_formula_units_Z   1
loop_
 _symmetry_equiv_pos_site_id
 _symmetry_equiv_pos_as_xyz
  1  'x, y, z'
loop_
 _atom_site_type_symbol
 _atom_site_label
 _atom_site_symmetry_multiplicity
 _atom_site_fract_x
 _atom_site_fract_y
 _atom_site_fract_z
 _atom_site_occupancy
  Li  Li0  1  0.500000  0.500000  0.149350  1
  Nd  Nd1  1  0.000000  0.500000  0.522368  1
  Nd  Nd2  1  0.500000  0.000000  0.479458  1
  Nd  Nd3  1  0.500000  0.818362  0.206781  1
  Nd  Nd4  1  0.500000  0.181638  0.206781  1
  Nd  Nd5  1  0.000000  0.682819  0.794115  1
  Nd  Nd6  1  0.000000  0.317181  0.794115  1
  Co  Co7  1  0.000000  0.000000  0.842371  1
  Co  Co8  1  0.500000  0.500000  0.705314  1
  Co  Co9  1  0.000000  0.000000  0.295085  1
  Co  Co10  1  0.000000  0.500000  0.986479  1
  Co  Co11  1  0.500000  0.000000  0.011401  1
  Co  Co12  1  0.500000  0.330867  0.995445  1
  Co  Co13  1  0.500000  0.669133  0.995445  1
  Co  Co14  1  0.000000  0.164351  0.002024  1
  Co  Co15  1  0.000000  0.835649  0.002024  1
  Co  Co16  1  0.500000  0.296426  0.431749  1
  Co  Co17  1  0.500000  0.703574  0.431749  1
  Co  Co18  1  0.000000  0.201748  0.571056  1
  Co  Co19  1  0.000000  0.798252  0.571056  1
  Co  Co20  1  0.500000  0.882021  0.710757  1
  Co  Co21  1  0.500000  0.117979  0.710757  1
  Co  Co22  1  0.000000  0.620228  0.293107  1
  Co  Co23  1  0.000000  0.379772  0.293107  1
  P  P24  1  0.500000  0.500000  0.887533  1
  P  P25  1  0.000000  0.000000  0.113287  1
  P  P26  1  0.500000  0.500000  0.341416  1
  P  P27  1  0.000000  0.000000  0.660486  1
  P  P28  1  0.500000  0.305126  0.614782  1
  P  P29  1  0.500000  0.694874  0.614782  1
  P  P30  1  0.000000  0.193983  0.387250  1
  P  P31  1  0.000000  0.806017  0.387250  1
  P  P32  1  0.500000  0.849253  0.893959  1
  P  P33  1  0.500000  0.150747  0.893959  1
  P  P34  1  0.000000  0.656219  0.101702  1
  P  P35  1  0.000000  0.343781  0.101702  1
