# generated using pymatgen
data_Tb2Er4InSi2
_symmetry_space_group_name_H-M   'P 1'
_cell_length_a   8.47863530
_cell_length_b   8.47863508
_cell_length_c   8.47863438
_cell_angle_alpha   112.35285209
_cell_angle_beta   110.83366782
_cell_angle_gamma   105.30956957
_symmetry_Int_Tables_number   1
_chemical_formula_structural   Tb2Er4InSi2
_chemical_formula_sum   'Tb4 Er8 In2 Si4'
_cell_volume   467.26999451
_cell_formula_units_Z   2
loop_
 _symmetry_equiv_pos_site_id
 _symmetry_equiv_pos_as_xyz
  1  'x, y, z'
loop_
 _atom_site_type_symbol
 _atom_site_label
 _atom_site_symmetry_multiplicity
 _atom_site_fract_x
 _atom_site_fract_y
 _atom_site_fract_z
 _atom_site_occupancy
  Tb  Tb0  1  0.187610  0.279940  0.467550  1
  Tb  Tb1  1  0.812390  0.720060  0.532450  1
  Tb  Tb2  1  0.187610  0.720060  0.907669  1
  Tb  Tb3  1  0.812390  0.279940  0.092331  1
  Er  Er4  1  0.319538  0.616049  0.296510  1
  Er  Er5  1  0.680462  0.383951  0.703490  1
  Er  Er6  1  0.319538  0.023028  0.703490  1
  Er  Er7  1  0.680462  0.976972  0.296510  1
  Er  Er8  1  0.441795  0.236786  0.205010  1
  Er  Er9  1  0.558205  0.763214  0.794990  1
  Er  Er10  1  0.031776  0.236786  0.794990  1
  Er  Er11  1  0.968224  0.763214  0.205010  1
  In  In12  1  0.500000  0.500000  0.000000  1
  In  In13  1  0.000000  0.000000  0.000000  1
  Si  Si14  1  0.116675  0.616675  0.500000  1
  Si  Si15  1  0.883325  0.383325  0.500000  1
  Si  Si16  1  0.369934  0.000000  0.369934  1
  Si  Si17  1  0.630066  0.000000  0.630066  1
