# generated using pymatgen
data_LaPa(SiPt)2
_symmetry_space_group_name_H-M   'P 1'
_cell_length_a   4.20422400
_cell_length_b   4.20422555
_cell_length_c   8.13635000
_cell_angle_alpha   90.00000000
_cell_angle_beta   90.00000000
_cell_angle_gamma   120.00000354
_symmetry_Int_Tables_number   1
_chemical_formula_structural   LaPa(SiPt)2
_chemical_formula_sum   'La1 Pa1 Si2 Pt2'
_cell_volume   124.54666211
_cell_formula_units_Z   1
loop_
 _symmetry_equiv_pos_site_id
 _symmetry_equiv_pos_as_xyz
  1  'x, y, z'
loop_
 _atom_site_type_symbol
 _atom_site_label
 _atom_site_symmetry_multiplicity
 _atom_site_fract_x
 _atom_site_fract_y
 _atom_site_fract_z
 _atom_site_occupancy
  La  La0  1  0.000000  0.000000  0.000000  1
  Pa  Pa1  1  0.000000  0.000000  0.500000  1
  Si  Si2  1  0.333333  0.666667  0.744103  1
  Si  Si3  1  0.666667  0.333333  0.255897  1
  Pt  Pt4  1  0.333333  0.666667  0.283466  1
  Pt  Pt5  1  0.666667  0.333333  0.716534  1
