# generated using pymatgen
data_Er2Tm4MnB14Os
_symmetry_space_group_name_H-M   'P 1'
_cell_length_a   7.94393983
_cell_length_b   7.94394051
_cell_length_c   9.22843042
_cell_angle_alpha   90.03375311
_cell_angle_beta   89.96624599
_cell_angle_gamma   154.90212891
_symmetry_Int_Tables_number   1
_chemical_formula_structural   Er2Tm4MnB14Os
_chemical_formula_sum   'Er2 Tm4 Mn1 B14 Os1'
_cell_volume   247.02181889
_cell_formula_units_Z   1
loop_
 _symmetry_equiv_pos_site_id
 _symmetry_equiv_pos_as_xyz
  1  'x, y, z'
loop_
 _atom_site_type_symbol
 _atom_site_label
 _atom_site_symmetry_multiplicity
 _atom_site_fract_x
 _atom_site_fract_y
 _atom_site_fract_z
 _atom_site_occupancy
  Er  Er0  1  0.105104  0.894896  0.936178  1
  Er  Er1  1  0.245057  0.754943  0.250062  1
  Tm  Tm2  1  0.894491  0.105509  0.443536  1
  Tm  Tm3  1  0.104930  0.895070  0.563314  1
  Tm  Tm4  1  0.894582  0.105418  0.056542  1
  Tm  Tm5  1  0.759093  0.240907  0.749941  1
  Mn  Mn6  1  0.947320  0.052680  0.749756  1
  B  B7  1  0.727389  0.272611  0.467060  1
  B  B8  1  0.272124  0.727876  0.534736  1
  B  B9  1  0.727621  0.272379  0.033157  1
  B  B10  1  0.272464  0.727536  0.965480  1
  B  B11  1  0.632216  0.367784  0.149953  1
  B  B12  1  0.369607  0.630393  0.846728  1
  B  B13  1  0.632193  0.367807  0.350480  1
  B  B14  1  0.369593  0.630407  0.653243  1
  B  B15  1  0.519485  0.480515  0.094840  1
  B  B16  1  0.478874  0.521126  0.902096  1
  B  B17  1  0.519498  0.480502  0.405506  1
  B  B18  1  0.478940  0.521060  0.597450  1
  B  B19  1  0.453783  0.546217  0.250124  1
  B  B20  1  0.542390  0.457610  0.749589  1
  Os  Os21  1  0.053245  0.946755  0.250229  1
