# generated using pymatgen
data_La18Yb2Si11P
_symmetry_space_group_name_H-M   'P 1'
_cell_length_a   7.88618200
_cell_length_b   7.88618200
_cell_length_c   14.54029600
_cell_angle_alpha   90.00000000
_cell_angle_beta   90.00000000
_cell_angle_gamma   90.00000000
_symmetry_Int_Tables_number   1
_chemical_formula_structural   La18Yb2Si11P
_chemical_formula_sum   'La18 Yb2 Si11 P1'
_cell_volume   904.28814824
_cell_formula_units_Z   1
loop_
 _symmetry_equiv_pos_site_id
 _symmetry_equiv_pos_as_xyz
  1  'x, y, z'
loop_
 _atom_site_type_symbol
 _atom_site_label
 _atom_site_symmetry_multiplicity
 _atom_site_fract_x
 _atom_site_fract_y
 _atom_site_fract_z
 _atom_site_occupancy
  La  La0  1  0.325281  0.315530  0.106534  1
  La  La1  1  0.826203  0.814666  0.893745  1
  La  La2  1  0.830427  0.184269  0.395603  1
  La  La3  1  0.173797  0.185334  0.893745  1
  La  La4  1  0.674719  0.684470  0.106534  1
  La  La5  1  0.000000  0.500000  0.723402  1
  La  La6  1  0.818130  0.827514  0.604717  1
  La  La7  1  0.315731  0.330427  0.395603  1
  La  La8  1  0.184470  0.825281  0.106534  1
  La  La9  1  0.181870  0.172486  0.604717  1
  La  La10  1  0.815530  0.174719  0.106534  1
  La  La11  1  0.327514  0.681870  0.604717  1
  La  La12  1  0.500000  0.000000  0.273289  1
  La  La13  1  0.685334  0.326203  0.893745  1
  La  La14  1  0.672486  0.318130  0.604717  1
  La  La15  1  0.314666  0.673797  0.893745  1
  La  La16  1  0.169573  0.815731  0.395603  1
  La  La17  1  0.684269  0.669573  0.395603  1
  Yb  Yb18  1  0.500000  0.000000  0.762933  1
  Yb  Yb19  1  0.000000  0.500000  0.235054  1
  Si  Si20  1  0.610734  0.386706  0.250192  1
  Si  Si21  1  0.888669  0.112680  0.750168  1
  Si  Si22  1  0.500000  0.000000  0.495624  1
  Si  Si23  1  0.886706  0.889266  0.250192  1
  Si  Si24  1  0.000000  0.500000  0.007456  1
  Si  Si25  1  0.111331  0.887320  0.750168  1
  Si  Si26  1  0.387320  0.388669  0.750168  1
  Si  Si27  1  0.113294  0.110734  0.250192  1
  Si  Si28  1  0.389266  0.613294  0.250192  1
  Si  Si29  1  0.612680  0.611331  0.750168  1
  Si  Si30  1  0.500000  0.000000  0.993352  1
  P  P31  1  0.000000  0.500000  0.505053  1
