# generated using pymatgen
data_LiPr3Mg2Ag2Ru
_symmetry_space_group_name_H-M   'P 1'
_cell_length_a   7.86088841
_cell_length_b   7.90716826
_cell_length_c   4.08032400
_cell_angle_alpha   90.00000000
_cell_angle_beta   90.00000000
_cell_angle_gamma   120.29347590
_symmetry_Int_Tables_number   1
_chemical_formula_structural   LiPr3Mg2Ag2Ru
_chemical_formula_sum   'Li1 Pr3 Mg2 Ag2 Ru1'
_cell_volume   218.99084586
_cell_formula_units_Z   1
loop_
 _symmetry_equiv_pos_site_id
 _symmetry_equiv_pos_as_xyz
  1  'x, y, z'
loop_
 _atom_site_type_symbol
 _atom_site_label
 _atom_site_symmetry_multiplicity
 _atom_site_fract_x
 _atom_site_fract_y
 _atom_site_fract_z
 _atom_site_occupancy
  Li  Li0  1  0.757654  0.756733  0.000000  1
  Pr  Pr1  1  0.437100  0.407198  0.500000  1
  Pr  Pr2  1  0.597455  0.027790  0.500000  1
  Pr  Pr3  1  0.968948  0.571286  0.500000  1
  Mg  Mg4  1  0.247399  0.004882  0.000000  1
  Mg  Mg5  1  0.000361  0.248148  0.000000  1
  Ag  Ag6  1  0.331775  0.666259  0.000000  1
  Ag  Ag7  1  0.994996  0.995302  0.500000  1
  Ru  Ru8  1  0.664310  0.322404  0.000000  1
