# generated using pymatgen
data_Ho2Lu2Tc7Mo
_symmetry_space_group_name_H-M   'P 1'
_cell_length_a   5.38924300
_cell_length_b   5.38924382
_cell_length_c   8.74638700
_cell_angle_alpha   90.00000000
_cell_angle_beta   90.00000000
_cell_angle_gamma   120.00000112
_symmetry_Int_Tables_number   1
_chemical_formula_structural   Ho2Lu2Tc7Mo
_chemical_formula_sum   'Ho2 Lu2 Tc7 Mo1'
_cell_volume   219.99606602
_cell_formula_units_Z   1
loop_
 _symmetry_equiv_pos_site_id
 _symmetry_equiv_pos_as_xyz
  1  'x, y, z'
loop_
 _atom_site_type_symbol
 _atom_site_label
 _atom_site_symmetry_multiplicity
 _atom_site_fract_x
 _atom_site_fract_y
 _atom_site_fract_z
 _atom_site_occupancy
  Ho  Ho0  1  0.666667  0.333333  0.937896  1
  Ho  Ho1  1  0.333333  0.666667  0.062104  1
  Lu  Lu2  1  0.333333  0.666667  0.435448  1
  Lu  Lu3  1  0.666667  0.333333  0.564552  1
  Tc  Tc4  1  0.000000  0.000000  0.000000  1
  Tc  Tc5  1  0.828421  0.171579  0.251672  1
  Tc  Tc6  1  0.828421  0.656843  0.251672  1
  Tc  Tc7  1  0.343157  0.171579  0.251672  1
  Tc  Tc8  1  0.171579  0.828421  0.748328  1
  Tc  Tc9  1  0.171579  0.343157  0.748328  1
  Tc  Tc10  1  0.656843  0.828421  0.748328  1
  Mo  Mo11  1  0.000000  0.000000  0.500000  1
