# generated using pymatgen
data_NdSm5(CBr3)2
_symmetry_space_group_name_H-M   'P 1'
_cell_length_a   3.85446500
_cell_length_b   8.61377413
_cell_length_c   11.63898800
_cell_angle_alpha   92.68566766
_cell_angle_beta   90.00000000
_cell_angle_gamma   90.00000000
_symmetry_Int_Tables_number   1
_chemical_formula_structural   NdSm5(CBr3)2
_chemical_formula_sum   'Nd1 Sm5 C2 Br6'
_cell_volume   386.00730830
_cell_formula_units_Z   1
loop_
 _symmetry_equiv_pos_site_id
 _symmetry_equiv_pos_as_xyz
  1  'x, y, z'
loop_
 _atom_site_type_symbol
 _atom_site_label
 _atom_site_symmetry_multiplicity
 _atom_site_fract_x
 _atom_site_fract_y
 _atom_site_fract_z
 _atom_site_occupancy
  Nd  Nd0  1  0.750000  0.689490  0.381738  1
  Sm  Sm1  1  0.250000  0.912147  0.605492  1
  Sm  Sm2  1  0.750000  0.088568  0.394648  1
  Sm  Sm3  1  0.250000  0.884400  0.171514  1
  Sm  Sm4  1  0.750000  0.115915  0.827965  1
  Sm  Sm5  1  0.250000  0.307786  0.618754  1
  C  C6  1  0.250000  0.882627  0.381199  1
  C  C7  1  0.750000  0.121435  0.618528  1
  Br  Br8  1  0.250000  0.865877  0.873470  1
  Br  Br9  1  0.750000  0.134397  0.126433  1
  Br  Br10  1  0.250000  0.369307  0.869068  1
  Br  Br11  1  0.750000  0.631448  0.128020  1
  Br  Br12  1  0.250000  0.377286  0.369996  1
  Br  Br13  1  0.750000  0.619316  0.633174  1
