# generated using pymatgen
data_Sr4Ca4CrFe3F28
_symmetry_space_group_name_H-M   'P 1'
_cell_length_a   7.41899600
_cell_length_b   8.10357709
_cell_length_c   10.04126007
_cell_angle_alpha   90.01517162
_cell_angle_beta   90.00000000
_cell_angle_gamma   90.00000000
_symmetry_Int_Tables_number   1
_chemical_formula_structural   Sr4Ca4CrFe3F28
_chemical_formula_sum   'Sr4 Ca4 Cr1 Fe3 F28'
_cell_volume   603.68461094
_cell_formula_units_Z   1
loop_
 _symmetry_equiv_pos_site_id
 _symmetry_equiv_pos_as_xyz
  1  'x, y, z'
loop_
 _atom_site_type_symbol
 _atom_site_label
 _atom_site_symmetry_multiplicity
 _atom_site_fract_x
 _atom_site_fract_y
 _atom_site_fract_z
 _atom_site_occupancy
  Sr  Sr0  1  0.250000  0.805794  0.395257  1
  Sr  Sr1  1  0.750000  0.194144  0.604514  1
  Sr  Sr2  1  0.750000  0.693882  0.895108  1
  Sr  Sr3  1  0.250000  0.305437  0.106083  1
  Ca  Ca4  1  0.250000  0.620655  0.743235  1
  Ca  Ca5  1  0.750000  0.378722  0.257146  1
  Ca  Ca6  1  0.750000  0.878794  0.243164  1
  Ca  Ca7  1  0.250000  0.121306  0.756608  1
  Cr  Cr8  1  0.250000  0.314906  0.445578  1
  Fe  Fe9  1  0.250000  0.815027  0.054916  1
  Fe  Fe10  1  0.750000  0.185073  0.944883  1
  Fe  Fe11  1  0.750000  0.685059  0.555025  1
  F  F12  1  0.250000  0.602491  0.139260  1
  F  F13  1  0.750000  0.397631  0.860562  1
  F  F14  1  0.750000  0.897773  0.639262  1
  F  F15  1  0.250000  0.102445  0.362113  1
  F  F16  1  0.250000  0.537191  0.522339  1
  F  F17  1  0.750000  0.462326  0.478153  1
  F  F18  1  0.750000  0.962384  0.021549  1
  F  F19  1  0.250000  0.037808  0.978147  1
  F  F20  1  0.076272  0.739178  0.919237  1
  F  F21  1  0.923457  0.260973  0.080871  1
  F  F22  1  0.923611  0.760845  0.419290  1
  F  F23  1  0.576543  0.260973  0.080871  1
  F  F24  1  0.076257  0.239813  0.579348  1
  F  F25  1  0.423728  0.739178  0.919237  1
  F  F26  1  0.423743  0.239813  0.579348  1
  F  F27  1  0.576389  0.760845  0.419290  1
  F  F28  1  0.250000  0.876388  0.641432  1
  F  F29  1  0.750000  0.123555  0.358642  1
  F  F30  1  0.750000  0.623234  0.141697  1
  F  F31  1  0.250000  0.376114  0.858472  1
  F  F32  1  0.564039  0.620146  0.683735  1
  F  F33  1  0.434214  0.379329  0.316440  1
  F  F34  1  0.436024  0.880036  0.183788  1
  F  F35  1  0.065786  0.379329  0.316440  1
  F  F36  1  0.563897  0.120612  0.815720  1
  F  F37  1  0.935961  0.620146  0.683735  1
  F  F38  1  0.936103  0.120612  0.815720  1
  F  F39  1  0.063976  0.880036  0.183788  1
