# generated using pymatgen
data_YEr15(ZnIn3)2
_symmetry_space_group_name_H-M   'P 1'
_cell_length_a   10.58868900
_cell_length_b   10.59040166
_cell_length_c   6.72593622
_cell_angle_alpha   90.00575011
_cell_angle_beta   90.00025220
_cell_angle_gamma   119.99438093
_symmetry_Int_Tables_number   1
_chemical_formula_structural   YEr15(ZnIn3)2
_chemical_formula_sum   'Y1 Er15 Zn2 In6'
_cell_volume   653.22468058
_cell_formula_units_Z   1
loop_
 _symmetry_equiv_pos_site_id
 _symmetry_equiv_pos_as_xyz
  1  'x, y, z'
loop_
 _atom_site_type_symbol
 _atom_site_label
 _atom_site_symmetry_multiplicity
 _atom_site_fract_x
 _atom_site_fract_y
 _atom_site_fract_z
 _atom_site_occupancy
  Y  Y0  1  0.520001  0.039994  0.509445  1
  Er  Er1  1  0.959061  0.479003  0.510585  1
  Er  Er2  1  0.519942  0.479004  0.510581  1
  Er  Er3  1  0.479642  0.959289  0.010089  1
  Er  Er4  1  0.040153  0.520234  0.010618  1
  Er  Er5  1  0.480083  0.520240  0.010614  1
  Er  Er6  1  0.173162  0.346312  0.727875  1
  Er  Er7  1  0.654272  0.826306  0.728101  1
  Er  Er8  1  0.172037  0.826311  0.728103  1
  Er  Er9  1  0.827486  0.654984  0.228120  1
  Er  Er10  1  0.345746  0.173436  0.226188  1
  Er  Er11  1  0.827681  0.173422  0.226178  1
  Er  Er12  1  0.666921  0.333848  0.859553  1
  Er  Er13  1  0.332659  0.665314  0.357998  1
  Er  Er14  1  0.000224  0.000445  0.489583  1
  Er  Er15  1  0.000063  0.000126  0.989177  1
  Zn  Zn16  1  0.667354  0.334710  0.294040  1
  Zn  Zn17  1  0.333514  0.667029  0.794379  1
  In  In18  1  0.835333  0.670671  0.741136  1
  In  In19  1  0.328768  0.164475  0.740889  1
  In  In20  1  0.835705  0.164465  0.740896  1
  In  In21  1  0.164478  0.328955  0.240987  1
  In  In22  1  0.670551  0.835712  0.241453  1
  In  In23  1  0.165162  0.835713  0.241452  1
