# generated using pymatgen
data_Ac9La(Cd2Ru3)2
_symmetry_space_group_name_H-M   'P 1'
_cell_length_a   9.02587634
_cell_length_b   9.05132146
_cell_length_c   9.02587648
_cell_angle_alpha   109.52833571
_cell_angle_beta   109.41404648
_cell_angle_gamma   109.52833549
_symmetry_Int_Tables_number   1
_chemical_formula_structural   Ac9La(Cd2Ru3)2
_chemical_formula_sum   'Ac9 La1 Cd4 Ru6'
_cell_volume   567.23399199
_cell_formula_units_Z   1
loop_
 _symmetry_equiv_pos_site_id
 _symmetry_equiv_pos_as_xyz
  1  'x, y, z'
loop_
 _atom_site_type_symbol
 _atom_site_label
 _atom_site_symmetry_multiplicity
 _atom_site_fract_x
 _atom_site_fract_y
 _atom_site_fract_z
 _atom_site_occupancy
  Ac  Ac0  1  0.249442  0.685972  0.437095  1
  Ac  Ac1  1  0.750728  0.814316  0.064597  1
  Ac  Ac2  1  0.435404  0.249719  0.686131  1
  Ac  Ac3  1  0.687652  0.436531  0.250558  1
  Ac  Ac4  1  0.062906  0.748878  0.812348  1
  Ac  Ac5  1  0.813869  0.063588  0.749272  1
  Ac  Ac6  1  0.211675  0.212802  0.213971  1
  Ac  Ac7  1  0.502298  0.001127  0.288325  1
  Ac  Ac8  1  0.286029  0.498831  0.997703  1
  La  La9  1  0.000000  0.292916  0.500001  1
  Cd  Cd10  1  0.499859  0.999403  0.911636  1
  Cd  Cd11  1  0.588364  0.587768  0.588223  1
  Cd  Cd12  1  0.911777  0.499546  0.000142  1
  Cd  Cd13  1  0.000000  0.915410  0.500001  1
  Ru  Ru14  1  0.250220  0.134756  0.885281  1
  Ru  Ru15  1  0.754184  0.364107  0.613711  1
  Ru  Ru16  1  0.886288  0.250397  0.140472  1
  Ru  Ru17  1  0.135062  0.884537  0.249782  1
  Ru  Ru18  1  0.614718  0.749475  0.364937  1
  Ru  Ru19  1  0.359527  0.609923  0.745816  1
