# generated using pymatgen
data_Pr7Nd(ThSe5)4
_symmetry_space_group_name_H-M   'P 1'
_cell_length_a   7.96813026
_cell_length_b   8.59817131
_cell_length_c   12.70256062
_cell_angle_alpha   89.97695279
_cell_angle_beta   90.01415085
_cell_angle_gamma   89.98579051
_symmetry_Int_Tables_number   1
_chemical_formula_structural   Pr7Nd(ThSe5)4
_chemical_formula_sum   'Pr7 Nd1 Th4 Se20'
_cell_volume   870.26944036
_cell_formula_units_Z   1
loop_
 _symmetry_equiv_pos_site_id
 _symmetry_equiv_pos_as_xyz
  1  'x, y, z'
loop_
 _atom_site_type_symbol
 _atom_site_label
 _atom_site_symmetry_multiplicity
 _atom_site_fract_x
 _atom_site_fract_y
 _atom_site_fract_z
 _atom_site_occupancy
  Pr  Pr0  1  0.981322  0.002191  0.820636  1
  Pr  Pr1  1  0.481251  0.998261  0.678862  1
  Pr  Pr2  1  0.018545  0.501793  0.179219  1
  Pr  Pr3  1  0.481652  0.502223  0.679092  1
  Pr  Pr4  1  0.018556  0.997819  0.179392  1
  Pr  Pr5  1  0.518810  0.001835  0.321127  1
  Pr  Pr6  1  0.981532  0.498181  0.820980  1
  Nd  Nd7  1  0.517714  0.497658  0.320388  1
  Th  Th8  1  0.077052  0.749755  0.491330  1
  Th  Th9  1  0.423021  0.750074  0.991568  1
  Th  Th10  1  0.923035  0.250217  0.508370  1
  Th  Th11  1  0.576919  0.249953  0.008620  1
  Se  Se12  1  0.837139  0.956404  0.600032  1
  Se  Se13  1  0.661659  0.543296  0.101091  1
  Se  Se14  1  0.163490  0.456349  0.399417  1
  Se  Se15  1  0.337502  0.043746  0.899586  1
  Se  Se16  1  0.162701  0.043683  0.399837  1
  Se  Se17  1  0.337820  0.456568  0.899500  1
  Se  Se18  1  0.837879  0.543598  0.600633  1
  Se  Se19  1  0.662441  0.956241  0.100523  1
  Se  Se20  1  0.824614  0.749025  0.316570  1
  Se  Se21  1  0.675012  0.750541  0.816459  1
  Se  Se22  1  0.174936  0.249807  0.683455  1
  Se  Se23  1  0.325308  0.250313  0.183810  1
  Se  Se24  1  0.458647  0.748978  0.498920  1
  Se  Se25  1  0.041554  0.750050  0.999446  1
  Se  Se26  1  0.541555  0.251384  0.500157  1
  Se  Se27  1  0.958419  0.250105  0.000698  1
  Se  Se28  1  0.199555  0.750267  0.715362  1
  Se  Se29  1  0.300976  0.749309  0.215740  1
  Se  Se30  1  0.799727  0.250445  0.284623  1
  Se  Se31  1  0.699658  0.249932  0.784560  1
