# generated using pymatgen
data_Er5NbCo5
_symmetry_space_group_name_H-M   'P 1'
_cell_length_a   5.60193397
_cell_length_b   5.60193442
_cell_length_c   20.68466900
_cell_angle_alpha   90.00000000
_cell_angle_beta   90.00000000
_cell_angle_gamma   139.13501437
_symmetry_Int_Tables_number   1
_chemical_formula_structural   Er5NbCo5
_chemical_formula_sum   'Er10 Nb2 Co10'
_cell_volume   424.70504051
_cell_formula_units_Z   2
loop_
 _symmetry_equiv_pos_site_id
 _symmetry_equiv_pos_as_xyz
  1  'x, y, z'
loop_
 _atom_site_type_symbol
 _atom_site_label
 _atom_site_symmetry_multiplicity
 _atom_site_fract_x
 _atom_site_fract_y
 _atom_site_fract_z
 _atom_site_occupancy
  Er  Er0  1  0.285202  0.714798  0.250000  1
  Er  Er1  1  0.289102  0.710898  0.067960  1
  Er  Er2  1  0.997381  0.002619  0.840295  1
  Er  Er3  1  0.714798  0.285202  0.750000  1
  Er  Er4  1  0.710898  0.289102  0.567960  1
  Er  Er5  1  0.002619  0.997381  0.340295  1
  Er  Er6  1  0.997381  0.002619  0.659705  1
  Er  Er7  1  0.710898  0.289102  0.932040  1
  Er  Er8  1  0.002619  0.997381  0.159705  1
  Er  Er9  1  0.289102  0.710898  0.432040  1
  Nb  Nb10  1  0.000000  0.000000  0.500000  1
  Nb  Nb11  1  0.000000  0.000000  0.000000  1
  Co  Co12  1  0.299341  0.700659  0.654270  1
  Co  Co13  1  0.576281  0.423719  0.439251  1
  Co  Co14  1  0.411942  0.588058  0.750000  1
  Co  Co15  1  0.423719  0.576281  0.939251  1
  Co  Co16  1  0.588058  0.411942  0.250000  1
  Co  Co17  1  0.423719  0.576281  0.560749  1
  Co  Co18  1  0.700659  0.299341  0.345730  1
  Co  Co19  1  0.700659  0.299341  0.154270  1
  Co  Co20  1  0.576281  0.423719  0.060749  1
  Co  Co21  1  0.299341  0.700659  0.845730  1
