# generated using pymatgen
data_ThRe2TeO12
_symmetry_space_group_name_H-M   'P 1'
_cell_length_a   10.27598303
_cell_length_b   10.42288569
_cell_length_c   6.29701000
_cell_angle_alpha   90.00000000
_cell_angle_beta   90.00000000
_cell_angle_gamma   119.44275885
_symmetry_Int_Tables_number   1
_chemical_formula_structural   ThRe2TeO12
_chemical_formula_sum   'Th2 Re4 Te2 O24'
_cell_volume   587.33746385
_cell_formula_units_Z   2
loop_
 _symmetry_equiv_pos_site_id
 _symmetry_equiv_pos_as_xyz
  1  'x, y, z'
loop_
 _atom_site_type_symbol
 _atom_site_label
 _atom_site_symmetry_multiplicity
 _atom_site_fract_x
 _atom_site_fract_y
 _atom_site_fract_z
 _atom_site_occupancy
  Th  Th0  1  0.661346  0.333194  0.750000  1
  Th  Th1  1  0.316520  0.643396  0.250000  1
  Re  Re2  1  0.610303  0.699931  0.750000  1
  Re  Re3  1  0.908548  0.609842  0.250000  1
  Re  Re4  1  0.303766  0.907123  0.750000  1
  Re  Re5  1  0.692174  0.086042  0.250000  1
  Te  Te6  1  0.087743  0.388914  0.750000  1
  Te  Te7  1  0.391639  0.294146  0.250000  1
  O  O8  1  0.495528  0.653839  0.523226  1
  O  O9  1  0.351450  0.839750  0.522749  1
  O  O10  1  0.841661  0.732623  0.250000  1
  O  O11  1  0.114424  0.845723  0.750000  1
  O  O12  1  0.265752  0.098075  0.250000  1
  O  O13  1  0.163218  0.265017  0.750000  1
  O  O14  1  0.522187  0.357018  0.018366  1
  O  O15  1  0.882213  0.151142  0.250000  1
  O  O16  1  0.105050  0.705112  0.250000  1
  O  O17  1  0.155234  0.519191  0.980025  1
  O  O18  1  0.155234  0.519191  0.519975  1
  O  O19  1  0.882151  0.304793  0.750000  1
  O  O20  1  0.307060  0.414800  0.250000  1
  O  O21  1  0.707355  0.600538  0.750000  1
  O  O22  1  0.844004  0.496483  0.476573  1
  O  O23  1  0.405199  0.100931  0.750000  1
  O  O24  1  0.644099  0.153285  0.022707  1
  O  O25  1  0.495528  0.653839  0.976774  1
  O  O26  1  0.351450  0.839750  0.977251  1
  O  O27  1  0.644099  0.153285  0.477293  1
  O  O28  1  0.522187  0.357018  0.481634  1
  O  O29  1  0.844004  0.496483  0.023427  1
  O  O30  1  0.734295  0.886598  0.750000  1
  O  O31  1  0.594580  0.892930  0.250000  1
