# generated using pymatgen
data_CuPd4Pb3O14
_symmetry_space_group_name_H-M   'P 1'
_cell_length_a   7.36314392
_cell_length_b   7.36314244
_cell_length_c   7.17742606
_cell_angle_alpha   59.14030225
_cell_angle_beta   59.14030967
_cell_angle_gamma   59.99999986
_symmetry_Int_Tables_number   1
_chemical_formula_structural   CuPd4Pb3O14
_chemical_formula_sum   'Cu1 Pd4 Pb3 O14'
_cell_volume   271.52694231
_cell_formula_units_Z   1
loop_
 _symmetry_equiv_pos_site_id
 _symmetry_equiv_pos_as_xyz
  1  'x, y, z'
loop_
 _atom_site_type_symbol
 _atom_site_label
 _atom_site_symmetry_multiplicity
 _atom_site_fract_x
 _atom_site_fract_y
 _atom_site_fract_z
 _atom_site_occupancy
  Cu  Cu0  1  0.125000  0.125000  0.625000  1
  Pd  Pd1  1  0.125000  0.625000  0.625000  1
  Pd  Pd2  1  0.625000  0.125000  0.625000  1
  Pd  Pd3  1  0.625000  0.625000  0.125000  1
  Pd  Pd4  1  0.625000  0.625000  0.625000  1
  Pb  Pb5  1  0.625000  0.125000  0.125000  1
  Pb  Pb6  1  0.125000  0.625000  0.125000  1
  Pb  Pb7  1  0.125000  0.125000  0.125000  1
  O  O8  1  0.712286  0.712286  0.285864  1
  O  O9  1  0.291525  0.291525  0.705166  1
  O  O10  1  0.711786  0.291525  0.705166  1
  O  O11  1  0.289564  0.712286  0.285864  1
  O  O12  1  0.291525  0.711786  0.705166  1
  O  O13  1  0.712286  0.289564  0.285864  1
  O  O14  1  0.537714  0.537714  0.964136  1
  O  O15  1  0.958475  0.958475  0.544834  1
  O  O16  1  0.538214  0.958475  0.544834  1
  O  O17  1  0.960436  0.537714  0.964136  1
  O  O18  1  0.958475  0.538214  0.544834  1
  O  O19  1  0.537714  0.960436  0.964136  1
  O  O20  1  0.239076  0.239076  0.282774  1
  O  O21  1  0.010924  0.010924  0.967226  1
