# generated using pymatgen
data_Ba4Ag2O7
_symmetry_space_group_name_H-M   'P 1'
_cell_length_a   5.98838200
_cell_length_b   7.28612183
_cell_length_c   11.82570944
_cell_angle_alpha   65.91527564
_cell_angle_beta   90.00000000
_cell_angle_gamma   90.00000000
_symmetry_Int_Tables_number   1
_chemical_formula_structural   Ba4Ag2O7
_chemical_formula_sum   'Ba8 Ag4 O14'
_cell_volume   471.06061693
_cell_formula_units_Z   2
loop_
 _symmetry_equiv_pos_site_id
 _symmetry_equiv_pos_as_xyz
  1  'x, y, z'
loop_
 _atom_site_type_symbol
 _atom_site_label
 _atom_site_symmetry_multiplicity
 _atom_site_fract_x
 _atom_site_fract_y
 _atom_site_fract_z
 _atom_site_occupancy
  Ba  Ba0  1  0.768814  0.288425  0.561127  1
  Ba  Ba1  1  0.719725  0.711806  0.206300  1
  Ba  Ba2  1  0.731186  0.288425  0.061127  1
  Ba  Ba3  1  0.219725  0.288194  0.293700  1
  Ba  Ba4  1  0.231186  0.711575  0.438873  1
  Ba  Ba5  1  0.780275  0.711806  0.706300  1
  Ba  Ba6  1  0.280275  0.288194  0.793700  1
  Ba  Ba7  1  0.268814  0.711575  0.938873  1
  Ag  Ag8  1  0.732885  0.999413  0.387362  1
  Ag  Ag9  1  0.267115  0.000587  0.612638  1
  Ag  Ag10  1  0.767115  0.999413  0.887362  1
  Ag  Ag11  1  0.232885  0.000587  0.112638  1
  O  O12  1  0.723864  0.314553  0.309818  1
  O  O13  1  0.733644  0.684457  0.466592  1
  O  O14  1  0.484931  0.999249  0.274355  1
  O  O15  1  0.000000  0.000000  0.500000  1
  O  O16  1  0.500000  0.000000  0.000000  1
  O  O17  1  0.984931  0.000751  0.225645  1
  O  O18  1  0.266356  0.315543  0.533408  1
  O  O19  1  0.515069  0.000751  0.725645  1
  O  O20  1  0.223864  0.685447  0.190182  1
  O  O21  1  0.766356  0.684457  0.966592  1
  O  O22  1  0.776136  0.314553  0.809818  1
  O  O23  1  0.233644  0.315543  0.033408  1
  O  O24  1  0.276136  0.685447  0.690182  1
  O  O25  1  0.015069  0.999249  0.774355  1
