# generated using pymatgen
data_NaLa6Yb5Hg12
_symmetry_space_group_name_H-M   'P 1'
_cell_length_a   5.44183204
_cell_length_b   7.53270000
_cell_length_c   16.47998512
_cell_angle_alpha   89.99888034
_cell_angle_beta   90.01410876
_cell_angle_gamma   89.99791859
_symmetry_Int_Tables_number   1
_chemical_formula_structural   NaLa6Yb5Hg12
_chemical_formula_sum   'Na1 La6 Yb5 Hg12'
_cell_volume   675.54239129
_cell_formula_units_Z   1
loop_
 _symmetry_equiv_pos_site_id
 _symmetry_equiv_pos_as_xyz
  1  'x, y, z'
loop_
 _atom_site_type_symbol
 _atom_site_label
 _atom_site_symmetry_multiplicity
 _atom_site_fract_x
 _atom_site_fract_y
 _atom_site_fract_z
 _atom_site_occupancy
  Na  Na0  1  0.500277  0.999999  0.833254  1
  La  La1  1  0.000013  0.999990  0.998291  1
  La  La2  1  0.499644  0.500038  0.166620  1
  La  La3  1  0.999743  0.000034  0.333382  1
  La  La4  1  0.500059  0.500006  0.499977  1
  La  La5  1  0.000154  0.000005  0.668363  1
  La  La6  1  0.500134  0.499981  0.833402  1
  Yb  Yb7  1  0.000048  0.499992  0.999786  1
  Yb  Yb8  1  0.499774  0.000004  0.166652  1
  Yb  Yb9  1  0.999730  0.499994  0.333266  1
  Yb  Yb10  1  0.500010  0.999999  0.500082  1
  Yb  Yb11  1  0.000282  0.499991  0.666942  1
  Hg  Hg12  1  0.499996  0.250506  0.000272  1
  Hg  Hg13  1  0.500043  0.749497  0.000274  1
  Hg  Hg14  1  0.999755  0.249344  0.166762  1
  Hg  Hg15  1  0.999713  0.750637  0.166761  1
  Hg  Hg16  1  0.499735  0.251082  0.333299  1
  Hg  Hg17  1  0.499744  0.748908  0.333311  1
  Hg  Hg18  1  0.000000  0.249666  0.499953  1
  Hg  Hg19  1  0.999989  0.750332  0.499951  1
  Hg  Hg20  1  0.500283  0.250852  0.666412  1
  Hg  Hg21  1  0.500281  0.749154  0.666417  1
  Hg  Hg22  1  0.000293  0.250562  0.833279  1
  Hg  Hg23  1  0.000293  0.749435  0.833289  1
