# generated using pymatgen
data_Ho4CrIr3O14
_symmetry_space_group_name_H-M   'P 1'
_cell_length_a   7.22211364
_cell_length_b   7.22027038
_cell_length_c   7.22027000
_cell_angle_alpha   60.00000174
_cell_angle_beta   60.00844412
_cell_angle_gamma   60.00844641
_symmetry_Int_Tables_number   1
_chemical_formula_structural   Ho4CrIr3O14
_chemical_formula_sum   'Ho4 Cr1 Ir3 O14'
_cell_volume   266.26350867
_cell_formula_units_Z   1
loop_
 _symmetry_equiv_pos_site_id
 _symmetry_equiv_pos_as_xyz
  1  'x, y, z'
loop_
 _atom_site_type_symbol
 _atom_site_label
 _atom_site_symmetry_multiplicity
 _atom_site_fract_x
 _atom_site_fract_y
 _atom_site_fract_z
 _atom_site_occupancy
  Ho  Ho0  1  0.625000  0.625000  0.125000  1
  Ho  Ho1  1  0.625000  0.125000  0.625000  1
  Ho  Ho2  1  0.125000  0.625000  0.625000  1
  Ho  Ho3  1  0.625000  0.625000  0.625000  1
  Cr  Cr4  1  0.625000  0.125000  0.125000  1
  Ir  Ir5  1  0.125000  0.125000  0.625000  1
  Ir  Ir6  1  0.125000  0.625000  0.125000  1
  Ir  Ir7  1  0.125000  0.125000  0.125000  1
  O  O8  1  0.463665  0.034659  0.467019  1
  O  O9  1  0.203022  0.790900  0.790900  1
  O  O10  1  0.786335  0.215341  0.215341  1
  O  O11  1  0.203022  0.790900  0.215176  1
  O  O12  1  0.786335  0.782981  0.215341  1
  O  O13  1  0.203022  0.215176  0.790900  1
  O  O14  1  0.463665  0.467019  0.034659  1
  O  O15  1  0.046978  0.459100  0.459100  1
  O  O16  1  0.463665  0.034659  0.034659  1
  O  O17  1  0.046978  0.034824  0.459100  1
  O  O18  1  0.786335  0.215341  0.782981  1
  O  O19  1  0.046978  0.459100  0.034824  1
  O  O20  1  0.495823  0.501392  0.501392  1
  O  O21  1  0.754177  0.748608  0.748608  1
