# generated using pymatgen
data_Li4CuPtO6
_symmetry_space_group_name_H-M   'P 1'
_cell_length_a   5.13852900
_cell_length_b   5.13863442
_cell_length_c   9.70757192
_cell_angle_alpha   84.98858529
_cell_angle_beta   84.98610964
_cell_angle_gamma   119.70217894
_symmetry_Int_Tables_number   1
_chemical_formula_structural   Li4CuPtO6
_chemical_formula_sum   'Li8 Cu2 Pt2 O12'
_cell_volume   219.25515108
_cell_formula_units_Z   2
loop_
 _symmetry_equiv_pos_site_id
 _symmetry_equiv_pos_as_xyz
  1  'x, y, z'
loop_
 _atom_site_type_symbol
 _atom_site_label
 _atom_site_symmetry_multiplicity
 _atom_site_fract_x
 _atom_site_fract_y
 _atom_site_fract_z
 _atom_site_occupancy
  Li  Li0  1  0.676705  0.822061  0.501019  1
  Li  Li1  1  0.323295  0.177939  0.498981  1
  Li  Li2  1  0.177953  0.323310  0.998982  1
  Li  Li3  1  0.822047  0.676690  0.001018  1
  Li  Li4  1  0.580787  0.419231  0.750000  1
  Li  Li5  1  0.419213  0.580769  0.250000  1
  Li  Li6  1  0.500000  0.000000  0.000000  1
  Li  Li7  1  0.000000  0.500000  0.500000  1
  Cu  Cu8  1  0.917247  0.082750  0.750000  1
  Cu  Cu9  1  0.082753  0.917250  0.250000  1
  Pt  Pt10  1  0.250574  0.749441  0.749992  1
  Pt  Pt11  1  0.749426  0.250559  0.250008  1
  O  O12  1  0.535571  0.718419  0.872015  1
  O  O13  1  0.464429  0.281581  0.127985  1
  O  O14  1  0.281578  0.464450  0.627990  1
  O  O15  1  0.718422  0.535550  0.372010  1
  O  O16  1  0.626264  0.105217  0.638236  1
  O  O17  1  0.373736  0.894783  0.361764  1
  O  O18  1  0.894778  0.373741  0.861777  1
  O  O19  1  0.105222  0.626259  0.138223  1
  O  O20  1  0.808684  0.966702  0.134950  1
  O  O21  1  0.191316  0.033298  0.865050  1
  O  O22  1  0.033287  0.191325  0.365063  1
  O  O23  1  0.966713  0.808675  0.634937  1
