# generated using pymatgen
data_Tb3Tm9(TcRu)2
_symmetry_space_group_name_H-M   'P 1'
_cell_length_a   6.26010422
_cell_length_b   7.32958960
_cell_length_c   9.01379000
_cell_angle_alpha   90.00000000
_cell_angle_beta   90.00000000
_cell_angle_gamma   90.09650813
_symmetry_Int_Tables_number   1
_chemical_formula_structural   Tb3Tm9(TcRu)2
_chemical_formula_sum   'Tb3 Tm9 Tc2 Ru2'
_cell_volume   413.58810663
_cell_formula_units_Z   1
loop_
 _symmetry_equiv_pos_site_id
 _symmetry_equiv_pos_as_xyz
  1  'x, y, z'
loop_
 _atom_site_type_symbol
 _atom_site_label
 _atom_site_symmetry_multiplicity
 _atom_site_fract_x
 _atom_site_fract_y
 _atom_site_fract_z
 _atom_site_occupancy
  Tb  Tb0  1  0.875354  0.539901  0.250000  1
  Tb  Tb1  1  0.623873  0.039047  0.250000  1
  Tb  Tb2  1  0.368211  0.956548  0.750000  1
  Tm  Tm3  1  0.335545  0.675233  0.062119  1
  Tm  Tm4  1  0.164024  0.177448  0.437470  1
  Tm  Tm5  1  0.663859  0.324857  0.563386  1
  Tm  Tm6  1  0.838001  0.824009  0.936778  1
  Tm  Tm7  1  0.663859  0.324857  0.936614  1
  Tm  Tm8  1  0.838001  0.824009  0.563222  1
  Tm  Tm9  1  0.335545  0.675233  0.437881  1
  Tm  Tm10  1  0.164024  0.177448  0.062530  1
  Tm  Tm11  1  0.131968  0.456452  0.750000  1
  Tc  Tc12  1  0.039671  0.885642  0.250000  1
  Tc  Tc13  1  0.460773  0.385696  0.250000  1
  Ru  Ru14  1  0.957860  0.118125  0.750000  1
  Ru  Ru15  1  0.539431  0.615493  0.750000  1
