# generated using pymatgen
data_YbPa3Ge4(PdPt)2
_symmetry_space_group_name_H-M   'P 1'
_cell_length_a   4.43023200
_cell_length_b   7.07726820
_cell_length_c   7.59309628
_cell_angle_alpha   90.27155860
_cell_angle_beta   90.00000000
_cell_angle_gamma   90.00000000
_symmetry_Int_Tables_number   1
_chemical_formula_structural   YbPa3Ge4(PdPt)2
_chemical_formula_sum   'Yb1 Pa3 Ge4 Pd2 Pt2'
_cell_volume   238.07081146
_cell_formula_units_Z   1
loop_
 _symmetry_equiv_pos_site_id
 _symmetry_equiv_pos_as_xyz
  1  'x, y, z'
loop_
 _atom_site_type_symbol
 _atom_site_label
 _atom_site_symmetry_multiplicity
 _atom_site_fract_x
 _atom_site_fract_y
 _atom_site_fract_z
 _atom_site_occupancy
  Yb  Yb0  1  0.250000  0.503255  0.211359  1
  Pa  Pa1  1  0.750000  0.497273  0.793541  1
  Pa  Pa2  1  0.250000  0.006415  0.286927  1
  Pa  Pa3  1  0.750000  0.990312  0.709974  1
  Ge  Ge4  1  0.250000  0.695964  0.586598  1
  Ge  Ge5  1  0.250000  0.195886  0.910041  1
  Ge  Ge6  1  0.750000  0.273956  0.411712  1
  Ge  Ge7  1  0.750000  0.803632  0.091804  1
  Pd  Pd8  1  0.250000  0.797488  0.916756  1
  Pd  Pd9  1  0.750000  0.714258  0.420065  1
  Pt  Pt10  1  0.250000  0.298215  0.584368  1
  Pt  Pt11  1  0.750000  0.223344  0.076855  1
