# generated using pymatgen
data_K2PuAuO6
_symmetry_space_group_name_H-M   'P 1'
_cell_length_a   6.60024432
_cell_length_b   6.60019266
_cell_length_c   5.32543909
_cell_angle_alpha   109.21870715
_cell_angle_beta   109.21991267
_cell_angle_gamma   51.38011005
_symmetry_Int_Tables_number   1
_chemical_formula_structural   K2PuAuO6
_chemical_formula_sum   'K2 Pu1 Au1 O6'
_cell_volume   168.72969739
_cell_formula_units_Z   1
loop_
 _symmetry_equiv_pos_site_id
 _symmetry_equiv_pos_as_xyz
  1  'x, y, z'
loop_
 _atom_site_type_symbol
 _atom_site_label
 _atom_site_symmetry_multiplicity
 _atom_site_fract_x
 _atom_site_fract_y
 _atom_site_fract_z
 _atom_site_occupancy
  K  K0  1  0.734885  0.734887  0.204634  1
  K  K1  1  0.265118  0.265117  0.795384  1
  Pu  Pu2  1  0.000014  0.000013  0.999989  1
  Au  Au3  1  0.500005  0.500005  0.500005  1
  O  O4  1  0.681844  0.200500  0.206480  1
  O  O5  1  0.200482  0.681832  0.206475  1
  O  O6  1  0.156768  0.156739  0.253845  1
  O  O7  1  0.843236  0.843264  0.746082  1
  O  O8  1  0.799505  0.318196  0.793507  1
  O  O9  1  0.318185  0.799487  0.793502  1
