# generated using pymatgen
data_Zn22Fe2Pt
_symmetry_space_group_name_H-M   'P 1'
_cell_length_a   7.75095018
_cell_length_b   7.75095129
_cell_length_c   7.75054768
_cell_angle_alpha   72.16579817
_cell_angle_beta   72.16579472
_cell_angle_gamma   58.09325946
_symmetry_Int_Tables_number   1
_chemical_formula_structural   Zn22Fe2Pt
_chemical_formula_sum   'Zn22 Fe2 Pt1'
_cell_volume   370.22932602
_cell_formula_units_Z   1
loop_
 _symmetry_equiv_pos_site_id
 _symmetry_equiv_pos_as_xyz
  1  'x, y, z'
loop_
 _atom_site_type_symbol
 _atom_site_label
 _atom_site_symmetry_multiplicity
 _atom_site_fract_x
 _atom_site_fract_y
 _atom_site_fract_z
 _atom_site_occupancy
  Zn  Zn0  1  0.333669  0.748443  0.318987  1
  Zn  Zn1  1  0.657293  0.254204  0.689586  1
  Zn  Zn2  1  0.254204  0.657293  0.689586  1
  Zn  Zn3  1  0.748443  0.333669  0.318987  1
  Zn  Zn4  1  0.676215  0.320176  0.996482  1
  Zn  Zn5  1  0.320176  0.676215  0.996482  1
  Zn  Zn6  1  0.833854  0.833854  0.777083  1
  Zn  Zn7  1  0.170339  0.170339  0.216597  1
  Zn  Zn8  1  0.977818  0.977818  0.174774  1
  Zn  Zn9  1  0.023813  0.023813  0.822580  1
  Zn  Zn10  1  0.350045  0.350045  0.274480  1
  Zn  Zn11  1  0.645417  0.645417  0.722545  1
  Zn  Zn12  1  0.689201  0.689201  0.377144  1
  Zn  Zn13  1  0.315999  0.315999  0.622691  1
  Zn  Zn14  1  0.661961  0.023084  0.463557  1
  Zn  Zn15  1  0.336717  0.976299  0.537208  1
  Zn  Zn16  1  0.976299  0.336717  0.537208  1
  Zn  Zn17  1  0.023084  0.661961  0.463557  1
  Zn  Zn18  1  0.613493  0.006246  0.100864  1
  Zn  Zn19  1  0.373922  0.009950  0.899383  1
  Zn  Zn20  1  0.009950  0.373922  0.899383  1
  Zn  Zn21  1  0.006246  0.613493  0.100864  1
  Fe  Fe22  1  0.344898  0.344898  0.943376  1
  Fe  Fe23  1  0.000033  0.000033  0.499525  1
  Pt  Pt24  1  0.656913  0.656913  0.057070  1
