# generated using pymatgen
data_YbPuO4
_symmetry_space_group_name_H-M   'P 1'
_cell_length_a   6.18710056
_cell_length_b   6.18710012
_cell_length_c   6.18709948
_cell_angle_alpha   36.34663685
_cell_angle_beta   36.34664261
_cell_angle_gamma   36.34663751
_symmetry_Int_Tables_number   1
_chemical_formula_structural   YbPuO4
_chemical_formula_sum   'Yb1 Pu1 O4'
_cell_volume   74.45533116
_cell_formula_units_Z   1
loop_
 _symmetry_equiv_pos_site_id
 _symmetry_equiv_pos_as_xyz
  1  'x, y, z'
loop_
 _atom_site_type_symbol
 _atom_site_label
 _atom_site_symmetry_multiplicity
 _atom_site_fract_x
 _atom_site_fract_y
 _atom_site_fract_z
 _atom_site_occupancy
  Yb  Yb0  1  0.499998  0.500000  0.500001  1
  Pu  Pu1  1  0.000000  0.000000  0.000000  1
  O  O2  1  0.113468  0.113467  0.113467  1
  O  O3  1  0.364359  0.364359  0.364357  1
  O  O4  1  0.635643  0.635641  0.635642  1
  O  O5  1  0.886534  0.886533  0.886533  1
