# generated using pymatgen
data_Y2Er3PdPt3
_symmetry_space_group_name_H-M   'P 1'
_cell_length_a   7.46952400
_cell_length_b   7.53326200
_cell_length_c   14.68124500
_cell_angle_alpha   90.00000000
_cell_angle_beta   90.00000000
_cell_angle_gamma   90.00000000
_symmetry_Int_Tables_number   1
_chemical_formula_structural   Y2Er3PdPt3
_chemical_formula_sum   'Y8 Er12 Pd4 Pt12'
_cell_volume   826.11191359
_cell_formula_units_Z   4
loop_
 _symmetry_equiv_pos_site_id
 _symmetry_equiv_pos_as_xyz
  1  'x, y, z'
loop_
 _atom_site_type_symbol
 _atom_site_label
 _atom_site_symmetry_multiplicity
 _atom_site_fract_x
 _atom_site_fract_y
 _atom_site_fract_z
 _atom_site_occupancy
  Y  Y0  1  0.998678  0.821549  0.408331  1
  Y  Y1  1  0.498678  0.678451  0.091669  1
  Y  Y2  1  0.501322  0.321549  0.591669  1
  Y  Y3  1  0.001322  0.178451  0.908331  1
  Y  Y4  1  0.001322  0.178451  0.591669  1
  Y  Y5  1  0.501322  0.321549  0.908331  1
  Y  Y6  1  0.498678  0.678451  0.408331  1
  Y  Y7  1  0.998678  0.821549  0.091669  1
  Er  Er8  1  0.682481  0.991569  0.250000  1
  Er  Er9  1  0.182481  0.508431  0.250000  1
  Er  Er10  1  0.817519  0.491569  0.750000  1
  Er  Er11  1  0.317519  0.008431  0.750000  1
  Er  Er12  1  0.656472  0.831835  0.621945  1
  Er  Er13  1  0.156472  0.668165  0.878055  1
  Er  Er14  1  0.843528  0.331835  0.378055  1
  Er  Er15  1  0.343528  0.168165  0.121945  1
  Er  Er16  1  0.343528  0.168165  0.378055  1
  Er  Er17  1  0.843528  0.331835  0.121945  1
  Er  Er18  1  0.156472  0.668165  0.621945  1
  Er  Er19  1  0.656472  0.831835  0.878055  1
  Pd  Pd20  1  0.813641  0.642213  0.250000  1
  Pd  Pd21  1  0.313641  0.857787  0.250000  1
  Pd  Pd22  1  0.686359  0.142213  0.750000  1
  Pd  Pd23  1  0.186359  0.357787  0.750000  1
  Pt  Pt24  1  0.547036  0.386588  0.250000  1
  Pt  Pt25  1  0.047036  0.113412  0.250000  1
  Pt  Pt26  1  0.952964  0.886588  0.750000  1
  Pt  Pt27  1  0.452964  0.613412  0.750000  1
  Pt  Pt28  1  0.817561  0.532662  0.542357  1
  Pt  Pt29  1  0.317561  0.967338  0.957643  1
  Pt  Pt30  1  0.682439  0.032662  0.457643  1
  Pt  Pt31  1  0.182439  0.467338  0.042357  1
  Pt  Pt32  1  0.182439  0.467338  0.457643  1
  Pt  Pt33  1  0.682439  0.032662  0.042357  1
  Pt  Pt34  1  0.317561  0.967338  0.542357  1
  Pt  Pt35  1  0.817561  0.532662  0.957643  1
