# generated using pymatgen
data_Nd12Co4SnRh
_symmetry_space_group_name_H-M   'P 1'
_cell_length_a   8.62517775
_cell_length_b   8.62517850
_cell_length_c   8.62517808
_cell_angle_alpha   110.77642772
_cell_angle_beta   110.12784168
_cell_angle_gamma   107.52739150
_symmetry_Int_Tables_number   1
_chemical_formula_structural   Nd12Co4SnRh
_chemical_formula_sum   'Nd12 Co4 Sn1 Rh1'
_cell_volume   493.50823060
_cell_formula_units_Z   1
loop_
 _symmetry_equiv_pos_site_id
 _symmetry_equiv_pos_as_xyz
  1  'x, y, z'
loop_
 _atom_site_type_symbol
 _atom_site_label
 _atom_site_symmetry_multiplicity
 _atom_site_fract_x
 _atom_site_fract_y
 _atom_site_fract_z
 _atom_site_occupancy
  Nd  Nd0  1  0.396235  0.204031  0.192203  1
  Nd  Nd1  1  0.603765  0.795969  0.807797  1
  Nd  Nd2  1  0.011829  0.204031  0.807797  1
  Nd  Nd3  1  0.988171  0.795969  0.192203  1
  Nd  Nd4  1  0.186018  0.299544  0.485562  1
  Nd  Nd5  1  0.813982  0.700456  0.514438  1
  Nd  Nd6  1  0.186018  0.700456  0.886475  1
  Nd  Nd7  1  0.813982  0.299544  0.113525  1
  Nd  Nd8  1  0.316483  0.624134  0.307651  1
  Nd  Nd9  1  0.683517  0.375866  0.692349  1
  Nd  Nd10  1  0.316483  0.008833  0.692349  1
  Nd  Nd11  1  0.683517  0.991167  0.307651  1
  Co  Co12  1  0.379130  0.000000  0.379130  1
  Co  Co13  1  0.620870  0.000000  0.620870  1
  Co  Co14  1  0.111621  0.611621  0.500000  1
  Co  Co15  1  0.888379  0.388379  0.500000  1
  Sn  Sn16  1  0.500000  0.500000  0.000000  1
  Rh  Rh17  1  0.000000  0.000000  0.000000  1
