# generated using pymatgen
data_SrPr3Ho3CoI12
_symmetry_space_group_name_H-M   'P 1'
_cell_length_a   9.86364097
_cell_length_b   9.99561965
_cell_length_c   9.93837235
_cell_angle_alpha   105.96884126
_cell_angle_beta   106.68065601
_cell_angle_gamma   106.17603501
_symmetry_Int_Tables_number   1
_chemical_formula_structural   SrPr3Ho3CoI12
_chemical_formula_sum   'Sr1 Pr3 Ho3 Co1 I12'
_cell_volume   831.61447430
_cell_formula_units_Z   1
loop_
 _symmetry_equiv_pos_site_id
 _symmetry_equiv_pos_as_xyz
  1  'x, y, z'
loop_
 _atom_site_type_symbol
 _atom_site_label
 _atom_site_symmetry_multiplicity
 _atom_site_fract_x
 _atom_site_fract_y
 _atom_site_fract_z
 _atom_site_occupancy
  Sr  Sr0  1  0.499941  0.500497  0.499254  1
  Pr  Pr1  1  0.286670  0.020073  0.091557  1
  Pr  Pr2  1  0.903987  0.699412  0.981548  1
  Pr  Pr3  1  0.713963  0.980531  0.908488  1
  Ho  Ho4  1  0.979372  0.909618  0.709418  1
  Ho  Ho5  1  0.021999  0.095032  0.290982  1
  Ho  Ho6  1  0.093020  0.288050  0.019363  1
  Co  Co7  1  0.000534  0.000712  0.000667  1
  I  I8  1  0.540937  0.626133  0.856057  1
  I  I9  1  0.446630  0.373319  0.137182  1
  I  I10  1  0.312197  0.923687  0.766937  1
  I  I11  1  0.364975  0.142325  0.454904  1
  I  I12  1  0.932212  0.789732  0.332991  1
  I  I13  1  0.688122  0.077354  0.233471  1
  I  I14  1  0.071420  0.219936  0.680900  1
  I  I15  1  0.781874  0.323216  0.927091  1
  I  I16  1  0.228345  0.671362  0.074389  1
  I  I17  1  0.865092  0.557564  0.626799  1
  I  I18  1  0.133921  0.442347  0.362422  1
  I  I19  1  0.634788  0.859098  0.545579  1
