# generated using pymatgen
data_Gd3YV2O10
_symmetry_space_group_name_H-M   'P 1'
_cell_length_a   3.77155200
_cell_length_b   10.50843309
_cell_length_c   11.35584307
_cell_angle_alpha   89.85439069
_cell_angle_beta   90.00000000
_cell_angle_gamma   90.00000000
_symmetry_Int_Tables_number   1
_chemical_formula_structural   Gd3YV2O10
_chemical_formula_sum   'Gd6 Y2 V4 O20'
_cell_volume   450.06583156
_cell_formula_units_Z   2
loop_
 _symmetry_equiv_pos_site_id
 _symmetry_equiv_pos_as_xyz
  1  'x, y, z'
loop_
 _atom_site_type_symbol
 _atom_site_label
 _atom_site_symmetry_multiplicity
 _atom_site_fract_x
 _atom_site_fract_y
 _atom_site_fract_z
 _atom_site_occupancy
  Gd  Gd0  1  0.250000  0.138286  0.444473  1
  Gd  Gd1  1  0.750000  0.861714  0.555527  1
  Gd  Gd2  1  0.250000  0.636531  0.055735  1
  Gd  Gd3  1  0.750000  0.363469  0.944265  1
  Gd  Gd4  1  0.250000  0.116462  0.775058  1
  Gd  Gd5  1  0.750000  0.883538  0.224942  1
  Y  Y6  1  0.250000  0.617746  0.725706  1
  Y  Y7  1  0.750000  0.382254  0.274294  1
  V  V8  1  0.250000  0.173590  0.119841  1
  V  V9  1  0.750000  0.826410  0.880159  1
  V  V10  1  0.250000  0.671103  0.380777  1
  V  V11  1  0.750000  0.328897  0.619223  1
  O  O12  1  0.250000  0.267036  0.616720  1
  O  O13  1  0.750000  0.732964  0.383280  1
  O  O14  1  0.250000  0.765536  0.882133  1
  O  O15  1  0.750000  0.234464  0.117867  1
  O  O16  1  0.250000  0.510364  0.344226  1
  O  O17  1  0.750000  0.489636  0.655774  1
  O  O18  1  0.250000  0.012130  0.154259  1
  O  O19  1  0.750000  0.987870  0.845741  1
  O  O20  1  0.250000  0.261836  0.268571  1
  O  O21  1  0.750000  0.738164  0.731429  1
  O  O22  1  0.250000  0.759232  0.231539  1
  O  O23  1  0.750000  0.240768  0.768461  1
  O  O24  1  0.750000  0.006665  0.394795  1
  O  O25  1  0.250000  0.993335  0.605205  1
  O  O26  1  0.750000  0.505225  0.106679  1
  O  O27  1  0.250000  0.494775  0.893321  1
  O  O28  1  0.750000  0.277419  0.458006  1
  O  O29  1  0.250000  0.722581  0.541994  1
  O  O30  1  0.750000  0.774462  0.041052  1
  O  O31  1  0.250000  0.225538  0.958948  1
