# generated using pymatgen
data_Er6Co16ReP12W
_symmetry_space_group_name_H-M   'P 1'
_cell_length_a   3.70602800
_cell_length_b   10.48914600
_cell_length_c   12.17097900
_cell_angle_alpha   90.00000000
_cell_angle_beta   90.00000000
_cell_angle_gamma   90.00000000
_symmetry_Int_Tables_number   1
_chemical_formula_structural   Er6Co16ReP12W
_chemical_formula_sum   'Er6 Co16 Re1 P12 W1'
_cell_volume   473.12330369
_cell_formula_units_Z   1
loop_
 _symmetry_equiv_pos_site_id
 _symmetry_equiv_pos_as_xyz
  1  'x, y, z'
loop_
 _atom_site_type_symbol
 _atom_site_label
 _atom_site_symmetry_multiplicity
 _atom_site_fract_x
 _atom_site_fract_y
 _atom_site_fract_z
 _atom_site_occupancy
  Er  Er0  1  0.750000  0.250000  0.475131  1
  Er  Er1  1  0.250000  0.750000  0.525375  1
  Er  Er2  1  0.250000  0.931306  0.794657  1
  Er  Er3  1  0.250000  0.568694  0.794657  1
  Er  Er4  1  0.750000  0.069506  0.205660  1
  Er  Er5  1  0.750000  0.430494  0.205660  1
  Co  Co6  1  0.250000  0.250000  0.298655  1
  Co  Co7  1  0.750000  0.750000  0.701133  1
  Co  Co8  1  0.750000  0.250000  0.011914  1
  Co  Co9  1  0.250000  0.750000  0.986703  1
  Co  Co10  1  0.250000  0.416553  0.009923  1
  Co  Co11  1  0.250000  0.083447  0.009923  1
  Co  Co12  1  0.750000  0.581644  0.989295  1
  Co  Co13  1  0.750000  0.918356  0.989295  1
  Co  Co14  1  0.250000  0.452733  0.569119  1
  Co  Co15  1  0.250000  0.047267  0.569119  1
  Co  Co16  1  0.750000  0.545976  0.432178  1
  Co  Co17  1  0.750000  0.954024  0.432178  1
  Co  Co18  1  0.250000  0.872480  0.292733  1
  Co  Co19  1  0.250000  0.627520  0.292733  1
  Co  Co20  1  0.750000  0.128966  0.707504  1
  Co  Co21  1  0.750000  0.371034  0.707504  1
  Re  Re22  1  0.250000  0.250000  0.842842  1
  P  P23  1  0.250000  0.250000  0.120596  1
  P  P24  1  0.750000  0.750000  0.879349  1
  P  P25  1  0.250000  0.250000  0.649825  1
  P  P26  1  0.750000  0.750000  0.351452  1
  P  P27  1  0.250000  0.437600  0.384210  1
  P  P28  1  0.250000  0.062400  0.384210  1
  P  P29  1  0.750000  0.562245  0.616674  1
  P  P30  1  0.750000  0.937755  0.616674  1
  P  P31  1  0.250000  0.906530  0.107250  1
  P  P32  1  0.250000  0.593470  0.107250  1
  P  P33  1  0.750000  0.095564  0.891054  1
  P  P34  1  0.750000  0.404436  0.891054  1
  W  W35  1  0.750000  0.750000  0.156506  1
