# generated using pymatgen
data_Ca2ZnWN4
_symmetry_space_group_name_H-M   'P 1'
_cell_length_a   5.86311000
_cell_length_b   5.99151849
_cell_length_c   6.57979646
_cell_angle_alpha   73.92023603
_cell_angle_beta   90.00000000
_cell_angle_gamma   90.00000000
_symmetry_Int_Tables_number   1
_chemical_formula_structural   Ca2ZnWN4
_chemical_formula_sum   'Ca4 Zn2 W2 N8'
_cell_volume   222.09829306
_cell_formula_units_Z   2
loop_
 _symmetry_equiv_pos_site_id
 _symmetry_equiv_pos_as_xyz
  1  'x, y, z'
loop_
 _atom_site_type_symbol
 _atom_site_label
 _atom_site_symmetry_multiplicity
 _atom_site_fract_x
 _atom_site_fract_y
 _atom_site_fract_z
 _atom_site_occupancy
  Ca  Ca0  1  0.250000  0.265700  0.057074  1
  Ca  Ca1  1  0.750000  0.734300  0.942926  1
  Ca  Ca2  1  0.750000  0.769320  0.430581  1
  Ca  Ca3  1  0.250000  0.230680  0.569419  1
  Zn  Zn4  1  0.750000  0.281777  0.309060  1
  Zn  Zn5  1  0.250000  0.718223  0.690940  1
  W  W6  1  0.250000  0.726964  0.195328  1
  W  W7  1  0.750000  0.273036  0.804672  1
  N  N8  1  0.501276  0.475202  0.754166  1
  N  N9  1  0.001276  0.524798  0.245834  1
  N  N10  1  0.498724  0.524798  0.245834  1
  N  N11  1  0.998724  0.475202  0.754166  1
  N  N12  1  0.750000  0.078853  0.618054  1
  N  N13  1  0.250000  0.921147  0.381946  1
  N  N14  1  0.750000  0.090791  0.090077  1
  N  N15  1  0.250000  0.909209  0.909923  1
