# generated using pymatgen
data_Zr10BeTl6Se
_symmetry_space_group_name_H-M   'P 1'
_cell_length_a   8.74095000
_cell_length_b   8.74095108
_cell_length_c   5.89407900
_cell_angle_alpha   90.00000000
_cell_angle_beta   90.00000000
_cell_angle_gamma   119.99999591
_symmetry_Int_Tables_number   1
_chemical_formula_structural   Zr10BeTl6Se
_chemical_formula_sum   'Zr10 Be1 Tl6 Se1'
_cell_volume   389.99938999
_cell_formula_units_Z   1
loop_
 _symmetry_equiv_pos_site_id
 _symmetry_equiv_pos_as_xyz
  1  'x, y, z'
loop_
 _atom_site_type_symbol
 _atom_site_label
 _atom_site_symmetry_multiplicity
 _atom_site_fract_x
 _atom_site_fract_y
 _atom_site_fract_z
 _atom_site_occupancy
  Zr  Zr0  1  0.750043  0.750043  0.234393  1
  Zr  Zr1  1  0.249957  0.000000  0.234393  1
  Zr  Zr2  1  0.000000  0.249957  0.234393  1
  Zr  Zr3  1  0.249957  0.249957  0.765607  1
  Zr  Zr4  1  0.750043  0.000000  0.765607  1
  Zr  Zr5  1  0.000000  0.750043  0.765607  1
  Zr  Zr6  1  0.666667  0.333333  0.500000  1
  Zr  Zr7  1  0.333333  0.666667  0.500000  1
  Zr  Zr8  1  0.333333  0.666667  0.000000  1
  Zr  Zr9  1  0.666667  0.333333  0.000000  1
  Be  Be10  1  0.000000  0.000000  0.000000  1
  Tl  Tl11  1  0.392406  0.392406  0.253338  1
  Tl  Tl12  1  0.607594  0.000000  0.253338  1
  Tl  Tl13  1  0.000000  0.607594  0.253338  1
  Tl  Tl14  1  0.607594  0.607594  0.746662  1
  Tl  Tl15  1  0.392406  0.000000  0.746662  1
  Tl  Tl16  1  0.000000  0.392406  0.746662  1
  Se  Se17  1  0.000000  0.000000  0.500000  1
