# generated using pymatgen
data_Zr10TlAg(BiPb)3
_symmetry_space_group_name_H-M   'P 1'
_cell_length_a   8.94324400
_cell_length_b   8.94324294
_cell_length_c   6.02145400
_cell_angle_alpha   90.00011152
_cell_angle_beta   90.00011475
_cell_angle_gamma   119.99953336
_symmetry_Int_Tables_number   1
_chemical_formula_structural   Zr10TlAg(BiPb)3
_chemical_formula_sum   'Zr10 Tl1 Ag1 Bi3 Pb3'
_cell_volume   417.08460046
_cell_formula_units_Z   1
loop_
 _symmetry_equiv_pos_site_id
 _symmetry_equiv_pos_as_xyz
  1  'x, y, z'
loop_
 _atom_site_type_symbol
 _atom_site_label
 _atom_site_symmetry_multiplicity
 _atom_site_fract_x
 _atom_site_fract_y
 _atom_site_fract_z
 _atom_site_occupancy
  Zr  Zr0  1  0.666668  0.333335  0.001950  1
  Zr  Zr1  1  0.333333  0.666666  0.001950  1
  Zr  Zr2  1  0.333333  0.666667  0.498175  1
  Zr  Zr3  1  0.666669  0.333335  0.498175  1
  Zr  Zr4  1  0.721393  0.721394  0.748531  1
  Zr  Zr5  1  0.278592  0.999988  0.748531  1
  Zr  Zr6  1  0.999990  0.278591  0.748531  1
  Zr  Zr7  1  0.280473  0.280473  0.251235  1
  Zr  Zr8  1  0.719535  0.000009  0.251235  1
  Zr  Zr9  1  0.000007  0.719534  0.251235  1
  Tl  Tl10  1  0.999999  0.999999  0.001907  1
  Ag  Ag11  1  0.999998  0.999998  0.497626  1
  Bi  Bi12  1  0.382614  0.382616  0.749310  1
  Bi  Bi13  1  0.617375  0.000007  0.749308  1
  Bi  Bi14  1  0.000006  0.617372  0.749308  1
  Pb  Pb15  1  0.619792  0.619792  0.251007  1
  Pb  Pb16  1  0.380223  0.999996  0.250994  1
  Pb  Pb17  1  0.999998  0.380227  0.250994  1
