# generated using pymatgen
data_Sm2Tc16GeC3
_symmetry_space_group_name_H-M   'P 1'
_cell_length_a   7.02139508
_cell_length_b   6.97017744
_cell_length_c   6.97017861
_cell_angle_alpha   82.58996492
_cell_angle_beta   82.50740818
_cell_angle_gamma   82.50741605
_symmetry_Int_Tables_number   1
_chemical_formula_structural   Sm2Tc16GeC3
_chemical_formula_sum   'Sm2 Tc16 Ge1 C3'
_cell_volume   333.14048869
_cell_formula_units_Z   1
loop_
 _symmetry_equiv_pos_site_id
 _symmetry_equiv_pos_as_xyz
  1  'x, y, z'
loop_
 _atom_site_type_symbol
 _atom_site_label
 _atom_site_symmetry_multiplicity
 _atom_site_fract_x
 _atom_site_fract_y
 _atom_site_fract_z
 _atom_site_occupancy
  Sm  Sm0  1  0.653518  0.651578  0.651578  1
  Sm  Sm1  1  0.346482  0.348422  0.348422  1
  Tc  Tc2  1  0.000000  0.000000  0.500000  1
  Tc  Tc3  1  0.000000  0.500000  0.000000  1
  Tc  Tc4  1  0.722045  0.275252  0.003107  1
  Tc  Tc5  1  0.000000  0.723645  0.276355  1
  Tc  Tc6  1  0.277955  0.996893  0.724748  1
  Tc  Tc7  1  0.000000  0.276355  0.723645  1
  Tc  Tc8  1  0.722045  0.003107  0.275252  1
  Tc  Tc9  1  0.277955  0.724748  0.996893  1
  Tc  Tc10  1  0.348231  0.349395  0.860214  1
  Tc  Tc11  1  0.859691  0.352903  0.352903  1
  Tc  Tc12  1  0.348231  0.860214  0.349395  1
  Tc  Tc13  1  0.651769  0.650605  0.139786  1
  Tc  Tc14  1  0.140309  0.647097  0.647097  1
  Tc  Tc15  1  0.651769  0.139786  0.650605  1
  Tc  Tc16  1  0.907520  0.899896  0.899896  1
  Tc  Tc17  1  0.092480  0.100104  0.100104  1
  Ge  Ge18  1  0.500000  0.000000  0.000000  1
  C  C19  1  0.500000  0.500000  0.000000  1
  C  C20  1  0.000000  0.500000  0.500000  1
  C  C21  1  0.500000  0.000000  0.500000  1
