# generated using pymatgen
data_Tb2FeNi2P7Ru9
_symmetry_space_group_name_H-M   'P 1'
_cell_length_a   3.84424600
_cell_length_b   9.40943364
_cell_length_c   9.28889855
_cell_angle_alpha   119.83029070
_cell_angle_beta   90.00000000
_cell_angle_gamma   90.00000000
_symmetry_Int_Tables_number   1
_chemical_formula_structural   Tb2FeNi2P7Ru9
_chemical_formula_sum   'Tb2 Fe1 Ni2 P7 Ru9'
_cell_volume   291.48060162
_cell_formula_units_Z   1
loop_
 _symmetry_equiv_pos_site_id
 _symmetry_equiv_pos_as_xyz
  1  'x, y, z'
loop_
 _atom_site_type_symbol
 _atom_site_label
 _atom_site_symmetry_multiplicity
 _atom_site_fract_x
 _atom_site_fract_y
 _atom_site_fract_z
 _atom_site_occupancy
  Tb  Tb0  1  0.000000  0.669241  0.331665  1
  Tb  Tb1  1  0.500000  0.332132  0.667936  1
  Fe  Fe2  1  0.000000  0.841487  0.112590  1
  Ni  Ni3  1  0.000000  0.888850  0.728841  1
  Ni  Ni4  1  0.000000  0.269732  0.160360  1
  P  P5  1  0.000000  0.111646  0.700355  1
  P  P6  1  0.000000  0.302597  0.416623  1
  P  P7  1  0.000000  0.590234  0.892745  1
  P  P8  1  0.500000  0.710795  0.597058  1
  P  P9  1  0.500000  0.403307  0.113500  1
  P  P10  1  0.500000  0.881995  0.282338  1
  P  P11  1  0.000000  0.998336  0.003158  1
  Ru  Ru12  1  0.000000  0.364151  0.938597  1
  Ru  Ru13  1  0.000000  0.062510  0.425709  1
  Ru  Ru14  1  0.000000  0.576464  0.636476  1
  Ru  Ru15  1  0.500000  0.945711  0.563840  1
  Ru  Ru16  1  0.500000  0.431685  0.381120  1
  Ru  Ru17  1  0.500000  0.616284  0.050679  1
  Ru  Ru18  1  0.500000  0.125957  0.912537  1
  Ru  Ru19  1  0.500000  0.079064  0.200269  1
  Ru  Ru20  1  0.500000  0.797824  0.883604  1
