# generated using pymatgen
data_Dy2Y2B16Mo3W
_symmetry_space_group_name_H-M   'P 1'
_cell_length_a   3.62695700
_cell_length_b   6.03766913
_cell_length_c   11.66671612
_cell_angle_alpha   90.00362108
_cell_angle_beta   90.00000000
_cell_angle_gamma   90.00000000
_symmetry_Int_Tables_number   1
_chemical_formula_structural   Dy2Y2B16Mo3W
_chemical_formula_sum   'Dy2 Y2 B16 Mo3 W1'
_cell_volume   255.48202278
_cell_formula_units_Z   1
loop_
 _symmetry_equiv_pos_site_id
 _symmetry_equiv_pos_as_xyz
  1  'x, y, z'
loop_
 _atom_site_type_symbol
 _atom_site_label
 _atom_site_symmetry_multiplicity
 _atom_site_fract_x
 _atom_site_fract_y
 _atom_site_fract_z
 _atom_site_occupancy
  Dy  Dy0  1  0.000000  0.627233  0.350221  1
  Dy  Dy1  1  0.000000  0.373147  0.649900  1
  Y  Y2  1  0.000000  0.126991  0.149602  1
  Y  Y3  1  0.000000  0.872948  0.850108  1
  B  B4  1  0.500000  0.476958  0.193434  1
  B  B5  1  0.500000  0.523315  0.806453  1
  B  B6  1  0.500000  0.975900  0.306556  1
  B  B7  1  0.500000  0.023367  0.693337  1
  B  B8  1  0.500000  0.287733  0.313608  1
  B  B9  1  0.500000  0.712930  0.686006  1
  B  B10  1  0.500000  0.786628  0.186092  1
  B  B11  1  0.500000  0.213236  0.813759  1
  B  B12  1  0.500000  0.366867  0.468308  1
  B  B13  1  0.500000  0.633725  0.532089  1
  B  B14  1  0.500000  0.866559  0.031897  1
  B  B15  1  0.500000  0.133387  0.968087  1
  B  B16  1  0.500000  0.386273  0.047444  1
  B  B17  1  0.500000  0.613762  0.952530  1
  B  B18  1  0.500000  0.885791  0.452746  1
  B  B19  1  0.500000  0.113630  0.547682  1
  Mo  Mo20  1  0.000000  0.869425  0.584101  1
  Mo  Mo21  1  0.000000  0.629699  0.083681  1
  Mo  Mo22  1  0.000000  0.370224  0.916394  1
  W  W23  1  0.000000  0.130270  0.415963  1
