# generated using pymatgen
data_HoEr4RuPb3
_symmetry_space_group_name_H-M   'P 1'
_cell_length_a   9.26795900
_cell_length_b   9.26795881
_cell_length_c   6.54213300
_cell_angle_alpha   90.00000000
_cell_angle_beta   90.00000000
_cell_angle_gamma   119.99999712
_symmetry_Int_Tables_number   1
_chemical_formula_structural   HoEr4RuPb3
_chemical_formula_sum   'Ho2 Er8 Ru2 Pb6'
_cell_volume   486.65166314
_cell_formula_units_Z   2
loop_
 _symmetry_equiv_pos_site_id
 _symmetry_equiv_pos_as_xyz
  1  'x, y, z'
loop_
 _atom_site_type_symbol
 _atom_site_label
 _atom_site_symmetry_multiplicity
 _atom_site_fract_x
 _atom_site_fract_y
 _atom_site_fract_z
 _atom_site_occupancy
  Ho  Ho0  1  0.333333  0.666667  0.500000  1
  Ho  Ho1  1  0.666667  0.333333  0.500000  1
  Er  Er2  1  0.000000  0.763840  0.749995  1
  Er  Er3  1  0.236160  0.000000  0.250005  1
  Er  Er4  1  0.763840  0.000000  0.749995  1
  Er  Er5  1  0.000000  0.236160  0.250005  1
  Er  Er6  1  0.763840  0.763840  0.250005  1
  Er  Er7  1  0.236160  0.236160  0.749995  1
  Er  Er8  1  0.333333  0.666667  0.000000  1
  Er  Er9  1  0.666667  0.333333  0.000000  1
  Ru  Ru10  1  0.000000  0.000000  0.000000  1
  Ru  Ru11  1  0.000000  0.000000  0.500000  1
  Pb  Pb12  1  0.402759  0.402759  0.249767  1
  Pb  Pb13  1  0.000000  0.402759  0.750233  1
  Pb  Pb14  1  0.000000  0.597241  0.249767  1
  Pb  Pb15  1  0.597241  0.000000  0.249767  1
  Pb  Pb16  1  0.402759  0.000000  0.750233  1
  Pb  Pb17  1  0.597241  0.597241  0.750233  1
