# generated using pymatgen
data_Y2Re7Si4Tc
_symmetry_space_group_name_H-M   'P 1'
_cell_length_a   7.40780800
_cell_length_b   7.42463100
_cell_length_c   4.13272100
_cell_angle_alpha   90.00000000
_cell_angle_beta   90.00000000
_cell_angle_gamma   90.00220965
_symmetry_Int_Tables_number   1
_chemical_formula_structural   Y2Re7Si4Tc
_chemical_formula_sum   'Y2 Re7 Si4 Tc1'
_cell_volume   227.30065057
_cell_formula_units_Z   1
loop_
 _symmetry_equiv_pos_site_id
 _symmetry_equiv_pos_as_xyz
  1  'x, y, z'
loop_
 _atom_site_type_symbol
 _atom_site_label
 _atom_site_symmetry_multiplicity
 _atom_site_fract_x
 _atom_site_fract_y
 _atom_site_fract_z
 _atom_site_occupancy
  Y  Y0  1  0.500146  0.500322  0.000000  1
  Y  Y1  1  0.000136  0.000297  0.500000  1
  Re  Re2  1  0.157946  0.594275  0.500000  1
  Re  Re3  1  0.093494  0.341213  0.000000  1
  Re  Re4  1  0.907511  0.656574  0.000000  1
  Re  Re5  1  0.405385  0.842315  0.500000  1
  Re  Re6  1  0.592788  0.158287  0.500000  1
  Re  Re7  1  0.343343  0.093287  0.000000  1
  Re  Re8  1  0.841386  0.406204  0.500000  1
  Si  Si9  1  0.209258  0.791766  0.000000  1
  Si  Si10  1  0.790081  0.207498  0.000000  1
  Si  Si11  1  0.708590  0.710521  0.500000  1
  Si  Si12  1  0.290467  0.291649  0.500000  1
  Tc  Tc13  1  0.659469  0.905790  0.000000  1
