# generated using pymatgen
data_ScU(GaRu2)2
_symmetry_space_group_name_H-M   'P 1'
_cell_length_a   4.50794100
_cell_length_b   6.38705000
_cell_length_c   13.37832401
_cell_angle_alpha   90.00000000
_cell_angle_beta   90.00343778
_cell_angle_gamma   90.00000000
_symmetry_Int_Tables_number   1
_chemical_formula_structural   ScU(GaRu2)2
_chemical_formula_sum   'Sc3 U3 Ga6 Ru12'
_cell_volume   385.19465178
_cell_formula_units_Z   3
loop_
 _symmetry_equiv_pos_site_id
 _symmetry_equiv_pos_as_xyz
  1  'x, y, z'
loop_
 _atom_site_type_symbol
 _atom_site_label
 _atom_site_symmetry_multiplicity
 _atom_site_fract_x
 _atom_site_fract_y
 _atom_site_fract_z
 _atom_site_occupancy
  Sc  Sc0  1  0.499983  0.499999  0.506562  1
  Sc  Sc1  1  0.000155  0.000000  0.666646  1
  Sc  Sc2  1  0.500209  0.499999  0.826742  1
  U  U3  1  0.000070  0.000000  0.990657  1
  U  U4  1  0.499782  0.499999  0.166715  1
  U  U5  1  0.999835  0.000000  0.342644  1
  Ga  Ga6  1  0.000006  0.499999  0.993868  1
  Ga  Ga7  1  0.499824  0.000000  0.166681  1
  Ga  Ga8  1  0.999804  0.499999  0.339484  1
  Ga  Ga9  1  0.499978  0.000000  0.512703  1
  Ga  Ga10  1  0.000128  0.499999  0.666639  1
  Ga  Ga11  1  0.500183  0.000000  0.820604  1
  Ru  Ru12  1  0.500100  0.257465  0.002820  1
  Ru  Ru13  1  0.500100  0.742536  0.002820  1
  Ru  Ru14  1  0.999756  0.237671  0.166655  1
  Ru  Ru15  1  0.999756  0.762328  0.166655  1
  Ru  Ru16  1  0.499816  0.257665  0.330603  1
  Ru  Ru17  1  0.499816  0.742336  0.330603  1
  Ru  Ru18  1  0.999970  0.244177  0.494623  1
  Ru  Ru19  1  0.999970  0.755822  0.494623  1
  Ru  Ru20  1  0.500165  0.251140  0.666637  1
  Ru  Ru21  1  0.500165  0.748861  0.666637  1
  Ru  Ru22  1  0.000215  0.244353  0.838690  1
  Ru  Ru23  1  0.000215  0.755646  0.838690  1
