# generated using pymatgen
data_Li2AcPd2
_symmetry_space_group_name_H-M   'P 1'
_cell_length_a   4.12425861
_cell_length_b   4.12425782
_cell_length_c   6.77979201
_cell_angle_alpha   107.70752910
_cell_angle_beta   107.70752510
_cell_angle_gamma   89.99999348
_symmetry_Int_Tables_number   1
_chemical_formula_structural   Li2AcPd2
_chemical_formula_sum   'Li2 Ac1 Pd2'
_cell_volume   104.10710403
_cell_formula_units_Z   1
loop_
 _symmetry_equiv_pos_site_id
 _symmetry_equiv_pos_as_xyz
  1  'x, y, z'
loop_
 _atom_site_type_symbol
 _atom_site_label
 _atom_site_symmetry_multiplicity
 _atom_site_fract_x
 _atom_site_fract_y
 _atom_site_fract_z
 _atom_site_occupancy
  Li  Li0  1  0.749998  0.249998  0.500000  1
  Li  Li1  1  0.249998  0.749998  0.500000  1
  Ac  Ac2  1  0.000000  0.000000  0.000000  1
  Pd  Pd3  1  0.612617  0.612617  0.225233  1
  Pd  Pd4  1  0.387384  0.387384  0.774768  1
