# generated using pymatgen
data_Ti8Al15Ir6Au
_symmetry_space_group_name_H-M   'P 1'
_cell_length_a   8.68476164
_cell_length_b   8.65731871
_cell_length_c   8.68931637
_cell_angle_alpha   119.81887208
_cell_angle_beta   119.90074652
_cell_angle_gamma   90.12407375
_symmetry_Int_Tables_number   1
_chemical_formula_structural   Ti8Al15Ir6Au
_chemical_formula_sum   'Ti8 Al15 Ir6 Au1'
_cell_volume   463.42240598
_cell_formula_units_Z   1
loop_
 _symmetry_equiv_pos_site_id
 _symmetry_equiv_pos_as_xyz
  1  'x, y, z'
loop_
 _atom_site_type_symbol
 _atom_site_label
 _atom_site_symmetry_multiplicity
 _atom_site_fract_x
 _atom_site_fract_y
 _atom_site_fract_z
 _atom_site_occupancy
  Ti  Ti0  1  0.791300  0.291870  0.077798  1
  Ti  Ti1  1  0.216570  0.291539  0.499596  1
  Ti  Ti2  1  0.210415  0.707563  0.500697  1
  Ti  Ti3  1  0.212590  0.714214  0.920379  1
  Ti  Ti4  1  0.789779  0.712818  0.500761  1
  Ti  Ti5  1  0.782246  0.285915  0.499595  1
  Ti  Ti6  1  0.390347  0.127512  0.752553  1
  Ti  Ti7  1  0.379855  0.634778  0.257256  1
  Al  Al8  1  0.997265  0.496445  0.499689  1
  Al  Al9  1  0.154745  0.344099  0.190610  1
  Al  Al10  1  0.157539  0.965460  0.815436  1
  Al  Al11  1  0.152821  0.351863  0.808409  1
  Al  Al12  1  0.540200  0.345640  0.195685  1
  Al  Al13  1  0.844271  0.653143  0.808163  1
  Al  Al14  1  0.842595  0.038716  0.186011  1
  Al  Al15  1  0.840303  0.648592  0.182445  1
  Al  Al16  1  0.468338  0.654833  0.812363  1
  Al  Al17  1  0.379163  0.122381  0.258382  1
  Al  Al18  1  0.860895  0.126277  0.752292  1
  Al  Al19  1  0.610029  0.874061  0.248251  1
  Al  Al20  1  0.620675  0.365322  0.742169  1
  Al  Al21  1  0.621108  0.876276  0.742076  1
  Al  Al22  1  0.138572  0.874724  0.248310  1
  Ir  Ir23  1  0.499067  0.999370  0.999211  1
  Ir  Ir24  1  0.498021  0.498201  0.001388  1
  Ir  Ir25  1  0.498055  0.500073  0.498535  1
  Ir  Ir26  1  0.001708  0.499742  0.001748  1
  Ir  Ir27  1  0.999997  0.999803  0.999384  1
  Ir  Ir28  1  0.500018  0.999539  0.501175  1
  Au  Au29  1  0.001511  0.999230  0.499634  1
