# generated using pymatgen
data_Ho8AlSi7Pd8
_symmetry_space_group_name_H-M   'P 1'
_cell_length_a   4.32259400
_cell_length_b   7.54025125
_cell_length_c   13.93599532
_cell_angle_alpha   89.73330496
_cell_angle_beta   90.00000000
_cell_angle_gamma   90.00000000
_symmetry_Int_Tables_number   1
_chemical_formula_structural   Ho8AlSi7Pd8
_chemical_formula_sum   'Ho8 Al1 Si7 Pd8'
_cell_volume   454.21717375
_cell_formula_units_Z   1
loop_
 _symmetry_equiv_pos_site_id
 _symmetry_equiv_pos_as_xyz
  1  'x, y, z'
loop_
 _atom_site_type_symbol
 _atom_site_label
 _atom_site_symmetry_multiplicity
 _atom_site_fract_x
 _atom_site_fract_y
 _atom_site_fract_z
 _atom_site_occupancy
  Ho  Ho0  1  0.000000  0.211025  0.749219  1
  Ho  Ho1  1  0.000000  0.210375  0.250552  1
  Ho  Ho2  1  0.500000  0.787833  0.746686  1
  Ho  Ho3  1  0.500000  0.791201  0.250656  1
  Ho  Ho4  1  0.000000  0.290863  0.499692  1
  Ho  Ho5  1  0.500000  0.704727  0.000763  1
  Ho  Ho6  1  0.000000  0.301866  0.003546  1
  Ho  Ho7  1  0.500000  0.700831  0.499274  1
  Al  Al8  1  0.500000  0.093259  0.905718  1
  Si  Si9  1  0.000000  0.590410  0.855911  1
  Si  Si10  1  0.000000  0.594127  0.143983  1
  Si  Si11  1  0.500000  0.407250  0.643321  1
  Si  Si12  1  0.500000  0.408079  0.357253  1
  Si  Si13  1  0.000000  0.907775  0.406402  1
  Si  Si14  1  0.000000  0.907483  0.592714  1
  Si  Si15  1  0.500000  0.092793  0.097275  1
  Pd  Pd16  1  0.000000  0.916422  0.889496  1
  Pd  Pd17  1  0.000000  0.923530  0.108148  1
  Pd  Pd18  1  0.500000  0.076510  0.608293  1
  Pd  Pd19  1  0.500000  0.075974  0.392119  1
  Pd  Pd20  1  0.000000  0.579524  0.343818  1
  Pd  Pd21  1  0.000000  0.580436  0.655676  1
  Pd  Pd22  1  0.500000  0.423086  0.158329  1
  Pd  Pd23  1  0.500000  0.424623  0.841152  1
