# generated using pymatgen
data_Zr6BeBiTe
_symmetry_space_group_name_H-M   'P 1'
_cell_length_a   7.68159600
_cell_length_b   7.68159576
_cell_length_c   3.84359500
_cell_angle_alpha   90.00000000
_cell_angle_beta   90.00000000
_cell_angle_gamma   120.00000104
_symmetry_Int_Tables_number   1
_chemical_formula_structural   Zr6BeBiTe
_chemical_formula_sum   'Zr6 Be1 Bi1 Te1'
_cell_volume   196.41342024
_cell_formula_units_Z   1
loop_
 _symmetry_equiv_pos_site_id
 _symmetry_equiv_pos_as_xyz
  1  'x, y, z'
loop_
 _atom_site_type_symbol
 _atom_site_label
 _atom_site_symmetry_multiplicity
 _atom_site_fract_x
 _atom_site_fract_y
 _atom_site_fract_z
 _atom_site_occupancy
  Zr  Zr0  1  0.398929  0.392743  0.500000  1
  Zr  Zr1  1  0.607257  0.006186  0.500000  1
  Zr  Zr2  1  0.993814  0.601071  0.500000  1
  Zr  Zr3  1  0.767388  0.767661  0.000000  1
  Zr  Zr4  1  0.232339  0.999728  0.000000  1
  Zr  Zr5  1  0.000272  0.232612  0.000000  1
  Be  Be6  1  0.000000  0.000000  0.500000  1
  Bi  Bi7  1  0.333333  0.666667  0.000000  1
  Te  Te8  1  0.666667  0.333333  0.000000  1
