# generated using pymatgen
data_Ho8Ti9Re2Si16Rh
_symmetry_space_group_name_H-M   'P 1'
_cell_length_a   6.96679231
_cell_length_b   6.96679195
_cell_length_c   12.76205069
_cell_angle_alpha   90.19468226
_cell_angle_beta   89.80531760
_cell_angle_gamma   89.71772547
_symmetry_Int_Tables_number   1
_chemical_formula_structural   Ho8Ti9Re2Si16Rh
_chemical_formula_sum   'Ho8 Ti9 Re2 Si16 Rh1'
_cell_volume   619.40664582
_cell_formula_units_Z   1
loop_
 _symmetry_equiv_pos_site_id
 _symmetry_equiv_pos_as_xyz
  1  'x, y, z'
loop_
 _atom_site_type_symbol
 _atom_site_label
 _atom_site_symmetry_multiplicity
 _atom_site_fract_x
 _atom_site_fract_y
 _atom_site_fract_z
 _atom_site_occupancy
  Ho  Ho0  1  0.340049  0.001586  0.467379  1
  Ho  Ho1  1  0.498127  0.841873  0.719398  1
  Ho  Ho2  1  0.500881  0.157836  0.217003  1
  Ho  Ho3  1  0.841873  0.498127  0.280602  1
  Ho  Ho4  1  0.157836  0.500881  0.782997  1
  Ho  Ho5  1  0.658998  0.998645  0.968979  1
  Ho  Ho6  1  0.001586  0.340049  0.532621  1
  Ho  Ho7  1  0.998645  0.658998  0.031021  1
  Ti  Ti8  1  0.673142  0.673142  0.500000  1
  Ti  Ti9  1  0.148455  0.002670  0.876519  1
  Ti  Ti10  1  0.494587  0.656829  0.125817  1
  Ti  Ti11  1  0.505348  0.348740  0.628316  1
  Ti  Ti12  1  0.656829  0.494587  0.874183  1
  Ti  Ti13  1  0.348740  0.505348  0.371684  1
  Ti  Ti14  1  0.849436  0.992325  0.374565  1
  Ti  Ti15  1  0.002670  0.148455  0.123481  1
  Ti  Ti16  1  0.992325  0.849436  0.625435  1
  Re  Re17  1  0.174467  0.827443  0.248445  1
  Re  Re18  1  0.827443  0.174467  0.751555  1
  Si  Si19  1  0.199738  0.131249  0.684622  1
  Si  Si20  1  0.372155  0.702798  0.933307  1
  Si  Si21  1  0.631306  0.296581  0.434269  1
  Si  Si22  1  0.702798  0.372155  0.066693  1
  Si  Si23  1  0.296581  0.631306  0.565731  1
  Si  Si24  1  0.799055  0.868396  0.183160  1
  Si  Si25  1  0.131249  0.199738  0.315378  1
  Si  Si26  1  0.868396  0.799055  0.816840  1
  Si  Si27  1  0.288906  0.949287  0.065465  1
  Si  Si28  1  0.546335  0.791546  0.316166  1
  Si  Si29  1  0.450666  0.210875  0.817293  1
  Si  Si30  1  0.791546  0.546335  0.683834  1
  Si  Si31  1  0.210875  0.450666  0.182707  1
  Si  Si32  1  0.707801  0.049176  0.567177  1
  Si  Si33  1  0.949287  0.288906  0.934535  1
  Si  Si34  1  0.049176  0.707801  0.432823  1
  Rh  Rh35  1  0.332693  0.332693  0.000000  1
