# generated using pymatgen
data_SrCe4EuSe8
_symmetry_space_group_name_H-M   'P 1'
_cell_length_a   7.84636151
_cell_length_b   7.84636048
_cell_length_c   7.84636023
_cell_angle_alpha   109.40965767
_cell_angle_beta   109.40965534
_cell_angle_gamma   109.59441560
_symmetry_Int_Tables_number   1
_chemical_formula_structural   SrCe4EuSe8
_chemical_formula_sum   'Sr1 Ce4 Eu1 Se8'
_cell_volume   371.86168730
_cell_formula_units_Z   1
loop_
 _symmetry_equiv_pos_site_id
 _symmetry_equiv_pos_as_xyz
  1  'x, y, z'
loop_
 _atom_site_type_symbol
 _atom_site_label
 _atom_site_symmetry_multiplicity
 _atom_site_fract_x
 _atom_site_fract_y
 _atom_site_fract_z
 _atom_site_occupancy
  Sr  Sr0  1  0.500000  0.500000  0.000000  1
  Ce  Ce1  1  0.998635  0.375587  0.123363  1
  Ce  Ce2  1  0.252225  0.875272  0.876637  1
  Ce  Ce3  1  0.624413  0.747775  0.623048  1
  Ce  Ce4  1  0.124728  0.001365  0.376952  1
  Eu  Eu5  1  0.750000  0.250000  0.500000  1
  Se  Se6  1  0.520938  0.116980  0.747491  1
  Se  Se7  1  0.016982  0.118353  0.749073  1
  Se  Se8  1  0.369281  0.267908  0.250927  1
  Se  Se9  1  0.226552  0.479062  0.596042  1
  Se  Se10  1  0.369488  0.773448  0.252509  1
  Se  Se11  1  0.881647  0.630719  0.898627  1
  Se  Se12  1  0.883020  0.630512  0.403958  1
  Se  Se13  1  0.732092  0.983018  0.101373  1
