# generated using pymatgen
data_Nd10Sn5BiCl2
_symmetry_space_group_name_H-M   'P 1'
_cell_length_a   9.48309109
_cell_length_b   9.48309109
_cell_length_c   6.74959400
_cell_angle_alpha   90.00000000
_cell_angle_beta   90.00000000
_cell_angle_gamma   120.24215941
_symmetry_Int_Tables_number   1
_chemical_formula_structural   Nd10Sn5BiCl2
_chemical_formula_sum   'Nd10 Sn5 Bi1 Cl2'
_cell_volume   524.37647327
_cell_formula_units_Z   1
loop_
 _symmetry_equiv_pos_site_id
 _symmetry_equiv_pos_as_xyz
  1  'x, y, z'
loop_
 _atom_site_type_symbol
 _atom_site_label
 _atom_site_symmetry_multiplicity
 _atom_site_fract_x
 _atom_site_fract_y
 _atom_site_fract_z
 _atom_site_occupancy
  Nd  Nd0  1  0.667874  0.330792  0.001450  1
  Nd  Nd1  1  0.330792  0.667874  0.498550  1
  Nd  Nd2  1  0.667874  0.330792  0.498550  1
  Nd  Nd3  1  0.330792  0.667874  0.001450  1
  Nd  Nd4  1  0.739766  0.004888  0.750000  1
  Nd  Nd5  1  0.739441  0.739441  0.250000  1
  Nd  Nd6  1  0.000691  0.261893  0.250000  1
  Nd  Nd7  1  0.004888  0.739766  0.750000  1
  Nd  Nd8  1  0.257269  0.257269  0.750000  1
  Nd  Nd9  1  0.261893  0.000691  0.250000  1
  Sn  Sn10  1  0.999378  0.611895  0.250000  1
  Sn  Sn11  1  0.611895  0.999378  0.250000  1
  Sn  Sn12  1  0.388825  0.000718  0.750000  1
  Sn  Sn13  1  0.000718  0.388825  0.750000  1
  Sn  Sn14  1  0.388170  0.388170  0.250000  1
  Bi  Bi15  1  0.612622  0.612622  0.750000  1
  Cl  Cl16  1  0.998554  0.998554  0.500668  1
  Cl  Cl17  1  0.998554  0.998554  0.999332  1
