# generated using pymatgen
data_Ce4B4Ir9Rh
_symmetry_space_group_name_H-M   'P 1'
_cell_length_a   11.03542245
_cell_length_b   11.03810069
_cell_length_c   11.03810138
_cell_angle_alpha   28.89682673
_cell_angle_beta   28.85639964
_cell_angle_gamma   28.85640641
_symmetry_Int_Tables_number   1
_chemical_formula_structural   Ce4B4Ir9Rh
_chemical_formula_sum   'Ce4 B4 Ir9 Rh1'
_cell_volume   277.18098752
_cell_formula_units_Z   1
loop_
 _symmetry_equiv_pos_site_id
 _symmetry_equiv_pos_as_xyz
  1  'x, y, z'
loop_
 _atom_site_type_symbol
 _atom_site_label
 _atom_site_symmetry_multiplicity
 _atom_site_fract_x
 _atom_site_fract_y
 _atom_site_fract_z
 _atom_site_occupancy
  Ce  Ce0  1  0.152246  0.152107  0.152107  1
  Ce  Ce1  1  0.949189  0.949169  0.949169  1
  Ce  Ce2  1  0.847754  0.847893  0.847893  1
  Ce  Ce3  1  0.050811  0.050831  0.050831  1
  B  B4  1  0.616201  0.618019  0.618019  1
  B  B5  1  0.714645  0.717884  0.717884  1
  B  B6  1  0.383799  0.381981  0.381981  1
  B  B7  1  0.285355  0.282116  0.282116  1
  Ir  Ir8  1  0.406709  0.899507  0.406719  1
  Ir  Ir9  1  0.900726  0.406537  0.406537  1
  Ir  Ir10  1  0.500000  0.500000  0.000000  1
  Ir  Ir11  1  0.500000  0.000000  0.500000  1
  Ir  Ir12  1  0.500000  0.500000  0.500000  1
  Ir  Ir13  1  0.593291  0.100493  0.593281  1
  Ir  Ir14  1  0.593291  0.593281  0.100493  1
  Ir  Ir15  1  0.099274  0.593463  0.593463  1
  Ir  Ir16  1  0.406709  0.406719  0.899507  1
  Rh  Rh17  1  0.000000  0.500000  0.500000  1
