# generated using pymatgen
data_Ta16Co5Ir3N4
_symmetry_space_group_name_H-M   'P 1'
_cell_length_a   8.28637088
_cell_length_b   8.28637172
_cell_length_c   8.28637107
_cell_angle_alpha   59.98807094
_cell_angle_beta   59.98807065
_cell_angle_gamma   59.98806690
_symmetry_Int_Tables_number   1
_chemical_formula_structural   Ta16Co5Ir3N4
_chemical_formula_sum   'Ta16 Co5 Ir3 N4'
_cell_volume   402.21721945
_cell_formula_units_Z   1
loop_
 _symmetry_equiv_pos_site_id
 _symmetry_equiv_pos_as_xyz
  1  'x, y, z'
loop_
 _atom_site_type_symbol
 _atom_site_label
 _atom_site_symmetry_multiplicity
 _atom_site_fract_x
 _atom_site_fract_y
 _atom_site_fract_z
 _atom_site_occupancy
  Ta  Ta0  1  0.101496  0.629231  0.629231  1
  Ta  Ta1  1  0.629231  0.101496  0.629231  1
  Ta  Ta2  1  0.629231  0.629231  0.101496  1
  Ta  Ta3  1  0.635115  0.635115  0.635115  1
  Ta  Ta4  1  0.812285  0.812285  0.187159  1
  Ta  Ta5  1  0.187709  0.187709  0.811713  1
  Ta  Ta6  1  0.812285  0.187159  0.812285  1
  Ta  Ta7  1  0.187709  0.811713  0.187709  1
  Ta  Ta8  1  0.187159  0.812285  0.812285  1
  Ta  Ta9  1  0.811713  0.187709  0.187709  1
  Ta  Ta10  1  0.433453  0.433453  0.073304  1
  Ta  Ta11  1  0.063776  0.063776  0.436488  1
  Ta  Ta12  1  0.433453  0.073304  0.433453  1
  Ta  Ta13  1  0.063776  0.436488  0.063776  1
  Ta  Ta14  1  0.073304  0.433453  0.433453  1
  Ta  Ta15  1  0.436488  0.063776  0.063776  1
  Co  Co16  1  0.422783  0.422783  0.422783  1
  Co  Co17  1  0.464613  0.845479  0.845479  1
  Co  Co18  1  0.845479  0.464613  0.845479  1
  Co  Co19  1  0.845479  0.845479  0.464613  1
  Co  Co20  1  0.842047  0.842047  0.842047  1
  Ir  Ir21  1  0.750420  0.415844  0.415844  1
  Ir  Ir22  1  0.415844  0.750420  0.415844  1
  Ir  Ir23  1  0.415844  0.415844  0.750420  1
  N  N24  1  0.627448  0.123906  0.123906  1
  N  N25  1  0.123906  0.627448  0.123906  1
  N  N26  1  0.123906  0.123906  0.627448  1
  N  N27  1  0.124050  0.124050  0.124050  1
