# generated using pymatgen
data_ErU7(B6W)4
_symmetry_space_group_name_H-M   'P 1'
_cell_length_a   3.67988700
_cell_length_b   9.28348868
_cell_length_c   11.38677405
_cell_angle_alpha   89.94803168
_cell_angle_beta   90.00000000
_cell_angle_gamma   90.00000000
_symmetry_Int_Tables_number   1
_chemical_formula_structural   ErU7(B6W)4
_chemical_formula_sum   'Er1 U7 B24 W4'
_cell_volume   388.99697084
_cell_formula_units_Z   1
loop_
 _symmetry_equiv_pos_site_id
 _symmetry_equiv_pos_as_xyz
  1  'x, y, z'
loop_
 _atom_site_type_symbol
 _atom_site_label
 _atom_site_symmetry_multiplicity
 _atom_site_fract_x
 _atom_site_fract_y
 _atom_site_fract_z
 _atom_site_occupancy
  Er  Er0  1  0.000000  0.335091  0.408056  1
  U  U1  1  0.000000  0.664294  0.592040  1
  U  U2  1  0.000000  0.834407  0.092747  1
  U  U3  1  0.000000  0.165311  0.907399  1
  U  U4  1  0.000000  0.956890  0.394823  1
  U  U5  1  0.000000  0.044589  0.604570  1
  U  U6  1  0.000000  0.456016  0.105523  1
  U  U7  1  0.000000  0.543554  0.895160  1
  B  B8  1  0.500000  0.552208  0.433710  1
  B  B9  1  0.500000  0.451240  0.568666  1
  B  B10  1  0.500000  0.049609  0.066443  1
  B  B11  1  0.500000  0.949963  0.932910  1
  B  B12  1  0.500000  0.743177  0.424878  1
  B  B13  1  0.500000  0.255744  0.576342  1
  B  B14  1  0.500000  0.243892  0.075701  1
  B  B15  1  0.500000  0.756269  0.924311  1
  B  B16  1  0.500000  0.803997  0.273059  1
  B  B17  1  0.500000  0.196061  0.727312  1
  B  B18  1  0.500000  0.303234  0.225295  1
  B  B19  1  0.500000  0.695956  0.772400  1
  B  B20  1  0.500000  0.644327  0.187677  1
  B  B21  1  0.500000  0.355047  0.812773  1
  B  B22  1  0.500000  0.143538  0.311999  1
  B  B23  1  0.500000  0.855122  0.687279  1
  B  B24  1  0.500000  0.985861  0.218315  1
  B  B25  1  0.500000  0.014195  0.781130  1
  B  B26  1  0.500000  0.487116  0.280423  1
  B  B27  1  0.500000  0.515002  0.718232  1
  B  B28  1  0.500000  0.642269  0.039523  1
  B  B29  1  0.500000  0.358083  0.960802  1
  B  B30  1  0.500000  0.138918  0.461301  1
  B  B31  1  0.500000  0.857687  0.539672  1
  W  W32  1  0.000000  0.648013  0.319449  1
  W  W33  1  0.000000  0.355061  0.682230  1
  W  W34  1  0.000000  0.143446  0.177649  1
  W  W35  1  0.000000  0.854814  0.820206  1
