# generated using pymatgen
data_Ir4Se8Br
_symmetry_space_group_name_H-M   'P 1'
_cell_length_a   3.81887836
_cell_length_b   8.21353920
_cell_length_c   9.46787615
_cell_angle_alpha   74.64669489
_cell_angle_beta   78.36504544
_cell_angle_gamma   76.55719727
_symmetry_Int_Tables_number   1
_chemical_formula_structural   Ir4Se8Br
_chemical_formula_sum   'Ir4 Se8 Br1'
_cell_volume   275.40358279
_cell_formula_units_Z   1
loop_
 _symmetry_equiv_pos_site_id
 _symmetry_equiv_pos_as_xyz
  1  'x, y, z'
loop_
 _atom_site_type_symbol
 _atom_site_label
 _atom_site_symmetry_multiplicity
 _atom_site_fract_x
 _atom_site_fract_y
 _atom_site_fract_z
 _atom_site_occupancy
  Ir  Ir0  1  0.633289  0.186602  0.546821  1
  Ir  Ir1  1  0.847633  0.478731  0.826003  1
  Ir  Ir2  1  0.152327  0.521425  0.173921  1
  Ir  Ir3  1  0.366719  0.813368  0.453191  1
  Se  Se4  1  0.462717  0.291691  0.782874  1
  Se  Se5  1  0.537259  0.708290  0.217189  1
  Se  Se6  1  0.903575  0.629185  0.563664  1
  Se  Se7  1  0.096468  0.370751  0.436313  1
  Se  Se8  1  0.226969  0.647863  0.898199  1
  Se  Se9  1  0.773006  0.352286  0.101705  1
  Se  Se10  1  0.816546  0.015038  0.351870  1
  Se  Se11  1  0.183464  0.984926  0.648145  1
  Br  Br12  1  0.500028  0.999844  0.000100  1
