# generated using pymatgen
data_Yb2Y6Si8PdPt7
_symmetry_space_group_name_H-M   'P 1'
_cell_length_a   4.30524000
_cell_length_b   7.42150627
_cell_length_c   14.13554422
_cell_angle_alpha   89.99480205
_cell_angle_beta   90.00000000
_cell_angle_gamma   90.00000000
_symmetry_Int_Tables_number   1
_chemical_formula_structural   Yb2Y6Si8PdPt7
_chemical_formula_sum   'Yb2 Y6 Si8 Pd1 Pt7'
_cell_volume   451.64994009
_cell_formula_units_Z   1
loop_
 _symmetry_equiv_pos_site_id
 _symmetry_equiv_pos_as_xyz
  1  'x, y, z'
loop_
 _atom_site_type_symbol
 _atom_site_label
 _atom_site_symmetry_multiplicity
 _atom_site_fract_x
 _atom_site_fract_y
 _atom_site_fract_z
 _atom_site_occupancy
  Yb  Yb0  1  0.500000  0.795415  0.748828  1
  Yb  Yb1  1  0.500000  0.796271  0.251497  1
  Y  Y2  1  0.000000  0.200119  0.750732  1
  Y  Y3  1  0.000000  0.200946  0.248747  1
  Y  Y4  1  0.500000  0.707342  0.000469  1
  Y  Y5  1  0.000000  0.292857  0.499836  1
  Y  Y6  1  0.500000  0.700701  0.499517  1
  Y  Y7  1  0.000000  0.301291  0.999860  1
  Si  Si8  1  0.500000  0.405750  0.650220  1
  Si  Si9  1  0.000000  0.591615  0.854448  1
  Si  Si10  1  0.500000  0.409207  0.347118  1
  Si  Si11  1  0.000000  0.591290  0.148899  1
  Si  Si12  1  0.500000  0.092834  0.092503  1
  Si  Si13  1  0.000000  0.908308  0.407367  1
  Si  Si14  1  0.500000  0.093056  0.907184  1
  Si  Si15  1  0.000000  0.910020  0.591148  1
  Pd  Pd16  1  0.000000  0.583124  0.655004  1
  Pt  Pt17  1  0.500000  0.078352  0.606785  1
  Pt  Pt18  1  0.000000  0.920236  0.892815  1
  Pt  Pt19  1  0.500000  0.080336  0.392683  1
  Pt  Pt20  1  0.000000  0.919956  0.106973  1
  Pt  Pt21  1  0.500000  0.419156  0.156010  1
  Pt  Pt22  1  0.000000  0.581212  0.349448  1
  Pt  Pt23  1  0.500000  0.420603  0.841908  1
