# generated using pymatgen
data_PrTh2(AgSn)4
_symmetry_space_group_name_H-M   'P 1'
_cell_length_a   8.94252523
_cell_length_b   8.94252450
_cell_length_c   8.94252391
_cell_angle_alpha   149.31733241
_cell_angle_beta   130.92972236
_cell_angle_gamma   58.99321996
_symmetry_Int_Tables_number   1
_chemical_formula_structural   PrTh2(AgSn)4
_chemical_formula_sum   'Pr1 Th2 Ag4 Sn4'
_cell_volume   273.52770624
_cell_formula_units_Z   1
loop_
 _symmetry_equiv_pos_site_id
 _symmetry_equiv_pos_as_xyz
  1  'x, y, z'
loop_
 _atom_site_type_symbol
 _atom_site_label
 _atom_site_symmetry_multiplicity
 _atom_site_fract_x
 _atom_site_fract_y
 _atom_site_fract_z
 _atom_site_occupancy
  Pr  Pr0  1  0.128874  0.128874  0.000000  1
  Th  Th1  1  0.499634  0.999634  0.500000  1
  Th  Th2  1  0.871342  0.871342  0.000000  1
  Ag  Ag3  1  0.475589  0.670016  0.805574  1
  Ag  Ag4  1  0.864442  0.670016  0.194426  1
  Ag  Ag5  1  0.135584  0.330186  0.805398  1
  Ag  Ag6  1  0.524789  0.330186  0.194602  1
  Sn  Sn7  1  0.285599  0.785599  0.500000  1
  Sn  Sn8  1  0.714683  0.214683  0.500000  1
  Sn  Sn9  1  0.802467  0.499732  0.302735  1
  Sn  Sn10  1  0.196997  0.499732  0.697265  1
