# generated using pymatgen
data_TbDy5(AlC3)2
_symmetry_space_group_name_H-M   'P 1'
_cell_length_a   3.57121800
_cell_length_b   7.05432097
_cell_length_c   10.01189414
_cell_angle_alpha   90.08808487
_cell_angle_beta   90.00000000
_cell_angle_gamma   90.00000000
_symmetry_Int_Tables_number   1
_chemical_formula_structural   TbDy5(AlC3)2
_chemical_formula_sum   'Tb1 Dy5 Al2 C6'
_cell_volume   252.22452548
_cell_formula_units_Z   1
loop_
 _symmetry_equiv_pos_site_id
 _symmetry_equiv_pos_as_xyz
  1  'x, y, z'
loop_
 _atom_site_type_symbol
 _atom_site_label
 _atom_site_symmetry_multiplicity
 _atom_site_fract_x
 _atom_site_fract_y
 _atom_site_fract_z
 _atom_site_occupancy
  Tb  Tb0  1  0.500000  0.008870  0.800284  1
  Dy  Dy1  1  0.500000  0.510370  0.200249  1
  Dy  Dy2  1  0.500000  0.490179  0.799850  1
  Dy  Dy3  1  0.500000  0.989530  0.200014  1
  Dy  Dy4  1  0.000000  0.750046  0.458192  1
  Dy  Dy5  1  0.000000  0.250137  0.541656  1
  Al  Al6  1  0.000000  0.749115  0.006745  1
  Al  Al7  1  0.000000  0.250823  0.994025  1
  C  C8  1  0.500000  0.508970  0.565963  1
  C  C9  1  0.500000  0.491097  0.434023  1
  C  C10  1  0.500000  0.991074  0.565220  1
  C  C11  1  0.500000  0.009065  0.433369  1
  C  C12  1  0.000000  0.749829  0.208853  1
  C  C13  1  0.000000  0.250896  0.791557  1
