# generated using pymatgen
data_PrTh9(Sn3S)2
_symmetry_space_group_name_H-M   'P 1'
_cell_length_a   9.44255676
_cell_length_b   9.47425740
_cell_length_c   6.64373500
_cell_angle_alpha   90.00000000
_cell_angle_beta   90.00000000
_cell_angle_gamma   120.11112131
_symmetry_Int_Tables_number   1
_chemical_formula_structural   PrTh9(Sn3S)2
_chemical_formula_sum   'Pr1 Th9 Sn6 S2'
_cell_volume   514.15058430
_cell_formula_units_Z   1
loop_
 _symmetry_equiv_pos_site_id
 _symmetry_equiv_pos_as_xyz
  1  'x, y, z'
loop_
 _atom_site_type_symbol
 _atom_site_label
 _atom_site_symmetry_multiplicity
 _atom_site_fract_x
 _atom_site_fract_y
 _atom_site_fract_z
 _atom_site_occupancy
  Pr  Pr0  1  0.000000  0.744246  0.750000  1
  Th  Th1  1  0.253552  0.253445  0.750000  1
  Th  Th2  1  0.334605  0.666195  0.498731  1
  Th  Th3  1  0.665395  0.331588  0.498731  1
  Th  Th4  1  0.746861  0.747173  0.250000  1
  Th  Th5  1  0.746448  0.999893  0.750000  1
  Th  Th6  1  0.000000  0.255402  0.250000  1
  Th  Th7  1  0.253139  0.000312  0.250000  1
  Th  Th8  1  0.334605  0.666195  0.001269  1
  Th  Th9  1  0.665395  0.331588  0.001269  1
  Sn  Sn10  1  0.608326  0.607787  0.750000  1
  Sn  Sn11  1  0.000000  0.391456  0.750000  1
  Sn  Sn12  1  0.391674  0.999461  0.750000  1
  Sn  Sn13  1  0.607805  0.000031  0.250000  1
  Sn  Sn14  1  0.392195  0.392226  0.250000  1
  Sn  Sn15  1  0.000000  0.607936  0.250000  1
  S  S16  1  0.000000  0.002533  0.001992  1
  S  S17  1  0.000000  0.002533  0.498008  1
