# generated using pymatgen
data_Dy12CoCu2Si8Ni
_symmetry_space_group_name_H-M   'P 1'
_cell_length_a   4.13636100
_cell_length_b   11.23754487
_cell_length_c   11.29037887
_cell_angle_alpha   90.04506276
_cell_angle_beta   90.00000000
_cell_angle_gamma   90.00000000
_symmetry_Int_Tables_number   1
_chemical_formula_structural   Dy12CoCu2Si8Ni
_chemical_formula_sum   'Dy12 Co1 Cu2 Si8 Ni1'
_cell_volume   524.80535159
_cell_formula_units_Z   1
loop_
 _symmetry_equiv_pos_site_id
 _symmetry_equiv_pos_as_xyz
  1  'x, y, z'
loop_
 _atom_site_type_symbol
 _atom_site_label
 _atom_site_symmetry_multiplicity
 _atom_site_fract_x
 _atom_site_fract_y
 _atom_site_fract_z
 _atom_site_occupancy
  Dy  Dy0  1  0.250000  0.059024  0.877586  1
  Dy  Dy1  1  0.250000  0.442523  0.377653  1
  Dy  Dy2  1  0.750000  0.936473  0.116936  1
  Dy  Dy3  1  0.750000  0.563931  0.616199  1
  Dy  Dy4  1  0.250000  0.118211  0.557868  1
  Dy  Dy5  1  0.250000  0.380484  0.057528  1
  Dy  Dy6  1  0.750000  0.871467  0.440065  1
  Dy  Dy7  1  0.750000  0.626127  0.941025  1
  Dy  Dy8  1  0.250000  0.803323  0.713674  1
  Dy  Dy9  1  0.250000  0.697022  0.216026  1
  Dy  Dy10  1  0.750000  0.195964  0.290699  1
  Dy  Dy11  1  0.750000  0.304233  0.790553  1
  Co  Co12  1  0.750000  0.634172  0.370042  1
  Cu  Cu13  1  0.250000  0.364085  0.630625  1
  Cu  Cu14  1  0.250000  0.135823  0.130650  1
  Si  Si15  1  0.250000  0.815197  0.975090  1
  Si  Si16  1  0.250000  0.684151  0.474588  1
  Si  Si17  1  0.750000  0.188278  0.024383  1
  Si  Si18  1  0.750000  0.311546  0.525182  1
  Si  Si19  1  0.250000  0.497095  0.805193  1
  Si  Si20  1  0.250000  0.003399  0.305323  1
  Si  Si21  1  0.750000  0.507867  0.196693  1
  Si  Si22  1  0.750000  0.993422  0.696183  1
  Ni  Ni23  1  0.750000  0.866182  0.870231  1
