# generated using pymatgen
data_Tb3Nd17Rh12
_symmetry_space_group_name_H-M   'P 1'
_cell_length_a   11.24793900
_cell_length_b   11.24793900
_cell_length_c   6.57899000
_cell_angle_alpha   90.00000000
_cell_angle_beta   90.00000000
_cell_angle_gamma   90.00000000
_symmetry_Int_Tables_number   1
_chemical_formula_structural   Tb3Nd17Rh12
_chemical_formula_sum   'Tb3 Nd17 Rh12'
_cell_volume   832.34836561
_cell_formula_units_Z   1
loop_
 _symmetry_equiv_pos_site_id
 _symmetry_equiv_pos_as_xyz
  1  'x, y, z'
loop_
 _atom_site_type_symbol
 _atom_site_label
 _atom_site_symmetry_multiplicity
 _atom_site_fract_x
 _atom_site_fract_y
 _atom_site_fract_z
 _atom_site_occupancy
  Tb  Tb0  1  0.000000  0.000000  0.000000  1
  Tb  Tb1  1  0.500000  0.500000  0.000000  1
  Tb  Tb2  1  0.500000  0.500000  0.500000  1
  Nd  Nd3  1  0.089307  0.290297  0.116438  1
  Nd  Nd4  1  0.789666  0.410612  0.116963  1
  Nd  Nd5  1  0.210334  0.589388  0.116963  1
  Nd  Nd6  1  0.910693  0.709703  0.116438  1
  Nd  Nd7  1  0.411176  0.789630  0.383379  1
  Nd  Nd8  1  0.588824  0.210370  0.383379  1
  Nd  Nd9  1  0.290879  0.089289  0.383200  1
  Nd  Nd10  1  0.709121  0.910711  0.383200  1
  Nd  Nd11  1  0.410612  0.210334  0.883037  1
  Nd  Nd12  1  0.709703  0.089307  0.883562  1
  Nd  Nd13  1  0.290297  0.910693  0.883562  1
  Nd  Nd14  1  0.589388  0.789666  0.883037  1
  Nd  Nd15  1  0.089289  0.709121  0.616800  1
  Nd  Nd16  1  0.910711  0.290879  0.616800  1
  Nd  Nd17  1  0.210370  0.411176  0.616621  1
  Nd  Nd18  1  0.789630  0.588824  0.616621  1
  Nd  Nd19  1  0.000000  0.000000  0.500000  1
  Rh  Rh20  1  0.152647  0.848020  0.247159  1
  Rh  Rh21  1  0.350380  0.350415  0.250096  1
  Rh  Rh22  1  0.649620  0.649585  0.250096  1
  Rh  Rh23  1  0.847353  0.151980  0.247159  1
  Rh  Rh24  1  0.350415  0.649620  0.749904  1
  Rh  Rh25  1  0.151980  0.152647  0.752841  1
  Rh  Rh26  1  0.848020  0.847353  0.752841  1
  Rh  Rh27  1  0.649585  0.350380  0.749904  1
  Rh  Rh28  1  0.000000  0.500000  0.376881  1
  Rh  Rh29  1  0.500000  0.000000  0.123235  1
  Rh  Rh30  1  0.500000  0.000000  0.623119  1
  Rh  Rh31  1  0.000000  0.500000  0.876765  1
