# generated using pymatgen
data_LaEr5FeBr10
_symmetry_space_group_name_H-M   'P 1'
_cell_length_a   7.43796719
_cell_length_b   9.31910043
_cell_length_c   9.10813200
_cell_angle_alpha   106.93133478
_cell_angle_beta   94.94574620
_cell_angle_gamma   105.59469149
_symmetry_Int_Tables_number   1
_chemical_formula_structural   LaEr5FeBr10
_chemical_formula_sum   'La1 Er5 Fe1 Br10'
_cell_volume   572.38705558
_cell_formula_units_Z   1
loop_
 _symmetry_equiv_pos_site_id
 _symmetry_equiv_pos_as_xyz
  1  'x, y, z'
loop_
 _atom_site_type_symbol
 _atom_site_label
 _atom_site_symmetry_multiplicity
 _atom_site_fract_x
 _atom_site_fract_y
 _atom_site_fract_z
 _atom_site_occupancy
  La  La0  1  0.883047  0.955604  0.227972  1
  Er  Er1  1  0.117881  0.044861  0.778109  1
  Er  Er2  1  0.030990  0.706240  0.905594  1
  Er  Er3  1  0.969401  0.293519  0.089672  1
  Er  Er4  1  0.647758  0.869255  0.827521  1
  Er  Er5  1  0.352894  0.132225  0.174905  1
  Fe  Fe6  1  0.990529  0.995363  0.016287  1
  Br  Br7  1  0.662097  0.558562  0.729741  1
  Br  Br8  1  0.336648  0.442340  0.265786  1
  Br  Br9  1  0.766535  0.924109  0.557792  1
  Br  Br10  1  0.265619  0.086749  0.457755  1
  Br  Br11  1  0.916776  0.615665  0.162599  1
  Br  Br12  1  0.089135  0.362805  0.823433  1
  Br  Br13  1  0.534557  0.171088  0.907915  1
  Br  Br14  1  0.444512  0.820568  0.079474  1
  Br  Br15  1  0.223235  0.756692  0.659322  1
  Br  Br16  1  0.768389  0.264357  0.336123  1
