# generated using pymatgen
data_Sr5Pt2PbF
_symmetry_space_group_name_H-M   'P 1'
_cell_length_a   8.43189553
_cell_length_b   8.43189646
_cell_length_c   9.58092864
_cell_angle_alpha   116.10615208
_cell_angle_beta   116.10614316
_cell_angle_gamma   89.99999762
_symmetry_Int_Tables_number   1
_chemical_formula_structural   Sr5Pt2PbF
_chemical_formula_sum   'Sr10 Pt4 Pb2 F2'
_cell_volume   533.20635341
_cell_formula_units_Z   2
loop_
 _symmetry_equiv_pos_site_id
 _symmetry_equiv_pos_as_xyz
  1  'x, y, z'
loop_
 _atom_site_type_symbol
 _atom_site_label
 _atom_site_symmetry_multiplicity
 _atom_site_fract_x
 _atom_site_fract_y
 _atom_site_fract_z
 _atom_site_occupancy
  Sr  Sr0  1  0.000000  0.000000  0.000000  1
  Sr  Sr1  1  0.500000  0.500000  0.000000  1
  Sr  Sr2  1  0.480406  0.297006  0.277411  1
  Sr  Sr3  1  0.980406  0.480406  0.277411  1
  Sr  Sr4  1  0.297006  0.797005  0.277411  1
  Sr  Sr5  1  0.797005  0.980406  0.277411  1
  Sr  Sr6  1  0.202994  0.019594  0.722589  1
  Sr  Sr7  1  0.702995  0.202994  0.722589  1
  Sr  Sr8  1  0.019594  0.519594  0.722589  1
  Sr  Sr9  1  0.519594  0.702995  0.722589  1
  Pt  Pt10  1  0.624607  0.124607  0.000000  1
  Pt  Pt11  1  0.124607  0.375394  0.000000  1
  Pt  Pt12  1  0.875393  0.624607  0.000000  1
  Pt  Pt13  1  0.375394  0.875393  0.000000  1
  Pb  Pb14  1  0.250000  0.250000  0.500000  1
  Pb  Pb15  1  0.750000  0.750000  0.500000  1
  F  F16  1  0.750000  0.250000  0.500000  1
  F  F17  1  0.250000  0.750000  0.500000  1
