# generated using pymatgen
data_TbY7Re2(RuC4)2
_symmetry_space_group_name_H-M   'P 1'
_cell_length_a   5.12348300
_cell_length_b   6.54667662
_cell_length_c   9.86345195
_cell_angle_alpha   90.05011322
_cell_angle_beta   90.00000000
_cell_angle_gamma   90.00000000
_symmetry_Int_Tables_number   1
_chemical_formula_structural   TbY7Re2(RuC4)2
_chemical_formula_sum   'Tb1 Y7 Re2 Ru2 C8'
_cell_volume   330.83767170
_cell_formula_units_Z   1
loop_
 _symmetry_equiv_pos_site_id
 _symmetry_equiv_pos_as_xyz
  1  'x, y, z'
loop_
 _atom_site_type_symbol
 _atom_site_label
 _atom_site_symmetry_multiplicity
 _atom_site_fract_x
 _atom_site_fract_y
 _atom_site_fract_z
 _atom_site_occupancy
  Tb  Tb0  1  0.250000  0.528998  0.215102  1
  Y  Y1  1  0.750000  0.823541  0.054582  1
  Y  Y2  1  0.250000  0.676518  0.554547  1
  Y  Y3  1  0.750000  0.318065  0.443470  1
  Y  Y4  1  0.250000  0.182201  0.943275  1
  Y  Y5  1  0.750000  0.468117  0.784143  1
  Y  Y6  1  0.250000  0.031785  0.284336  1
  Y  Y7  1  0.750000  0.970445  0.715457  1
  Re  Re8  1  0.750000  0.777163  0.364355  1
  Re  Re9  1  0.250000  0.723017  0.864263  1
  Ru  Ru10  1  0.750000  0.276597  0.135066  1
  Ru  Ru11  1  0.250000  0.223210  0.635011  1
  C  C12  1  0.750000  0.177595  0.950491  1
  C  C13  1  0.250000  0.821522  0.049953  1
  C  C14  1  0.750000  0.678901  0.550033  1
  C  C15  1  0.250000  0.322385  0.450633  1
  C  C16  1  0.750000  0.042274  0.260261  1
  C  C17  1  0.250000  0.457649  0.760262  1
  C  C18  1  0.750000  0.543928  0.242478  1
  C  C19  1  0.250000  0.956089  0.742284  1
