# generated using pymatgen
data_Dy2PaIn2GaPt3
_symmetry_space_group_name_H-M   'P 1'
_cell_length_a   7.56122518
_cell_length_b   7.50387029
_cell_length_c   3.93545300
_cell_angle_alpha   90.00000000
_cell_angle_beta   90.00000000
_cell_angle_gamma   120.43401885
_symmetry_Int_Tables_number   1
_chemical_formula_structural   Dy2PaIn2GaPt3
_chemical_formula_sum   'Dy2 Pa1 In2 Ga1 Pt3'
_cell_volume   192.52486155
_cell_formula_units_Z   1
loop_
 _symmetry_equiv_pos_site_id
 _symmetry_equiv_pos_as_xyz
  1  'x, y, z'
loop_
 _atom_site_type_symbol
 _atom_site_label
 _atom_site_symmetry_multiplicity
 _atom_site_fract_x
 _atom_site_fract_y
 _atom_site_fract_z
 _atom_site_occupancy
  Dy  Dy0  1  0.421790  0.418181  0.500000  1
  Dy  Dy1  1  0.994066  0.594147  0.500000  1
  Pa  Pa2  1  0.589164  0.997574  0.500000  1
  In  In3  1  0.015752  0.267207  0.000000  1
  In  In4  1  0.243773  0.001336  0.000000  1
  Ga  Ga5  1  0.743853  0.733665  0.000000  1
  Pt  Pt6  1  0.359917  0.687958  0.000000  1
  Pt  Pt7  1  0.667869  0.322116  0.000000  1
  Pt  Pt8  1  0.963817  0.977815  0.500000  1
