# generated using pymatgen
data_Tb4NiHg
_symmetry_space_group_name_H-M   'P 1'
_cell_length_a   9.54665683
_cell_length_b   9.54665727
_cell_length_c   9.54665700
_cell_angle_alpha   59.99999747
_cell_angle_beta   59.99999595
_cell_angle_gamma   60.00000082
_symmetry_Int_Tables_number   1
_chemical_formula_structural   Tb4NiHg
_chemical_formula_sum   'Tb16 Ni4 Hg4'
_cell_volume   615.23204127
_cell_formula_units_Z   4
loop_
 _symmetry_equiv_pos_site_id
 _symmetry_equiv_pos_as_xyz
  1  'x, y, z'
loop_
 _atom_site_type_symbol
 _atom_site_label
 _atom_site_symmetry_multiplicity
 _atom_site_fract_x
 _atom_site_fract_y
 _atom_site_fract_z
 _atom_site_occupancy
  Tb  Tb0  1  0.349828  0.349828  0.349828  1
  Tb  Tb1  1  0.349828  0.349828  0.950515  1
  Tb  Tb2  1  0.349828  0.950515  0.349828  1
  Tb  Tb3  1  0.950515  0.349828  0.349828  1
  Tb  Tb4  1  0.810264  0.189736  0.189736  1
  Tb  Tb5  1  0.189736  0.810264  0.810264  1
  Tb  Tb6  1  0.189736  0.810264  0.189736  1
  Tb  Tb7  1  0.810264  0.189736  0.810264  1
  Tb  Tb8  1  0.189736  0.189736  0.810264  1
  Tb  Tb9  1  0.810264  0.810264  0.189736  1
  Tb  Tb10  1  0.936763  0.563237  0.563237  1
  Tb  Tb11  1  0.563237  0.936763  0.936763  1
  Tb  Tb12  1  0.563237  0.936763  0.563237  1
  Tb  Tb13  1  0.936763  0.563237  0.936763  1
  Tb  Tb14  1  0.563237  0.563237  0.936763  1
  Tb  Tb15  1  0.936763  0.936763  0.563237  1
  Ni  Ni16  1  0.142628  0.142628  0.142628  1
  Ni  Ni17  1  0.142628  0.142628  0.572115  1
  Ni  Ni18  1  0.142628  0.572115  0.142628  1
  Ni  Ni19  1  0.572115  0.142628  0.142628  1
  Hg  Hg20  1  0.584773  0.584773  0.584773  1
  Hg  Hg21  1  0.584773  0.584773  0.245680  1
  Hg  Hg22  1  0.584773  0.245680  0.584773  1
  Hg  Hg23  1  0.245680  0.584773  0.584773  1
