# generated using pymatgen
data_BaZn2Au3
_symmetry_space_group_name_H-M   'P 1'
_cell_length_a   7.06497364
_cell_length_b   7.06497350
_cell_length_c   5.59969000
_cell_angle_alpha   90.00000000
_cell_angle_beta   90.00000000
_cell_angle_gamma   102.89601396
_symmetry_Int_Tables_number   1
_chemical_formula_structural   BaZn2Au3
_chemical_formula_sum   'Ba2 Zn4 Au6'
_cell_volume   272.45213665
_cell_formula_units_Z   2
loop_
 _symmetry_equiv_pos_site_id
 _symmetry_equiv_pos_as_xyz
  1  'x, y, z'
loop_
 _atom_site_type_symbol
 _atom_site_label
 _atom_site_symmetry_multiplicity
 _atom_site_fract_x
 _atom_site_fract_y
 _atom_site_fract_z
 _atom_site_occupancy
  Ba  Ba0  1  0.682831  0.682831  0.250000  1
  Ba  Ba1  1  0.317169  0.317169  0.750000  1
  Zn  Zn2  1  0.794843  0.205157  0.500000  1
  Zn  Zn3  1  0.205157  0.794843  0.000000  1
  Zn  Zn4  1  0.794843  0.205157  0.000000  1
  Zn  Zn5  1  0.205157  0.794843  0.500000  1
  Au  Au6  1  0.927957  0.927957  0.750000  1
  Au  Au7  1  0.072043  0.072043  0.250000  1
  Au  Au8  1  0.525259  0.910362  0.750000  1
  Au  Au9  1  0.474741  0.089638  0.250000  1
  Au  Au10  1  0.910362  0.525259  0.750000  1
  Au  Au11  1  0.089638  0.474741  0.250000  1
