# generated using pymatgen
data_Ho3Tm3Lu2(CdIr)2
_symmetry_space_group_name_H-M   'P 1'
_cell_length_a   9.52871183
_cell_length_b   9.52531427
_cell_length_c   9.52528760
_cell_angle_alpha   60.02309729
_cell_angle_beta   59.98801925
_cell_angle_gamma   59.98731701
_symmetry_Int_Tables_number   1
_chemical_formula_structural   Ho3Tm3Lu2(CdIr)2
_chemical_formula_sum   'Ho6 Tm6 Lu4 Cd4 Ir4'
_cell_volume   611.32387028
_cell_formula_units_Z   2
loop_
 _symmetry_equiv_pos_site_id
 _symmetry_equiv_pos_as_xyz
  1  'x, y, z'
loop_
 _atom_site_type_symbol
 _atom_site_label
 _atom_site_symmetry_multiplicity
 _atom_site_fract_x
 _atom_site_fract_y
 _atom_site_fract_z
 _atom_site_occupancy
  Ho  Ho0  1  0.189040  0.810956  0.810968  1
  Ho  Ho1  1  0.810965  0.189036  0.189040  1
  Ho  Ho2  1  0.810987  0.189023  0.810979  1
  Ho  Ho3  1  0.189006  0.810983  0.189018  1
  Ho  Ho4  1  0.810983  0.810982  0.189021  1
  Ho  Ho5  1  0.189015  0.189018  0.810983  1
  Tm  Tm6  1  0.598763  0.599016  0.599019  1
  Tm  Tm7  1  0.599024  0.598754  0.203204  1
  Tm  Tm8  1  0.599018  0.203191  0.598765  1
  Tm  Tm9  1  0.203202  0.599017  0.599020  1
  Tm  Tm10  1  0.061635  0.438360  0.438371  1
  Tm  Tm11  1  0.438371  0.061633  0.061630  1
  Lu  Lu12  1  0.438423  0.061588  0.438411  1
  Lu  Lu13  1  0.061577  0.438425  0.061571  1
  Lu  Lu14  1  0.438417  0.438424  0.061579  1
  Lu  Lu15  1  0.061568  0.061584  0.438426  1
  Cd  Cd16  1  0.830733  0.830659  0.830658  1
  Cd  Cd17  1  0.830661  0.830743  0.507945  1
  Cd  Cd18  1  0.830664  0.507943  0.830739  1
  Cd  Cd19  1  0.507947  0.830667  0.830654  1
  Ir  Ir20  1  0.391847  0.391326  0.391326  1
  Ir  Ir21  1  0.391328  0.391846  0.825497  1
  Ir  Ir22  1  0.391324  0.825501  0.391848  1
  Ir  Ir23  1  0.825501  0.391325  0.391329  1
