# generated using pymatgen
data_HoEr3Ga18(Ir2Pd)2
_symmetry_space_group_name_H-M   'P 1'
_cell_length_a   7.59963701
_cell_length_b   7.59979457
_cell_length_c   9.46251600
_cell_angle_alpha   90.00000000
_cell_angle_beta   90.00000000
_cell_angle_gamma   119.80917123
_symmetry_Int_Tables_number   1
_chemical_formula_structural   HoEr3Ga18(Ir2Pd)2
_chemical_formula_sum   'Ho1 Er3 Ga18 Ir4 Pd2'
_cell_volume   474.20252856
_cell_formula_units_Z   1
loop_
 _symmetry_equiv_pos_site_id
 _symmetry_equiv_pos_as_xyz
  1  'x, y, z'
loop_
 _atom_site_type_symbol
 _atom_site_label
 _atom_site_symmetry_multiplicity
 _atom_site_fract_x
 _atom_site_fract_y
 _atom_site_fract_z
 _atom_site_occupancy
  Ho  Ho0  1  0.996873  0.668820  0.750000  1
  Er  Er1  1  0.003120  0.331203  0.250000  1
  Er  Er2  1  0.668769  0.996895  0.750000  1
  Er  Er3  1  0.331163  0.003107  0.250000  1
  Ga  Ga4  1  0.127794  0.127848  0.750000  1
  Ga  Ga5  1  0.872256  0.872255  0.250000  1
  Ga  Ga6  1  0.998673  0.336591  0.581744  1
  Ga  Ga7  1  0.001337  0.663296  0.418112  1
  Ga  Ga8  1  0.001337  0.663296  0.081888  1
  Ga  Ga9  1  0.336820  0.998781  0.918250  1
  Ga  Ga10  1  0.998673  0.336591  0.918256  1
  Ga  Ga11  1  0.663298  0.001334  0.081817  1
  Ga  Ga12  1  0.663298  0.001334  0.418183  1
  Ga  Ga13  1  0.336820  0.998781  0.581750  1
  Ga  Ga14  1  0.334371  0.334371  0.068478  1
  Ga  Ga15  1  0.665530  0.665631  0.931597  1
  Ga  Ga16  1  0.665530  0.665631  0.568403  1
  Ga  Ga17  1  0.334371  0.334371  0.431522  1
  Ga  Ga18  1  0.337629  0.546019  0.750000  1
  Ga  Ga19  1  0.662427  0.453950  0.250000  1
  Ga  Ga20  1  0.545948  0.337500  0.750000  1
  Ga  Ga21  1  0.453953  0.662423  0.250000  1
  Ir  Ir22  1  0.671579  0.328345  0.499959  1
  Ir  Ir23  1  0.328419  0.671620  0.499959  1
  Ir  Ir24  1  0.328419  0.671620  0.000041  1
  Ir  Ir25  1  0.671579  0.328345  0.000041  1
  Pd  Pd26  1  0.000008  0.000023  0.499975  1
  Pd  Pd27  1  0.000008  0.000023  0.000025  1
