# generated using pymatgen
data_Nd8Zn8Ir3Pt3Rh2
_symmetry_space_group_name_H-M   'P 1'
_cell_length_a   4.04955600
_cell_length_b   7.38314455
_cell_length_c   16.71446504
_cell_angle_alpha   90.16563468
_cell_angle_beta   90.00000000
_cell_angle_gamma   90.00000000
_symmetry_Int_Tables_number   1
_chemical_formula_structural   Nd8Zn8Ir3Pt3Rh2
_chemical_formula_sum   'Nd8 Zn8 Ir3 Pt3 Rh2'
_cell_volume   499.73463133
_cell_formula_units_Z   1
loop_
 _symmetry_equiv_pos_site_id
 _symmetry_equiv_pos_as_xyz
  1  'x, y, z'
loop_
 _atom_site_type_symbol
 _atom_site_label
 _atom_site_symmetry_multiplicity
 _atom_site_fract_x
 _atom_site_fract_y
 _atom_site_fract_z
 _atom_site_occupancy
  Nd  Nd0  1  0.250000  0.171084  0.939310  1
  Nd  Nd1  1  0.250000  0.669201  0.556809  1
  Nd  Nd2  1  0.750000  0.331756  0.436138  1
  Nd  Nd3  1  0.750000  0.952750  0.285468  1
  Nd  Nd4  1  0.750000  0.831674  0.057635  1
  Nd  Nd5  1  0.750000  0.444929  0.215151  1
  Nd  Nd6  1  0.250000  0.052195  0.719257  1
  Nd  Nd7  1  0.250000  0.548580  0.787520  1
  Zn  Zn8  1  0.750000  0.999861  0.559477  1
  Zn  Zn9  1  0.250000  0.616853  0.350073  1
  Zn  Zn10  1  0.750000  0.376968  0.654347  1
  Zn  Zn11  1  0.250000  0.496288  0.059154  1
  Zn  Zn12  1  0.750000  0.501763  0.940174  1
  Zn  Zn13  1  0.250000  0.996937  0.436754  1
  Zn  Zn14  1  0.250000  0.125555  0.151096  1
  Zn  Zn15  1  0.750000  0.881751  0.851380  1
  Ir  Ir16  1  0.750000  0.756668  0.434917  1
  Ir  Ir17  1  0.250000  0.246650  0.313877  1
  Ir  Ir18  1  0.750000  0.254343  0.814338  1
  Pt  Pt19  1  0.750000  0.753139  0.686025  1
  Pt  Pt20  1  0.250000  0.244083  0.565958  1
  Pt  Pt21  1  0.250000  0.746452  0.184840  1
  Rh  Rh22  1  0.750000  0.254987  0.065018  1
  Rh  Rh23  1  0.250000  0.745533  0.935284  1
