# generated using pymatgen
data_Nb3Ga2AuC
_symmetry_space_group_name_H-M   'P 1'
_cell_length_a   8.46618450
_cell_length_b   8.46618464
_cell_length_c   8.46618300
_cell_angle_alpha   60.00000249
_cell_angle_beta   60.00000197
_cell_angle_gamma   60.00000183
_symmetry_Int_Tables_number   1
_chemical_formula_structural   Nb3Ga2AuC
_chemical_formula_sum   'Nb12 Ga8 Au4 C4'
_cell_volume   429.08974869
_cell_formula_units_Z   4
loop_
 _symmetry_equiv_pos_site_id
 _symmetry_equiv_pos_as_xyz
  1  'x, y, z'
loop_
 _atom_site_type_symbol
 _atom_site_label
 _atom_site_symmetry_multiplicity
 _atom_site_fract_x
 _atom_site_fract_y
 _atom_site_fract_z
 _atom_site_occupancy
  Nb  Nb0  1  0.569824  0.930176  0.569824  1
  Nb  Nb1  1  0.319824  0.680176  0.680176  1
  Nb  Nb2  1  0.680176  0.319824  0.319824  1
  Nb  Nb3  1  0.319824  0.680176  0.319824  1
  Nb  Nb4  1  0.680176  0.680176  0.319824  1
  Nb  Nb5  1  0.319824  0.319824  0.680176  1
  Nb  Nb6  1  0.569824  0.569824  0.930176  1
  Nb  Nb7  1  0.930176  0.569824  0.569824  1
  Nb  Nb8  1  0.569824  0.930176  0.930176  1
  Nb  Nb9  1  0.930176  0.930176  0.569824  1
  Nb  Nb10  1  0.680176  0.319824  0.680176  1
  Nb  Nb11  1  0.930176  0.569824  0.930176  1
  Ga  Ga12  1  0.911620  0.911620  0.911620  1
  Ga  Ga13  1  0.984861  0.338380  0.338380  1
  Ga  Ga14  1  0.338380  0.984861  0.338380  1
  Ga  Ga15  1  0.338380  0.338380  0.984861  1
  Ga  Ga16  1  0.911620  0.265139  0.911620  1
  Ga  Ga17  1  0.911620  0.911620  0.265139  1
  Ga  Ga18  1  0.265139  0.911620  0.911620  1
  Ga  Ga19  1  0.338380  0.338380  0.338380  1
  Au  Au20  1  0.125000  0.125000  0.125000  1
  Au  Au21  1  0.625000  0.125000  0.125000  1
  Au  Au22  1  0.125000  0.625000  0.125000  1
  Au  Au23  1  0.125000  0.125000  0.625000  1
  C  C24  1  0.625000  0.625000  0.625000  1
  C  C25  1  0.125000  0.625000  0.625000  1
  C  C26  1  0.625000  0.125000  0.625000  1
  C  C27  1  0.625000  0.625000  0.125000  1
