# generated using pymatgen
data_Dy5BeP11Ir18Rh
_symmetry_space_group_name_H-M   'P 1'
_cell_length_a   12.70297651
_cell_length_b   12.67606211
_cell_length_c   3.96850600
_cell_angle_alpha   90.00000000
_cell_angle_beta   90.00000000
_cell_angle_gamma   120.22391218
_symmetry_Int_Tables_number   1
_chemical_formula_structural   Dy5BeP11Ir18Rh
_chemical_formula_sum   'Dy5 Be1 P11 Ir18 Rh1'
_cell_volume   552.15779111
_cell_formula_units_Z   1
loop_
 _symmetry_equiv_pos_site_id
 _symmetry_equiv_pos_as_xyz
  1  'x, y, z'
loop_
 _atom_site_type_symbol
 _atom_site_label
 _atom_site_symmetry_multiplicity
 _atom_site_fract_x
 _atom_site_fract_y
 _atom_site_fract_z
 _atom_site_occupancy
  Dy  Dy0  1  0.344094  0.666324  0.500000  1
  Dy  Dy1  1  0.667508  0.333897  0.500000  1
  Dy  Dy2  1  0.999345  0.816347  0.000000  1
  Dy  Dy3  1  0.182581  0.182998  0.000000  1
  Dy  Dy4  1  0.810290  0.993982  0.000000  1
  Be  Be5  1  0.519816  0.684491  0.000000  1
  P  P6  1  0.001817  0.641210  0.500000  1
  P  P7  1  0.359935  0.364564  0.500000  1
  P  P8  1  0.638102  0.994523  0.500000  1
  P  P9  1  0.316477  0.828902  0.000000  1
  P  P10  1  0.171116  0.483436  0.000000  1
  P  P11  1  0.483231  0.176238  0.000000  1
  P  P12  1  0.690734  0.517839  0.000000  1
  P  P13  1  0.829180  0.312020  0.000000  1
  P  P14  1  0.995653  0.176080  0.500000  1
  P  P15  1  0.818489  0.818350  0.500000  1
  P  P16  1  0.179310  0.000303  0.500000  1
  Ir  Ir17  1  0.510959  0.869568  0.000000  1
  Ir  Ir18  1  0.134914  0.641580  0.000000  1
  Ir  Ir19  1  0.354316  0.483886  0.000000  1
  Ir  Ir20  1  0.493255  0.366400  0.000000  1
  Ir  Ir21  1  0.869703  0.508130  0.000000  1
  Ir  Ir22  1  0.637202  0.134841  0.000000  1
  Ir  Ir23  1  0.535701  0.553105  0.500000  1
  Ir  Ir24  1  0.460304  0.999833  0.500000  1
  Ir  Ir25  1  0.997774  0.281317  0.000000  1
  Ir  Ir26  1  0.713221  0.711788  0.000000  1
  Ir  Ir27  1  0.287185  0.000689  0.000000  1
  Ir  Ir28  1  0.625806  0.804907  0.500000  1
  Ir  Ir29  1  0.196586  0.820440  0.500000  1
  Ir  Ir30  1  0.176647  0.372938  0.500000  1
  Ir  Ir31  1  0.376111  0.183650  0.500000  1
  Ir  Ir32  1  0.806015  0.623200  0.500000  1
  Ir  Ir33  1  0.814825  0.191342  0.500000  1
  Ir  Ir34  1  0.999783  0.999089  0.500000  1
  Rh  Rh35  1  0.002017  0.461794  0.500000  1
