# generated using pymatgen
data_Y2Ho2Ga16Co3
_symmetry_space_group_name_H-M   'P 1'
_cell_length_a   6.02556700
_cell_length_b   6.02556700
_cell_length_c   11.13160200
_cell_angle_alpha   90.00000000
_cell_angle_beta   90.00000000
_cell_angle_gamma   90.00000000
_symmetry_Int_Tables_number   1
_chemical_formula_structural   Y2Ho2Ga16Co3
_chemical_formula_sum   'Y2 Ho2 Ga16 Co3'
_cell_volume   404.16016843
_cell_formula_units_Z   1
loop_
 _symmetry_equiv_pos_site_id
 _symmetry_equiv_pos_as_xyz
  1  'x, y, z'
loop_
 _atom_site_type_symbol
 _atom_site_label
 _atom_site_symmetry_multiplicity
 _atom_site_fract_x
 _atom_site_fract_y
 _atom_site_fract_z
 _atom_site_occupancy
  Y  Y0  1  0.500000  0.000000  0.194055  1
  Y  Y1  1  0.000000  0.500000  0.194055  1
  Ho  Ho2  1  0.500000  0.000000  0.804542  1
  Ho  Ho3  1  0.000000  0.500000  0.804542  1
  Ga  Ga4  1  0.249616  0.249616  0.616271  1
  Ga  Ga5  1  0.750384  0.750384  0.616271  1
  Ga  Ga6  1  0.750384  0.249616  0.616271  1
  Ga  Ga7  1  0.249616  0.750384  0.616271  1
  Ga  Ga8  1  0.750341  0.750341  0.385658  1
  Ga  Ga9  1  0.249659  0.249659  0.385658  1
  Ga  Ga10  1  0.249659  0.750341  0.385658  1
  Ga  Ga11  1  0.750341  0.249659  0.385658  1
  Ga  Ga12  1  0.280110  0.280110  0.998084  1
  Ga  Ga13  1  0.719890  0.719890  0.998084  1
  Ga  Ga14  1  0.719890  0.280110  0.998084  1
  Ga  Ga15  1  0.280110  0.719890  0.998084  1
  Ga  Ga16  1  0.500000  0.500000  0.805112  1
  Ga  Ga17  1  0.500000  0.500000  0.193369  1
  Ga  Ga18  1  0.000000  0.000000  0.783347  1
  Ga  Ga19  1  0.000000  0.000000  0.218065  1
  Co  Co20  1  0.500000  0.000000  0.501207  1
  Co  Co21  1  0.000000  0.500000  0.501207  1
  Co  Co22  1  0.000000  0.000000  0.000451  1
