# generated using pymatgen
data_Ac4Ag3As8Au
_symmetry_space_group_name_H-M   'P 1'
_cell_length_a   4.18829200
_cell_length_b   4.23666801
_cell_length_c   21.83218700
_cell_angle_alpha   90.00352971
_cell_angle_beta   89.99994528
_cell_angle_gamma   89.99947258
_symmetry_Int_Tables_number   1
_chemical_formula_structural   Ac4Ag3As8Au
_chemical_formula_sum   'Ac4 Ag3 As8 Au1'
_cell_volume   387.39911775
_cell_formula_units_Z   1
loop_
 _symmetry_equiv_pos_site_id
 _symmetry_equiv_pos_as_xyz
  1  'x, y, z'
loop_
 _atom_site_type_symbol
 _atom_site_label
 _atom_site_symmetry_multiplicity
 _atom_site_fract_x
 _atom_site_fract_y
 _atom_site_fract_z
 _atom_site_occupancy
  Ac  Ac0  1  0.250015  0.777645  0.617045  1
  Ac  Ac1  1  0.750005  0.222092  0.381457  1
  Ac  Ac2  1  0.750003  0.277702  0.882984  1
  Ac  Ac3  1  0.249978  0.722520  0.118458  1
  Ag  Ag4  1  0.750002  0.722460  0.249945  1
  Ag  Ag5  1  0.750018  0.777497  0.749904  1
  Ag  Ag6  1  0.250010  0.277466  0.750115  1
  As  As7  1  0.250000  0.777673  0.832851  1
  As  As8  1  0.749975  0.222576  0.167273  1
  As  As9  1  0.750037  0.277590  0.667164  1
  As  As10  1  0.250003  0.722098  0.332799  1
  As  As11  1  0.250000  0.309708  0.501310  1
  As  As12  1  0.249957  0.190379  0.002687  1
  As  As13  1  0.750020  0.809324  0.998630  1
  As  As14  1  0.749987  0.690765  0.497333  1
  Au  Au15  1  0.249989  0.222506  0.250044  1
