# generated using pymatgen
data_Dy8Sc12Ga6Si9Ge
_symmetry_space_group_name_H-M   'P 1'
_cell_length_a   7.17500849
_cell_length_b   7.43015814
_cell_length_c   14.23365076
_cell_angle_alpha   89.98501571
_cell_angle_beta   89.84101716
_cell_angle_gamma   90.15194240
_symmetry_Int_Tables_number   1
_chemical_formula_structural   Dy8Sc12Ga6Si9Ge
_chemical_formula_sum   'Dy8 Sc12 Ga6 Si9 Ge1'
_cell_volume   758.81091167
_cell_formula_units_Z   1
loop_
 _symmetry_equiv_pos_site_id
 _symmetry_equiv_pos_as_xyz
  1  'x, y, z'
loop_
 _atom_site_type_symbol
 _atom_site_label
 _atom_site_symmetry_multiplicity
 _atom_site_fract_x
 _atom_site_fract_y
 _atom_site_fract_z
 _atom_site_occupancy
  Dy  Dy0  1  0.012687  0.173711  0.097963  1
  Dy  Dy1  1  0.987566  0.825034  0.902638  1
  Dy  Dy2  1  0.487860  0.677785  0.901894  1
  Dy  Dy3  1  0.989653  0.824118  0.599640  1
  Dy  Dy4  1  0.512075  0.322050  0.098597  1
  Dy  Dy5  1  0.010466  0.174654  0.399694  1
  Dy  Dy6  1  0.510536  0.324743  0.399438  1
  Dy  Dy7  1  0.489426  0.675200  0.600084  1
  Sc  Sc8  1  0.163521  0.502616  0.750003  1
  Sc  Sc9  1  0.836923  0.498853  0.250072  1
  Sc  Sc10  1  0.336187  0.001866  0.249377  1
  Sc  Sc11  1  0.662181  0.997726  0.750659  1
  Sc  Sc12  1  0.331618  0.173635  0.626185  1
  Sc  Sc13  1  0.669038  0.826417  0.373254  1
  Sc  Sc14  1  0.169605  0.674179  0.373016  1
  Sc  Sc15  1  0.668106  0.825239  0.125746  1
  Sc  Sc16  1  0.829189  0.327371  0.626095  1
  Sc  Sc17  1  0.332600  0.174942  0.874816  1
  Sc  Sc18  1  0.825182  0.325623  0.875965  1
  Sc  Sc19  1  0.173251  0.676019  0.125087  1
  Ga  Ga20  1  0.160391  0.462634  0.539490  1
  Ga  Ga21  1  0.839631  0.537479  0.460043  1
  Ga  Ga22  1  0.339159  0.962187  0.460383  1
  Ga  Ga23  1  0.840215  0.538603  0.039775  1
  Ga  Ga24  1  0.660957  0.037906  0.539242  1
  Ga  Ga25  1  0.159729  0.461482  0.960600  1
  Si  Si26  1  0.967670  0.884260  0.248465  1
  Si  Si27  1  0.467390  0.614678  0.248994  1
  Si  Si28  1  0.532747  0.385382  0.751060  1
  Si  Si29  1  0.289050  0.870133  0.751609  1
  Si  Si30  1  0.714629  0.126196  0.248422  1
  Si  Si31  1  0.213595  0.373085  0.248562  1
  Si  Si32  1  0.786708  0.626617  0.751442  1
  Si  Si33  1  0.654624  0.035695  0.962169  1
  Si  Si34  1  0.345704  0.964300  0.038183  1
  Ge  Ge35  1  0.030129  0.117582  0.751341  1
