# generated using pymatgen
data_TmPu(AlC)6
_symmetry_space_group_name_H-M   'P 1'
_cell_length_a   3.41906200
_cell_length_b   3.41906239
_cell_length_c   17.25945000
_cell_angle_alpha   90.00000000
_cell_angle_beta   90.00000000
_cell_angle_gamma   119.99999622
_symmetry_Int_Tables_number   1
_chemical_formula_structural   TmPu(AlC)6
_chemical_formula_sum   'Tm1 Pu1 Al6 C6'
_cell_volume   174.73165980
_cell_formula_units_Z   1
loop_
 _symmetry_equiv_pos_site_id
 _symmetry_equiv_pos_as_xyz
  1  'x, y, z'
loop_
 _atom_site_type_symbol
 _atom_site_label
 _atom_site_symmetry_multiplicity
 _atom_site_fract_x
 _atom_site_fract_y
 _atom_site_fract_z
 _atom_site_occupancy
  Tm  Tm0  1  0.000000  0.000000  0.500000  1
  Pu  Pu1  1  0.000000  0.000000  0.000000  1
  Al  Al2  1  0.333333  0.666667  0.134886  1
  Al  Al3  1  0.666667  0.333333  0.255471  1
  Al  Al4  1  0.333333  0.666667  0.368897  1
  Al  Al5  1  0.666667  0.333333  0.631103  1
  Al  Al6  1  0.333333  0.666667  0.744529  1
  Al  Al7  1  0.666667  0.333333  0.865114  1
  C  C8  1  0.666667  0.333333  0.092493  1
  C  C9  1  0.333333  0.666667  0.251404  1
  C  C10  1  0.666667  0.333333  0.408109  1
  C  C11  1  0.333333  0.666667  0.591891  1
  C  C12  1  0.666667  0.333333  0.748596  1
  C  C13  1  0.333333  0.666667  0.907507  1
