# generated using pymatgen
data_DyThRh2Pb
_symmetry_space_group_name_H-M   'P 1'
_cell_length_a   7.90803900
_cell_length_b   7.83076700
_cell_length_c   3.69610900
_cell_angle_alpha   90.00000000
_cell_angle_beta   90.00000000
_cell_angle_gamma   90.00000000
_symmetry_Int_Tables_number   1
_chemical_formula_structural   DyThRh2Pb
_chemical_formula_sum   'Dy2 Th2 Rh4 Pb2'
_cell_volume   228.88528598
_cell_formula_units_Z   2
loop_
 _symmetry_equiv_pos_site_id
 _symmetry_equiv_pos_as_xyz
  1  'x, y, z'
loop_
 _atom_site_type_symbol
 _atom_site_label
 _atom_site_symmetry_multiplicity
 _atom_site_fract_x
 _atom_site_fract_y
 _atom_site_fract_z
 _atom_site_occupancy
  Dy  Dy0  1  0.831911  0.669791  0.500000  1
  Dy  Dy1  1  0.331911  0.830209  0.500000  1
  Th  Th2  1  0.671815  0.162042  0.500000  1
  Th  Th3  1  0.171815  0.337958  0.500000  1
  Rh  Rh4  1  0.363238  0.143478  0.000000  1
  Rh  Rh5  1  0.126682  0.613564  0.000000  1
  Rh  Rh6  1  0.626682  0.886436  0.000000  1
  Rh  Rh7  1  0.863238  0.356522  0.000000  1
  Pb  Pb8  1  0.006354  0.987562  0.000000  1
  Pb  Pb9  1  0.506354  0.512438  0.000000  1
