# generated using pymatgen
data_Tc6Te7I4
_symmetry_space_group_name_H-M   'P 1'
_cell_length_a   12.85097978
_cell_length_b   12.85097913
_cell_length_c   12.85097834
_cell_angle_alpha   50.38434897
_cell_angle_beta   50.38435054
_cell_angle_gamma   50.38434283
_symmetry_Int_Tables_number   1
_chemical_formula_structural   Tc6Te7I4
_chemical_formula_sum   'Tc12 Te14 I8'
_cell_volume   1160.03717352
_cell_formula_units_Z   2
loop_
 _symmetry_equiv_pos_site_id
 _symmetry_equiv_pos_as_xyz
  1  'x, y, z'
loop_
 _atom_site_type_symbol
 _atom_site_label
 _atom_site_symmetry_multiplicity
 _atom_site_fract_x
 _atom_site_fract_y
 _atom_site_fract_z
 _atom_site_occupancy
  Tc  Tc0  1  0.526960  0.394610  0.678161  1
  Tc  Tc1  1  0.394610  0.678161  0.526960  1
  Tc  Tc2  1  0.678161  0.526960  0.394610  1
  Tc  Tc3  1  0.178161  0.894610  0.026960  1
  Tc  Tc4  1  0.894610  0.026960  0.178161  1
  Tc  Tc5  1  0.026960  0.178161  0.894610  1
  Tc  Tc6  1  0.473621  0.605817  0.321805  1
  Tc  Tc7  1  0.605817  0.321805  0.473621  1
  Tc  Tc8  1  0.321805  0.473621  0.605817  1
  Tc  Tc9  1  0.821805  0.105817  0.973621  1
  Tc  Tc10  1  0.105817  0.973621  0.821805  1
  Tc  Tc11  1  0.973621  0.821805  0.105817  1
  Te  Te12  1  0.808753  0.240659  0.544784  1
  Te  Te13  1  0.240659  0.544784  0.808753  1
  Te  Te14  1  0.544784  0.808753  0.240659  1
  Te  Te15  1  0.044784  0.740659  0.308753  1
  Te  Te16  1  0.740659  0.308753  0.044784  1
  Te  Te17  1  0.308753  0.044784  0.740659  1
  Te  Te18  1  0.190533  0.761484  0.454213  1
  Te  Te19  1  0.761484  0.454213  0.190533  1
  Te  Te20  1  0.454213  0.190533  0.761484  1
  Te  Te21  1  0.954213  0.261484  0.690533  1
  Te  Te22  1  0.261484  0.690533  0.954213  1
  Te  Te23  1  0.690533  0.954213  0.261484  1
  Te  Te24  1  0.598677  0.598677  0.598677  1
  Te  Te25  1  0.098677  0.098677  0.098677  1
  I  I26  1  0.954724  0.545938  0.250573  1
  I  I27  1  0.545938  0.250573  0.954724  1
  I  I28  1  0.250573  0.954724  0.545938  1
  I  I29  1  0.750573  0.045938  0.454724  1
  I  I30  1  0.045938  0.454724  0.750573  1
  I  I31  1  0.454724  0.750573  0.045938  1
  I  I32  1  0.398653  0.398653  0.398653  1
  I  I33  1  0.898653  0.898653  0.898653  1
