# generated using pymatgen
data_Na4Ca3YbBi4
_symmetry_space_group_name_H-M   'P 1'
_cell_length_a   8.08741210
_cell_length_b   4.79821600
_cell_length_c   9.68318012
_cell_angle_alpha   90.00000000
_cell_angle_beta   89.98206071
_cell_angle_gamma   90.00000000
_symmetry_Int_Tables_number   1
_chemical_formula_structural   Na4Ca3YbBi4
_chemical_formula_sum   'Na4 Ca3 Yb1 Bi4'
_cell_volume   375.75723985
_cell_formula_units_Z   1
loop_
 _symmetry_equiv_pos_site_id
 _symmetry_equiv_pos_as_xyz
  1  'x, y, z'
loop_
 _atom_site_type_symbol
 _atom_site_label
 _atom_site_symmetry_multiplicity
 _atom_site_fract_x
 _atom_site_fract_y
 _atom_site_fract_z
 _atom_site_occupancy
  Na  Na0  1  0.865495  0.749999  0.056322  1
  Na  Na1  1  0.365579  0.749999  0.443666  1
  Na  Na2  1  0.634462  0.250000  0.556223  1
  Na  Na3  1  0.134464  0.250000  0.943748  1
  Ca  Ca4  1  0.044653  0.250000  0.323754  1
  Ca  Ca5  1  0.955335  0.749999  0.676191  1
  Ca  Ca6  1  0.455311  0.749999  0.823783  1
  Yb  Yb7  1  0.544689  0.250000  0.176230  1
  Bi  Bi8  1  0.262228  0.749999  0.130064  1
  Bi  Bi9  1  0.761952  0.749999  0.369847  1
  Bi  Bi10  1  0.237985  0.250000  0.630034  1
  Bi  Bi11  1  0.737848  0.250000  0.870138  1
