# generated using pymatgen
data_C(S8F)3
_symmetry_space_group_name_H-M   'P 1'
_cell_length_a   14.78377089
_cell_length_b   14.78377205
_cell_length_c   14.78377076
_cell_angle_alpha   118.69930467
_cell_angle_beta   118.69930735
_cell_angle_gamma   118.69930001
_symmetry_Int_Tables_number   1
_chemical_formula_structural   C(S8F)3
_chemical_formula_sum   'C1 S24 F3'
_cell_volume   951.45131833
_cell_formula_units_Z   1
loop_
 _symmetry_equiv_pos_site_id
 _symmetry_equiv_pos_as_xyz
  1  'x, y, z'
loop_
 _atom_site_type_symbol
 _atom_site_label
 _atom_site_symmetry_multiplicity
 _atom_site_fract_x
 _atom_site_fract_y
 _atom_site_fract_z
 _atom_site_occupancy
  C  C0  1  0.993805  0.993805  0.993805  1
  S  S1  1  0.803916  0.526082  0.526082  1
  S  S2  1  0.526082  0.526082  0.803916  1
  S  S3  1  0.526082  0.803916  0.526082  1
  S  S4  1  0.247324  0.379457  0.635001  1
  S  S5  1  0.348416  0.951629  0.348416  1
  S  S6  1  0.348416  0.348416  0.951629  1
  S  S7  1  0.951629  0.348416  0.348416  1
  S  S8  1  0.122512  0.738024  0.254245  1
  S  S9  1  0.254245  0.122512  0.738024  1
  S  S10  1  0.738024  0.254245  0.122512  1
  S  S11  1  0.738024  0.122512  0.254245  1
  S  S12  1  0.254245  0.738024  0.122512  1
  S  S13  1  0.122512  0.254245  0.738024  1
  S  S14  1  0.349234  0.882756  0.534864  1
  S  S15  1  0.534864  0.349234  0.882756  1
  S  S16  1  0.882756  0.534864  0.349234  1
  S  S17  1  0.882756  0.349234  0.534864  1
  S  S18  1  0.534864  0.882756  0.349234  1
  S  S19  1  0.349234  0.534864  0.882756  1
  S  S20  1  0.247324  0.635001  0.379457  1
  S  S21  1  0.379457  0.247324  0.635001  1
  S  S22  1  0.635001  0.379457  0.247324  1
  S  S23  1  0.635001  0.247324  0.379457  1
  S  S24  1  0.379457  0.635001  0.247324  1
  F  F25  1  0.855413  0.942350  0.942350  1
  F  F26  1  0.942350  0.942350  0.855413  1
  F  F27  1  0.942350  0.855413  0.942350  1
