# generated using pymatgen
data_Ho6CdHg7
_symmetry_space_group_name_H-M   'P 1'
_cell_length_a   8.24094303
_cell_length_b   8.24094144
_cell_length_c   8.24094102
_cell_angle_alpha   113.57339549
_cell_angle_beta   113.57339066
_cell_angle_gamma   113.57338846
_symmetry_Int_Tables_number   1
_chemical_formula_structural   Ho6CdHg7
_chemical_formula_sum   'Ho6 Cd1 Hg7'
_cell_volume   350.52261258
_cell_formula_units_Z   1
loop_
 _symmetry_equiv_pos_site_id
 _symmetry_equiv_pos_as_xyz
  1  'x, y, z'
loop_
 _atom_site_type_symbol
 _atom_site_label
 _atom_site_symmetry_multiplicity
 _atom_site_fract_x
 _atom_site_fract_y
 _atom_site_fract_z
 _atom_site_occupancy
  Ho  Ho0  1  0.374473  0.964385  0.236409  1
  Ho  Ho1  1  0.964385  0.236409  0.374473  1
  Ho  Ho2  1  0.236409  0.374473  0.964385  1
  Ho  Ho3  1  0.625527  0.035615  0.763591  1
  Ho  Ho4  1  0.035615  0.763591  0.625527  1
  Ho  Ho5  1  0.763591  0.625527  0.035615  1
  Cd  Cd6  1  0.500000  0.500000  0.500000  1
  Hg  Hg7  1  0.000000  0.000000  0.000000  1
  Hg  Hg8  1  0.269764  0.122348  0.569964  1
  Hg  Hg9  1  0.122348  0.569964  0.269764  1
  Hg  Hg10  1  0.569964  0.269764  0.122348  1
  Hg  Hg11  1  0.730236  0.877652  0.430036  1
  Hg  Hg12  1  0.877652  0.430036  0.730236  1
  Hg  Hg13  1  0.430036  0.730236  0.877652  1
