# generated using pymatgen
data_Ba2YbAl2CrF14
_symmetry_space_group_name_H-M   'P 1'
_cell_length_a   7.48015691
_cell_length_b   7.48015813
_cell_length_c   14.92059000
_cell_angle_alpha   87.46885563
_cell_angle_beta   87.46885522
_cell_angle_gamma   41.86166147
_symmetry_Int_Tables_number   1
_chemical_formula_structural   Ba2YbAl2CrF14
_chemical_formula_sum   'Ba4 Yb2 Al4 Cr2 F28'
_cell_volume   556.49974062
_cell_formula_units_Z   2
loop_
 _symmetry_equiv_pos_site_id
 _symmetry_equiv_pos_as_xyz
  1  'x, y, z'
loop_
 _atom_site_type_symbol
 _atom_site_label
 _atom_site_symmetry_multiplicity
 _atom_site_fract_x
 _atom_site_fract_y
 _atom_site_fract_z
 _atom_site_occupancy
  Ba  Ba0  1  0.243544  0.133475  0.379210  1
  Ba  Ba1  1  0.866525  0.756456  0.120790  1
  Ba  Ba2  1  0.756456  0.866525  0.620790  1
  Ba  Ba3  1  0.133475  0.243544  0.879210  1
  Yb  Yb4  1  0.574653  0.425347  0.250000  1
  Yb  Yb5  1  0.425347  0.574653  0.750000  1
  Al  Al6  1  0.132326  0.106599  0.125254  1
  Al  Al7  1  0.893401  0.867674  0.374746  1
  Al  Al8  1  0.867674  0.893401  0.874746  1
  Al  Al9  1  0.106599  0.132326  0.625254  1
  Cr  Cr10  1  0.500000  0.500000  0.000000  1
  Cr  Cr11  1  0.500000  0.500000  0.500000  1
  F  F12  1  0.324892  0.162360  0.096210  1
  F  F13  1  0.837640  0.675108  0.403790  1
  F  F14  1  0.675108  0.837640  0.903790  1
  F  F15  1  0.162360  0.324892  0.596210  1
  F  F16  1  0.729005  0.104058  0.974666  1
  F  F17  1  0.895942  0.270995  0.525334  1
  F  F18  1  0.270995  0.895942  0.025334  1
  F  F19  1  0.104058  0.729005  0.474666  1
  F  F20  1  0.399691  0.870902  0.550356  1
  F  F21  1  0.129098  0.600309  0.949644  1
  F  F22  1  0.600309  0.129098  0.449644  1
  F  F23  1  0.870902  0.399691  0.050356  1
  F  F24  1  0.915802  0.079620  0.154081  1
  F  F25  1  0.920380  0.084198  0.345919  1
  F  F26  1  0.084198  0.920380  0.845919  1
  F  F27  1  0.079620  0.915802  0.654081  1
  F  F28  1  0.348514  0.962415  0.719543  1
  F  F29  1  0.037585  0.651486  0.780457  1
  F  F30  1  0.651486  0.037585  0.280457  1
  F  F31  1  0.962415  0.348514  0.219543  1
  F  F32  1  0.603012  0.171009  0.801218  1
  F  F33  1  0.828991  0.396988  0.698782  1
  F  F34  1  0.396988  0.828991  0.198782  1
  F  F35  1  0.171009  0.603012  0.301218  1
  F  F36  1  0.504337  0.620823  0.377987  1
  F  F37  1  0.379177  0.495663  0.122013  1
  F  F38  1  0.495663  0.379177  0.622013  1
  F  F39  1  0.620823  0.504337  0.877987  1
