# generated using pymatgen
data_Ho3ThU4(ReB6)4
_symmetry_space_group_name_H-M   'P 1'
_cell_length_a   3.65941000
_cell_length_b   9.32708308
_cell_length_c   11.44914745
_cell_angle_alpha   89.91846397
_cell_angle_beta   90.00000000
_cell_angle_gamma   90.00000000
_symmetry_Int_Tables_number   1
_chemical_formula_structural   Ho3ThU4(ReB6)4
_chemical_formula_sum   'Ho3 Th1 U4 Re4 B24'
_cell_volume   390.77756717
_cell_formula_units_Z   1
loop_
 _symmetry_equiv_pos_site_id
 _symmetry_equiv_pos_as_xyz
  1  'x, y, z'
loop_
 _atom_site_type_symbol
 _atom_site_label
 _atom_site_symmetry_multiplicity
 _atom_site_fract_x
 _atom_site_fract_y
 _atom_site_fract_z
 _atom_site_occupancy
  Ho  Ho0  1  0.000000  0.336979  0.407380  1
  Ho  Ho1  1  0.000000  0.663289  0.591407  1
  Ho  Ho2  1  0.000000  0.834923  0.093895  1
  Th  Th3  1  0.000000  0.164071  0.907673  1
  U  U4  1  0.000000  0.956466  0.396840  1
  U  U5  1  0.000000  0.042505  0.601918  1
  U  U6  1  0.000000  0.459165  0.104229  1
  U  U7  1  0.000000  0.545177  0.897508  1
  Re  Re8  1  0.000000  0.645698  0.318697  1
  Re  Re9  1  0.000000  0.355066  0.680722  1
  Re  Re10  1  0.000000  0.145374  0.181860  1
  Re  Re11  1  0.000000  0.852259  0.818299  1
  B  B12  1  0.500000  0.551807  0.430972  1
  B  B13  1  0.500000  0.448765  0.568508  1
  B  B14  1  0.500000  0.051564  0.071623  1
  B  B15  1  0.500000  0.944161  0.930025  1
  B  B16  1  0.500000  0.742524  0.423101  1
  B  B17  1  0.500000  0.257754  0.575591  1
  B  B18  1  0.500000  0.244587  0.079172  1
  B  B19  1  0.500000  0.755287  0.922747  1
  B  B20  1  0.500000  0.801732  0.275578  1
  B  B21  1  0.500000  0.199265  0.722885  1
  B  B22  1  0.500000  0.302633  0.226080  1
  B  B23  1  0.500000  0.697060  0.774498  1
  B  B24  1  0.500000  0.644421  0.189074  1
  B  B25  1  0.500000  0.358141  0.810410  1
  B  B26  1  0.500000  0.144316  0.311813  1
  B  B27  1  0.500000  0.853751  0.687408  1
  B  B28  1  0.500000  0.988800  0.220707  1
  B  B29  1  0.500000  0.007534  0.778692  1
  B  B30  1  0.500000  0.489246  0.281089  1
  B  B31  1  0.500000  0.511753  0.718661  1
  B  B32  1  0.500000  0.640208  0.039281  1
  B  B33  1  0.500000  0.364381  0.962537  1
  B  B34  1  0.500000  0.140160  0.460873  1
  B  B35  1  0.500000  0.859179  0.538248  1
