# generated using pymatgen
data_Ca9PrTaNbN10
_symmetry_space_group_name_H-M   'P 1'
_cell_length_a   6.98203579
_cell_length_b   6.96955639
_cell_length_c   8.94954009
_cell_angle_alpha   80.78044414
_cell_angle_beta   80.49987162
_cell_angle_gamma   59.87444955
_symmetry_Int_Tables_number   1
_chemical_formula_structural   Ca9PrTaNbN10
_chemical_formula_sum   'Ca9 Pr1 Ta1 Nb1 N10'
_cell_volume   369.97823416
_cell_formula_units_Z   1
loop_
 _symmetry_equiv_pos_site_id
 _symmetry_equiv_pos_as_xyz
  1  'x, y, z'
loop_
 _atom_site_type_symbol
 _atom_site_label
 _atom_site_symmetry_multiplicity
 _atom_site_fract_x
 _atom_site_fract_y
 _atom_site_fract_z
 _atom_site_occupancy
  Ca  Ca0  1  0.871647  0.870386  0.826632  1
  Ca  Ca1  1  0.740444  0.743668  0.519857  1
  Ca  Ca2  1  0.753917  0.248507  0.502306  1
  Ca  Ca3  1  0.623162  0.135009  0.156705  1
  Ca  Ca4  1  0.362899  0.872249  0.837517  1
  Ca  Ca5  1  0.250323  0.754714  0.507178  1
  Ca  Ca6  1  0.244132  0.243556  0.489506  1
  Ca  Ca7  1  0.144294  0.136424  0.168694  1
  Ca  Ca8  1  0.136737  0.626811  0.154151  1
  Pr  Pr9  1  0.878781  0.350564  0.837901  1
  Ta  Ta10  1  0.630875  0.630886  0.222089  1
  Nb  Nb11  1  0.372581  0.367058  0.772951  1
  N  N12  1  0.914017  0.466652  0.319956  1
  N  N13  1  0.991454  0.005794  0.016742  1
  N  N14  1  0.676762  0.686170  0.001536  1
  N  N15  1  0.539710  0.535009  0.693827  1
  N  N16  1  0.466365  0.912690  0.324314  1
  N  N17  1  0.539895  0.084355  0.674932  1
  N  N18  1  0.464963  0.467091  0.299502  1
  N  N19  1  0.316812  0.317992  0.992626  1
  N  N20  1  0.055473  0.070340  0.650209  1
  N  N21  1  0.087048  0.536362  0.676674  1
