# generated using pymatgen
data_CaLa(Ga2Rh3)2
_symmetry_space_group_name_H-M   'P 1'
_cell_length_a   5.68340440
_cell_length_b   6.84204936
_cell_length_c   6.84204845
_cell_angle_alpha   68.40309552
_cell_angle_beta   65.45996888
_cell_angle_gamma   65.45996713
_symmetry_Int_Tables_number   1
_chemical_formula_structural   CaLa(Ga2Rh3)2
_chemical_formula_sum   'Ca1 La1 Ga4 Rh6'
_cell_volume   213.92833081
_cell_formula_units_Z   1
loop_
 _symmetry_equiv_pos_site_id
 _symmetry_equiv_pos_as_xyz
  1  'x, y, z'
loop_
 _atom_site_type_symbol
 _atom_site_label
 _atom_site_symmetry_multiplicity
 _atom_site_fract_x
 _atom_site_fract_y
 _atom_site_fract_z
 _atom_site_occupancy
  Ca  Ca0  1  0.517445  0.750000  0.750000  1
  La  La1  1  0.481539  0.250000  0.250000  1
  Ga  Ga2  1  0.182706  0.588314  0.588314  1
  Ga  Ga3  1  0.806113  0.423075  0.423075  1
  Ga  Ga4  1  0.152262  0.076925  0.076925  1
  Ga  Ga5  1  0.859336  0.911686  0.911686  1
  Rh  Rh6  1  0.499982  0.238878  0.761461  1
  Rh  Rh7  1  0.000321  0.738539  0.261122  1
  Rh  Rh8  1  0.499982  0.761461  0.238878  1
  Rh  Rh9  1  0.000321  0.261122  0.738539  1
  Rh  Rh10  1  0.999996  0.493547  0.006453  1
  Rh  Rh11  1  0.999996  0.006453  0.493547  1
