# generated using pymatgen
data_Li8Al3Si2Au3
_symmetry_space_group_name_H-M   'P 1'
_cell_length_a   6.06600864
_cell_length_b   6.47016500
_cell_length_c   6.06600864
_cell_angle_alpha   90.00000000
_cell_angle_beta   89.89302157
_cell_angle_gamma   90.00000000
_symmetry_Int_Tables_number   1
_chemical_formula_structural   Li8Al3Si2Au3
_chemical_formula_sum   'Li8 Al3 Si2 Au3'
_cell_volume   238.07875820
_cell_formula_units_Z   1
loop_
 _symmetry_equiv_pos_site_id
 _symmetry_equiv_pos_as_xyz
  1  'x, y, z'
loop_
 _atom_site_type_symbol
 _atom_site_label
 _atom_site_symmetry_multiplicity
 _atom_site_fract_x
 _atom_site_fract_y
 _atom_site_fract_z
 _atom_site_occupancy
  Li  Li0  1  0.242635  0.745650  0.242635  1
  Li  Li1  1  0.728670  0.264405  0.271330  1
  Li  Li2  1  0.271330  0.264405  0.728670  1
  Li  Li3  1  0.000000  0.002065  0.000000  1
  Li  Li4  1  0.000000  0.497319  0.500000  1
  Li  Li5  1  0.757365  0.745650  0.757365  1
  Li  Li6  1  0.500000  0.985822  0.500000  1
  Li  Li7  1  0.500000  0.497319  0.000000  1
  Al  Al8  1  0.000000  0.001711  0.500000  1
  Al  Al9  1  0.000000  0.485162  0.000000  1
  Al  Al10  1  0.500000  0.001711  0.000000  1
  Si  Si11  1  0.757164  0.746175  0.242836  1
  Si  Si12  1  0.242836  0.746175  0.757164  1
  Au  Au13  1  0.243649  0.235735  0.243649  1
  Au  Au14  1  0.500000  0.544963  0.500000  1
  Au  Au15  1  0.756351  0.235735  0.756351  1
