# generated using pymatgen
data_PrMg(NbS2)8
_symmetry_space_group_name_H-M   'P 1'
_cell_length_a   6.66812000
_cell_length_b   6.66812196
_cell_length_c   13.63790500
_cell_angle_alpha   90.00000000
_cell_angle_beta   90.00000000
_cell_angle_gamma   120.00000020
_symmetry_Int_Tables_number   1
_chemical_formula_structural   PrMg(NbS2)8
_chemical_formula_sum   'Pr1 Mg1 Nb8 S16'
_cell_volume   525.15225285
_cell_formula_units_Z   1
loop_
 _symmetry_equiv_pos_site_id
 _symmetry_equiv_pos_as_xyz
  1  'x, y, z'
loop_
 _atom_site_type_symbol
 _atom_site_label
 _atom_site_symmetry_multiplicity
 _atom_site_fract_x
 _atom_site_fract_y
 _atom_site_fract_z
 _atom_site_occupancy
  Pr  Pr0  1  0.000000  0.000000  0.000000  1
  Mg  Mg1  1  0.000000  0.000000  0.500000  1
  Nb  Nb2  1  0.000000  0.000000  0.260784  1
  Nb  Nb3  1  0.000000  0.000000  0.739216  1
  Nb  Nb4  1  0.504832  0.009662  0.263494  1
  Nb  Nb5  1  0.495168  0.990338  0.736506  1
  Nb  Nb6  1  0.990338  0.495168  0.263494  1
  Nb  Nb7  1  0.009662  0.504832  0.736506  1
  Nb  Nb8  1  0.504832  0.495168  0.263494  1
  Nb  Nb9  1  0.495168  0.504832  0.736506  1
  S  S10  1  0.333333  0.666667  0.619910  1
  S  S11  1  0.666667  0.333333  0.380090  1
  S  S12  1  0.666667  0.333333  0.144848  1
  S  S13  1  0.333333  0.666667  0.855152  1
  S  S14  1  0.170338  0.340678  0.147646  1
  S  S15  1  0.829662  0.659322  0.852354  1
  S  S16  1  0.659322  0.829662  0.147646  1
  S  S17  1  0.832757  0.665512  0.622684  1
  S  S18  1  0.340678  0.170338  0.852354  1
  S  S19  1  0.167243  0.334488  0.377316  1
  S  S20  1  0.170338  0.829662  0.147646  1
  S  S21  1  0.334488  0.167243  0.622684  1
  S  S22  1  0.829662  0.170338  0.852354  1
  S  S23  1  0.665512  0.832757  0.377316  1
  S  S24  1  0.832757  0.167243  0.622684  1
  S  S25  1  0.167243  0.832757  0.377316  1
