# generated using pymatgen
data_CaDy4Si12Ir19
_symmetry_space_group_name_H-M   'P 1'
_cell_length_a   12.84003200
_cell_length_b   12.84003209
_cell_length_c   3.99237000
_cell_angle_alpha   90.00000000
_cell_angle_beta   90.00000000
_cell_angle_gamma   119.99999977
_symmetry_Int_Tables_number   1
_chemical_formula_structural   CaDy4Si12Ir19
_chemical_formula_sum   'Ca1 Dy4 Si12 Ir19'
_cell_volume   570.02464314
_cell_formula_units_Z   1
loop_
 _symmetry_equiv_pos_site_id
 _symmetry_equiv_pos_as_xyz
  1  'x, y, z'
loop_
 _atom_site_type_symbol
 _atom_site_label
 _atom_site_symmetry_multiplicity
 _atom_site_fract_x
 _atom_site_fract_y
 _atom_site_fract_z
 _atom_site_occupancy
  Ca  Ca0  1  0.333333  0.666667  0.500000  1
  Dy  Dy1  1  0.666667  0.333333  0.500000  1
  Dy  Dy2  1  0.999814  0.815384  0.000000  1
  Dy  Dy3  1  0.184616  0.184430  0.000000  1
  Dy  Dy4  1  0.815570  0.000186  0.000000  1
  Si  Si5  1  0.000601  0.631812  0.500000  1
  Si  Si6  1  0.368188  0.368789  0.500000  1
  Si  Si7  1  0.631211  0.999399  0.500000  1
  Si  Si8  1  0.518349  0.687122  0.000000  1
  Si  Si9  1  0.312878  0.831227  0.000000  1
  Si  Si10  1  0.168773  0.481651  0.000000  1
  Si  Si11  1  0.480370  0.168169  0.000000  1
  Si  Si12  1  0.687799  0.519630  0.000000  1
  Si  Si13  1  0.831831  0.312201  0.000000  1
  Si  Si14  1  0.000191  0.181859  0.500000  1
  Si  Si15  1  0.818141  0.818332  0.500000  1
  Si  Si16  1  0.181668  0.999809  0.500000  1
  Ir  Ir17  1  0.514567  0.875106  0.000000  1
  Ir  Ir18  1  0.124894  0.639460  0.000000  1
  Ir  Ir19  1  0.360540  0.485433  0.000000  1
  Ir  Ir20  1  0.488697  0.360839  0.000000  1
  Ir  Ir21  1  0.872142  0.511303  0.000000  1
  Ir  Ir22  1  0.639161  0.127858  0.000000  1
  Ir  Ir23  1  0.999100  0.446627  0.500000  1
  Ir  Ir24  1  0.553373  0.552473  0.500000  1
  Ir  Ir25  1  0.447527  0.000900  0.500000  1
  Ir  Ir26  1  0.000018  0.282969  0.000000  1
  Ir  Ir27  1  0.717031  0.717049  0.000000  1
  Ir  Ir28  1  0.282951  0.999982  0.000000  1
  Ir  Ir29  1  0.623739  0.806012  0.500000  1
  Ir  Ir30  1  0.193988  0.817725  0.500000  1
  Ir  Ir31  1  0.182275  0.376261  0.500000  1
  Ir  Ir32  1  0.376689  0.182898  0.500000  1
  Ir  Ir33  1  0.806208  0.623311  0.500000  1
  Ir  Ir34  1  0.817102  0.193792  0.500000  1
  Ir  Ir35  1  0.000000  0.000000  0.500000  1
