# generated using pymatgen
data_NdDy2Zn2B4Ir9
_symmetry_space_group_name_H-M   'P 1'
_cell_length_a   5.55029600
_cell_length_b   5.55029621
_cell_length_c   10.16794800
_cell_angle_alpha   90.00000000
_cell_angle_beta   90.00000000
_cell_angle_gamma   120.00001067
_symmetry_Int_Tables_number   1
_chemical_formula_structural   NdDy2Zn2B4Ir9
_chemical_formula_sum   'Nd1 Dy2 Zn2 B4 Ir9'
_cell_volume   271.26652735
_cell_formula_units_Z   1
loop_
 _symmetry_equiv_pos_site_id
 _symmetry_equiv_pos_as_xyz
  1  'x, y, z'
loop_
 _atom_site_type_symbol
 _atom_site_label
 _atom_site_symmetry_multiplicity
 _atom_site_fract_x
 _atom_site_fract_y
 _atom_site_fract_z
 _atom_site_occupancy
  Nd  Nd0  1  0.000000  0.000000  0.000000  1
  Dy  Dy1  1  0.000000  0.000000  0.658043  1
  Dy  Dy2  1  0.000000  0.000000  0.341957  1
  Zn  Zn3  1  0.333333  0.666667  0.000000  1
  Zn  Zn4  1  0.666667  0.333333  0.000000  1
  B  B5  1  0.333333  0.666667  0.652244  1
  B  B6  1  0.666667  0.333333  0.652244  1
  B  B7  1  0.666667  0.333333  0.347756  1
  B  B8  1  0.333333  0.666667  0.347756  1
  Ir  Ir9  1  0.500000  0.500000  0.500000  1
  Ir  Ir10  1  0.000000  0.500000  0.500000  1
  Ir  Ir11  1  0.500000  0.000000  0.209684  1
  Ir  Ir12  1  0.500000  0.500000  0.209684  1
  Ir  Ir13  1  0.000000  0.500000  0.209684  1
  Ir  Ir14  1  0.500000  0.000000  0.790316  1
  Ir  Ir15  1  0.500000  0.500000  0.790316  1
  Ir  Ir16  1  0.000000  0.500000  0.790316  1
  Ir  Ir17  1  0.500000  0.000000  0.500000  1
