# generated using pymatgen
data_Yb6DyY3Ru4
_symmetry_space_group_name_H-M   'P 1'
_cell_length_a   8.50463778
_cell_length_b   8.50463824
_cell_length_c   7.46092338
_cell_angle_alpha   83.10520126
_cell_angle_beta   83.10519678
_cell_angle_gamma   43.75317218
_symmetry_Int_Tables_number   1
_chemical_formula_structural   Yb6DyY3Ru4
_chemical_formula_sum   'Yb6 Dy1 Y3 Ru4'
_cell_volume   370.05401705
_cell_formula_units_Z   1
loop_
 _symmetry_equiv_pos_site_id
 _symmetry_equiv_pos_as_xyz
  1  'x, y, z'
loop_
 _atom_site_type_symbol
 _atom_site_label
 _atom_site_symmetry_multiplicity
 _atom_site_fract_x
 _atom_site_fract_y
 _atom_site_fract_z
 _atom_site_occupancy
  Yb  Yb0  1  0.201810  0.975126  0.583828  1
  Yb  Yb1  1  0.024874  0.798190  0.916172  1
  Yb  Yb2  1  0.202203  0.365453  0.316933  1
  Yb  Yb3  1  0.634547  0.797797  0.183067  1
  Yb  Yb4  1  0.804724  0.628256  0.678278  1
  Yb  Yb5  1  0.371744  0.195276  0.821722  1
  Dy  Dy6  1  0.417073  0.582927  0.250000  1
  Y  Y7  1  0.968485  0.200974  0.080549  1
  Y  Y8  1  0.799026  0.031515  0.419451  1
  Y  Y9  1  0.564640  0.435360  0.750000  1
  Ru  Ru10  1  0.178371  0.601857  0.573988  1
  Ru  Ru11  1  0.398143  0.821629  0.926012  1
  Ru  Ru12  1  0.816746  0.382387  0.418499  1
  Ru  Ru13  1  0.617613  0.183254  0.081501  1
