# generated using pymatgen
data_Ac4GaP3Ir4
_symmetry_space_group_name_H-M   'P 1'
_cell_length_a   6.50801886
_cell_length_b   6.50801886
_cell_length_c   6.50801886
_cell_angle_alpha   90.89260603
_cell_angle_beta   90.89260603
_cell_angle_gamma   89.10739397
_symmetry_Int_Tables_number   1
_chemical_formula_structural   Ac4GaP3Ir4
_chemical_formula_sum   'Ac4 Ga1 P3 Ir4'
_cell_volume   275.54332834
_cell_formula_units_Z   1
loop_
 _symmetry_equiv_pos_site_id
 _symmetry_equiv_pos_as_xyz
  1  'x, y, z'
loop_
 _atom_site_type_symbol
 _atom_site_label
 _atom_site_symmetry_multiplicity
 _atom_site_fract_x
 _atom_site_fract_y
 _atom_site_fract_z
 _atom_site_occupancy
  Ac  Ac0  1  0.384542  0.884542  0.615458  1
  Ac  Ac1  1  0.887782  0.623953  0.384959  1
  Ac  Ac2  1  0.615041  0.387782  0.876047  1
  Ac  Ac3  1  0.123953  0.115041  0.112218  1
  Ga  Ga4  1  0.664093  0.164093  0.335907  1
  P  P5  1  0.164388  0.335545  0.666949  1
  P  P6  1  0.333051  0.664388  0.164455  1
  P  P7  1  0.835545  0.833051  0.835612  1
  Ir  Ir8  1  0.083991  0.583991  0.916009  1
  Ir  Ir9  1  0.574582  0.899458  0.066426  1
  Ir  Ir10  1  0.933574  0.074582  0.600542  1
  Ir  Ir11  1  0.399458  0.433574  0.425418  1
