# generated using pymatgen
data_V8IrPt7
_symmetry_space_group_name_H-M   'P 1'
_cell_length_a   8.60175260
_cell_length_b   8.60217740
_cell_length_c   6.67548163
_cell_angle_alpha   75.35009856
_cell_angle_beta   75.35437439
_cell_angle_gamma   78.21077538
_symmetry_Int_Tables_number   1
_chemical_formula_structural   V8IrPt7
_chemical_formula_sum   'V16 Ir2 Pt14'
_cell_volume   457.13042464
_cell_formula_units_Z   2
loop_
 _symmetry_equiv_pos_site_id
 _symmetry_equiv_pos_as_xyz
  1  'x, y, z'
loop_
 _atom_site_type_symbol
 _atom_site_label
 _atom_site_symmetry_multiplicity
 _atom_site_fract_x
 _atom_site_fract_y
 _atom_site_fract_z
 _atom_site_occupancy
  V  V0  1  0.999921  0.250761  0.250820  1
  V  V1  1  0.252402  0.998057  0.246529  1
  V  V2  1  0.748216  0.502674  0.245023  1
  V  V3  1  0.501125  0.750302  0.240932  1
  V  V4  1  0.874547  0.125806  0.999578  1
  V  V5  1  0.129339  0.874866  0.999005  1
  V  V6  1  0.625014  0.378847  0.998855  1
  V  V7  1  0.379074  0.628111  0.997894  1
  V  V8  1  0.124417  0.374240  0.500793  1
  V  V9  1  0.376151  0.122710  0.505064  1
  V  V10  1  0.872844  0.626303  0.502754  1
  V  V11  1  0.624397  0.874313  0.506728  1
  V  V12  1  0.745996  0.996916  0.751610  1
  V  V13  1  0.997075  0.749416  0.750624  1
  V  V14  1  0.499232  0.247197  0.752133  1
  V  V15  1  0.250337  0.499587  0.751588  1
  Ir  Ir16  1  0.688981  0.687404  0.873152  1
  Ir  Ir17  1  0.436869  0.938356  0.874810  1
  Pt  Pt18  1  0.312041  0.312270  0.126430  1
  Pt  Pt19  1  0.061790  0.062037  0.625982  1
  Pt  Pt20  1  0.813636  0.813317  0.124883  1
  Pt  Pt21  1  0.562492  0.562231  0.622720  1
  Pt  Pt22  1  0.436397  0.436363  0.376362  1
  Pt  Pt23  1  0.186421  0.187750  0.876331  1
  Pt  Pt24  1  0.938634  0.938556  0.373793  1
  Pt  Pt25  1  0.062819  0.562430  0.125058  1
  Pt  Pt26  1  0.562489  0.062920  0.126825  1
  Pt  Pt27  1  0.812218  0.312246  0.625146  1
  Pt  Pt28  1  0.312297  0.812262  0.623019  1
  Pt  Pt29  1  0.186493  0.686177  0.376322  1
  Pt  Pt30  1  0.688100  0.188434  0.374580  1
  Pt  Pt31  1  0.938236  0.437142  0.874658  1
