# generated using pymatgen
data_CaCdIn4O8
_symmetry_space_group_name_H-M   'P 1'
_cell_length_a   6.62036005
_cell_length_b   6.62036048
_cell_length_c   6.62036000
_cell_angle_alpha   60.00000238
_cell_angle_beta   60.00000025
_cell_angle_gamma   60.00000519
_symmetry_Int_Tables_number   1
_chemical_formula_structural   CaCdIn4O8
_chemical_formula_sum   'Ca1 Cd1 In4 O8'
_cell_volume   205.17756929
_cell_formula_units_Z   1
loop_
 _symmetry_equiv_pos_site_id
 _symmetry_equiv_pos_as_xyz
  1  'x, y, z'
loop_
 _atom_site_type_symbol
 _atom_site_label
 _atom_site_symmetry_multiplicity
 _atom_site_fract_x
 _atom_site_fract_y
 _atom_site_fract_z
 _atom_site_occupancy
  Ca  Ca0  1  0.000000  0.000000  0.000000  1
  Cd  Cd1  1  0.250000  0.250000  0.250000  1
  In  In2  1  0.625655  0.625655  0.625655  1
  In  In3  1  0.625655  0.123036  0.625655  1
  In  In4  1  0.625655  0.625655  0.123036  1
  In  In5  1  0.123036  0.625655  0.625655  1
  O  O6  1  0.415870  0.861377  0.861377  1
  O  O7  1  0.861377  0.861377  0.415870  1
  O  O8  1  0.861377  0.861377  0.861377  1
  O  O9  1  0.835369  0.388210  0.388210  1
  O  O10  1  0.388210  0.835369  0.388210  1
  O  O11  1  0.388210  0.388210  0.835369  1
  O  O12  1  0.861377  0.415870  0.861377  1
  O  O13  1  0.388210  0.388210  0.388210  1
