# generated using pymatgen
data_Sr5Cr8P16Pb7O64
_symmetry_space_group_name_H-M   'P 1'
_cell_length_a   9.10309777
_cell_length_b   9.10370426
_cell_length_c   16.72349321
_cell_angle_alpha   89.95778141
_cell_angle_beta   89.94285844
_cell_angle_gamma   89.95713439
_symmetry_Int_Tables_number   1
_chemical_formula_structural   Sr5Cr8P16Pb7O64
_chemical_formula_sum   'Sr5 Cr8 P16 Pb7 O64'
_cell_volume   1385.90636981
_cell_formula_units_Z   1
loop_
 _symmetry_equiv_pos_site_id
 _symmetry_equiv_pos_as_xyz
  1  'x, y, z'
loop_
 _atom_site_type_symbol
 _atom_site_label
 _atom_site_symmetry_multiplicity
 _atom_site_fract_x
 _atom_site_fract_y
 _atom_site_fract_z
 _atom_site_occupancy
  Sr  Sr0  1  0.656000  0.924285  0.240077  1
  Sr  Sr1  1  0.134269  0.134154  0.000537  1
  Sr  Sr2  1  0.364801  0.634126  0.247893  1
  Sr  Sr3  1  0.865646  0.865659  0.500796  1
  Sr  Sr4  1  0.634488  0.365484  0.750473  1
  Cr  Cr5  1  0.265566  0.500475  0.879212  1
  Cr  Cr6  1  0.997720  0.766678  0.128954  1
  Cr  Cr7  1  0.734789  0.499110  0.378669  1
  Cr  Cr8  1  0.499763  0.734819  0.621152  1
  Cr  Cr9  1  0.501454  0.264014  0.120841  1
  Cr  Cr10  1  0.000508  0.234306  0.629248  1
  Cr  Cr11  1  0.234046  0.000573  0.370514  1
  Cr  Cr12  1  0.765537  0.999545  0.871378  1
  P  P13  1  0.274867  0.455488  0.679942  1
  P  P14  1  0.003634  0.726178  0.329535  1
  P  P15  1  0.774742  0.044930  0.070373  1
  P  P16  1  0.456112  0.273621  0.319873  1
  P  P17  1  0.225083  0.494731  0.079586  1
  P  P18  1  0.724859  0.543236  0.180534  1
  P  P19  1  0.494816  0.225230  0.920441  1
  P  P20  1  0.725128  0.005169  0.670495  1
  P  P21  1  0.225536  0.955400  0.569875  1
  P  P22  1  0.505913  0.775157  0.419077  1
  P  P23  1  0.044860  0.774800  0.930194  1
  P  P24  1  0.544484  0.725371  0.820051  1
  P  P25  1  0.273817  0.994577  0.170804  1
  P  P26  1  0.955372  0.225231  0.429884  1
  P  P27  1  0.995165  0.274667  0.829536  1
  P  P28  1  0.774551  0.504681  0.579485  1
  Pb  Pb29  1  0.077504  0.345586  0.264444  1
  Pb  Pb30  1  0.844512  0.421799  0.015837  1
  Pb  Pb31  1  0.423171  0.845967  0.985107  1
  Pb  Pb32  1  0.922700  0.654724  0.765946  1
  Pb  Pb33  1  0.345034  0.077777  0.734930  1
  Pb  Pb34  1  0.577737  0.156631  0.485220  1
  Pb  Pb35  1  0.154226  0.577365  0.515679  1
  O  O36  1  0.884713  0.172918  0.062536  1
  O  O37  1  0.411241  0.134485  0.369140  1
  O  O38  1  0.636911  0.090771  0.119525  1
  O  O39  1  0.172141  0.625599  0.133386  1
  O  O40  1  0.383023  0.099465  0.932911  1
  O  O41  1  0.384796  0.327683  0.686320  1
  O  O42  1  0.417453  0.664154  0.873603  1
  O  O43  1  0.115592  0.827649  0.563431  1
  O  O44  1  0.712821  0.452688  0.498024  1
  O  O45  1  0.672254  0.615423  0.813292  1
  O  O46  1  0.147302  0.929149  0.118465  1
  O  O47  1  0.826926  0.374082  0.633554  1
  O  O48  1  0.164241  0.082513  0.623401  1
  O  O49  1  0.545938  0.287324  0.001836  1
  O  O50  1  0.672770  0.874729  0.616119  1
  O  O51  1  0.827176  0.115176  0.435419  1
  O  O52  1  0.619307  0.901588  0.427549  1
  O  O53  1  0.351580  0.428209  0.131662  1
  O  O54  1  0.571763  0.648435  0.367131  1
  O  O55  1  0.172556  0.884562  0.936527  1
  O  O56  1  0.047337  0.213174  0.747923  1
  O  O57  1  0.089698  0.635614  0.881002  1
  O  O58  1  0.900283  0.616520  0.566605  1
  O  O59  1  0.070934  0.851742  0.381822  1
  O  O60  1  0.947689  0.789851  0.249150  1
  O  O61  1  0.786536  0.953218  0.751886  1
  O  O62  1  0.589442  0.864460  0.868970  1
  O  O63  1  0.398525  0.884021  0.185186  1
  O  O64  1  0.984471  0.728749  0.012035  1
  O  O65  1  0.286771  0.546527  0.998001  1
  O  O66  1  0.082570  0.164214  0.376433  1
  O  O67  1  0.582482  0.335332  0.373889  1
  O  O68  1  0.883180  0.400311  0.816674  1
  O  O69  1  0.863752  0.589502  0.131272  1
  O  O70  1  0.665217  0.415452  0.126756  1
  O  O71  1  0.364544  0.910499  0.618983  1
  O  O72  1  0.336007  0.582630  0.626103  1
  O  O73  1  0.125764  0.327005  0.883446  1
  O  O74  1  0.615627  0.669470  0.189130  1
  O  O75  1  0.328872  0.383587  0.312413  1
  O  O76  1  0.484222  0.771347  0.738045  1
  O  O77  1  0.428474  0.351362  0.867996  1
  O  O78  1  0.873556  0.673238  0.384063  1
  O  O79  1  0.625709  0.172936  0.866364  1
  O  O80  1  0.773313  0.481090  0.262036  1
  O  O81  1  0.456764  0.716464  0.501457  1
  O  O82  1  0.728322  0.984526  0.988276  1
  O  O83  1  0.928686  0.148271  0.881453  1
  O  O84  1  0.326965  0.125179  0.116581  1
  O  O85  1  0.917662  0.835835  0.876493  1
  O  O86  1  0.851491  0.071353  0.618136  1
  O  O87  1  0.648409  0.571501  0.631584  1
  O  O88  1  0.599423  0.117236  0.682778  1
  O  O89  1  0.115520  0.601104  0.315660  1
  O  O90  1  0.229051  0.515682  0.761820  1
  O  O91  1  0.135693  0.410521  0.630844  1
  O  O92  1  0.837357  0.919403  0.123767  1
  O  O93  1  0.910928  0.364742  0.381156  1
  O  O94  1  0.210685  0.048575  0.252002  1
  O  O95  1  0.518668  0.224333  0.238897  1
  O  O96  1  0.271448  0.015272  0.487834  1
  O  O97  1  0.099669  0.382677  0.067206  1
  O  O98  1  0.014626  0.270040  0.512047  1
  O  O99  1  0.374744  0.827288  0.365401  1
