# generated using pymatgen
data_Nd8DyErIr4
_symmetry_space_group_name_H-M   'P 1'
_cell_length_a   6.65327092
_cell_length_b   7.28550315
_cell_length_c   8.90770160
_cell_angle_alpha   96.37950387
_cell_angle_beta   111.92892624
_cell_angle_gamma   90.00000290
_symmetry_Int_Tables_number   1
_chemical_formula_structural   Nd8DyErIr4
_chemical_formula_sum   'Nd8 Dy1 Er1 Ir4'
_cell_volume   397.65416233
_cell_formula_units_Z   1
loop_
 _symmetry_equiv_pos_site_id
 _symmetry_equiv_pos_as_xyz
  1  'x, y, z'
loop_
 _atom_site_type_symbol
 _atom_site_label
 _atom_site_symmetry_multiplicity
 _atom_site_fract_x
 _atom_site_fract_y
 _atom_site_fract_z
 _atom_site_occupancy
  Nd  Nd0  1  0.794178  0.079264  0.818192  1
  Nd  Nd1  1  0.975987  0.420736  0.181808  1
  Nd  Nd2  1  0.206009  0.921016  0.181944  1
  Nd  Nd3  1  0.024064  0.578984  0.818056  1
  Nd  Nd4  1  0.213499  0.187029  0.566970  1
  Nd  Nd5  1  0.646529  0.312971  0.433030  1
  Nd  Nd6  1  0.786474  0.813031  0.433286  1
  Nd  Nd7  1  0.353188  0.686969  0.566714  1
  Dy  Dy8  1  0.564534  0.750000  0.000000  1
  Er  Er9  1  0.435680  0.250000  0.000000  1
  Ir  Ir10  1  0.598214  0.429081  0.787227  1
  Ir  Ir11  1  0.810987  0.070919  0.212773  1
  Ir  Ir12  1  0.401695  0.570302  0.212733  1
  Ir  Ir13  1  0.188962  0.929698  0.787267  1
