# generated using pymatgen
data_Tb2(Hf2Bi3)3
_symmetry_space_group_name_H-M   'P 1'
_cell_length_a   10.93726500
_cell_length_b   10.93726500
_cell_length_c   7.83929800
_cell_angle_alpha   90.00000000
_cell_angle_beta   90.00000000
_cell_angle_gamma   90.00000000
_symmetry_Int_Tables_number   1
_chemical_formula_structural   Tb2(Hf2Bi3)3
_chemical_formula_sum   'Tb4 Hf12 Bi18'
_cell_volume   937.76634705
_cell_formula_units_Z   2
loop_
 _symmetry_equiv_pos_site_id
 _symmetry_equiv_pos_as_xyz
  1  'x, y, z'
loop_
 _atom_site_type_symbol
 _atom_site_label
 _atom_site_symmetry_multiplicity
 _atom_site_fract_x
 _atom_site_fract_y
 _atom_site_fract_z
 _atom_site_occupancy
  Tb  Tb0  1  0.750000  0.750000  0.078348  1
  Tb  Tb1  1  0.250000  0.250000  0.430119  1
  Tb  Tb2  1  0.750000  0.750000  0.569882  1
  Tb  Tb3  1  0.250000  0.250000  0.921653  1
  Hf  Hf4  1  0.000000  0.000000  0.000000  1
  Hf  Hf5  1  0.500000  0.000000  0.000000  1
  Hf  Hf6  1  0.000000  0.500000  0.000000  1
  Hf  Hf7  1  0.500000  0.500000  0.000000  1
  Hf  Hf8  1  0.750000  0.104801  0.156622  1
  Hf  Hf9  1  0.750000  0.395198  0.156622  1
  Hf  Hf10  1  0.104801  0.750000  0.156622  1
  Hf  Hf11  1  0.395198  0.750000  0.156622  1
  Hf  Hf12  1  0.604801  0.249999  0.843379  1
  Hf  Hf13  1  0.895200  0.250000  0.843379  1
  Hf  Hf14  1  0.249999  0.604801  0.843379  1
  Hf  Hf15  1  0.250000  0.895200  0.843379  1
  Bi  Bi16  1  0.250000  0.005973  0.191261  1
  Bi  Bi17  1  0.005973  0.250000  0.191261  1
  Bi  Bi18  1  0.494026  0.249999  0.191261  1
  Bi  Bi19  1  0.249999  0.494026  0.191261  1
  Bi  Bi20  1  0.578824  0.578824  0.344729  1
  Bi  Bi21  1  0.921176  0.578824  0.344729  1
  Bi  Bi22  1  0.921176  0.921176  0.344729  1
  Bi  Bi23  1  0.578824  0.921176  0.344729  1
  Bi  Bi24  1  0.750000  0.250000  0.500000  1
  Bi  Bi25  1  0.250000  0.750000  0.500000  1
  Bi  Bi26  1  0.421176  0.078824  0.655271  1
  Bi  Bi27  1  0.078824  0.078824  0.655271  1
  Bi  Bi28  1  0.078824  0.421176  0.655271  1
  Bi  Bi29  1  0.421176  0.421176  0.655271  1
  Bi  Bi30  1  0.750000  0.505973  0.808740  1
  Bi  Bi31  1  0.505973  0.750000  0.808740  1
  Bi  Bi32  1  0.994027  0.750000  0.808740  1
  Bi  Bi33  1  0.750000  0.994027  0.808740  1
