# generated using pymatgen
data_Sr6NdTm(BO3)6
_symmetry_space_group_name_H-M   'P 1'
_cell_length_a   7.95323236
_cell_length_b   7.95323287
_cell_length_c   7.95323213
_cell_angle_alpha   105.04541434
_cell_angle_beta   105.04541102
_cell_angle_gamma   105.04543432
_symmetry_Int_Tables_number   1
_chemical_formula_structural   Sr6NdTm(BO3)6
_chemical_formula_sum   'Sr6 Nd1 Tm1 B6 O18'
_cell_volume   439.39434798
_cell_formula_units_Z   1
loop_
 _symmetry_equiv_pos_site_id
 _symmetry_equiv_pos_as_xyz
  1  'x, y, z'
loop_
 _atom_site_type_symbol
 _atom_site_label
 _atom_site_symmetry_multiplicity
 _atom_site_fract_x
 _atom_site_fract_y
 _atom_site_fract_z
 _atom_site_occupancy
  Sr  Sr0  1  0.362788  0.734191  0.860285  1
  Sr  Sr1  1  0.860285  0.362788  0.734191  1
  Sr  Sr2  1  0.734191  0.860285  0.362788  1
  Sr  Sr3  1  0.637212  0.265809  0.139715  1
  Sr  Sr4  1  0.139715  0.637212  0.265809  1
  Sr  Sr5  1  0.265809  0.139715  0.637212  1
  Nd  Nd6  1  0.000000  0.000000  0.000000  1
  Tm  Tm7  1  0.500000  0.500000  0.500000  1
  B  B8  1  0.704416  0.608482  0.958281  1
  B  B9  1  0.958281  0.704416  0.608482  1
  B  B10  1  0.608482  0.958281  0.704416  1
  B  B11  1  0.041719  0.295584  0.391518  1
  B  B12  1  0.391518  0.041719  0.295584  1
  B  B13  1  0.295584  0.391518  0.041719  1
  O  O14  1  0.043342  0.810229  0.521757  1
  O  O15  1  0.521757  0.043342  0.810229  1
  O  O16  1  0.442699  0.494276  0.210852  1
  O  O17  1  0.494276  0.210852  0.442699  1
  O  O18  1  0.210852  0.442699  0.494276  1
  O  O19  1  0.789148  0.557301  0.505724  1
  O  O20  1  0.557301  0.505724  0.789148  1
  O  O21  1  0.505724  0.789148  0.557301  1
  O  O22  1  0.262186  0.201611  0.966246  1
  O  O23  1  0.201611  0.966246  0.262186  1
  O  O24  1  0.966246  0.262186  0.201611  1
  O  O25  1  0.737814  0.798389  0.033754  1
  O  O26  1  0.798389  0.033754  0.737814  1
  O  O27  1  0.033754  0.737814  0.798389  1
  O  O28  1  0.189771  0.478243  0.956658  1
  O  O29  1  0.478243  0.956658  0.189771  1
  O  O30  1  0.956658  0.189771  0.478243  1
  O  O31  1  0.810229  0.521757  0.043342  1
