# generated using pymatgen
data_YbHoPa2Ge6Os7
_symmetry_space_group_name_H-M   'P 1'
_cell_length_a   7.26005366
_cell_length_b   7.24960010
_cell_length_c   7.22745648
_cell_angle_alpha   109.36570255
_cell_angle_beta   109.40490771
_cell_angle_gamma   109.52714006
_symmetry_Int_Tables_number   1
_chemical_formula_structural   YbHoPa2Ge6Os7
_chemical_formula_sum   'Yb1 Ho1 Pa2 Ge6 Os7'
_cell_volume   293.24895961
_cell_formula_units_Z   1
loop_
 _symmetry_equiv_pos_site_id
 _symmetry_equiv_pos_as_xyz
  1  'x, y, z'
loop_
 _atom_site_type_symbol
 _atom_site_label
 _atom_site_symmetry_multiplicity
 _atom_site_fract_x
 _atom_site_fract_y
 _atom_site_fract_z
 _atom_site_occupancy
  Yb  Yb0  1  0.000000  0.500000  0.000000  1
  Ho  Ho1  1  0.000000  0.000000  0.500000  1
  Pa  Pa2  1  0.500000  0.000000  0.000000  1
  Pa  Pa3  1  0.500000  0.500000  0.500000  1
  Ge  Ge4  1  0.696796  0.687629  0.004953  1
  Ge  Ge5  1  0.303204  0.990805  0.308121  1
  Ge  Ge6  1  0.999972  0.312718  0.309044  1
  Ge  Ge7  1  0.303204  0.312371  0.995047  1
  Ge  Ge8  1  0.696796  0.009195  0.691879  1
  Ge  Ge9  1  0.000028  0.687282  0.690956  1
  Os  Os10  1  0.742699  0.248836  0.493452  1
  Os  Os11  1  0.742700  0.493780  0.249162  1
  Os  Os12  1  0.499102  0.249514  0.749594  1
  Os  Os13  1  0.257300  0.506220  0.750838  1
  Os  Os14  1  0.257301  0.751164  0.506548  1
  Os  Os15  1  0.500898  0.750486  0.250406  1
  Os  Os16  1  0.000000  0.000000  0.000000  1
