# generated using pymatgen
data_Tm3Lu7(NiSb2)2
_symmetry_space_group_name_H-M   'P 1'
_cell_length_a   7.75409309
_cell_length_b   8.70610500
_cell_length_c   11.90484214
_cell_angle_alpha   90.00000000
_cell_angle_beta   89.98233594
_cell_angle_gamma   90.00000000
_symmetry_Int_Tables_number   1
_chemical_formula_structural   Tm3Lu7(NiSb2)2
_chemical_formula_sum   'Tm6 Lu14 Ni4 Sb8'
_cell_volume   803.67143366
_cell_formula_units_Z   2
loop_
 _symmetry_equiv_pos_site_id
 _symmetry_equiv_pos_as_xyz
  1  'x, y, z'
loop_
 _atom_site_type_symbol
 _atom_site_label
 _atom_site_symmetry_multiplicity
 _atom_site_fract_x
 _atom_site_fract_y
 _atom_site_fract_z
 _atom_site_occupancy
  Tm  Tm0  1  0.658631  0.750000  0.292807  1
  Tm  Tm1  1  0.547600  0.750000  0.000239  1
  Tm  Tm2  1  0.047429  0.250000  0.499676  1
  Tm  Tm3  1  0.624316  0.250000  0.304367  1
  Tm  Tm4  1  0.341493  0.250000  0.707311  1
  Tm  Tm5  1  0.158667  0.250000  0.207151  1
  Lu  Lu6  1  0.321435  0.542127  0.434156  1
  Lu  Lu7  1  0.875860  0.250000  0.804592  1
  Lu  Lu8  1  0.178322  0.541856  0.934060  1
  Lu  Lu9  1  0.321435  0.957873  0.434156  1
  Lu  Lu10  1  0.124132  0.750000  0.195494  1
  Lu  Lu11  1  0.841433  0.750000  0.792834  1
  Lu  Lu12  1  0.376008  0.750000  0.695404  1
  Lu  Lu13  1  0.952440  0.750000  0.500418  1
  Lu  Lu14  1  0.452407  0.250000  0.999596  1
  Lu  Lu15  1  0.678468  0.458351  0.566002  1
  Lu  Lu16  1  0.821609  0.041918  0.065823  1
  Lu  Lu17  1  0.678468  0.041649  0.566002  1
  Lu  Lu18  1  0.178322  0.958144  0.934060  1
  Lu  Lu19  1  0.821609  0.458082  0.065823  1
  Ni  Ni20  1  0.924615  0.750000  0.012146  1
  Ni  Ni21  1  0.575613  0.750000  0.512367  1
  Ni  Ni22  1  0.075557  0.250000  0.987648  1
  Ni  Ni23  1  0.424448  0.250000  0.487821  1
  Sb  Sb24  1  0.929742  0.491189  0.327832  1
  Sb  Sb25  1  0.429438  0.509074  0.172123  1
  Sb  Sb26  1  0.429438  0.990926  0.172123  1
  Sb  Sb27  1  0.570489  0.490849  0.827775  1
  Sb  Sb28  1  0.070172  0.509446  0.672295  1
  Sb  Sb29  1  0.570489  0.009151  0.827775  1
  Sb  Sb30  1  0.929742  0.008811  0.327832  1
  Sb  Sb31  1  0.070172  0.990554  0.672295  1
