# generated using pymatgen
data_Tb7Nd(AlRu)8
_symmetry_space_group_name_H-M   'P 1'
_cell_length_a   4.09899300
_cell_length_b   7.06773647
_cell_length_c   16.04639000
_cell_angle_alpha   89.97917397
_cell_angle_beta   90.00000000
_cell_angle_gamma   90.00000000
_symmetry_Int_Tables_number   1
_chemical_formula_structural   Tb7Nd(AlRu)8
_chemical_formula_sum   'Tb7 Nd1 Al8 Ru8'
_cell_volume   464.87355239
_cell_formula_units_Z   1
loop_
 _symmetry_equiv_pos_site_id
 _symmetry_equiv_pos_as_xyz
  1  'x, y, z'
loop_
 _atom_site_type_symbol
 _atom_site_label
 _atom_site_symmetry_multiplicity
 _atom_site_fract_x
 _atom_site_fract_y
 _atom_site_fract_z
 _atom_site_occupancy
  Tb  Tb0  1  0.250000  0.530875  0.779471  1
  Tb  Tb1  1  0.750000  0.470877  0.220853  1
  Tb  Tb2  1  0.750000  0.969585  0.281244  1
  Tb  Tb3  1  0.250000  0.029872  0.718017  1
  Tb  Tb4  1  0.250000  0.657310  0.562090  1
  Tb  Tb5  1  0.750000  0.341978  0.437473  1
  Tb  Tb6  1  0.750000  0.841395  0.063952  1
  Nd  Nd7  1  0.250000  0.159143  0.937485  1
  Al  Al8  1  0.250000  0.639331  0.349621  1
  Al  Al9  1  0.750000  0.360774  0.649549  1
  Al  Al10  1  0.750000  0.856527  0.847330  1
  Al  Al11  1  0.250000  0.140777  0.152744  1
  Al  Al12  1  0.250000  0.504024  0.066723  1
  Al  Al13  1  0.750000  0.500528  0.934849  1
  Al  Al14  1  0.750000  0.998037  0.564574  1
  Al  Al15  1  0.250000  0.000548  0.435049  1
  Ru  Ru16  1  0.250000  0.759978  0.187859  1
  Ru  Ru17  1  0.750000  0.243025  0.808883  1
  Ru  Ru18  1  0.750000  0.741873  0.686303  1
  Ru  Ru19  1  0.250000  0.255948  0.313376  1
  Ru  Ru20  1  0.250000  0.728957  0.935785  1
  Ru  Ru21  1  0.750000  0.270438  0.067242  1
  Ru  Ru22  1  0.750000  0.766271  0.436098  1
  Ru  Ru23  1  0.250000  0.231930  0.563430  1
