# generated using pymatgen
data_Ho10RuRh3
_symmetry_space_group_name_H-M   'P 1'
_cell_length_a   6.38231404
_cell_length_b   7.19008615
_cell_length_c   8.54937729
_cell_angle_alpha   96.73723969
_cell_angle_beta   112.09938253
_cell_angle_gamma   90.02690699
_symmetry_Int_Tables_number   1
_chemical_formula_structural   Ho10RuRh3
_chemical_formula_sum   'Ho10 Ru1 Rh3'
_cell_volume   360.56802286
_cell_formula_units_Z   1
loop_
 _symmetry_equiv_pos_site_id
 _symmetry_equiv_pos_as_xyz
  1  'x, y, z'
loop_
 _atom_site_type_symbol
 _atom_site_label
 _atom_site_symmetry_multiplicity
 _atom_site_fract_x
 _atom_site_fract_y
 _atom_site_fract_z
 _atom_site_occupancy
  Ho  Ho0  1  0.981335  0.918197  0.188559  1
  Ho  Ho1  1  0.791232  0.583116  0.812413  1
  Ho  Ho2  1  0.022935  0.082509  0.814811  1
  Ho  Ho3  1  0.210476  0.414820  0.188682  1
  Ho  Ho4  1  0.643858  0.815344  0.435236  1
  Ho  Ho5  1  0.208115  0.686523  0.563186  1
  Ho  Ho6  1  0.355976  0.186226  0.560958  1
  Ho  Ho7  1  0.788470  0.312209  0.435751  1
  Ho  Ho8  1  0.422041  0.752195  0.001313  1
  Ho  Ho9  1  0.577330  0.249093  0.000589  1
  Ru  Ru10  1  0.397241  0.075155  0.219276  1
  Rh  Rh11  1  0.822135  0.575313  0.221551  1
  Rh  Rh12  1  0.599967  0.923869  0.779617  1
  Rh  Rh13  1  0.178888  0.425430  0.778060  1
