# generated using pymatgen
data_LaCe2TiAs5
_symmetry_space_group_name_H-M   'P 1'
_cell_length_a   8.83902400
_cell_length_b   8.78409972
_cell_length_c   5.96181400
_cell_angle_alpha   90.00000000
_cell_angle_beta   90.00000000
_cell_angle_gamma   120.20705388
_symmetry_Int_Tables_number   1
_chemical_formula_structural   LaCe2TiAs5
_chemical_formula_sum   'La2 Ce4 Ti2 As10'
_cell_volume   400.03751515
_cell_formula_units_Z   2
loop_
 _symmetry_equiv_pos_site_id
 _symmetry_equiv_pos_as_xyz
  1  'x, y, z'
loop_
 _atom_site_type_symbol
 _atom_site_label
 _atom_site_symmetry_multiplicity
 _atom_site_fract_x
 _atom_site_fract_y
 _atom_site_fract_z
 _atom_site_occupancy
  La  La0  1  0.617003  0.000000  0.250000  1
  La  La1  1  0.382997  0.000000  0.750000  1
  Ce  Ce2  1  0.001659  0.618531  0.250000  1
  Ce  Ce3  1  0.998341  0.381469  0.750000  1
  Ce  Ce4  1  0.383127  0.381469  0.250000  1
  Ce  Ce5  1  0.616873  0.618531  0.750000  1
  Ti  Ti6  1  0.000000  0.000000  0.000000  1
  Ti  Ti7  1  0.000000  0.000000  0.500000  1
  As  As8  1  0.247491  0.000000  0.250000  1
  As  As9  1  0.752509  0.000000  0.750000  1
  As  As10  1  0.005357  0.255034  0.250000  1
  As  As11  1  0.994643  0.744966  0.750000  1
  As  As12  1  0.750323  0.744966  0.250000  1
  As  As13  1  0.249677  0.255034  0.750000  1
  As  As14  1  0.329052  0.658106  0.000000  1
  As  As15  1  0.670948  0.341894  0.000000  1
  As  As16  1  0.670948  0.341894  0.500000  1
  As  As17  1  0.329052  0.658106  0.500000  1
