# generated using pymatgen
data_Tb3DySn3Sb3Rh7
_symmetry_space_group_name_H-M   'P 1'
_cell_length_a   7.61771439
_cell_length_b   7.62427618
_cell_length_c   7.62427605
_cell_angle_alpha   109.48864705
_cell_angle_beta   109.45379671
_cell_angle_gamma   109.45378159
_symmetry_Int_Tables_number   1
_chemical_formula_structural   Tb3DySn3Sb3Rh7
_chemical_formula_sum   'Tb3 Dy1 Sn3 Sb3 Rh7'
_cell_volume   340.95212959
_cell_formula_units_Z   1
loop_
 _symmetry_equiv_pos_site_id
 _symmetry_equiv_pos_as_xyz
  1  'x, y, z'
loop_
 _atom_site_type_symbol
 _atom_site_label
 _atom_site_symmetry_multiplicity
 _atom_site_fract_x
 _atom_site_fract_y
 _atom_site_fract_z
 _atom_site_occupancy
  Tb  Tb0  1  0.997802  0.502820  0.000000  1
  Tb  Tb1  1  0.997802  0.000000  0.502820  1
  Tb  Tb2  1  0.494982  0.497180  0.497180  1
  Dy  Dy3  1  0.487332  0.000000  0.000000  1
  Sn  Sn4  1  0.992898  0.307459  0.307459  1
  Sn  Sn5  1  0.685440  0.000000  0.692541  1
  Sn  Sn6  1  0.685440  0.692541  0.000000  1
  Sb  Sb7  1  0.995235  0.674251  0.674251  1
  Sb  Sb8  1  0.320984  0.000000  0.325749  1
  Sb  Sb9  1  0.320984  0.325749  0.000000  1
  Rh  Rh10  1  0.016899  0.000000  0.000000  1
  Rh  Rh11  1  0.502908  0.753380  0.253246  1
  Rh  Rh12  1  0.749529  0.499867  0.246620  1
  Rh  Rh13  1  0.249662  0.746754  0.500133  1
  Rh  Rh14  1  0.249662  0.500133  0.746754  1
  Rh  Rh15  1  0.502908  0.253246  0.753380  1
  Rh  Rh16  1  0.749529  0.246620  0.499867  1
