# generated using pymatgen
data_Pr2Er14Cd4IrPt3
_symmetry_space_group_name_H-M   'P 1'
_cell_length_a   9.65257903
_cell_length_b   9.62835170
_cell_length_c   9.61373800
_cell_angle_alpha   60.05020186
_cell_angle_beta   60.13302743
_cell_angle_gamma   59.92824422
_symmetry_Int_Tables_number   1
_chemical_formula_structural   Pr2Er14Cd4IrPt3
_chemical_formula_sum   'Pr2 Er14 Cd4 Ir1 Pt3'
_cell_volume   632.31783141
_cell_formula_units_Z   1
loop_
 _symmetry_equiv_pos_site_id
 _symmetry_equiv_pos_as_xyz
  1  'x, y, z'
loop_
 _atom_site_type_symbol
 _atom_site_label
 _atom_site_symmetry_multiplicity
 _atom_site_fract_x
 _atom_site_fract_y
 _atom_site_fract_z
 _atom_site_occupancy
  Pr  Pr0  1  0.571156  0.568729  0.930057  1
  Pr  Pr1  1  0.932481  0.932795  0.567362  1
  Er  Er2  1  0.353315  0.348902  0.345788  1
  Er  Er3  1  0.353315  0.348902  0.951995  1
  Er  Er4  1  0.354270  0.946185  0.349773  1
  Er  Er5  1  0.939146  0.354226  0.353314  1
  Er  Er6  1  0.808741  0.188817  0.188151  1
  Er  Er7  1  0.190355  0.810671  0.810320  1
  Er  Er8  1  0.190355  0.810671  0.188655  1
  Er  Er9  1  0.808741  0.188817  0.814292  1
  Er  Er10  1  0.191601  0.188627  0.809887  1
  Er  Er11  1  0.809001  0.814031  0.188484  1
  Er  Er12  1  0.940883  0.559610  0.560565  1
  Er  Er13  1  0.561638  0.940712  0.940217  1
  Er  Er14  1  0.561638  0.940712  0.557433  1
  Er  Er15  1  0.940883  0.559610  0.938943  1
  Cd  Cd16  1  0.581721  0.582757  0.577903  1
  Cd  Cd17  1  0.581721  0.582757  0.257617  1
  Cd  Cd18  1  0.576092  0.256141  0.583883  1
  Cd  Cd19  1  0.257740  0.576346  0.582957  1
  Ir  Ir20  1  0.573315  0.136979  0.144854  1
  Pt  Pt21  1  0.142454  0.145535  0.141417  1
  Pt  Pt22  1  0.142454  0.145535  0.570593  1
  Pt  Pt23  1  0.136981  0.571932  0.145544  1
