# generated using pymatgen
data_Np4Ga4Ir3Pd
_symmetry_space_group_name_H-M   'P 1'
_cell_length_a   4.38531900
_cell_length_b   6.65729456
_cell_length_c   7.89539079
_cell_angle_alpha   90.27750714
_cell_angle_beta   90.00000000
_cell_angle_gamma   90.00000000
_symmetry_Int_Tables_number   1
_chemical_formula_structural   Np4Ga4Ir3Pd
_chemical_formula_sum   'Np4 Ga4 Ir3 Pd1'
_cell_volume   230.49817990
_cell_formula_units_Z   1
loop_
 _symmetry_equiv_pos_site_id
 _symmetry_equiv_pos_as_xyz
  1  'x, y, z'
loop_
 _atom_site_type_symbol
 _atom_site_label
 _atom_site_symmetry_multiplicity
 _atom_site_fract_x
 _atom_site_fract_y
 _atom_site_fract_z
 _atom_site_occupancy
  Np  Np0  1  0.250000  0.962697  0.302109  1
  Np  Np1  1  0.250000  0.481787  0.186905  1
  Np  Np2  1  0.750000  0.018720  0.702219  1
  Np  Np3  1  0.750000  0.522009  0.804345  1
  Ga  Ga4  1  0.250000  0.339347  0.568965  1
  Ga  Ga5  1  0.250000  0.839179  0.927931  1
  Ga  Ga6  1  0.750000  0.663747  0.430575  1
  Ga  Ga7  1  0.750000  0.161421  0.073159  1
  Ir  Ir8  1  0.250000  0.239863  0.893949  1
  Ir  Ir9  1  0.250000  0.741863  0.605702  1
  Ir  Ir10  1  0.750000  0.760418  0.107300  1
  Pd  Pd11  1  0.750000  0.268951  0.396842  1
