# generated using pymatgen
data_Nd8Re3TcC8
_symmetry_space_group_name_H-M   'P 1'
_cell_length_a   5.35705600
_cell_length_b   6.72404509
_cell_length_c   10.20365913
_cell_angle_alpha   89.98135654
_cell_angle_beta   90.00000000
_cell_angle_gamma   90.00000000
_symmetry_Int_Tables_number   1
_chemical_formula_structural   Nd8Re3TcC8
_chemical_formula_sum   'Nd8 Re3 Tc1 C8'
_cell_volume   367.54686466
_cell_formula_units_Z   1
loop_
 _symmetry_equiv_pos_site_id
 _symmetry_equiv_pos_as_xyz
  1  'x, y, z'
loop_
 _atom_site_type_symbol
 _atom_site_label
 _atom_site_symmetry_multiplicity
 _atom_site_fract_x
 _atom_site_fract_y
 _atom_site_fract_z
 _atom_site_occupancy
  Nd  Nd0  1  0.250000  0.473397  0.785826  1
  Nd  Nd1  1  0.750000  0.025985  0.285489  1
  Nd  Nd2  1  0.250000  0.973896  0.714275  1
  Nd  Nd3  1  0.750000  0.525542  0.213776  1
  Nd  Nd4  1  0.250000  0.813057  0.051105  1
  Nd  Nd5  1  0.750000  0.688010  0.551379  1
  Nd  Nd6  1  0.250000  0.311572  0.447962  1
  Nd  Nd7  1  0.750000  0.187760  0.948389  1
  Re  Re8  1  0.750000  0.229740  0.641851  1
  Re  Re9  1  0.250000  0.770785  0.358056  1
  Re  Re10  1  0.750000  0.729527  0.858072  1
  Tc  Tc11  1  0.250000  0.270420  0.141856  1
  C  C12  1  0.250000  0.686238  0.538016  1
  C  C13  1  0.750000  0.813623  0.038045  1
  C  C14  1  0.250000  0.185971  0.962806  1
  C  C15  1  0.750000  0.313821  0.461967  1
  C  C16  1  0.250000  0.033625  0.258313  1
  C  C17  1  0.750000  0.465966  0.757902  1
  C  C18  1  0.250000  0.535379  0.242963  1
  C  C19  1  0.750000  0.965686  0.741953  1
