# generated using pymatgen
data_Rb2Lu(TeO4)3
_symmetry_space_group_name_H-M   'P 1'
_cell_length_a   7.51191153
_cell_length_b   7.51187986
_cell_length_c   7.50975592
_cell_angle_alpha   59.08233906
_cell_angle_beta   59.08296651
_cell_angle_gamma   59.06556207
_symmetry_Int_Tables_number   1
_chemical_formula_structural   Rb2Lu(TeO4)3
_chemical_formula_sum   'Rb2 Lu1 Te3 O12'
_cell_volume   293.34072817
_cell_formula_units_Z   1
loop_
 _symmetry_equiv_pos_site_id
 _symmetry_equiv_pos_as_xyz
  1  'x, y, z'
loop_
 _atom_site_type_symbol
 _atom_site_label
 _atom_site_symmetry_multiplicity
 _atom_site_fract_x
 _atom_site_fract_y
 _atom_site_fract_z
 _atom_site_occupancy
  Rb  Rb0  1  0.117581  0.138385  0.624161  1
  Rb  Rb1  1  0.861530  0.882374  0.375741  1
  Lu  Lu2  1  0.497134  0.502845  0.999962  1
  Te  Te3  1  0.498233  0.002040  0.000139  1
  Te  Te4  1  0.998053  0.501775  0.999878  1
  Te  Te5  1  0.498086  0.501918  0.500043  1
  O  O6  1  0.815921  0.819337  0.920836  1
  O  O7  1  0.424875  0.426906  0.347746  1
  O  O8  1  0.424973  0.849930  0.925001  1
  O  O9  1  0.815679  0.421696  0.317445  1
  O  O10  1  0.845499  0.427829  0.925901  1
  O  O11  1  0.419428  0.819288  0.317602  1
  O  O12  1  0.180724  0.184149  0.079196  1
  O  O13  1  0.573021  0.575041  0.652298  1
  O  O14  1  0.572101  0.154567  0.074038  1
  O  O15  1  0.180763  0.580593  0.682460  1
  O  O16  1  0.150103  0.574939  0.074928  1
  O  O17  1  0.578298  0.184386  0.682624  1
