# generated using pymatgen
data_Nd8DyErSn8
_symmetry_space_group_name_H-M   'P 1'
_cell_length_a   8.23359300
_cell_length_b   8.38719400
_cell_length_c   15.91542000
_cell_angle_alpha   90.00000000
_cell_angle_beta   90.00000000
_cell_angle_gamma   90.00000000
_symmetry_Int_Tables_number   1
_chemical_formula_structural   Nd8DyErSn8
_chemical_formula_sum   'Nd16 Dy2 Er2 Sn16'
_cell_volume   1099.06704971
_cell_formula_units_Z   2
loop_
 _symmetry_equiv_pos_site_id
 _symmetry_equiv_pos_as_xyz
  1  'x, y, z'
loop_
 _atom_site_type_symbol
 _atom_site_label
 _atom_site_symmetry_multiplicity
 _atom_site_fract_x
 _atom_site_fract_y
 _atom_site_fract_z
 _atom_site_occupancy
  Nd  Nd0  1  0.017849  0.180978  0.401231  1
  Nd  Nd1  1  0.368163  0.837127  0.120711  1
  Nd  Nd2  1  0.131791  0.337172  0.620773  1
  Nd  Nd3  1  0.482227  0.680983  0.901206  1
  Nd  Nd4  1  0.868163  0.662873  0.120711  1
  Nd  Nd5  1  0.131791  0.337172  0.879227  1
  Nd  Nd6  1  0.482227  0.680983  0.598794  1
  Nd  Nd7  1  0.631791  0.162828  0.620773  1
  Nd  Nd8  1  0.868163  0.662873  0.379289  1
  Nd  Nd9  1  0.017849  0.180978  0.098769  1
  Nd  Nd10  1  0.982227  0.819017  0.901206  1
  Nd  Nd11  1  0.631791  0.162828  0.879227  1
  Nd  Nd12  1  0.517849  0.319022  0.098769  1
  Nd  Nd13  1  0.368163  0.837127  0.379289  1
  Nd  Nd14  1  0.982227  0.819017  0.598794  1
  Nd  Nd15  1  0.517849  0.319022  0.401231  1
  Dy  Dy16  1  0.199144  0.502090  0.250000  1
  Dy  Dy17  1  0.699144  0.997910  0.250000  1
  Er  Er18  1  0.300556  0.002045  0.750000  1
  Er  Er19  1  0.800556  0.497955  0.750000  1
  Sn  Sn20  1  0.791683  0.464735  0.543615  1
  Sn  Sn21  1  0.708315  0.964627  0.456579  1
  Sn  Sn22  1  0.675563  0.854022  0.750000  1
  Sn  Sn23  1  0.208315  0.535373  0.456579  1
  Sn  Sn24  1  0.291683  0.035265  0.956385  1
  Sn  Sn25  1  0.824405  0.354296  0.250000  1
  Sn  Sn26  1  0.791683  0.464735  0.956385  1
  Sn  Sn27  1  0.565013  0.616392  0.250000  1
  Sn  Sn28  1  0.208315  0.535373  0.043421  1
  Sn  Sn29  1  0.435264  0.383495  0.750000  1
  Sn  Sn30  1  0.175563  0.645978  0.750000  1
  Sn  Sn31  1  0.935264  0.116505  0.750000  1
  Sn  Sn32  1  0.291683  0.035265  0.543615  1
  Sn  Sn33  1  0.708315  0.964627  0.043421  1
  Sn  Sn34  1  0.324405  0.145704  0.250000  1
  Sn  Sn35  1  0.065013  0.883608  0.250000  1
