# generated using pymatgen
data_NaNdDy(P3Pd10)2
_symmetry_space_group_name_H-M   'P 1'
_cell_length_a   8.67839565
_cell_length_b   8.67839624
_cell_length_c   8.67839600
_cell_angle_alpha   60.00000091
_cell_angle_beta   59.99999868
_cell_angle_gamma   60.00000135
_symmetry_Int_Tables_number   1
_chemical_formula_structural   NaNdDy(P3Pd10)2
_chemical_formula_sum   'Na1 Nd1 Dy1 P6 Pd20'
_cell_volume   462.17174346
_cell_formula_units_Z   1
loop_
 _symmetry_equiv_pos_site_id
 _symmetry_equiv_pos_as_xyz
  1  'x, y, z'
loop_
 _atom_site_type_symbol
 _atom_site_label
 _atom_site_symmetry_multiplicity
 _atom_site_fract_x
 _atom_site_fract_y
 _atom_site_fract_z
 _atom_site_occupancy
  Na  Na0  1  0.000000  0.000000  0.000000  1
  Nd  Nd1  1  0.250000  0.250000  0.250000  1
  Dy  Dy2  1  0.750000  0.750000  0.750000  1
  P  P3  1  0.740053  0.259947  0.259947  1
  P  P4  1  0.259947  0.740053  0.740053  1
  P  P5  1  0.259947  0.740053  0.259947  1
  P  P6  1  0.740053  0.259947  0.740053  1
  P  P7  1  0.259947  0.259947  0.740053  1
  P  P8  1  0.740053  0.740053  0.259947  1
  Pd  Pd9  1  0.387071  0.387071  0.387071  1
  Pd  Pd10  1  0.615518  0.615518  0.615518  1
  Pd  Pd11  1  0.387071  0.387071  0.838785  1
  Pd  Pd12  1  0.387071  0.838785  0.387071  1
  Pd  Pd13  1  0.615518  0.615518  0.153450  1
  Pd  Pd14  1  0.615518  0.153450  0.615518  1
  Pd  Pd15  1  0.838785  0.387071  0.387071  1
  Pd  Pd16  1  0.153450  0.615518  0.615518  1
  Pd  Pd17  1  0.348166  0.998697  0.998697  1
  Pd  Pd18  1  0.654440  0.998697  0.998697  1
  Pd  Pd19  1  0.998697  0.348166  0.654440  1
  Pd  Pd20  1  0.998697  0.654440  0.348166  1
  Pd  Pd21  1  0.998697  0.348166  0.998697  1
  Pd  Pd22  1  0.654440  0.998697  0.348166  1
  Pd  Pd23  1  0.998697  0.654440  0.998697  1
  Pd  Pd24  1  0.348166  0.998697  0.654440  1
  Pd  Pd25  1  0.998697  0.998697  0.348166  1
  Pd  Pd26  1  0.998697  0.998697  0.654440  1
  Pd  Pd27  1  0.654440  0.348166  0.998697  1
  Pd  Pd28  1  0.348166  0.654440  0.998697  1
