# generated using pymatgen
data_Lu4C2SBr
_symmetry_space_group_name_H-M   'P 1'
_cell_length_a   3.61733700
_cell_length_b   3.61725745
_cell_length_c   13.10148000
_cell_angle_alpha   90.00000000
_cell_angle_beta   90.00000000
_cell_angle_gamma   119.99958298
_symmetry_Int_Tables_number   1
_chemical_formula_structural   Lu4C2SBr
_chemical_formula_sum   'Lu4 C2 S1 Br1'
_cell_volume   148.46401627
_cell_formula_units_Z   1
loop_
 _symmetry_equiv_pos_site_id
 _symmetry_equiv_pos_as_xyz
  1  'x, y, z'
loop_
 _atom_site_type_symbol
 _atom_site_label
 _atom_site_symmetry_multiplicity
 _atom_site_fract_x
 _atom_site_fract_y
 _atom_site_fract_z
 _atom_site_occupancy
  Lu  Lu0  1  0.333337  0.666683  0.079711  1
  Lu  Lu1  1  0.666618  0.333257  0.611385  1
  Lu  Lu2  1  0.666618  0.333257  0.888615  1
  Lu  Lu3  1  0.333337  0.666683  0.420289  1
  C  C4  1  0.999991  0.999990  0.993578  1
  C  C5  1  0.999991  0.999990  0.506422  1
  S  S6  1  0.333268  0.666547  0.750000  1
  Br  Br7  1  0.666838  0.333591  0.250000  1
