# generated using pymatgen
data_Y8U(PdPt7)3
_symmetry_space_group_name_H-M   'P 1'
_cell_length_a   8.43532300
_cell_length_b   8.43798800
_cell_length_c   8.44357800
_cell_angle_alpha   90.00000000
_cell_angle_beta   90.00000000
_cell_angle_gamma   90.00000000
_symmetry_Int_Tables_number   1
_chemical_formula_structural   Y8U(PdPt7)3
_chemical_formula_sum   'Y8 U1 Pd3 Pt21'
_cell_volume   600.98985373
_cell_formula_units_Z   1
loop_
 _symmetry_equiv_pos_site_id
 _symmetry_equiv_pos_as_xyz
  1  'x, y, z'
loop_
 _atom_site_type_symbol
 _atom_site_label
 _atom_site_symmetry_multiplicity
 _atom_site_fract_x
 _atom_site_fract_y
 _atom_site_fract_z
 _atom_site_occupancy
  Y  Y0  1  0.253275  0.253350  0.253322  1
  Y  Y1  1  0.746884  0.746710  0.746597  1
  Y  Y2  1  0.746884  0.746710  0.253403  1
  Y  Y3  1  0.746725  0.253350  0.746678  1
  Y  Y4  1  0.253275  0.253350  0.746678  1
  Y  Y5  1  0.253116  0.746710  0.253403  1
  Y  Y6  1  0.253116  0.746710  0.746597  1
  Y  Y7  1  0.746725  0.253350  0.253322  1
  U  U8  1  0.000000  0.001010  0.000000  1
  Pd  Pd9  1  0.500000  0.743741  0.500000  1
  Pd  Pd10  1  0.500000  0.499978  0.256120  1
  Pd  Pd11  1  0.500000  0.499978  0.743880  1
  Pt  Pt12  1  0.268643  0.499984  0.000000  1
  Pt  Pt13  1  0.731357  0.499984  0.000000  1
  Pt  Pt14  1  0.000000  0.267766  0.500000  1
  Pt  Pt15  1  0.500000  0.268334  0.000000  1
  Pt  Pt16  1  0.000000  0.731497  0.500000  1
  Pt  Pt17  1  0.500000  0.731418  0.000000  1
  Pt  Pt18  1  0.500000  0.000083  0.268207  1
  Pt  Pt19  1  0.268517  0.000344  0.500000  1
  Pt  Pt20  1  0.500000  0.000083  0.731793  1
  Pt  Pt21  1  0.731483  0.000344  0.500000  1
  Pt  Pt22  1  0.000000  0.499867  0.268011  1
  Pt  Pt23  1  0.000000  0.499867  0.731989  1
  Pt  Pt24  1  0.255736  0.499644  0.500000  1
  Pt  Pt25  1  0.744264  0.499644  0.500000  1
  Pt  Pt26  1  0.500000  0.256012  0.500000  1
  Pt  Pt27  1  0.314932  0.999786  0.000000  1
  Pt  Pt28  1  0.685068  0.999786  0.000000  1
  Pt  Pt29  1  0.000000  0.315118  0.000000  1
  Pt  Pt30  1  0.000000  0.686005  0.000000  1
  Pt  Pt31  1  0.000000  0.999742  0.314168  1
  Pt  Pt32  1  0.000000  0.999742  0.685832  1
