# generated using pymatgen
data_Tb5Sn2BiS
_symmetry_space_group_name_H-M   'P 1'
_cell_length_a   9.14530139
_cell_length_b   9.16249661
_cell_length_c   6.63754200
_cell_angle_alpha   90.00000000
_cell_angle_beta   90.00000000
_cell_angle_gamma   120.06221604
_symmetry_Int_Tables_number   1
_chemical_formula_structural   Tb5Sn2BiS
_chemical_formula_sum   'Tb10 Sn4 Bi2 S2'
_cell_volume   481.36792611
_cell_formula_units_Z   2
loop_
 _symmetry_equiv_pos_site_id
 _symmetry_equiv_pos_as_xyz
  1  'x, y, z'
loop_
 _atom_site_type_symbol
 _atom_site_label
 _atom_site_symmetry_multiplicity
 _atom_site_fract_x
 _atom_site_fract_y
 _atom_site_fract_z
 _atom_site_occupancy
  Tb  Tb0  1  0.670009  0.335899  0.003382  1
  Tb  Tb1  1  0.329991  0.665891  0.003382  1
  Tb  Tb2  1  0.329991  0.665891  0.496618  1
  Tb  Tb3  1  0.670009  0.335899  0.496618  1
  Tb  Tb4  1  0.758986  0.754469  0.750000  1
  Tb  Tb5  1  0.241014  0.995483  0.750000  1
  Tb  Tb6  1  0.000000  0.246319  0.750000  1
  Tb  Tb7  1  0.244389  0.244039  0.250000  1
  Tb  Tb8  1  0.755611  0.999650  0.250000  1
  Tb  Tb9  1  0.000000  0.754481  0.250000  1
  Sn  Sn10  1  0.000000  0.601636  0.750000  1
  Sn  Sn11  1  0.603968  0.604426  0.250000  1
  Sn  Sn12  1  0.396032  0.000457  0.250000  1
  Sn  Sn13  1  0.000000  0.396519  0.250000  1
  Bi  Bi14  1  0.396559  0.396821  0.750000  1
  Bi  Bi15  1  0.603441  0.000262  0.750000  1
  S  S16  1  0.000000  0.000928  0.999432  1
  S  S17  1  0.000000  0.000928  0.500568  1
