# generated using pymatgen
data_Nd12Ir(PtBr4)3
_symmetry_space_group_name_H-M   'P 1'
_cell_length_a   10.51068505
_cell_length_b   10.51068541
_cell_length_c   10.51068498
_cell_angle_alpha   109.30687728
_cell_angle_beta   109.30687334
_cell_angle_gamma   109.30687317
_symmetry_Int_Tables_number   1
_chemical_formula_structural   Nd12Ir(PtBr4)3
_chemical_formula_sum   'Nd12 Ir1 Pt3 Br12'
_cell_volume   899.26128316
_cell_formula_units_Z   1
loop_
 _symmetry_equiv_pos_site_id
 _symmetry_equiv_pos_as_xyz
  1  'x, y, z'
loop_
 _atom_site_type_symbol
 _atom_site_label
 _atom_site_symmetry_multiplicity
 _atom_site_fract_x
 _atom_site_fract_y
 _atom_site_fract_z
 _atom_site_occupancy
  Nd  Nd0  1  0.264550  0.750000  0.235450  1
  Nd  Nd1  1  0.485060  0.750000  0.014940  1
  Nd  Nd2  1  0.237066  0.469748  0.481746  1
  Nd  Nd3  1  0.018254  0.030252  0.262934  1
  Nd  Nd4  1  0.235450  0.264550  0.750000  1
  Nd  Nd5  1  0.014940  0.485060  0.750000  1
  Nd  Nd6  1  0.481746  0.237066  0.469748  1
  Nd  Nd7  1  0.262934  0.018254  0.030252  1
  Nd  Nd8  1  0.750000  0.235450  0.264550  1
  Nd  Nd9  1  0.750000  0.014940  0.485060  1
  Nd  Nd10  1  0.469748  0.481746  0.237066  1
  Nd  Nd11  1  0.030252  0.262934  0.018254  1
  Ir  Ir12  1  0.250000  0.250000  0.250000  1
  Pt  Pt13  1  0.499917  0.000083  0.250000  1
  Pt  Pt14  1  0.250000  0.499917  0.000083  1
  Pt  Pt15  1  0.000083  0.250000  0.499917  1
  Br  Br16  1  0.250000  0.995744  0.504256  1
  Br  Br17  1  0.507323  0.504045  0.754428  1
  Br  Br18  1  0.250000  0.753147  0.746853  1
  Br  Br19  1  0.992677  0.745572  0.995955  1
  Br  Br20  1  0.995744  0.504256  0.250000  1
  Br  Br21  1  0.745572  0.995955  0.992677  1
  Br  Br22  1  0.753147  0.746853  0.250000  1
  Br  Br23  1  0.504045  0.754428  0.507323  1
  Br  Br24  1  0.504256  0.250000  0.995744  1
  Br  Br25  1  0.754428  0.507323  0.504045  1
  Br  Br26  1  0.746853  0.250000  0.753147  1
  Br  Br27  1  0.995955  0.992677  0.745572  1
