# generated using pymatgen
data_Ce2Nd14Cd4Ir3Pd
_symmetry_space_group_name_H-M   'P 1'
_cell_length_a   9.92961172
_cell_length_b   9.92961186
_cell_length_c   9.97911460
_cell_angle_alpha   60.22604258
_cell_angle_beta   60.22603624
_cell_angle_gamma   59.93750198
_symmetry_Int_Tables_number   1
_chemical_formula_structural   Ce2Nd14Cd4Ir3Pd
_chemical_formula_sum   'Ce2 Nd14 Cd4 Ir3 Pd1'
_cell_volume   697.76631483
_cell_formula_units_Z   1
loop_
 _symmetry_equiv_pos_site_id
 _symmetry_equiv_pos_as_xyz
  1  'x, y, z'
loop_
 _atom_site_type_symbol
 _atom_site_label
 _atom_site_symmetry_multiplicity
 _atom_site_fract_x
 _atom_site_fract_y
 _atom_site_fract_z
 _atom_site_occupancy
  Ce  Ce0  1  0.342519  0.342519  0.344247  1
  Ce  Ce1  1  0.350466  0.350466  0.956414  1
  Nd  Nd2  1  0.352711  0.945782  0.353364  1
  Nd  Nd3  1  0.945782  0.352711  0.353364  1
  Nd  Nd4  1  0.805208  0.190381  0.190773  1
  Nd  Nd5  1  0.191097  0.810185  0.809045  1
  Nd  Nd6  1  0.190381  0.805208  0.190773  1
  Nd  Nd7  1  0.810185  0.191097  0.809045  1
  Nd  Nd8  1  0.191471  0.191471  0.806000  1
  Nd  Nd9  1  0.810335  0.810335  0.190760  1
  Nd  Nd10  1  0.942772  0.560885  0.563396  1
  Nd  Nd11  1  0.562648  0.940892  0.937084  1
  Nd  Nd12  1  0.560885  0.942772  0.563396  1
  Nd  Nd13  1  0.940892  0.562648  0.937084  1
  Nd  Nd14  1  0.560658  0.560658  0.942305  1
  Nd  Nd15  1  0.937540  0.937540  0.563712  1
  Cd  Cd16  1  0.579415  0.579415  0.582847  1
  Cd  Cd17  1  0.578318  0.578318  0.259767  1
  Cd  Cd18  1  0.577062  0.260292  0.581254  1
  Cd  Cd19  1  0.260292  0.577062  0.581254  1
  Ir  Ir20  1  0.146397  0.146397  0.569464  1
  Ir  Ir21  1  0.151291  0.565962  0.137725  1
  Ir  Ir22  1  0.565962  0.151291  0.137725  1
  Pd  Pd23  1  0.145710  0.145710  0.139198  1
