# generated using pymatgen
data_SrLaTaCdO6
_symmetry_space_group_name_H-M   'P 1'
_cell_length_a   8.32957654
_cell_length_b   8.32957619
_cell_length_c   10.07647973
_cell_angle_alpha   66.67907741
_cell_angle_beta   66.67914986
_cell_angle_gamma   92.16967045
_symmetry_Int_Tables_number   1
_chemical_formula_structural   SrLaTaCdO6
_chemical_formula_sum   'Sr4 La4 Ta4 Cd4 O24'
_cell_volume   573.64781382
_cell_formula_units_Z   4
loop_
 _symmetry_equiv_pos_site_id
 _symmetry_equiv_pos_as_xyz
  1  'x, y, z'
loop_
 _atom_site_type_symbol
 _atom_site_label
 _atom_site_symmetry_multiplicity
 _atom_site_fract_x
 _atom_site_fract_y
 _atom_site_fract_z
 _atom_site_occupancy
  Sr  Sr0  1  0.394470  0.347764  0.247792  1
  Sr  Sr1  1  0.894476  0.847766  0.247781  1
  Sr  Sr2  1  0.097763  0.644477  0.747785  1
  Sr  Sr3  1  0.597767  0.144486  0.747785  1
  La  La4  1  0.414389  0.856955  0.243039  1
  La  La5  1  0.914387  0.356956  0.243037  1
  La  La6  1  0.106957  0.164396  0.743031  1
  La  La7  1  0.606958  0.664390  0.743036  1
  Ta  Ta8  1  0.749997  0.252310  0.998975  1
  Ta  Ta9  1  0.249991  0.752310  0.998976  1
  Ta  Ta10  1  0.002313  0.999991  0.498973  1
  Ta  Ta11  1  0.502312  0.499999  0.498969  1
  Cd  Cd12  1  0.998416  0.505252  0.497612  1
  Cd  Cd13  1  0.255251  0.248416  0.997615  1
  Cd  Cd14  1  0.498417  0.005251  0.497612  1
  Cd  Cd15  1  0.755250  0.748417  0.997614  1
  O  O16  1  0.342523  0.796628  0.769614  1
  O  O17  1  0.842523  0.296627  0.769616  1
  O  O18  1  0.546628  0.592521  0.269617  1
  O  O19  1  0.046628  0.092519  0.269617  1
  O  O20  1  0.758038  0.992711  0.061469  1
  O  O21  1  0.258035  0.492709  0.061471  1
  O  O22  1  0.242708  0.508036  0.561470  1
  O  O23  1  0.742710  0.008033  0.561473  1
  O  O24  1  0.568928  0.753147  0.457299  1
  O  O25  1  0.068930  0.253148  0.457297  1
  O  O26  1  0.003150  0.318930  0.957295  1
  O  O27  1  0.503147  0.818927  0.957297  1
  O  O28  1  0.490413  0.168550  0.054114  1
  O  O29  1  0.990409  0.668550  0.054115  1
  O  O30  1  0.918550  0.740410  0.554117  1
  O  O31  1  0.418553  0.240410  0.554111  1
  O  O32  1  0.256571  0.966478  0.440178  1
  O  O33  1  0.756571  0.466479  0.440178  1
  O  O34  1  0.716479  0.506571  0.940178  1
  O  O35  1  0.216483  0.006574  0.940174  1
  O  O36  1  0.963441  0.923016  0.729916  1
  O  O37  1  0.463435  0.423015  0.729917  1
  O  O38  1  0.173014  0.713437  0.229916  1
  O  O39  1  0.673017  0.213439  0.229913  1
