# generated using pymatgen
data_Er3TmGa4(CuIr)2
_symmetry_space_group_name_H-M   'P 1'
_cell_length_a   4.33313500
_cell_length_b   6.83787902
_cell_length_c   7.56554412
_cell_angle_alpha   90.06244533
_cell_angle_beta   90.00000000
_cell_angle_gamma   90.00000000
_symmetry_Int_Tables_number   1
_chemical_formula_structural   Er3TmGa4(CuIr)2
_chemical_formula_sum   'Er3 Tm1 Ga4 Cu2 Ir2'
_cell_volume   224.16280003
_cell_formula_units_Z   1
loop_
 _symmetry_equiv_pos_site_id
 _symmetry_equiv_pos_as_xyz
  1  'x, y, z'
loop_
 _atom_site_type_symbol
 _atom_site_label
 _atom_site_symmetry_multiplicity
 _atom_site_fract_x
 _atom_site_fract_y
 _atom_site_fract_z
 _atom_site_occupancy
  Er  Er0  1  0.250000  0.489658  0.203009  1
  Er  Er1  1  0.750000  0.022536  0.688305  1
  Er  Er2  1  0.750000  0.522637  0.811443  1
  Tm  Tm3  1  0.250000  0.989707  0.296930  1
  Ga  Ga4  1  0.250000  0.326115  0.580213  1
  Ga  Ga5  1  0.250000  0.826411  0.919829  1
  Ga  Ga6  1  0.750000  0.672937  0.432647  1
  Ga  Ga7  1  0.750000  0.172563  0.067449  1
  Cu  Cu8  1  0.250000  0.215055  0.898743  1
  Cu  Cu9  1  0.250000  0.715080  0.601261  1
  Ir  Ir10  1  0.750000  0.774006  0.102424  1
  Ir  Ir11  1  0.750000  0.273294  0.397748  1
