# generated using pymatgen
data_NaPr4(SiIr)10
_symmetry_space_group_name_H-M   'P 1'
_cell_length_a   9.19760800
_cell_length_b   8.28206657
_cell_length_c   9.19760800
_cell_angle_alpha   56.27052079
_cell_angle_beta   90.00000000
_cell_angle_gamma   56.27050415
_symmetry_Int_Tables_number   1
_chemical_formula_structural   NaPr4(SiIr)10
_chemical_formula_sum   'Na1 Pr4 Si10 Ir10'
_cell_volume   433.79378579
_cell_formula_units_Z   1
loop_
 _symmetry_equiv_pos_site_id
 _symmetry_equiv_pos_as_xyz
  1  'x, y, z'
loop_
 _atom_site_type_symbol
 _atom_site_label
 _atom_site_symmetry_multiplicity
 _atom_site_fract_x
 _atom_site_fract_y
 _atom_site_fract_z
 _atom_site_occupancy
  Na  Na0  1  0.000000  0.000000  0.000000  1
  Pr  Pr1  1  0.197644  0.000000  0.600440  1
  Pr  Pr2  1  0.399560  0.000000  0.197644  1
  Pr  Pr3  1  0.600440  0.000000  0.802356  1
  Pr  Pr4  1  0.802356  0.000000  0.399560  1
  Si  Si5  1  0.172885  0.252007  0.773127  1
  Si  Si6  1  0.375611  0.248776  0.375611  1
  Si  Si7  1  0.575107  0.252007  0.974865  1
  Si  Si8  1  0.773127  0.252007  0.575107  1
  Si  Si9  1  0.974865  0.252007  0.172885  1
  Si  Si10  1  0.624389  0.751224  0.624389  1
  Si  Si11  1  0.827115  0.747993  0.226873  1
  Si  Si12  1  0.025134  0.747993  0.827115  1
  Si  Si13  1  0.226873  0.747993  0.424893  1
  Si  Si14  1  0.424893  0.747993  0.025134  1
  Ir  Ir15  1  0.950146  0.499317  0.849614  1
  Ir  Ir16  1  0.150386  0.500683  0.449463  1
  Ir  Ir17  1  0.348929  0.500683  0.049854  1
  Ir  Ir18  1  0.550537  0.499317  0.651071  1
  Ir  Ir19  1  0.750000  0.500000  0.250000  1
  Ir  Ir20  1  0.849614  0.499317  0.550537  1
  Ir  Ir21  1  0.049854  0.500683  0.150386  1
  Ir  Ir22  1  0.250000  0.500000  0.750000  1
  Ir  Ir23  1  0.449463  0.500683  0.348929  1
  Ir  Ir24  1  0.651071  0.499317  0.950146  1
