# generated using pymatgen
data_Li3Zr2Ni9As7
_symmetry_space_group_name_H-M   'P 1'
_cell_length_a   9.45499713
_cell_length_b   9.46608190
_cell_length_c   3.81909300
_cell_angle_alpha   90.00000000
_cell_angle_beta   90.00000000
_cell_angle_gamma   119.77906420
_symmetry_Int_Tables_number   1
_chemical_formula_structural   Li3Zr2Ni9As7
_chemical_formula_sum   'Li3 Zr2 Ni9 As7'
_cell_volume   296.67783030
_cell_formula_units_Z   1
loop_
 _symmetry_equiv_pos_site_id
 _symmetry_equiv_pos_as_xyz
  1  'x, y, z'
loop_
 _atom_site_type_symbol
 _atom_site_label
 _atom_site_symmetry_multiplicity
 _atom_site_fract_x
 _atom_site_fract_y
 _atom_site_fract_z
 _atom_site_occupancy
  Li  Li0  1  0.442396  0.215269  0.500000  1
  Li  Li1  1  0.778139  0.221785  0.500000  1
  Li  Li2  1  0.003365  0.006220  0.500000  1
  Zr  Zr3  1  0.768173  0.553383  0.500000  1
  Zr  Zr4  1  0.325335  0.666922  0.000000  1
  Ni  Ni5  1  0.272948  0.376307  0.500000  1
  Ni  Ni6  1  0.626121  0.899951  0.500000  1
  Ni  Ni7  1  0.109172  0.722157  0.500000  1
  Ni  Ni8  1  0.497043  0.456147  0.000000  1
  Ni  Ni9  1  0.546082  0.036531  0.000000  1
  Ni  Ni10  1  0.957965  0.500893  0.000000  1
  Ni  Ni11  1  0.721001  0.761855  0.000000  1
  Ni  Ni12  1  0.248212  0.966808  0.000000  1
  Ni  Ni13  1  0.042423  0.281151  0.000000  1
  As  As14  1  0.978661  0.768464  0.000000  1
  As  As15  1  0.243772  0.211086  0.000000  1
  As  As16  1  0.793742  0.034373  0.000000  1
  As  As17  1  0.661669  0.322461  0.000000  1
  As  As18  1  0.526595  0.622322  0.500000  1
  As  As19  1  0.381820  0.920232  0.500000  1
  As  As20  1  0.075367  0.455686  0.500000  1
