# generated using pymatgen
data_Cs4InOsCl12
_symmetry_space_group_name_H-M   'P 1'
_cell_length_a   7.58384900
_cell_length_b   7.58384900
_cell_length_c   10.64080300
_cell_angle_alpha   90.00000000
_cell_angle_beta   90.00000000
_cell_angle_gamma   90.00000000
_symmetry_Int_Tables_number   1
_chemical_formula_structural   Cs4InOsCl12
_chemical_formula_sum   'Cs4 In1 Os1 Cl12'
_cell_volume   612.00329092
_cell_formula_units_Z   1
loop_
 _symmetry_equiv_pos_site_id
 _symmetry_equiv_pos_as_xyz
  1  'x, y, z'
loop_
 _atom_site_type_symbol
 _atom_site_label
 _atom_site_symmetry_multiplicity
 _atom_site_fract_x
 _atom_site_fract_y
 _atom_site_fract_z
 _atom_site_occupancy
  Cs  Cs0  1  0.500000  0.000000  0.778422  1
  Cs  Cs1  1  0.000000  0.500000  0.221578  1
  Cs  Cs2  1  0.500000  0.000000  0.221578  1
  Cs  Cs3  1  0.000000  0.500000  0.778422  1
  In  In4  1  0.000000  0.000000  0.000000  1
  Os  Os5  1  0.500000  0.500000  0.500000  1
  Cl  Cl6  1  0.000000  0.000000  0.758938  1
  Cl  Cl7  1  0.500000  0.500000  0.281166  1
  Cl  Cl8  1  0.716634  0.716634  0.500000  1
  Cl  Cl9  1  0.238551  0.238551  0.000000  1
  Cl  Cl10  1  0.716634  0.283366  0.500000  1
  Cl  Cl11  1  0.238551  0.761449  0.000000  1
  Cl  Cl12  1  0.000000  0.000000  0.241062  1
  Cl  Cl13  1  0.500000  0.500000  0.718834  1
  Cl  Cl14  1  0.283366  0.283366  0.500000  1
  Cl  Cl15  1  0.761449  0.761449  0.000000  1
  Cl  Cl16  1  0.283366  0.716634  0.500000  1
  Cl  Cl17  1  0.761449  0.238551  0.000000  1
