# generated using pymatgen
data_Tm8V3Si16W9
_symmetry_space_group_name_H-M   'P 1'
_cell_length_a   6.72678951
_cell_length_b   6.90694045
_cell_length_c   12.84885600
_cell_angle_alpha   89.97324736
_cell_angle_beta   90.02234154
_cell_angle_gamma   90.05931420
_symmetry_Int_Tables_number   1
_chemical_formula_structural   Tm8V3Si16W9
_chemical_formula_sum   'Tm8 V3 Si16 W9'
_cell_volume   596.97713729
_cell_formula_units_Z   1
loop_
 _symmetry_equiv_pos_site_id
 _symmetry_equiv_pos_as_xyz
  1  'x, y, z'
loop_
 _atom_site_type_symbol
 _atom_site_label
 _atom_site_symmetry_multiplicity
 _atom_site_fract_x
 _atom_site_fract_y
 _atom_site_fract_z
 _atom_site_occupancy
  Tm  Tm0  1  0.495727  0.331676  0.092670  1
  Tm  Tm1  1  0.994772  0.168254  0.406460  1
  Tm  Tm2  1  0.503765  0.668955  0.594018  1
  Tm  Tm3  1  0.004482  0.831351  0.906321  1
  Tm  Tm4  1  0.502239  0.671065  0.906624  1
  Tm  Tm5  1  0.002170  0.828774  0.594151  1
  Tm  Tm6  1  0.497299  0.330680  0.406342  1
  Tm  Tm7  1  0.996376  0.170181  0.092417  1
  V  V8  1  0.667717  0.837713  0.125523  1
  V  V9  1  0.832364  0.337375  0.874172  1
  V  V10  1  0.333386  0.162635  0.625990  1
  Si  Si11  1  0.660477  0.043758  0.545154  1
  Si  Si12  1  0.159320  0.456123  0.954951  1
  Si  Si13  1  0.340102  0.956741  0.045421  1
  Si  Si14  1  0.837826  0.542479  0.455436  1
  Si  Si15  1  0.334999  0.959709  0.457637  1
  Si  Si16  1  0.833970  0.545008  0.043847  1
  Si  Si17  1  0.666754  0.045225  0.956474  1
  Si  Si18  1  0.166741  0.452157  0.545222  1
  Si  Si19  1  0.534702  0.372435  0.750430  1
  Si  Si20  1  0.034542  0.128589  0.750193  1
  Si  Si21  1  0.469102  0.628550  0.247996  1
  Si  Si22  1  0.963422  0.871942  0.248061  1
  Si  Si23  1  0.800155  0.630592  0.752412  1
  Si  Si24  1  0.300100  0.869247  0.748339  1
  Si  Si25  1  0.198992  0.364580  0.249926  1
  Si  Si26  1  0.698744  0.131577  0.247919  1
  W  W27  1  0.831169  0.336962  0.624652  1
  W  W28  1  0.331941  0.163606  0.875271  1
  W  W29  1  0.170217  0.662230  0.124652  1
  W  W30  1  0.667882  0.837081  0.375811  1
  W  W31  1  0.170425  0.662462  0.374868  1
  W  W32  1  0.661373  0.007716  0.750374  1
  W  W33  1  0.161788  0.493052  0.750246  1
  W  W34  1  0.337841  0.995077  0.250223  1
  W  W35  1  0.837121  0.504448  0.249798  1
