# generated using pymatgen
data_Sc6Al6Zn3Cu2Si
_symmetry_space_group_name_H-M   'P 1'
_cell_length_a   6.66192200
_cell_length_b   6.66192140
_cell_length_c   8.09175300
_cell_angle_alpha   90.00000000
_cell_angle_beta   90.00000000
_cell_angle_gamma   120.00000297
_symmetry_Int_Tables_number   1
_chemical_formula_structural   Sc6Al6Zn3Cu2Si
_chemical_formula_sum   'Sc6 Al6 Zn3 Cu2 Si1'
_cell_volume   311.00851837
_cell_formula_units_Z   1
loop_
 _symmetry_equiv_pos_site_id
 _symmetry_equiv_pos_as_xyz
  1  'x, y, z'
loop_
 _atom_site_type_symbol
 _atom_site_label
 _atom_site_symmetry_multiplicity
 _atom_site_fract_x
 _atom_site_fract_y
 _atom_site_fract_z
 _atom_site_occupancy
  Sc  Sc0  1  0.580454  0.001733  0.751009  1
  Sc  Sc1  1  0.998267  0.578721  0.751009  1
  Sc  Sc2  1  0.421279  0.419546  0.751009  1
  Sc  Sc3  1  0.998198  0.578682  0.248987  1
  Sc  Sc4  1  0.580483  0.001802  0.248987  1
  Sc  Sc5  1  0.421318  0.419517  0.248987  1
  Al  Al6  1  0.758924  0.761864  0.000001  1
  Al  Al7  1  0.238136  0.997060  0.000001  1
  Al  Al8  1  0.002940  0.241076  0.000001  1
  Al  Al9  1  0.760806  0.760580  0.500002  1
  Al  Al10  1  0.239420  0.000226  0.500002  1
  Al  Al11  1  0.999774  0.239194  0.500002  1
  Zn  Zn12  1  0.666667  0.333333  0.500028  1
  Zn  Zn13  1  0.333333  0.666667  0.499966  1
  Zn  Zn14  1  0.333333  0.666667  0.000031  1
  Cu  Cu15  1  0.000000  0.000000  0.751885  1
  Cu  Cu16  1  0.000000  0.000000  0.248113  1
  Si  Si17  1  0.666667  0.333333  0.999980  1
