# generated using pymatgen
data_TmZr(Be12Ni)2
_symmetry_space_group_name_H-M   'P 1'
_cell_length_a   7.16984045
_cell_length_b   7.23789172
_cell_length_c   7.14796549
_cell_angle_alpha   59.78386491
_cell_angle_beta   59.64143214
_cell_angle_gamma   59.48502332
_symmetry_Int_Tables_number   1
_chemical_formula_structural   TmZr(Be12Ni)2
_chemical_formula_sum   'Tm1 Zr1 Be24 Ni2'
_cell_volume   260.12588204
_cell_formula_units_Z   1
loop_
 _symmetry_equiv_pos_site_id
 _symmetry_equiv_pos_as_xyz
  1  'x, y, z'
loop_
 _atom_site_type_symbol
 _atom_site_label
 _atom_site_symmetry_multiplicity
 _atom_site_fract_x
 _atom_site_fract_y
 _atom_site_fract_z
 _atom_site_occupancy
  Tm  Tm0  1  0.751364  0.748636  0.751364  1
  Zr  Zr1  1  0.253184  0.246816  0.253184  1
  Be  Be2  1  0.499968  0.500032  0.499968  1
  Be  Be3  1  0.000104  0.999896  0.000104  1
  Be  Be4  1  0.565764  0.791467  0.431144  1
  Be  Be5  1  0.431144  0.211625  0.565764  1
  Be  Be6  1  0.294013  0.938296  0.702684  1
  Be  Be7  1  0.702684  0.065007  0.294013  1
  Be  Be8  1  0.934877  0.283188  0.067915  1
  Be  Be9  1  0.067915  0.714020  0.934877  1
  Be  Be10  1  0.205401  0.802971  0.557696  1
  Be  Be11  1  0.797615  0.200971  0.439144  1
  Be  Be12  1  0.439144  0.562271  0.797615  1
  Be  Be13  1  0.557696  0.433931  0.205401  1
  Be  Be14  1  0.707923  0.284081  0.937949  1
  Be  Be15  1  0.289067  0.713043  0.065117  1
  Be  Be16  1  0.065117  0.932772  0.289067  1
  Be  Be17  1  0.937949  0.070048  0.707923  1
  Be  Be18  1  0.559311  0.208054  0.797717  1
  Be  Be19  1  0.438033  0.795061  0.204472  1
  Be  Be20  1  0.797717  0.434917  0.559311  1
  Be  Be21  1  0.204472  0.562435  0.438033  1
  Be  Be22  1  0.937684  0.707654  0.290501  1
  Be  Be23  1  0.064487  0.290235  0.705851  1
  Be  Be24  1  0.290501  0.064160  0.937684  1
  Be  Be25  1  0.705851  0.939428  0.064487  1
  Ni  Ni26  1  0.802919  0.557077  0.198097  1
  Ni  Ni27  1  0.198097  0.441906  0.802919  1
