# generated using pymatgen
data_Mg4InB4SbRh10
_symmetry_space_group_name_H-M   'P 1'
_cell_length_a   9.62198300
_cell_length_b   9.62198300
_cell_length_c   2.99676100
_cell_angle_alpha   90.00000000
_cell_angle_beta   90.00000000
_cell_angle_gamma   90.00000000
_symmetry_Int_Tables_number   1
_chemical_formula_structural   Mg4InB4SbRh10
_chemical_formula_sum   'Mg4 In1 B4 Sb1 Rh10'
_cell_volume   277.44779566
_cell_formula_units_Z   1
loop_
 _symmetry_equiv_pos_site_id
 _symmetry_equiv_pos_as_xyz
  1  'x, y, z'
loop_
 _atom_site_type_symbol
 _atom_site_label
 _atom_site_symmetry_multiplicity
 _atom_site_fract_x
 _atom_site_fract_y
 _atom_site_fract_z
 _atom_site_occupancy
  Mg  Mg0  1  0.672290  0.179293  0.000000  1
  Mg  Mg1  1  0.327710  0.820707  0.000000  1
  Mg  Mg2  1  0.179293  0.327710  0.000000  1
  Mg  Mg3  1  0.820707  0.672290  0.000000  1
  In  In4  1  0.500000  0.500000  0.000000  1
  B  B5  1  0.124624  0.619949  0.000000  1
  B  B6  1  0.875376  0.380051  0.000000  1
  B  B7  1  0.619949  0.875376  0.000000  1
  B  B8  1  0.380051  0.124624  0.000000  1
  Sb  Sb9  1  0.000000  0.000000  0.000000  1
  Rh  Rh10  1  0.500000  0.000000  0.500000  1
  Rh  Rh11  1  0.000000  0.500000  0.500000  1
  Rh  Rh12  1  0.220486  0.069255  0.500000  1
  Rh  Rh13  1  0.779514  0.930745  0.500000  1
  Rh  Rh14  1  0.069255  0.779514  0.500000  1
  Rh  Rh15  1  0.724756  0.425698  0.500000  1
  Rh  Rh16  1  0.930745  0.220486  0.500000  1
  Rh  Rh17  1  0.275244  0.574302  0.500000  1
  Rh  Rh18  1  0.574302  0.724756  0.500000  1
  Rh  Rh19  1  0.425698  0.275244  0.500000  1
