# generated using pymatgen
data_TbZn(GaRu)2
_symmetry_space_group_name_H-M   'P 1'
_cell_length_a   4.14077300
_cell_length_b   9.35218816
_cell_length_c   9.35218695
_cell_angle_alpha   60.02837626
_cell_angle_beta   90.00000000
_cell_angle_gamma   90.00000000
_symmetry_Int_Tables_number   1
_chemical_formula_structural   TbZn(GaRu)2
_chemical_formula_sum   'Tb3 Zn3 Ga6 Ru6'
_cell_volume   313.73471776
_cell_formula_units_Z   3
loop_
 _symmetry_equiv_pos_site_id
 _symmetry_equiv_pos_as_xyz
  1  'x, y, z'
loop_
 _atom_site_type_symbol
 _atom_site_label
 _atom_site_symmetry_multiplicity
 _atom_site_fract_x
 _atom_site_fract_y
 _atom_site_fract_z
 _atom_site_occupancy
  Tb  Tb0  1  0.500000  0.333427  0.333485  1
  Tb  Tb1  1  0.500000  0.666515  0.666573  1
  Tb  Tb2  1  0.000000  0.999666  0.000334  1
  Zn  Zn3  1  0.500000  0.290260  0.709740  1
  Zn  Zn4  1  0.500000  0.709678  0.999818  1
  Zn  Zn5  1  0.500000  0.000182  0.290322  1
  Ga  Ga6  1  0.500000  0.713908  0.286092  1
  Ga  Ga7  1  0.500000  0.286004  0.000058  1
  Ga  Ga8  1  0.500000  0.999942  0.713996  1
  Ga  Ga9  1  0.000000  0.494074  0.505926  1
  Ga  Ga10  1  0.000000  0.506163  0.999517  1
  Ga  Ga11  1  0.000000  0.000483  0.493837  1
  Ru  Ru12  1  0.000000  0.192256  0.183805  1
  Ru  Ru13  1  0.000000  0.183685  0.624666  1
  Ru  Ru14  1  0.000000  0.624066  0.191936  1
  Ru  Ru15  1  0.000000  0.816194  0.807744  1
  Ru  Ru16  1  0.000000  0.375334  0.816315  1
  Ru  Ru17  1  0.000000  0.808064  0.375934  1
