# generated using pymatgen
data_Ce2Fe3P7Ru9
_symmetry_space_group_name_H-M   'P 1'
_cell_length_a   9.36163300
_cell_length_b   9.36163275
_cell_length_c   3.85519200
_cell_angle_alpha   90.00000000
_cell_angle_beta   90.00000000
_cell_angle_gamma   120.00000347
_symmetry_Int_Tables_number   1
_chemical_formula_structural   Ce2Fe3P7Ru9
_chemical_formula_sum   'Ce2 Fe3 P7 Ru9'
_cell_volume   292.60371810
_cell_formula_units_Z   1
loop_
 _symmetry_equiv_pos_site_id
 _symmetry_equiv_pos_as_xyz
  1  'x, y, z'
loop_
 _atom_site_type_symbol
 _atom_site_label
 _atom_site_symmetry_multiplicity
 _atom_site_fract_x
 _atom_site_fract_y
 _atom_site_fract_z
 _atom_site_occupancy
  Ce  Ce0  1  0.000000  0.000000  0.000000  1
  Ce  Ce1  1  0.333333  0.666667  0.500000  1
  Fe  Fe2  1  0.821053  0.600739  0.000000  1
  Fe  Fe3  1  0.779686  0.178947  0.000000  1
  Fe  Fe4  1  0.399261  0.220314  0.000000  1
  P  P5  1  0.073125  0.635895  0.000000  1
  P  P6  1  0.562769  0.926875  0.000000  1
  P  P7  1  0.364105  0.437231  0.000000  1
  P  P8  1  0.778066  0.727933  0.500000  1
  P  P9  1  0.949867  0.221934  0.500000  1
  P  P10  1  0.272067  0.050133  0.500000  1
  P  P11  1  0.666667  0.333333  0.000000  1
  Ru  Ru12  1  0.092133  0.396606  0.000000  1
  Ru  Ru13  1  0.304473  0.907867  0.000000  1
  Ru  Ru14  1  0.603394  0.695527  0.000000  1
  Ru  Ru15  1  0.049500  0.771301  0.500000  1
  Ru  Ru16  1  0.721802  0.950500  0.500000  1
  Ru  Ru17  1  0.228699  0.278198  0.500000  1
  Ru  Ru18  1  0.874437  0.423807  0.500000  1
  Ru  Ru19  1  0.549370  0.125563  0.500000  1
  Ru  Ru20  1  0.576193  0.450630  0.500000  1
