# generated using pymatgen
data_PrNdSi2(SnRh3)2
_symmetry_space_group_name_H-M   'P 1'
_cell_length_a   6.94834581
_cell_length_b   6.94630541
_cell_length_c   6.94834439
_cell_angle_alpha   130.72930956
_cell_angle_beta   113.33162685
_cell_angle_gamma   87.22802792
_symmetry_Int_Tables_number   1
_chemical_formula_structural   PrNdSi2(SnRh3)2
_chemical_formula_sum   'Pr1 Nd1 Si2 Sn2 Rh6'
_cell_volume   222.47067253
_cell_formula_units_Z   1
loop_
 _symmetry_equiv_pos_site_id
 _symmetry_equiv_pos_as_xyz
  1  'x, y, z'
loop_
 _atom_site_type_symbol
 _atom_site_label
 _atom_site_symmetry_multiplicity
 _atom_site_fract_x
 _atom_site_fract_y
 _atom_site_fract_z
 _atom_site_occupancy
  Pr  Pr0  1  0.769892  0.019037  0.249146  1
  Nd  Nd1  1  0.229129  0.980016  0.750886  1
  Si  Si2  1  0.103520  0.354474  0.250954  1
  Si  Si3  1  0.896901  0.645948  0.749047  1
  Sn  Sn4  1  0.565625  0.314783  0.749158  1
  Sn  Sn5  1  0.433826  0.684670  0.250844  1
  Rh  Rh6  1  0.208847  0.500460  0.708800  1
  Rh  Rh7  1  0.792840  0.000043  0.792356  1
  Rh  Rh8  1  0.791660  0.500460  0.291613  1
  Rh  Rh9  1  0.207686  0.000043  0.207202  1
  Rh  Rh10  1  0.499905  0.500033  0.499865  1
  Rh  Rh11  1  0.000168  0.500033  0.000128  1
