# generated using pymatgen
data_La2InSn7Ir4
_symmetry_space_group_name_H-M   'P 1'
_cell_length_a   4.58690200
_cell_length_b   7.22886600
_cell_length_c   18.73834000
_cell_angle_alpha   90.00000000
_cell_angle_beta   90.00000000
_cell_angle_gamma   90.00000000
_symmetry_Int_Tables_number   1
_chemical_formula_structural   La2InSn7Ir4
_chemical_formula_sum   'La4 In2 Sn14 Ir8'
_cell_volume   621.32774993
_cell_formula_units_Z   2
loop_
 _symmetry_equiv_pos_site_id
 _symmetry_equiv_pos_as_xyz
  1  'x, y, z'
loop_
 _atom_site_type_symbol
 _atom_site_label
 _atom_site_symmetry_multiplicity
 _atom_site_fract_x
 _atom_site_fract_y
 _atom_site_fract_z
 _atom_site_occupancy
  La  La0  1  0.250000  0.999436  0.858545  1
  La  La1  1  0.250000  0.500564  0.358545  1
  La  La2  1  0.750000  0.999255  0.141039  1
  La  La3  1  0.750000  0.500745  0.641039  1
  In  In4  1  0.250000  0.304331  0.181604  1
  In  In5  1  0.250000  0.195669  0.681604  1
  Sn  Sn6  1  0.750000  0.694602  0.818599  1
  Sn  Sn7  1  0.750000  0.805398  0.318599  1
  Sn  Sn8  1  0.250000  0.720305  0.194286  1
  Sn  Sn9  1  0.250000  0.779695  0.694286  1
  Sn  Sn10  1  0.750000  0.277077  0.802701  1
  Sn  Sn11  1  0.750000  0.222923  0.302701  1
  Sn  Sn12  1  0.250000  0.862938  0.031877  1
  Sn  Sn13  1  0.250000  0.637062  0.531877  1
  Sn  Sn14  1  0.750000  0.136780  0.967942  1
  Sn  Sn15  1  0.750000  0.363220  0.467942  1
  Sn  Sn16  1  0.250000  0.517920  0.931803  1
  Sn  Sn17  1  0.250000  0.982080  0.431803  1
  Sn  Sn18  1  0.750000  0.479656  0.070239  1
  Sn  Sn19  1  0.750000  0.020344  0.570239  1
  Ir  Ir20  1  0.250000  0.250069  0.034024  1
  Ir  Ir21  1  0.250000  0.249931  0.534024  1
  Ir  Ir22  1  0.750000  0.747213  0.965284  1
  Ir  Ir23  1  0.750000  0.752787  0.465284  1
  Ir  Ir24  1  0.250000  0.014317  0.286451  1
  Ir  Ir25  1  0.250000  0.485683  0.786451  1
  Ir  Ir26  1  0.750000  0.973916  0.715607  1
  Ir  Ir27  1  0.750000  0.526084  0.215607  1
