# generated using pymatgen
data_La2ZnNi7Ir2
_symmetry_space_group_name_H-M   'P 1'
_cell_length_a   4.06545700
_cell_length_b   5.10972245
_cell_length_c   8.83671452
_cell_angle_alpha   89.25354879
_cell_angle_beta   90.00000000
_cell_angle_gamma   90.00000000
_symmetry_Int_Tables_number   1
_chemical_formula_structural   La2ZnNi7Ir2
_chemical_formula_sum   'La2 Zn1 Ni7 Ir2'
_cell_volume   183.55264641
_cell_formula_units_Z   1
loop_
 _symmetry_equiv_pos_site_id
 _symmetry_equiv_pos_as_xyz
  1  'x, y, z'
loop_
 _atom_site_type_symbol
 _atom_site_label
 _atom_site_symmetry_multiplicity
 _atom_site_fract_x
 _atom_site_fract_y
 _atom_site_fract_z
 _atom_site_occupancy
  La  La0  1  0.000000  0.244566  0.748762  1
  La  La1  1  0.000000  0.751349  0.252584  1
  Zn  Zn2  1  0.500000  0.744646  0.745481  1
  Ni  Ni3  1  0.500000  0.501992  0.500476  1
  Ni  Ni4  1  0.500000  0.502183  0.000088  1
  Ni  Ni5  1  0.500000  0.997971  0.499905  1
  Ni  Ni6  1  0.000000  0.264976  0.077607  1
  Ni  Ni7  1  0.000000  0.748914  0.576110  1
  Ni  Ni8  1  0.000000  0.742768  0.921669  1
  Ni  Ni9  1  0.000000  0.250897  0.422164  1
  Ir  Ir10  1  0.500000  0.252305  0.254423  1
  Ir  Ir11  1  0.500000  0.997433  0.000733  1
