# generated using pymatgen
data_Ho3Er5Sc12(GaSi3)4
_symmetry_space_group_name_H-M   'P 1'
_cell_length_a   7.10978327
_cell_length_b   7.38951731
_cell_length_c   14.11592138
_cell_angle_alpha   90.01125045
_cell_angle_beta   89.83236168
_cell_angle_gamma   90.14940909
_symmetry_Int_Tables_number   1
_chemical_formula_structural   Ho3Er5Sc12(GaSi3)4
_chemical_formula_sum   'Ho3 Er5 Sc12 Ga4 Si12'
_cell_volume   741.61468477
_cell_formula_units_Z   1
loop_
 _symmetry_equiv_pos_site_id
 _symmetry_equiv_pos_as_xyz
  1  'x, y, z'
loop_
 _atom_site_type_symbol
 _atom_site_label
 _atom_site_symmetry_multiplicity
 _atom_site_fract_x
 _atom_site_fract_y
 _atom_site_fract_z
 _atom_site_occupancy
  Ho  Ho0  1  0.013116  0.175107  0.096601  1
  Ho  Ho1  1  0.988630  0.824915  0.902119  1
  Ho  Ho2  1  0.487516  0.677373  0.901831  1
  Er  Er3  1  0.988721  0.827553  0.600704  1
  Er  Er4  1  0.510290  0.320740  0.096869  1
  Er  Er5  1  0.008783  0.174933  0.400135  1
  Er  Er6  1  0.510267  0.323860  0.400159  1
  Er  Er7  1  0.491400  0.676163  0.601146  1
  Sc  Sc8  1  0.163617  0.500937  0.751734  1
  Sc  Sc9  1  0.835822  0.498466  0.249798  1
  Sc  Sc10  1  0.335476  0.001793  0.248181  1
  Sc  Sc11  1  0.664261  0.998510  0.750185  1
  Sc  Sc12  1  0.334800  0.174473  0.628420  1
  Sc  Sc13  1  0.668115  0.826792  0.373306  1
  Sc  Sc14  1  0.169291  0.672960  0.372532  1
  Sc  Sc15  1  0.668075  0.826562  0.125396  1
  Sc  Sc16  1  0.829735  0.325042  0.627069  1
  Sc  Sc17  1  0.331105  0.175602  0.874695  1
  Sc  Sc18  1  0.829562  0.323685  0.874541  1
  Sc  Sc19  1  0.172739  0.674801  0.124197  1
  Ga  Ga20  1  0.163206  0.460813  0.539632  1
  Ga  Ga21  1  0.838098  0.538915  0.461924  1
  Ga  Ga22  1  0.337673  0.960733  0.462236  1
  Ga  Ga23  1  0.838434  0.538652  0.038367  1
  Si  Si24  1  0.033639  0.115624  0.751569  1
  Si  Si25  1  0.966609  0.884549  0.248681  1
  Si  Si26  1  0.466958  0.613216  0.248050  1
  Si  Si27  1  0.533912  0.386596  0.751644  1
  Si  Si28  1  0.286680  0.870957  0.751394  1
  Si  Si29  1  0.713854  0.129177  0.248191  1
  Si  Si30  1  0.213147  0.370420  0.248222  1
  Si  Si31  1  0.787670  0.630011  0.751836  1
  Si  Si32  1  0.659223  0.036625  0.539028  1
  Si  Si33  1  0.158743  0.463466  0.960830  1
  Si  Si34  1  0.657312  0.036122  0.961311  1
  Si  Si35  1  0.343521  0.963857  0.037466  1
