# generated using pymatgen
data_Nb12ZnGa8Os3N4
_symmetry_space_group_name_H-M   'P 1'
_cell_length_a   8.28570770
_cell_length_b   8.28570879
_cell_length_c   8.28570888
_cell_angle_alpha   60.44045853
_cell_angle_beta   60.44045545
_cell_angle_gamma   60.44046176
_symmetry_Int_Tables_number   1
_chemical_formula_structural   Nb12ZnGa8Os3N4
_chemical_formula_sum   'Nb12 Zn1 Ga8 Os3 N4'
_cell_volume   406.23499915
_cell_formula_units_Z   1
loop_
 _symmetry_equiv_pos_site_id
 _symmetry_equiv_pos_as_xyz
  1  'x, y, z'
loop_
 _atom_site_type_symbol
 _atom_site_label
 _atom_site_symmetry_multiplicity
 _atom_site_fract_x
 _atom_site_fract_y
 _atom_site_fract_z
 _atom_site_occupancy
  Nb  Nb0  1  0.443199  0.443199  0.055700  1
  Nb  Nb1  1  0.061991  0.438657  0.061991  1
  Nb  Nb2  1  0.438657  0.061991  0.061991  1
  Nb  Nb3  1  0.061991  0.061991  0.438657  1
  Nb  Nb4  1  0.443199  0.055700  0.443199  1
  Nb  Nb5  1  0.055700  0.443199  0.443199  1
  Nb  Nb6  1  0.806801  0.806801  0.194300  1
  Nb  Nb7  1  0.188009  0.811343  0.188009  1
  Nb  Nb8  1  0.811343  0.188009  0.188009  1
  Nb  Nb9  1  0.188009  0.188009  0.811343  1
  Nb  Nb10  1  0.806801  0.194300  0.806801  1
  Nb  Nb11  1  0.194300  0.806801  0.806801  1
  Zn  Zn12  1  0.625000  0.625000  0.625000  1
  Ga  Ga13  1  0.838265  0.838265  0.489885  1
  Ga  Ga14  1  0.838265  0.489885  0.838265  1
  Ga  Ga15  1  0.489885  0.838265  0.838265  1
  Ga  Ga16  1  0.837381  0.837381  0.837381  1
  Ga  Ga17  1  0.411735  0.411735  0.760115  1
  Ga  Ga18  1  0.411735  0.760115  0.411735  1
  Ga  Ga19  1  0.760115  0.411735  0.411735  1
  Ga  Ga20  1  0.412619  0.412619  0.412619  1
  Os  Os21  1  0.625000  0.625000  0.125000  1
  Os  Os22  1  0.625000  0.125000  0.625000  1
  Os  Os23  1  0.125000  0.625000  0.625000  1
  N  N24  1  0.125000  0.125000  0.625000  1
  N  N25  1  0.125000  0.625000  0.125000  1
  N  N26  1  0.625000  0.125000  0.125000  1
  N  N27  1  0.125000  0.125000  0.125000  1
