# generated using pymatgen
data_La7Nd5Sn4(GeRh2)4
_symmetry_space_group_name_H-M   'P 1'
_cell_length_a   5.78980745
_cell_length_b   8.49821825
_cell_length_c   13.78876207
_cell_angle_alpha   90.02352538
_cell_angle_beta   90.12205945
_cell_angle_gamma   90.09808974
_symmetry_Int_Tables_number   1
_chemical_formula_structural   La7Nd5Sn4(GeRh2)4
_chemical_formula_sum   'La7 Nd5 Sn4 Ge4 Rh8'
_cell_volume   678.44652159
_cell_formula_units_Z   1
loop_
 _symmetry_equiv_pos_site_id
 _symmetry_equiv_pos_as_xyz
  1  'x, y, z'
loop_
 _atom_site_type_symbol
 _atom_site_label
 _atom_site_symmetry_multiplicity
 _atom_site_fract_x
 _atom_site_fract_y
 _atom_site_fract_z
 _atom_site_occupancy
  La  La0  1  0.165323  0.398202  0.100518  1
  La  La1  1  0.834392  0.604283  0.900039  1
  La  La2  1  0.833756  0.602832  0.600087  1
  La  La3  1  0.834510  0.897708  0.399257  1
  La  La4  1  0.165377  0.396854  0.398753  1
  La  La5  1  0.165844  0.103403  0.600336  1
  La  La6  1  0.167048  0.101973  0.900808  1
  Nd  Nd7  1  0.650237  0.250986  0.249267  1
  Nd  Nd8  1  0.346556  0.746734  0.749871  1
  Nd  Nd9  1  0.349251  0.754555  0.249692  1
  Nd  Nd10  1  0.653424  0.246999  0.750326  1
  Nd  Nd11  1  0.839529  0.894713  0.102533  1
  Sn  Sn12  1  0.664118  0.248579  0.000943  1
  Sn  Sn13  1  0.339542  0.750886  0.001211  1
  Sn  Sn14  1  0.336021  0.749774  0.500024  1
  Sn  Sn15  1  0.663521  0.249627  0.499436  1
  Ge  Ge16  1  0.146025  0.105183  0.248674  1
  Ge  Ge17  1  0.847258  0.895281  0.749905  1
  Ge  Ge18  1  0.849129  0.606884  0.249457  1
  Ge  Ge19  1  0.151893  0.395313  0.750280  1
  Rh  Rh20  1  0.377222  0.039565  0.096549  1
  Rh  Rh21  1  0.620465  0.960904  0.903801  1
  Rh  Rh22  1  0.617392  0.961345  0.596391  1
  Rh  Rh23  1  0.617879  0.539592  0.402560  1
  Rh  Rh24  1  0.378791  0.038417  0.402058  1
  Rh  Rh25  1  0.382077  0.459820  0.596794  1
  Rh  Rh26  1  0.381774  0.461461  0.904023  1
  Rh  Rh27  1  0.621647  0.538126  0.096405  1
