# generated using pymatgen
data_Ba(SrSb)2
_symmetry_space_group_name_H-M   'P 1'
_cell_length_a   5.44513100
_cell_length_b   5.44513145
_cell_length_c   8.43762500
_cell_angle_alpha   90.00000000
_cell_angle_beta   90.00000000
_cell_angle_gamma   120.00000336
_symmetry_Int_Tables_number   1
_chemical_formula_structural   Ba(SrSb)2
_chemical_formula_sum   'Ba1 Sr2 Sb2'
_cell_volume   216.65441199
_cell_formula_units_Z   1
loop_
 _symmetry_equiv_pos_site_id
 _symmetry_equiv_pos_as_xyz
  1  'x, y, z'
loop_
 _atom_site_type_symbol
 _atom_site_label
 _atom_site_symmetry_multiplicity
 _atom_site_fract_x
 _atom_site_fract_y
 _atom_site_fract_z
 _atom_site_occupancy
  Ba  Ba0  1  0.000000  0.000000  0.000000  1
  Sr  Sr1  1  0.666667  0.333333  0.648626  1
  Sr  Sr2  1  0.333333  0.666667  0.351374  1
  Sb  Sb3  1  0.666667  0.333333  0.238522  1
  Sb  Sb4  1  0.333333  0.666667  0.761478  1
