# generated using pymatgen
data_Rb3NaVCl6
_symmetry_space_group_name_H-M   'P 1'
_cell_length_a   8.68517226
_cell_length_b   8.68517174
_cell_length_c   8.68517120
_cell_angle_alpha   92.97770037
_cell_angle_beta   92.97769527
_cell_angle_gamma   92.97770113
_symmetry_Int_Tables_number   1
_chemical_formula_structural   Rb3NaVCl6
_chemical_formula_sum   'Rb6 Na2 V2 Cl12'
_cell_volume   652.39220684
_cell_formula_units_Z   2
loop_
 _symmetry_equiv_pos_site_id
 _symmetry_equiv_pos_as_xyz
  1  'x, y, z'
loop_
 _atom_site_type_symbol
 _atom_site_label
 _atom_site_symmetry_multiplicity
 _atom_site_fract_x
 _atom_site_fract_y
 _atom_site_fract_z
 _atom_site_occupancy
  Rb  Rb0  1  0.373961  0.750000  0.126039  1
  Rb  Rb1  1  0.126039  0.373961  0.750000  1
  Rb  Rb2  1  0.750000  0.126039  0.373961  1
  Rb  Rb3  1  0.626039  0.250000  0.873961  1
  Rb  Rb4  1  0.873961  0.626039  0.250000  1
  Rb  Rb5  1  0.250000  0.873961  0.626039  1
  Na  Na6  1  0.250000  0.250000  0.250000  1
  Na  Na7  1  0.750000  0.750000  0.750000  1
  V  V8  1  0.500000  0.500000  0.500000  1
  V  V9  1  0.000000  0.000000  0.000000  1
  Cl  Cl10  1  0.418941  0.222710  0.538615  1
  Cl  Cl11  1  0.538615  0.418941  0.222710  1
  Cl  Cl12  1  0.222710  0.538615  0.418941  1
  Cl  Cl13  1  0.081059  0.961385  0.277290  1
  Cl  Cl14  1  0.277290  0.081059  0.961385  1
  Cl  Cl15  1  0.961385  0.277290  0.081059  1
  Cl  Cl16  1  0.038615  0.722710  0.918941  1
  Cl  Cl17  1  0.722710  0.918941  0.038615  1
  Cl  Cl18  1  0.918941  0.038615  0.722710  1
  Cl  Cl19  1  0.777290  0.461385  0.581059  1
  Cl  Cl20  1  0.461385  0.581059  0.777290  1
  Cl  Cl21  1  0.581059  0.777290  0.461385  1
