# generated using pymatgen
data_RbLiHgSe2
_symmetry_space_group_name_H-M   'P 1'
_cell_length_a   7.95134350
_cell_length_b   7.95134306
_cell_length_c   7.95134271
_cell_angle_alpha   147.88899292
_cell_angle_beta   147.88898288
_cell_angle_gamma   46.04926973
_symmetry_Int_Tables_number   1
_chemical_formula_structural   RbLiHgSe2
_chemical_formula_sum   'Rb1 Li1 Hg1 Se2'
_cell_volume   141.55771739
_cell_formula_units_Z   1
loop_
 _symmetry_equiv_pos_site_id
 _symmetry_equiv_pos_as_xyz
  1  'x, y, z'
loop_
 _atom_site_type_symbol
 _atom_site_label
 _atom_site_symmetry_multiplicity
 _atom_site_fract_x
 _atom_site_fract_y
 _atom_site_fract_z
 _atom_site_occupancy
  Rb  Rb0  1  0.000000  0.000000  0.000000  1
  Li  Li1  1  0.250000  0.750000  0.500000  1
  Hg  Hg2  1  0.750000  0.250000  0.500000  1
  Se  Se3  1  0.639872  0.639872  0.000000  1
  Se  Se4  1  0.360128  0.360128  0.000000  1
