# generated using pymatgen
data_Lu8CdHg3
_symmetry_space_group_name_H-M   'P 1'
_cell_length_a   5.05690000
_cell_length_b   6.80673226
_cell_length_c   9.09308775
_cell_angle_alpha   90.05714570
_cell_angle_beta   90.00000000
_cell_angle_gamma   90.00000000
_symmetry_Int_Tables_number   1
_chemical_formula_structural   Lu8CdHg3
_chemical_formula_sum   'Lu8 Cd1 Hg3'
_cell_volume   312.99269390
_cell_formula_units_Z   1
loop_
 _symmetry_equiv_pos_site_id
 _symmetry_equiv_pos_as_xyz
  1  'x, y, z'
loop_
 _atom_site_type_symbol
 _atom_site_label
 _atom_site_symmetry_multiplicity
 _atom_site_fract_x
 _atom_site_fract_y
 _atom_site_fract_z
 _atom_site_occupancy
  Lu  Lu0  1  0.250000  0.826217  0.926207  1
  Lu  Lu1  1  0.250000  0.331050  0.575301  1
  Lu  Lu2  1  0.750000  0.170329  0.071588  1
  Lu  Lu3  1  0.750000  0.677060  0.425842  1
  Lu  Lu4  1  0.250000  0.983113  0.300567  1
  Lu  Lu5  1  0.250000  0.481216  0.199281  1
  Lu  Lu6  1  0.750000  0.015966  0.700670  1
  Lu  Lu7  1  0.750000  0.515801  0.801385  1
  Cd  Cd8  1  0.750000  0.231056  0.399467  1
  Hg  Hg9  1  0.250000  0.266155  0.899379  1
  Hg  Hg10  1  0.250000  0.770341  0.600112  1
  Hg  Hg11  1  0.750000  0.731696  0.100200  1
