# generated using pymatgen
data_CaGd4(In2Pt)2
_symmetry_space_group_name_H-M   'P 1'
_cell_length_a   3.64410700
_cell_length_b   8.24546900
_cell_length_c   18.45728400
_cell_angle_alpha   90.00000000
_cell_angle_beta   90.00000000
_cell_angle_gamma   90.00000000
_symmetry_Int_Tables_number   1
_chemical_formula_structural   CaGd4(In2Pt)2
_chemical_formula_sum   'Ca2 Gd8 In8 Pt4'
_cell_volume   554.59286556
_cell_formula_units_Z   2
loop_
 _symmetry_equiv_pos_site_id
 _symmetry_equiv_pos_as_xyz
  1  'x, y, z'
loop_
 _atom_site_type_symbol
 _atom_site_label
 _atom_site_symmetry_multiplicity
 _atom_site_fract_x
 _atom_site_fract_y
 _atom_site_fract_z
 _atom_site_occupancy
  Ca  Ca0  1  0.000000  0.000000  0.000000  1
  Ca  Ca1  1  0.000000  0.500000  0.500000  1
  Gd  Gd2  1  0.000000  0.118249  0.415338  1
  Gd  Gd3  1  0.000000  0.881751  0.584662  1
  Gd  Gd4  1  0.000000  0.381751  0.915338  1
  Gd  Gd5  1  0.000000  0.618249  0.084662  1
  Gd  Gd6  1  0.000000  0.242961  0.220101  1
  Gd  Gd7  1  0.000000  0.757039  0.779899  1
  Gd  Gd8  1  0.000000  0.257039  0.720101  1
  Gd  Gd9  1  0.000000  0.742961  0.279899  1
  In  In10  1  0.500000  0.425199  0.350701  1
  In  In11  1  0.500000  0.574801  0.649299  1
  In  In12  1  0.500000  0.074801  0.850701  1
  In  In13  1  0.500000  0.925199  0.149299  1
  In  In14  1  0.500000  0.293437  0.067287  1
  In  In15  1  0.500000  0.706563  0.932713  1
  In  In16  1  0.500000  0.206563  0.567287  1
  In  In17  1  0.500000  0.793437  0.432713  1
  Pt  Pt18  1  0.500000  0.023078  0.302951  1
  Pt  Pt19  1  0.500000  0.976922  0.697049  1
  Pt  Pt20  1  0.500000  0.476922  0.802951  1
  Pt  Pt21  1  0.500000  0.523078  0.197049  1
