# generated using pymatgen
data_Sr2Mg(SiIr)4
_symmetry_space_group_name_H-M   'P 1'
_cell_length_a   6.42265841
_cell_length_b   6.42265766
_cell_length_c   11.31389000
_cell_angle_alpha   90.00000000
_cell_angle_beta   90.00000000
_cell_angle_gamma   112.97117926
_symmetry_Int_Tables_number   1
_chemical_formula_structural   Sr2Mg(SiIr)4
_chemical_formula_sum   'Sr4 Mg2 Si8 Ir8'
_cell_volume   429.69499821
_cell_formula_units_Z   2
loop_
 _symmetry_equiv_pos_site_id
 _symmetry_equiv_pos_as_xyz
  1  'x, y, z'
loop_
 _atom_site_type_symbol
 _atom_site_label
 _atom_site_symmetry_multiplicity
 _atom_site_fract_x
 _atom_site_fract_y
 _atom_site_fract_z
 _atom_site_occupancy
  Sr  Sr0  1  0.200725  0.799275  0.500000  1
  Sr  Sr1  1  0.200725  0.799275  0.000000  1
  Sr  Sr2  1  0.799275  0.200725  0.500000  1
  Sr  Sr3  1  0.799275  0.200725  0.000000  1
  Mg  Mg4  1  0.021347  0.021347  0.250000  1
  Mg  Mg5  1  0.978653  0.978653  0.750000  1
  Si  Si6  1  0.521424  0.889021  0.250000  1
  Si  Si7  1  0.110979  0.478576  0.750000  1
  Si  Si8  1  0.478576  0.110979  0.750000  1
  Si  Si9  1  0.889021  0.521424  0.250000  1
  Si  Si10  1  0.345444  0.345444  0.421574  1
  Si  Si11  1  0.654556  0.654556  0.578426  1
  Si  Si12  1  0.345444  0.345444  0.078426  1
  Si  Si13  1  0.654556  0.654556  0.921574  1
  Ir  Ir14  1  0.504456  0.238831  0.250000  1
  Ir  Ir15  1  0.761169  0.495544  0.750000  1
  Ir  Ir16  1  0.495544  0.761169  0.750000  1
  Ir  Ir17  1  0.238831  0.504456  0.250000  1
  Ir  Ir18  1  0.683802  0.683802  0.375552  1
  Ir  Ir19  1  0.316198  0.316198  0.624448  1
  Ir  Ir20  1  0.683802  0.683802  0.124448  1
  Ir  Ir21  1  0.316198  0.316198  0.875552  1
