# generated using pymatgen
data_Ca5Nd(GaRh)4
_symmetry_space_group_name_H-M   'P 1'
_cell_length_a   5.82606402
_cell_length_b   7.80896796
_cell_length_c   13.84660600
_cell_angle_alpha   90.00000000
_cell_angle_beta   90.00000000
_cell_angle_gamma   90.53921190
_symmetry_Int_Tables_number   1
_chemical_formula_structural   Ca5Nd(GaRh)4
_chemical_formula_sum   'Ca10 Nd2 Ga8 Rh8'
_cell_volume   629.93102087
_cell_formula_units_Z   2
loop_
 _symmetry_equiv_pos_site_id
 _symmetry_equiv_pos_as_xyz
  1  'x, y, z'
loop_
 _atom_site_type_symbol
 _atom_site_label
 _atom_site_symmetry_multiplicity
 _atom_site_fract_x
 _atom_site_fract_y
 _atom_site_fract_z
 _atom_site_occupancy
  Ca  Ca0  1  0.371838  0.753078  0.250000  1
  Ca  Ca1  1  0.628162  0.246922  0.750000  1
  Ca  Ca2  1  0.139461  0.399019  0.095713  1
  Ca  Ca3  1  0.860539  0.600981  0.904287  1
  Ca  Ca4  1  0.860539  0.600981  0.595713  1
  Ca  Ca5  1  0.856916  0.899425  0.404489  1
  Ca  Ca6  1  0.139461  0.399019  0.404287  1
  Ca  Ca7  1  0.143084  0.100575  0.595511  1
  Ca  Ca8  1  0.143084  0.100575  0.904489  1
  Ca  Ca9  1  0.856916  0.899425  0.095511  1
  Nd  Nd10  1  0.617040  0.248361  0.250000  1
  Nd  Nd11  1  0.382960  0.751639  0.750000  1
  Ga  Ga12  1  0.132162  0.094643  0.250000  1
  Ga  Ga13  1  0.867838  0.905357  0.750000  1
  Ga  Ga14  1  0.849875  0.603603  0.250000  1
  Ga  Ga15  1  0.150125  0.396397  0.750000  1
  Ga  Ga16  1  0.608582  0.249989  0.996459  1
  Ga  Ga17  1  0.391418  0.750011  0.003541  1
  Ga  Ga18  1  0.391418  0.750011  0.496459  1
  Ga  Ga19  1  0.608582  0.249989  0.503541  1
  Rh  Rh20  1  0.367234  0.034926  0.094546  1
  Rh  Rh21  1  0.632766  0.965074  0.905454  1
  Rh  Rh22  1  0.632766  0.965074  0.594546  1
  Rh  Rh23  1  0.638231  0.524641  0.405004  1
  Rh  Rh24  1  0.367234  0.034926  0.405454  1
  Rh  Rh25  1  0.361769  0.475359  0.594996  1
  Rh  Rh26  1  0.361769  0.475359  0.905004  1
  Rh  Rh27  1  0.638231  0.524641  0.094996  1
