# generated using pymatgen
data_La9YIrOs3
_symmetry_space_group_name_H-M   'P 1'
_cell_length_a   6.73241376
_cell_length_b   7.40390063
_cell_length_c   9.01360537
_cell_angle_alpha   95.08088367
_cell_angle_beta   111.45694931
_cell_angle_gamma   90.04706149
_symmetry_Int_Tables_number   1
_chemical_formula_structural   La9YIrOs3
_chemical_formula_sum   'La9 Y1 Ir1 Os3'
_cell_volume   416.24343030
_cell_formula_units_Z   1
loop_
 _symmetry_equiv_pos_site_id
 _symmetry_equiv_pos_as_xyz
  1  'x, y, z'
loop_
 _atom_site_type_symbol
 _atom_site_label
 _atom_site_symmetry_multiplicity
 _atom_site_fract_x
 _atom_site_fract_y
 _atom_site_fract_z
 _atom_site_occupancy
  La  La0  1  0.974833  0.912967  0.179668  1
  La  La1  1  0.797177  0.586311  0.817624  1
  La  La2  1  0.016799  0.088775  0.816849  1
  La  La3  1  0.196995  0.413052  0.178711  1
  La  La4  1  0.647532  0.819511  0.435456  1
  La  La5  1  0.214332  0.679418  0.566838  1
  La  La6  1  0.356667  0.180970  0.573197  1
  La  La7  1  0.790054  0.321570  0.430245  1
  La  La8  1  0.426815  0.748361  0.997802  1
  Y  Y9  1  0.568593  0.250325  0.999643  1
  Ir  Ir10  1  0.401934  0.079758  0.222932  1
  Os  Os11  1  0.824252  0.574710  0.218325  1
  Os  Os12  1  0.606404  0.925578  0.781782  1
  Os  Os13  1  0.177617  0.418693  0.780930  1
