# generated using pymatgen
data_Ta3Fe4Sb9(Pb4O13)4
_symmetry_space_group_name_H-M   'P 1'
_cell_length_a   10.64613641
_cell_length_b   12.95595801
_cell_length_c   10.64942091
_cell_angle_alpha   113.73012272
_cell_angle_beta   89.64790429
_cell_angle_gamma   66.33163299
_symmetry_Int_Tables_number   1
_chemical_formula_structural   Ta3Fe4Sb9(Pb4O13)4
_chemical_formula_sum   'Ta3 Fe4 Sb9 Pb16 O52'
_cell_volume   1206.69677616
_cell_formula_units_Z   1
loop_
 _symmetry_equiv_pos_site_id
 _symmetry_equiv_pos_as_xyz
  1  'x, y, z'
loop_
 _atom_site_type_symbol
 _atom_site_label
 _atom_site_symmetry_multiplicity
 _atom_site_fract_x
 _atom_site_fract_y
 _atom_site_fract_z
 _atom_site_occupancy
  Ta  Ta0  1  0.373947  0.750710  0.374964  1
  Ta  Ta1  1  0.001095  0.999396  0.498994  1
  Ta  Ta2  1  0.500795  0.999700  0.999280  1
  Fe  Fe3  1  0.750584  0.998684  0.749544  1
  Fe  Fe4  1  0.999332  0.499424  0.000852  1
  Fe  Fe5  1  0.251008  0.998733  0.249627  1
  Fe  Fe6  1  0.497997  0.500170  0.500282  1
  Sb  Sb7  1  0.874519  0.750220  0.875150  1
  Sb  Sb8  1  0.124730  0.250439  0.124418  1
  Sb  Sb9  1  0.624695  0.250375  0.624247  1
  Sb  Sb10  1  0.124747  0.749833  0.124945  1
  Sb  Sb11  1  0.624526  0.750554  0.625334  1
  Sb  Sb12  1  0.875723  0.250254  0.875168  1
  Sb  Sb13  1  0.375588  0.250351  0.375369  1
  Sb  Sb14  1  0.750258  0.499974  0.249216  1
  Sb  Sb15  1  0.250453  0.499781  0.749759  1
  Pb  Pb16  1  0.249269  0.999428  0.751465  1
  Pb  Pb17  1  0.749751  0.998551  0.250734  1
  Pb  Pb18  1  0.998441  0.497991  0.500625  1
  Pb  Pb19  1  0.499732  0.497829  0.000266  1
  Pb  Pb20  1  0.373168  0.751716  0.875139  1
  Pb  Pb21  1  0.872802  0.751749  0.375586  1
  Pb  Pb22  1  0.124022  0.250986  0.623057  1
  Pb  Pb23  1  0.624467  0.251455  0.123961  1
  Pb  Pb24  1  0.124305  0.751177  0.626880  1
  Pb  Pb25  1  0.625254  0.750980  0.125937  1
  Pb  Pb26  1  0.876058  0.251488  0.375806  1
  Pb  Pb27  1  0.376702  0.251115  0.875790  1
  Pb  Pb28  1  0.002724  0.998812  0.998111  1
  Pb  Pb29  1  0.502214  0.999525  0.498435  1
  Pb  Pb30  1  0.751684  0.498831  0.746865  1
  Pb  Pb31  1  0.251806  0.498866  0.248462  1
  O  O32  1  0.561858  0.623753  0.938197  1
  O  O33  1  0.061659  0.623806  0.438257  1
  O  O34  1  0.311925  0.123803  0.688322  1
  O  O35  1  0.811908  0.123580  0.188109  1
  O  O36  1  0.367773  0.626355  0.436142  1
  O  O37  1  0.862012  0.627840  0.936442  1
  O  O38  1  0.111262  0.128542  0.185821  1
  O  O39  1  0.610705  0.127885  0.684967  1
  O  O40  1  0.564774  0.627120  0.637707  1
  O  O41  1  0.063947  0.627104  0.136660  1
  O  O42  1  0.313618  0.129083  0.389201  1
  O  O43  1  0.814208  0.128252  0.888484  1
  O  O44  1  0.666055  0.424328  0.334000  1
  O  O45  1  0.165246  0.425218  0.834643  1
  O  O46  1  0.411641  0.930529  0.087501  1
  O  O47  1  0.911603  0.930590  0.588277  1
  O  O48  1  0.007200  0.124027  0.688115  1
  O  O49  1  0.507015  0.123708  0.188034  1
  O  O50  1  0.761618  0.623624  0.437977  1
  O  O51  1  0.260998  0.623689  0.937936  1
  O  O52  1  0.562438  0.624232  0.242946  1
  O  O53  1  0.062108  0.624130  0.739188  1
  O  O54  1  0.311728  0.123565  0.991994  1
  O  O55  1  0.811690  0.124031  0.492946  1
  O  O56  1  0.464404  0.818665  0.535428  1
  O  O57  1  0.961896  0.822642  0.037816  1
  O  O58  1  0.212416  0.323475  0.287603  1
  O  O59  1  0.711122  0.323426  0.788840  1
  O  O60  1  0.379837  0.873229  0.314426  1
  O  O61  1  0.886579  0.871774  0.813625  1
  O  O62  1  0.134624  0.373923  0.064912  1
  O  O63  1  0.633456  0.373707  0.564378  1
  O  O64  1  0.185516  0.872243  0.113860  1
  O  O65  1  0.686402  0.872294  0.614435  1
  O  O66  1  0.935876  0.373576  0.866377  1
  O  O67  1  0.436201  0.372758  0.365501  1
  O  O68  1  0.090262  0.066077  0.410173  1
  O  O69  1  0.590808  0.065186  0.909355  1
  O  O70  1  0.836879  0.572384  0.163570  1
  O  O71  1  0.336024  0.572731  0.664618  1
  O  O72  1  0.741341  0.376130  0.061583  1
  O  O73  1  0.241223  0.376651  0.562083  1
  O  O74  1  0.494799  0.876813  0.812367  1
  O  O75  1  0.994521  0.876725  0.312081  1
  O  O76  1  0.188157  0.876496  0.502468  1
  O  O77  1  0.687698  0.876443  0.005604  1
  O  O78  1  0.938122  0.376570  0.258568  1
  O  O79  1  0.438312  0.376842  0.759934  1
  O  O80  1  0.284246  0.683778  0.216130  1
  O  O81  1  0.786972  0.679449  0.713025  1
  O  O82  1  0.038129  0.179104  0.961952  1
  O  O83  1  0.536777  0.179029  0.463166  1
