# generated using pymatgen
data_Nb10Al3Ir2
_symmetry_space_group_name_H-M   'P 1'
_cell_length_a   9.94416400
_cell_length_b   9.94416400
_cell_length_c   5.19866200
_cell_angle_alpha   90.00000000
_cell_angle_beta   90.00000000
_cell_angle_gamma   90.00000000
_symmetry_Int_Tables_number   1
_chemical_formula_structural   Nb10Al3Ir2
_chemical_formula_sum   'Nb20 Al6 Ir4'
_cell_volume   514.07695783
_cell_formula_units_Z   2
loop_
 _symmetry_equiv_pos_site_id
 _symmetry_equiv_pos_as_xyz
  1  'x, y, z'
loop_
 _atom_site_type_symbol
 _atom_site_label
 _atom_site_symmetry_multiplicity
 _atom_site_fract_x
 _atom_site_fract_y
 _atom_site_fract_z
 _atom_site_occupancy
  Nb  Nb0  1  0.397782  0.392582  0.000000  1
  Nb  Nb1  1  0.892582  0.102218  0.500000  1
  Nb  Nb2  1  0.107418  0.897782  0.500000  1
  Nb  Nb3  1  0.602218  0.607418  0.000000  1
  Nb  Nb4  1  0.129019  0.464861  0.000000  1
  Nb  Nb5  1  0.964861  0.370981  0.500000  1
  Nb  Nb6  1  0.035139  0.629019  0.500000  1
  Nb  Nb7  1  0.870981  0.535139  0.000000  1
  Nb  Nb8  1  0.373817  0.964640  0.500000  1
  Nb  Nb9  1  0.626183  0.035360  0.500000  1
  Nb  Nb10  1  0.464640  0.126183  0.000000  1
  Nb  Nb11  1  0.535360  0.873817  0.000000  1
  Nb  Nb12  1  0.182626  0.182720  0.249210  1
  Nb  Nb13  1  0.682720  0.317374  0.749210  1
  Nb  Nb14  1  0.317280  0.682626  0.749210  1
  Nb  Nb15  1  0.817374  0.817280  0.249210  1
  Nb  Nb16  1  0.317280  0.682626  0.250790  1
  Nb  Nb17  1  0.682720  0.317374  0.250790  1
  Nb  Nb18  1  0.182626  0.182720  0.750790  1
  Nb  Nb19  1  0.817374  0.817280  0.750790  1
  Al  Al20  1  0.000000  0.000000  0.000000  1
  Al  Al21  1  0.500000  0.500000  0.500000  1
  Al  Al22  1  0.242198  0.432468  0.500000  1
  Al  Al23  1  0.757802  0.567532  0.500000  1
  Al  Al24  1  0.932468  0.257802  0.000000  1
  Al  Al25  1  0.067532  0.742198  0.000000  1
  Ir  Ir26  1  0.258188  0.932604  0.000000  1
  Ir  Ir27  1  0.432604  0.241812  0.500000  1
  Ir  Ir28  1  0.567396  0.758188  0.500000  1
  Ir  Ir29  1  0.741812  0.067396  0.000000  1
