# generated using pymatgen
data_Pr16In4OsRh3
_symmetry_space_group_name_H-M   'P 1'
_cell_length_a   10.03371625
_cell_length_b   10.03371648
_cell_length_c   10.07523608
_cell_angle_alpha   60.13623245
_cell_angle_beta   60.13623177
_cell_angle_gamma   60.00000051
_symmetry_Int_Tables_number   1
_chemical_formula_structural   Pr16In4OsRh3
_chemical_formula_sum   'Pr16 In4 Os1 Rh3'
_cell_volume   718.71231928
_cell_formula_units_Z   1
loop_
 _symmetry_equiv_pos_site_id
 _symmetry_equiv_pos_as_xyz
  1  'x, y, z'
loop_
 _atom_site_type_symbol
 _atom_site_label
 _atom_site_symmetry_multiplicity
 _atom_site_fract_x
 _atom_site_fract_y
 _atom_site_fract_z
 _atom_site_occupancy
  Pr  Pr0  1  0.059975  0.059975  0.434084  1
  Pr  Pr1  1  0.445966  0.059975  0.434084  1
  Pr  Pr2  1  0.063247  0.437503  0.061748  1
  Pr  Pr3  1  0.043583  0.651825  0.652767  1
  Pr  Pr4  1  0.437503  0.437503  0.061748  1
  Pr  Pr5  1  0.651825  0.043583  0.652767  1
  Pr  Pr6  1  0.189416  0.808624  0.193337  1
  Pr  Pr7  1  0.193539  0.193539  0.804040  1
  Pr  Pr8  1  0.808624  0.808624  0.193337  1
  Pr  Pr9  1  0.437503  0.063247  0.061748  1
  Pr  Pr10  1  0.808624  0.189416  0.193337  1
  Pr  Pr11  1  0.059975  0.445966  0.434084  1
  Pr  Pr12  1  0.808882  0.193539  0.804040  1
  Pr  Pr13  1  0.193539  0.808882  0.804040  1
  Pr  Pr14  1  0.650456  0.650456  0.048633  1
  Pr  Pr15  1  0.651825  0.651825  0.652767  1
  In  In16  1  0.418890  0.418890  0.420211  1
  In  In17  1  0.742010  0.418890  0.420211  1
  In  In18  1  0.418890  0.742010  0.420211  1
  In  In19  1  0.420134  0.420134  0.739597  1
  Os  Os20  1  0.858669  0.858669  0.423991  1
  Rh  Rh21  1  0.857488  0.857488  0.863073  1
  Rh  Rh22  1  0.421952  0.857488  0.863073  1
  Rh  Rh23  1  0.857488  0.421952  0.863073  1
