# generated using pymatgen
data_Hf8Cr2Si6C
_symmetry_space_group_name_H-M   'P 1'
_cell_length_a   7.71181400
_cell_length_b   7.71181414
_cell_length_c   5.31461100
_cell_angle_alpha   90.00000000
_cell_angle_beta   90.00000000
_cell_angle_gamma   119.99999938
_symmetry_Int_Tables_number   1
_chemical_formula_structural   Hf8Cr2Si6C
_chemical_formula_sum   'Hf8 Cr2 Si6 C1'
_cell_volume   273.72547451
_cell_formula_units_Z   1
loop_
 _symmetry_equiv_pos_site_id
 _symmetry_equiv_pos_as_xyz
  1  'x, y, z'
loop_
 _atom_site_type_symbol
 _atom_site_label
 _atom_site_symmetry_multiplicity
 _atom_site_fract_x
 _atom_site_fract_y
 _atom_site_fract_z
 _atom_site_occupancy
  Hf  Hf0  1  0.000000  0.757563  0.253424  1
  Hf  Hf1  1  0.242437  0.242437  0.253424  1
  Hf  Hf2  1  0.757563  0.000000  0.253424  1
  Hf  Hf3  1  0.000000  0.242437  0.746576  1
  Hf  Hf4  1  0.757563  0.757563  0.746576  1
  Hf  Hf5  1  0.242437  0.000000  0.746576  1
  Hf  Hf6  1  0.333333  0.666667  0.000000  1
  Hf  Hf7  1  0.666667  0.333333  0.000000  1
  Cr  Cr8  1  0.666667  0.333333  0.500000  1
  Cr  Cr9  1  0.333333  0.666667  0.500000  1
  Si  Si10  1  0.000000  0.405124  0.275129  1
  Si  Si11  1  0.594876  0.594876  0.275129  1
  Si  Si12  1  0.405124  0.000000  0.275129  1
  Si  Si13  1  0.000000  0.594876  0.724871  1
  Si  Si14  1  0.405124  0.405124  0.724871  1
  Si  Si15  1  0.594876  0.000000  0.724871  1
  C  C16  1  0.000000  0.000000  0.500000  1
