# generated using pymatgen
data_CeDyTa2(PN3)4
_symmetry_space_group_name_H-M   'P 1'
_cell_length_a   6.68144182
_cell_length_b   6.68144094
_cell_length_c   5.35979957
_cell_angle_alpha   78.67802539
_cell_angle_beta   78.67798632
_cell_angle_gamma   84.49215415
_symmetry_Int_Tables_number   1
_chemical_formula_structural   CeDyTa2(PN3)4
_chemical_formula_sum   'Ce1 Dy1 Ta2 P4 N12'
_cell_volume   229.63735368
_cell_formula_units_Z   1
loop_
 _symmetry_equiv_pos_site_id
 _symmetry_equiv_pos_as_xyz
  1  'x, y, z'
loop_
 _atom_site_type_symbol
 _atom_site_label
 _atom_site_symmetry_multiplicity
 _atom_site_fract_x
 _atom_site_fract_y
 _atom_site_fract_z
 _atom_site_occupancy
  Ce  Ce0  1  0.679104  0.320896  0.750000  1
  Dy  Dy1  1  0.321398  0.678602  0.250000  1
  Ta  Ta2  1  0.894423  0.105577  0.250000  1
  Ta  Ta3  1  0.109248  0.890752  0.750000  1
  P  P4  1  0.198237  0.373677  0.770908  1
  P  P5  1  0.372522  0.199025  0.272483  1
  P  P6  1  0.800975  0.627478  0.227517  1
  P  P7  1  0.626323  0.801763  0.729092  1
  N  N8  1  0.328036  0.369115  0.009240  1
  N  N9  1  0.031412  0.197962  0.859353  1
  N  N10  1  0.974910  0.796414  0.140367  1
  N  N11  1  0.364547  0.336268  0.503070  1
  N  N12  1  0.609607  0.117081  0.193034  1
  N  N13  1  0.390365  0.884266  0.813924  1
  N  N14  1  0.882919  0.390393  0.306966  1
  N  N15  1  0.663732  0.635453  0.996930  1
  N  N16  1  0.802038  0.968588  0.640647  1
  N  N17  1  0.115734  0.609635  0.686076  1
  N  N18  1  0.203586  0.025090  0.359633  1
  N  N19  1  0.630885  0.671964  0.490760  1
