# generated using pymatgen
data_Hf6Sc2V11Si16Ni
_symmetry_space_group_name_H-M   'P 1'
_cell_length_a   6.60012741
_cell_length_b   6.59956526
_cell_length_c   12.17875027
_cell_angle_alpha   90.22403327
_cell_angle_beta   89.75507936
_cell_angle_gamma   89.89136553
_symmetry_Int_Tables_number   1
_chemical_formula_structural   Hf6Sc2V11Si16Ni
_chemical_formula_sum   'Hf6 Sc2 V11 Si16 Ni1'
_cell_volume   530.47178596
_cell_formula_units_Z   1
loop_
 _symmetry_equiv_pos_site_id
 _symmetry_equiv_pos_as_xyz
  1  'x, y, z'
loop_
 _atom_site_type_symbol
 _atom_site_label
 _atom_site_symmetry_multiplicity
 _atom_site_fract_x
 _atom_site_fract_y
 _atom_site_fract_z
 _atom_site_occupancy
  Hf  Hf0  1  0.004078  0.661437  0.030960  1
  Hf  Hf1  1  0.840075  0.502479  0.279781  1
  Hf  Hf2  1  0.160100  0.500296  0.780744  1
  Hf  Hf3  1  0.502089  0.839555  0.720335  1
  Hf  Hf4  1  0.500600  0.160843  0.219319  1
  Hf  Hf5  1  0.996779  0.339144  0.530241  1
  Sc  Sc6  1  0.662511  0.002277  0.970175  1
  Sc  Sc7  1  0.337365  0.999212  0.470279  1
  V  V8  1  0.166222  0.829820  0.249591  1
  V  V9  1  0.830324  0.166790  0.750098  1
  V  V10  1  0.668469  0.664964  0.499941  1
  V  V11  1  0.000679  0.159615  0.126890  1
  V  V12  1  0.341680  0.503965  0.375545  1
  V  V13  1  0.663126  0.496263  0.875578  1
  V  V14  1  0.504882  0.341961  0.624164  1
  V  V15  1  0.495404  0.662396  0.123955  1
  V  V16  1  0.995233  0.841628  0.628075  1
  V  V17  1  0.158007  0.000345  0.872842  1
  V  V18  1  0.842998  0.995396  0.371892  1
  Si  Si19  1  0.288876  0.960192  0.062590  1
  Si  Si20  1  0.539129  0.792621  0.315072  1
  Si  Si21  1  0.458338  0.209826  0.817746  1
  Si  Si22  1  0.791617  0.540398  0.685961  1
  Si  Si23  1  0.211130  0.456585  0.182798  1
  Si  Si24  1  0.706949  0.038162  0.563459  1
  Si  Si25  1  0.958623  0.287386  0.936856  1
  Si  Si26  1  0.040673  0.709675  0.435821  1
  Si  Si27  1  0.704464  0.376171  0.070035  1
  Si  Si28  1  0.130153  0.204693  0.320640  1
  Si  Si29  1  0.870295  0.796235  0.822367  1
  Si  Si30  1  0.205496  0.129325  0.679774  1
  Si  Si31  1  0.794903  0.871462  0.178340  1
  Si  Si32  1  0.295699  0.628907  0.571505  1
  Si  Si33  1  0.376592  0.705004  0.929681  1
  Si  Si34  1  0.627308  0.293868  0.427794  1
  Ni  Ni35  1  0.329137  0.331105  0.999156  1
