# generated using pymatgen
data_Li2Dy3AgPb3
_symmetry_space_group_name_H-M   'P 1'
_cell_length_a   7.41565500
_cell_length_b   7.40581575
_cell_length_c   4.65028500
_cell_angle_alpha   90.00000000
_cell_angle_beta   90.00000000
_cell_angle_gamma   120.04395449
_symmetry_Int_Tables_number   1
_chemical_formula_structural   Li2Dy3AgPb3
_chemical_formula_sum   'Li2 Dy3 Ag1 Pb3'
_cell_volume   221.07523525
_cell_formula_units_Z   1
loop_
 _symmetry_equiv_pos_site_id
 _symmetry_equiv_pos_as_xyz
  1  'x, y, z'
loop_
 _atom_site_type_symbol
 _atom_site_label
 _atom_site_symmetry_multiplicity
 _atom_site_fract_x
 _atom_site_fract_y
 _atom_site_fract_z
 _atom_site_occupancy
  Li  Li0  1  0.770172  0.766531  0.000000  1
  Li  Li1  1  0.003641  0.233469  0.000000  1
  Dy  Dy2  1  0.553263  0.000000  0.500000  1
  Dy  Dy3  1  0.431900  0.428441  0.500000  1
  Dy  Dy4  1  0.003458  0.571559  0.500000  1
  Ag  Ag5  1  0.237903  0.000000  0.000000  1
  Pb  Pb6  1  0.987402  0.000000  0.500000  1
  Pb  Pb7  1  0.335475  0.658691  0.000000  1
  Pb  Pb8  1  0.676787  0.341309  0.000000  1
