# generated using pymatgen
data_Yb2Si2BOs2
_symmetry_space_group_name_H-M   'P 1'
_cell_length_a   5.74391167
_cell_length_b   5.74391206
_cell_length_c   7.16647456
_cell_angle_alpha   126.54982137
_cell_angle_beta   126.54982527
_cell_angle_gamma   43.17983491
_symmetry_Int_Tables_number   1
_chemical_formula_structural   Yb2Si2BOs2
_chemical_formula_sum   'Yb2 Si2 B1 Os2'
_cell_volume   124.25685265
_cell_formula_units_Z   1
loop_
 _symmetry_equiv_pos_site_id
 _symmetry_equiv_pos_as_xyz
  1  'x, y, z'
loop_
 _atom_site_type_symbol
 _atom_site_label
 _atom_site_symmetry_multiplicity
 _atom_site_fract_x
 _atom_site_fract_y
 _atom_site_fract_z
 _atom_site_occupancy
  Yb  Yb0  1  0.428356  0.428356  0.161834  1
  Yb  Yb1  1  0.571644  0.571644  0.838166  1
  Si  Si2  1  0.845944  0.845944  0.401546  1
  Si  Si3  1  0.154056  0.154056  0.598454  1
  B  B4  1  0.000000  0.000000  0.000000  1
  Os  Os5  1  0.214119  0.214119  0.327520  1
  Os  Os6  1  0.785880  0.785880  0.672480  1
