# generated using pymatgen
data_Nd8Hg2PdRh
_symmetry_space_group_name_H-M   'P 1'
_cell_length_a   9.96326088
_cell_length_b   9.96326030
_cell_length_c   9.98692400
_cell_angle_alpha   59.92140132
_cell_angle_beta   59.92140324
_cell_angle_gamma   59.86650431
_symmetry_Int_Tables_number   1
_chemical_formula_structural   Nd8Hg2PdRh
_chemical_formula_sum   'Nd16 Hg4 Pd2 Rh2'
_cell_volume   699.46136043
_cell_formula_units_Z   2
loop_
 _symmetry_equiv_pos_site_id
 _symmetry_equiv_pos_as_xyz
  1  'x, y, z'
loop_
 _atom_site_type_symbol
 _atom_site_label
 _atom_site_symmetry_multiplicity
 _atom_site_fract_x
 _atom_site_fract_y
 _atom_site_fract_z
 _atom_site_occupancy
  Nd  Nd0  1  0.350872  0.350872  0.356187  1
  Nd  Nd1  1  0.350872  0.350872  0.942068  1
  Nd  Nd2  1  0.347676  0.947797  0.352264  1
  Nd  Nd3  1  0.947797  0.347676  0.352264  1
  Nd  Nd4  1  0.814526  0.189289  0.191650  1
  Nd  Nd5  1  0.189289  0.814526  0.804536  1
  Nd  Nd6  1  0.189289  0.814526  0.191650  1
  Nd  Nd7  1  0.814526  0.189289  0.804536  1
  Nd  Nd8  1  0.189308  0.189308  0.810692  1
  Nd  Nd9  1  0.807869  0.807869  0.192131  1
  Nd  Nd10  1  0.935841  0.561758  0.565674  1
  Nd  Nd11  1  0.561758  0.935841  0.936726  1
  Nd  Nd12  1  0.561758  0.935841  0.565674  1
  Nd  Nd13  1  0.935841  0.561758  0.936726  1
  Nd  Nd14  1  0.563011  0.563011  0.936989  1
  Nd  Nd15  1  0.935993  0.935993  0.564007  1
  Hg  Hg16  1  0.584230  0.584230  0.583191  1
  Hg  Hg17  1  0.584230  0.584230  0.248349  1
  Hg  Hg18  1  0.585519  0.246197  0.584143  1
  Hg  Hg19  1  0.246197  0.585519  0.584143  1
  Pd  Pd20  1  0.145893  0.569540  0.142284  1
  Pd  Pd21  1  0.569540  0.145893  0.142284  1
  Rh  Rh22  1  0.144082  0.144082  0.141366  1
  Rh  Rh23  1  0.144082  0.144082  0.570472  1
