# generated using pymatgen
data_Pr9SmSi5Pd
_symmetry_space_group_name_H-M   'P 1'
_cell_length_a   7.74684400
_cell_length_b   7.74684550
_cell_length_c   9.12775629
_cell_angle_alpha   115.10993018
_cell_angle_beta   115.10994215
_cell_angle_gamma   89.99999912
_symmetry_Int_Tables_number   1
_chemical_formula_structural   Pr9SmSi5Pd
_chemical_formula_sum   'Pr9 Sm1 Si5 Pd1'
_cell_volume   438.17795033
_cell_formula_units_Z   1
loop_
 _symmetry_equiv_pos_site_id
 _symmetry_equiv_pos_as_xyz
  1  'x, y, z'
loop_
 _atom_site_type_symbol
 _atom_site_label
 _atom_site_symmetry_multiplicity
 _atom_site_fract_x
 _atom_site_fract_y
 _atom_site_fract_z
 _atom_site_occupancy
  Pr  Pr0  1  0.025036  0.025036  0.050071  1
  Pr  Pr1  1  0.957231  0.812259  0.285860  1
  Pr  Pr2  1  0.328628  0.473601  0.285860  1
  Pr  Pr3  1  0.812259  0.328628  0.285860  1
  Pr  Pr4  1  0.473601  0.957231  0.285860  1
  Pr  Pr5  1  0.028068  0.171247  0.713573  1
  Pr  Pr6  1  0.685505  0.542326  0.713573  1
  Pr  Pr7  1  0.171247  0.685505  0.713573  1
  Pr  Pr8  1  0.542326  0.028068  0.713573  1
  Sm  Sm9  1  0.478479  0.478479  0.956958  1
  Si  Si10  1  0.252984  0.252984  0.505967  1
  Si  Si11  1  0.612624  0.882572  0.998147  1
  Si  Si12  1  0.385524  0.115576  0.998147  1
  Si  Si13  1  0.882572  0.385524  0.998147  1
  Si  Si14  1  0.115576  0.612624  0.998147  1
  Pd  Pd15  1  0.748342  0.748342  0.496685  1
