# generated using pymatgen
data_Li2CePrIr2
_symmetry_space_group_name_H-M   'P 1'
_cell_length_a   3.96042200
_cell_length_b   7.13697628
_cell_length_c   8.54472949
_cell_angle_alpha   87.34974681
_cell_angle_beta   90.00000000
_cell_angle_gamma   90.00000000
_symmetry_Int_Tables_number   1
_chemical_formula_structural   Li2CePrIr2
_chemical_formula_sum   'Li4 Ce2 Pr2 Ir4'
_cell_volume   241.26218967
_cell_formula_units_Z   2
loop_
 _symmetry_equiv_pos_site_id
 _symmetry_equiv_pos_as_xyz
  1  'x, y, z'
loop_
 _atom_site_type_symbol
 _atom_site_label
 _atom_site_symmetry_multiplicity
 _atom_site_fract_x
 _atom_site_fract_y
 _atom_site_fract_z
 _atom_site_occupancy
  Li  Li0  1  0.250000  0.624959  0.553191  1
  Li  Li1  1  0.750000  0.375041  0.446809  1
  Li  Li2  1  0.750000  0.884728  0.050151  1
  Li  Li3  1  0.250000  0.115272  0.949849  1
  Ce  Ce4  1  0.750000  0.946918  0.680932  1
  Ce  Ce5  1  0.250000  0.053082  0.319068  1
  Pr  Pr6  1  0.250000  0.556804  0.177679  1
  Pr  Pr7  1  0.750000  0.443196  0.822321  1
  Ir  Ir8  1  0.250000  0.751235  0.859060  1
  Ir  Ir9  1  0.750000  0.248765  0.140940  1
  Ir  Ir10  1  0.750000  0.781407  0.374518  1
  Ir  Ir11  1  0.250000  0.218593  0.625482  1
