# generated using pymatgen
data_Er2HgPdPb
_symmetry_space_group_name_H-M   'P 1'
_cell_length_a   8.20465200
_cell_length_b   8.10212900
_cell_length_c   3.65699100
_cell_angle_alpha   90.00000000
_cell_angle_beta   90.00000000
_cell_angle_gamma   90.00000000
_symmetry_Int_Tables_number   1
_chemical_formula_structural   Er2HgPdPb
_chemical_formula_sum   'Er4 Hg2 Pd2 Pb2'
_cell_volume   243.09902127
_cell_formula_units_Z   2
loop_
 _symmetry_equiv_pos_site_id
 _symmetry_equiv_pos_as_xyz
  1  'x, y, z'
loop_
 _atom_site_type_symbol
 _atom_site_label
 _atom_site_symmetry_multiplicity
 _atom_site_fract_x
 _atom_site_fract_y
 _atom_site_fract_z
 _atom_site_occupancy
  Er  Er0  1  0.687329  0.166663  0.500000  1
  Er  Er1  1  0.143415  0.325268  0.500000  1
  Er  Er2  1  0.812671  0.666663  0.500000  1
  Er  Er3  1  0.356585  0.825268  0.500000  1
  Hg  Hg4  1  0.377002  0.129805  0.000000  1
  Hg  Hg5  1  0.122998  0.629805  0.000000  1
  Pd  Pd6  1  0.626520  0.877555  0.000000  1
  Pd  Pd7  1  0.873480  0.377555  0.000000  1
  Pb  Pb8  1  0.991197  0.000708  0.000000  1
  Pb  Pb9  1  0.508803  0.500708  0.000000  1
