# generated using pymatgen
data_Ta10AlGa3P2
_symmetry_space_group_name_H-M   'P 1'
_cell_length_a   6.63424446
_cell_length_b   7.59888415
_cell_length_c   6.62760500
_cell_angle_alpha   115.85471959
_cell_angle_beta   90.00000000
_cell_angle_gamma   115.84506468
_symmetry_Int_Tables_number   1
_chemical_formula_structural   Ta10AlGa3P2
_chemical_formula_sum   'Ta10 Al1 Ga3 P2'
_cell_volume   263.03732705
_cell_formula_units_Z   1
loop_
 _symmetry_equiv_pos_site_id
 _symmetry_equiv_pos_as_xyz
  1  'x, y, z'
loop_
 _atom_site_type_symbol
 _atom_site_label
 _atom_site_symmetry_multiplicity
 _atom_site_fract_x
 _atom_site_fract_y
 _atom_site_fract_z
 _atom_site_occupancy
  Ta  Ta0  1  0.990967  0.999799  0.997377  1
  Ta  Ta1  1  0.509033  0.000201  0.497577  1
  Ta  Ta2  1  0.520504  0.704161  0.690938  1
  Ta  Ta3  1  0.191288  0.693844  0.009013  1
  Ta  Ta4  1  0.684006  0.703814  0.189823  1
  Ta  Ta5  1  0.001934  0.694150  0.509673  1
  Ta  Ta6  1  0.498066  0.305850  0.315524  1
  Ta  Ta7  1  0.815994  0.296186  0.986009  1
  Ta  Ta8  1  0.308712  0.306156  0.815169  1
  Ta  Ta9  1  0.979496  0.295839  0.486778  1
  Al  Al10  1  0.750000  0.500000  0.756360  1
  Ga  Ga11  1  0.250000  0.500000  0.256872  1
  Ga  Ga12  1  0.138890  0.000073  0.362879  1
  Ga  Ga13  1  0.361110  0.999927  0.862806  1
  P  P14  1  0.870885  0.999917  0.631560  1
  P  P15  1  0.629115  0.000083  0.131644  1
