# generated using pymatgen
data_Er7TmIn3Tc
_symmetry_space_group_name_H-M   'P 1'
_cell_length_a   10.32742345
_cell_length_b   10.32754006
_cell_length_c   6.98328540
_cell_angle_alpha   90.03400885
_cell_angle_beta   89.96646630
_cell_angle_gamma   120.00429308
_symmetry_Int_Tables_number   1
_chemical_formula_structural   Er7TmIn3Tc
_chemical_formula_sum   'Er14 Tm2 In6 Tc2'
_cell_volume   645.00102775
_cell_formula_units_Z   2
loop_
 _symmetry_equiv_pos_site_id
 _symmetry_equiv_pos_as_xyz
  1  'x, y, z'
loop_
 _atom_site_type_symbol
 _atom_site_label
 _atom_site_symmetry_multiplicity
 _atom_site_fract_x
 _atom_site_fract_y
 _atom_site_fract_z
 _atom_site_occupancy
  Er  Er0  1  0.531337  0.468695  0.796721  1
  Er  Er1  1  0.468766  0.937548  0.296709  1
  Er  Er2  1  0.062479  0.531244  0.296699  1
  Er  Er3  1  0.468770  0.531194  0.296532  1
  Er  Er4  1  0.822735  0.645229  0.499642  1
  Er  Er5  1  0.354764  0.177276  0.499644  1
  Er  Er6  1  0.822510  0.177508  0.499765  1
  Er  Er7  1  0.177187  0.354570  0.999250  1
  Er  Er8  1  0.645415  0.822806  0.999248  1
  Er  Er9  1  0.177309  0.822684  0.999228  1
  Er  Er10  1  0.666770  0.333284  0.168579  1
  Er  Er11  1  0.333242  0.666759  0.669264  1
  Er  Er12  1  0.999997  0.999998  0.775531  1
  Er  Er13  1  0.999995  0.999975  0.275615  1
  Tm  Tm14  1  0.531517  0.062899  0.796799  1
  Tm  Tm15  1  0.937093  0.468477  0.796822  1
  In  In16  1  0.837021  0.673890  0.038036  1
  In  In17  1  0.326093  0.162977  0.038042  1
  In  In18  1  0.836928  0.163070  0.037929  1
  In  In19  1  0.162944  0.325959  0.538078  1
  In  In20  1  0.674039  0.837059  0.538093  1
  In  In21  1  0.162977  0.837011  0.538033  1
  Tc  Tc22  1  0.666743  0.333267  0.570844  1
  Tc  Tc23  1  0.333371  0.666620  0.070803  1
