# generated using pymatgen
data_Dy5Hf3Co16GeP11
_symmetry_space_group_name_H-M   'P 1'
_cell_length_a   12.32554201
_cell_length_b   12.32554199
_cell_length_c   3.71776500
_cell_angle_alpha   90.00000000
_cell_angle_beta   90.00000000
_cell_angle_gamma   119.99646690
_symmetry_Int_Tables_number   1
_chemical_formula_structural   Dy5Hf3Co16GeP11
_chemical_formula_sum   'Dy5 Hf3 Co16 Ge1 P11'
_cell_volume   489.14777082
_cell_formula_units_Z   1
loop_
 _symmetry_equiv_pos_site_id
 _symmetry_equiv_pos_as_xyz
  1  'x, y, z'
loop_
 _atom_site_type_symbol
 _atom_site_label
 _atom_site_symmetry_multiplicity
 _atom_site_fract_x
 _atom_site_fract_y
 _atom_site_fract_z
 _atom_site_occupancy
  Dy  Dy0  1  0.666668  0.333076  0.000000  1
  Dy  Dy1  1  0.333076  0.666668  0.000000  1
  Dy  Dy2  1  0.177416  0.177416  0.500000  1
  Dy  Dy3  1  0.816886  0.000439  0.500000  1
  Dy  Dy4  1  0.000439  0.816886  0.500000  1
  Hf  Hf5  1  0.562588  0.562588  0.000000  1
  Hf  Hf6  1  0.440831  0.998203  0.000000  1
  Hf  Hf7  1  0.998203  0.440831  0.000000  1
  Co  Co8  1  0.821022  0.195277  0.000000  1
  Co  Co9  1  0.805849  0.627251  0.000000  1
  Co  Co10  1  0.374864  0.171276  0.000000  1
  Co  Co11  1  0.195277  0.821022  0.000000  1
  Co  Co12  1  0.627251  0.805849  0.000000  1
  Co  Co13  1  0.171276  0.374864  0.000000  1
  Co  Co14  1  0.644160  0.123315  0.500000  1
  Co  Co15  1  0.875966  0.519833  0.500000  1
  Co  Co16  1  0.488529  0.358752  0.500000  1
  Co  Co17  1  0.123315  0.644160  0.500000  1
  Co  Co18  1  0.519833  0.875966  0.500000  1
  Co  Co19  1  0.358752  0.488529  0.500000  1
  Co  Co20  1  0.722661  0.722661  0.500000  1
  Co  Co21  1  0.277791  0.997143  0.500000  1
  Co  Co22  1  0.997143  0.277791  0.500000  1
  Co  Co23  1  0.999673  0.999673  0.000000  1
  Ge  Ge24  1  0.350914  0.350914  0.000000  1
  P  P25  1  0.648225  0.000638  0.000000  1
  P  P26  1  0.000638  0.648225  0.000000  1
  P  P27  1  0.827841  0.306598  0.500000  1
  P  P28  1  0.694454  0.522210  0.500000  1
  P  P29  1  0.479031  0.170743  0.500000  1
  P  P30  1  0.306598  0.827841  0.500000  1
  P  P31  1  0.522210  0.694454  0.500000  1
  P  P32  1  0.170743  0.479031  0.500000  1
  P  P33  1  0.821729  0.821729  0.000000  1
  P  P34  1  0.178902  0.999247  0.000000  1
  P  P35  1  0.999247  0.178902  0.000000  1
