# generated using pymatgen
data_ZrSc2P3
_symmetry_space_group_name_H-M   'P 1'
_cell_length_a   6.50245062
_cell_length_b   6.50245112
_cell_length_c   6.50245013
_cell_angle_alpha   146.62143539
_cell_angle_beta   131.77989029
_cell_angle_gamma   59.91233546
_symmetry_Int_Tables_number   1
_chemical_formula_structural   ZrSc2P3
_chemical_formula_sum   'Zr1 Sc2 P3'
_cell_volume   111.77683465
_cell_formula_units_Z   1
loop_
 _symmetry_equiv_pos_site_id
 _symmetry_equiv_pos_as_xyz
  1  'x, y, z'
loop_
 _atom_site_type_symbol
 _atom_site_label
 _atom_site_symmetry_multiplicity
 _atom_site_fract_x
 _atom_site_fract_y
 _atom_site_fract_z
 _atom_site_occupancy
  Zr  Zr0  1  0.000000  0.000000  0.000000  1
  Sc  Sc1  1  0.667016  0.667016  0.000000  1
  Sc  Sc2  1  0.332984  0.332984  0.000000  1
  P  P3  1  0.500000  0.000000  0.500000  1
  P  P4  1  0.167673  0.667673  0.500000  1
  P  P5  1  0.832327  0.332327  0.500000  1
