# generated using pymatgen
data_Ca20(Ga3Hg)3
_symmetry_space_group_name_H-M   'P 1'
_cell_length_a   8.03135600
_cell_length_b   8.03135600
_cell_length_c   14.77851500
_cell_angle_alpha   90.00000000
_cell_angle_beta   90.00000000
_cell_angle_gamma   90.00000000
_symmetry_Int_Tables_number   1
_chemical_formula_structural   Ca20(Ga3Hg)3
_chemical_formula_sum   'Ca20 Ga9 Hg3'
_cell_volume   953.25381208
_cell_formula_units_Z   1
loop_
 _symmetry_equiv_pos_site_id
 _symmetry_equiv_pos_as_xyz
  1  'x, y, z'
loop_
 _atom_site_type_symbol
 _atom_site_label
 _atom_site_symmetry_multiplicity
 _atom_site_fract_x
 _atom_site_fract_y
 _atom_site_fract_z
 _atom_site_occupancy
  Ca  Ca0  1  0.677610  0.167769  0.104863  1
  Ca  Ca1  1  0.172326  0.672029  0.608150  1
  Ca  Ca2  1  0.322390  0.832231  0.104863  1
  Ca  Ca3  1  0.827674  0.327971  0.608150  1
  Ca  Ca4  1  0.832231  0.677610  0.104863  1
  Ca  Ca5  1  0.327971  0.172326  0.608150  1
  Ca  Ca6  1  0.167769  0.322390  0.104863  1
  Ca  Ca7  1  0.672029  0.827674  0.608150  1
  Ca  Ca8  1  0.832231  0.322390  0.895137  1
  Ca  Ca9  1  0.327971  0.827674  0.391850  1
  Ca  Ca10  1  0.167769  0.677610  0.895137  1
  Ca  Ca11  1  0.672029  0.172326  0.391850  1
  Ca  Ca12  1  0.677610  0.832231  0.895137  1
  Ca  Ca13  1  0.172326  0.327971  0.391850  1
  Ca  Ca14  1  0.322390  0.167769  0.895137  1
  Ca  Ca15  1  0.827674  0.672029  0.391850  1
  Ca  Ca16  1  0.500000  0.500000  0.755715  1
  Ca  Ca17  1  0.000000  0.000000  0.247839  1
  Ca  Ca18  1  0.000000  0.000000  0.752161  1
  Ca  Ca19  1  0.500000  0.500000  0.244285  1
  Ga  Ga20  1  0.611803  0.114075  0.751691  1
  Ga  Ga21  1  0.114075  0.611803  0.248309  1
  Ga  Ga22  1  0.885925  0.388197  0.248309  1
  Ga  Ga23  1  0.388197  0.885925  0.751691  1
  Ga  Ga24  1  0.885925  0.611803  0.751691  1
  Ga  Ga25  1  0.388197  0.114075  0.248309  1
  Ga  Ga26  1  0.114075  0.388197  0.751691  1
  Ga  Ga27  1  0.611803  0.885925  0.248309  1
  Ga  Ga28  1  0.000000  0.000000  0.000000  1
  Hg  Hg29  1  0.500000  0.500000  0.500000  1
  Hg  Hg30  1  0.500000  0.500000  0.000000  1
  Hg  Hg31  1  0.000000  0.000000  0.500000  1
