# generated using pymatgen
data_Zr6Zn15SnAu8
_symmetry_space_group_name_H-M   'P 1'
_cell_length_a   9.01369351
_cell_length_b   9.01369342
_cell_length_c   9.01369400
_cell_angle_alpha   60.00000522
_cell_angle_beta   60.00000555
_cell_angle_gamma   59.99999913
_symmetry_Int_Tables_number   1
_chemical_formula_structural   Zr6Zn15SnAu8
_chemical_formula_sum   'Zr6 Zn15 Sn1 Au8'
_cell_volume   517.83740128
_cell_formula_units_Z   1
loop_
 _symmetry_equiv_pos_site_id
 _symmetry_equiv_pos_as_xyz
  1  'x, y, z'
loop_
 _atom_site_type_symbol
 _atom_site_label
 _atom_site_symmetry_multiplicity
 _atom_site_fract_x
 _atom_site_fract_y
 _atom_site_fract_z
 _atom_site_occupancy
  Zr  Zr0  1  0.724864  0.275136  0.275136  1
  Zr  Zr1  1  0.275136  0.724864  0.724864  1
  Zr  Zr2  1  0.275136  0.724864  0.275136  1
  Zr  Zr3  1  0.724864  0.275136  0.724864  1
  Zr  Zr4  1  0.275136  0.275136  0.724864  1
  Zr  Zr5  1  0.724864  0.724864  0.275136  1
  Zn  Zn6  1  0.500000  0.000000  0.000000  1
  Zn  Zn7  1  0.000000  0.500000  0.500000  1
  Zn  Zn8  1  0.000000  0.500000  0.000000  1
  Zn  Zn9  1  0.500000  0.000000  0.500000  1
  Zn  Zn10  1  0.000000  0.000000  0.500000  1
  Zn  Zn11  1  0.500000  0.500000  0.000000  1
  Zn  Zn12  1  0.342678  0.342678  0.342678  1
  Zn  Zn13  1  0.657322  0.657322  0.657322  1
  Zn  Zn14  1  0.342678  0.342678  0.971965  1
  Zn  Zn15  1  0.342678  0.971965  0.342678  1
  Zn  Zn16  1  0.657322  0.657322  0.028035  1
  Zn  Zn17  1  0.657322  0.028035  0.657322  1
  Zn  Zn18  1  0.971965  0.342678  0.342678  1
  Zn  Zn19  1  0.028035  0.657322  0.657322  1
  Zn  Zn20  1  0.000000  0.000000  0.000000  1
  Sn  Sn21  1  0.500000  0.500000  0.500000  1
  Au  Au22  1  0.124490  0.124490  0.124490  1
  Au  Au23  1  0.875510  0.875510  0.875510  1
  Au  Au24  1  0.124490  0.124490  0.626531  1
  Au  Au25  1  0.124490  0.626531  0.124490  1
  Au  Au26  1  0.875510  0.875510  0.373469  1
  Au  Au27  1  0.875510  0.373469  0.875510  1
  Au  Au28  1  0.626531  0.124490  0.124490  1
  Au  Au29  1  0.373469  0.875510  0.875510  1
