# generated using pymatgen
data_Cs3KSnI6
_symmetry_space_group_name_H-M   'P 1'
_cell_length_a   10.45420546
_cell_length_b   10.45420632
_cell_length_c   10.45420587
_cell_angle_alpha   91.43120548
_cell_angle_beta   91.43119947
_cell_angle_gamma   91.43120195
_symmetry_Int_Tables_number   1
_chemical_formula_structural   Cs3KSnI6
_chemical_formula_sum   'Cs6 K2 Sn2 I12'
_cell_volume   1141.45710815
_cell_formula_units_Z   2
loop_
 _symmetry_equiv_pos_site_id
 _symmetry_equiv_pos_as_xyz
  1  'x, y, z'
loop_
 _atom_site_type_symbol
 _atom_site_label
 _atom_site_symmetry_multiplicity
 _atom_site_fract_x
 _atom_site_fract_y
 _atom_site_fract_z
 _atom_site_occupancy
  Cs  Cs0  1  0.370463  0.129537  0.750000  1
  Cs  Cs1  1  0.129537  0.750000  0.370463  1
  Cs  Cs2  1  0.750000  0.370463  0.129537  1
  Cs  Cs3  1  0.629537  0.870463  0.250000  1
  Cs  Cs4  1  0.250000  0.629537  0.870463  1
  Cs  Cs5  1  0.870463  0.250000  0.629537  1
  K  K6  1  0.250000  0.250000  0.250000  1
  K  K7  1  0.750000  0.750000  0.750000  1
  Sn  Sn8  1  0.000000  0.000000  0.000000  1
  Sn  Sn9  1  0.500000  0.500000  0.500000  1
  I  I10  1  0.951688  0.079198  0.293949  1
  I  I11  1  0.079198  0.293949  0.951688  1
  I  I12  1  0.293949  0.951688  0.079198  1
  I  I13  1  0.579198  0.451688  0.793949  1
  I  I14  1  0.793949  0.579198  0.451688  1
  I  I15  1  0.451688  0.793949  0.579198  1
  I  I16  1  0.206051  0.420802  0.548312  1
  I  I17  1  0.420802  0.548312  0.206051  1
  I  I18  1  0.548312  0.206051  0.420802  1
  I  I19  1  0.920802  0.706051  0.048312  1
  I  I20  1  0.048312  0.920802  0.706051  1
  I  I21  1  0.706051  0.048312  0.920802  1
