# generated using pymatgen
data_La3Ga2AgPt3
_symmetry_space_group_name_H-M   'P 1'
_cell_length_a   7.58719500
_cell_length_b   7.83624169
_cell_length_c   4.04820400
_cell_angle_alpha   90.00000000
_cell_angle_beta   90.00000000
_cell_angle_gamma   121.09191391
_symmetry_Int_Tables_number   1
_chemical_formula_structural   La3Ga2AgPt3
_chemical_formula_sum   'La3 Ga2 Ag1 Pt3'
_cell_volume   206.10934119
_cell_formula_units_Z   1
loop_
 _symmetry_equiv_pos_site_id
 _symmetry_equiv_pos_as_xyz
  1  'x, y, z'
loop_
 _atom_site_type_symbol
 _atom_site_label
 _atom_site_symmetry_multiplicity
 _atom_site_fract_x
 _atom_site_fract_y
 _atom_site_fract_z
 _atom_site_occupancy
  La  La0  1  0.407081  0.409264  0.000000  1
  La  La1  1  0.592919  0.002182  0.000000  1
  La  La2  1  0.000000  0.591659  0.000000  1
  Ga  Ga3  1  0.757523  0.757537  0.500000  1
  Ga  Ga4  1  0.242477  0.000013  0.500000  1
  Ag  Ag5  1  0.000000  0.247639  0.500000  1
  Pt  Pt6  1  0.348858  0.686444  0.500000  1
  Pt  Pt7  1  0.000000  0.967676  0.000000  1
  Pt  Pt8  1  0.651142  0.337583  0.500000  1
