# generated using pymatgen
data_SmYTm4(Co3P2)6
_symmetry_space_group_name_H-M   'P 1'
_cell_length_a   3.68615200
_cell_length_b   10.49848800
_cell_length_c   12.15777200
_cell_angle_alpha   90.00000000
_cell_angle_beta   90.00000000
_cell_angle_gamma   90.00000000
_symmetry_Int_Tables_number   1
_chemical_formula_structural   SmYTm4(Co3P2)6
_chemical_formula_sum   'Sm1 Y1 Tm4 Co18 P12'
_cell_volume   470.49389264
_cell_formula_units_Z   1
loop_
 _symmetry_equiv_pos_site_id
 _symmetry_equiv_pos_as_xyz
  1  'x, y, z'
loop_
 _atom_site_type_symbol
 _atom_site_label
 _atom_site_symmetry_multiplicity
 _atom_site_fract_x
 _atom_site_fract_y
 _atom_site_fract_z
 _atom_site_occupancy
  Sm  Sm0  1  0.500000  0.000000  0.477335  1
  Y  Y1  1  0.000000  0.500000  0.522160  1
  Tm  Tm2  1  0.500000  0.817652  0.205095  1
  Tm  Tm3  1  0.500000  0.182348  0.205095  1
  Tm  Tm4  1  0.000000  0.681913  0.794630  1
  Tm  Tm5  1  0.000000  0.318087  0.794630  1
  Co  Co6  1  0.500000  0.500000  0.158042  1
  Co  Co7  1  0.000000  0.000000  0.842541  1
  Co  Co8  1  0.500000  0.500000  0.705038  1
  Co  Co9  1  0.000000  0.000000  0.293987  1
  Co  Co10  1  0.000000  0.500000  0.986256  1
  Co  Co11  1  0.500000  0.000000  0.013669  1
  Co  Co12  1  0.500000  0.333176  0.994716  1
  Co  Co13  1  0.500000  0.666824  0.994716  1
  Co  Co14  1  0.000000  0.166939  0.005327  1
  Co  Co15  1  0.000000  0.833061  0.005327  1
  Co  Co16  1  0.500000  0.297956  0.429776  1
  Co  Co17  1  0.500000  0.702044  0.429776  1
  Co  Co18  1  0.000000  0.204001  0.570427  1
  Co  Co19  1  0.000000  0.795999  0.570427  1
  Co  Co20  1  0.500000  0.878470  0.711639  1
  Co  Co21  1  0.500000  0.121530  0.711639  1
  Co  Co22  1  0.000000  0.620968  0.288661  1
  Co  Co23  1  0.000000  0.379032  0.288661  1
  P  P24  1  0.500000  0.500000  0.882647  1
  P  P25  1  0.000000  0.000000  0.116927  1
  P  P26  1  0.500000  0.500000  0.343050  1
  P  P27  1  0.000000  0.000000  0.658554  1
  P  P28  1  0.500000  0.310684  0.617379  1
  P  P29  1  0.500000  0.689316  0.617379  1
  P  P30  1  0.000000  0.191074  0.382142  1
  P  P31  1  0.000000  0.808926  0.382142  1
  P  P32  1  0.500000  0.846227  0.893117  1
  P  P33  1  0.500000  0.153773  0.893117  1
  P  P34  1  0.000000  0.653455  0.106989  1
  P  P35  1  0.000000  0.346545  0.106989  1
