# generated using pymatgen
data_Li4As6Ir5Pt2
_symmetry_space_group_name_H-M   'P 1'
_cell_length_a   7.01994764
_cell_length_b   7.01131298
_cell_length_c   7.01131329
_cell_angle_alpha   110.08716957
_cell_angle_beta   109.13964100
_cell_angle_gamma   109.13963640
_symmetry_Int_Tables_number   1
_chemical_formula_structural   Li4As6Ir5Pt2
_chemical_formula_sum   'Li4 As6 Ir5 Pt2'
_cell_volume   265.78699979
_cell_formula_units_Z   1
loop_
 _symmetry_equiv_pos_site_id
 _symmetry_equiv_pos_as_xyz
  1  'x, y, z'
loop_
 _atom_site_type_symbol
 _atom_site_label
 _atom_site_symmetry_multiplicity
 _atom_site_fract_x
 _atom_site_fract_y
 _atom_site_fract_z
 _atom_site_occupancy
  Li  Li0  1  0.000000  0.998366  0.499518  1
  Li  Li1  1  0.500000  0.000549  0.999451  1
  Li  Li2  1  0.000000  0.500482  0.001634  1
  Li  Li3  1  0.500000  0.500549  0.499451  1
  As  As4  1  0.696426  0.689285  0.007142  1
  As  As5  1  0.317572  0.311301  0.006271  1
  As  As6  1  0.000000  0.695350  0.685099  1
  As  As7  1  0.000000  0.314901  0.304650  1
  As  As8  1  0.682428  0.993729  0.688699  1
  As  As9  1  0.303574  0.992858  0.310715  1
  Ir  Ir10  1  0.000000  0.999625  0.000375  1
  Ir  Ir11  1  0.500000  0.249776  0.750224  1
  Ir  Ir12  1  0.500000  0.749776  0.250224  1
  Ir  Ir13  1  0.752822  0.502371  0.250451  1
  Ir  Ir14  1  0.247178  0.749549  0.497629  1
  Pt  Pt15  1  0.251494  0.501514  0.749980  1
  Pt  Pt16  1  0.748506  0.250020  0.498486  1
