# generated using pymatgen
data_Tb8Be2ZnSi12Pd
_symmetry_space_group_name_H-M   'P 1'
_cell_length_a   8.02253000
_cell_length_b   8.02252982
_cell_length_c   8.10562100
_cell_angle_alpha   90.00000000
_cell_angle_beta   90.00000000
_cell_angle_gamma   120.00000898
_symmetry_Int_Tables_number   1
_chemical_formula_structural   Tb8Be2ZnSi12Pd
_chemical_formula_sum   'Tb8 Be2 Zn1 Si12 Pd1'
_cell_volume   451.79308104
_cell_formula_units_Z   1
loop_
 _symmetry_equiv_pos_site_id
 _symmetry_equiv_pos_as_xyz
  1  'x, y, z'
loop_
 _atom_site_type_symbol
 _atom_site_label
 _atom_site_symmetry_multiplicity
 _atom_site_fract_x
 _atom_site_fract_y
 _atom_site_fract_z
 _atom_site_occupancy
  Tb  Tb0  1  0.503110  0.006220  0.249718  1
  Tb  Tb1  1  0.503404  0.006810  0.750409  1
  Tb  Tb2  1  0.993780  0.496890  0.249718  1
  Tb  Tb3  1  0.993190  0.496596  0.750409  1
  Tb  Tb4  1  0.503110  0.496890  0.249718  1
  Tb  Tb5  1  0.503404  0.496596  0.750409  1
  Tb  Tb6  1  0.000000  0.000000  0.250734  1
  Tb  Tb7  1  0.000000  0.000000  0.749036  1
  Be  Be8  1  0.666667  0.333333  0.000525  1
  Be  Be9  1  0.666667  0.333333  0.498943  1
  Zn  Zn10  1  0.333333  0.666667  0.000479  1
  Si  Si11  1  0.164776  0.329551  0.999411  1
  Si  Si12  1  0.825503  0.651007  0.000478  1
  Si  Si13  1  0.670449  0.835224  0.999411  1
  Si  Si14  1  0.828410  0.656821  0.500132  1
  Si  Si15  1  0.348993  0.174497  0.000478  1
  Si  Si16  1  0.166347  0.332693  0.499700  1
  Si  Si17  1  0.164776  0.835224  0.999411  1
  Si  Si18  1  0.343179  0.171590  0.500132  1
  Si  Si19  1  0.825503  0.174497  0.000478  1
  Si  Si20  1  0.667307  0.833653  0.499700  1
  Si  Si21  1  0.828410  0.171590  0.500132  1
  Si  Si22  1  0.166347  0.833653  0.499700  1
  Pd  Pd23  1  0.333333  0.666667  0.500737  1
