# generated using pymatgen
data_Sr2FeTcN4
_symmetry_space_group_name_H-M   'P 1'
_cell_length_a   7.67338300
_cell_length_b   6.05798338
_cell_length_c   6.05813827
_cell_angle_alpha   66.61161789
_cell_angle_beta   90.00000000
_cell_angle_gamma   90.00000000
_symmetry_Int_Tables_number   1
_chemical_formula_structural   Sr2FeTcN4
_chemical_formula_sum   'Sr4 Fe2 Tc2 N8'
_cell_volume   258.47516090
_cell_formula_units_Z   2
loop_
 _symmetry_equiv_pos_site_id
 _symmetry_equiv_pos_as_xyz
  1  'x, y, z'
loop_
 _atom_site_type_symbol
 _atom_site_label
 _atom_site_symmetry_multiplicity
 _atom_site_fract_x
 _atom_site_fract_y
 _atom_site_fract_z
 _atom_site_occupancy
  Sr  Sr0  1  0.079438  0.303163  0.340684  1
  Sr  Sr1  1  0.579438  0.196837  0.659316  1
  Sr  Sr2  1  0.914291  0.681117  0.686410  1
  Sr  Sr3  1  0.414291  0.818883  0.313590  1
  Fe  Fe4  1  0.637028  0.405933  0.097731  1
  Fe  Fe5  1  0.137028  0.094067  0.902269  1
  Tc  Tc6  1  0.364644  0.592744  0.898512  1
  Tc  Tc7  1  0.864644  0.907256  0.101488  1
  N  N8  1  0.083046  0.929903  0.248353  1
  N  N9  1  0.583046  0.570097  0.751647  1
  N  N10  1  0.914886  0.071741  0.758268  1
  N  N11  1  0.414886  0.428259  0.241732  1
  N  N12  1  0.690853  0.075697  0.176469  1
  N  N13  1  0.190853  0.424303  0.823531  1
  N  N14  1  0.315814  0.911495  0.831913  1
  N  N15  1  0.815814  0.588505  0.168087  1
