# generated using pymatgen
data_Ba2Pr3Gd(PdO5)2
_symmetry_space_group_name_H-M   'P 1'
_cell_length_a   6.82264857
_cell_length_b   6.82264857
_cell_length_c   5.97623900
_cell_angle_alpha   90.00000000
_cell_angle_beta   90.00000000
_cell_angle_gamma   89.76319643
_symmetry_Int_Tables_number   1
_chemical_formula_structural   Ba2Pr3Gd(PdO5)2
_chemical_formula_sum   'Ba2 Pr3 Gd1 Pd2 O10'
_cell_volume   278.18278524
_cell_formula_units_Z   1
loop_
 _symmetry_equiv_pos_site_id
 _symmetry_equiv_pos_as_xyz
  1  'x, y, z'
loop_
 _atom_site_type_symbol
 _atom_site_label
 _atom_site_symmetry_multiplicity
 _atom_site_fract_x
 _atom_site_fract_y
 _atom_site_fract_z
 _atom_site_occupancy
  Ba  Ba0  1  0.003229  0.999496  0.000000  1
  Ba  Ba1  1  0.500504  0.496771  0.000000  1
  Pr  Pr2  1  0.826252  0.325952  0.499999  1
  Pr  Pr3  1  0.174048  0.673748  0.499999  1
  Pr  Pr4  1  0.671163  0.828837  0.499999  1
  Gd  Gd5  1  0.323419  0.176581  0.499999  1
  Pd  Pd6  1  0.498822  0.001178  0.000000  1
  Pd  Pd7  1  0.003243  0.496757  0.000000  1
  O  O8  1  0.636031  0.142181  0.252412  1
  O  O9  1  0.145394  0.354606  0.252203  1
  O  O10  1  0.860665  0.639335  0.249031  1
  O  O11  1  0.357819  0.863969  0.252412  1
  O  O12  1  0.002207  0.002706  0.499999  1
  O  O13  1  0.497294  0.497793  0.499999  1
  O  O14  1  0.636031  0.142181  0.747589  1
  O  O15  1  0.145394  0.354606  0.747798  1
  O  O16  1  0.860665  0.639335  0.750970  1
  O  O17  1  0.357819  0.863969  0.747589  1
