# generated using pymatgen
data_Ho2LuCuRu2
_symmetry_space_group_name_H-M   'P 1'
_cell_length_a   3.38198000
_cell_length_b   3.38198000
_cell_length_c   10.19943800
_cell_angle_alpha   90.00000000
_cell_angle_beta   90.00000000
_cell_angle_gamma   90.00000000
_symmetry_Int_Tables_number   1
_chemical_formula_structural   Ho2LuCuRu2
_chemical_formula_sum   'Ho2 Lu1 Cu1 Ru2'
_cell_volume   116.65901691
_cell_formula_units_Z   1
loop_
 _symmetry_equiv_pos_site_id
 _symmetry_equiv_pos_as_xyz
  1  'x, y, z'
loop_
 _atom_site_type_symbol
 _atom_site_label
 _atom_site_symmetry_multiplicity
 _atom_site_fract_x
 _atom_site_fract_y
 _atom_site_fract_z
 _atom_site_occupancy
  Ho  Ho0  1  0.499999  0.499999  0.322886  1
  Ho  Ho1  1  0.499999  0.499999  0.677114  1
  Lu  Lu2  1  0.499999  0.499999  0.000000  1
  Cu  Cu3  1  0.000000  0.000000  0.500000  1
  Ru  Ru4  1  0.000000  0.000000  0.166788  1
  Ru  Ru5  1  0.000000  0.000000  0.833212  1
