# generated using pymatgen
data_Rb8Mn3ZnBr16
_symmetry_space_group_name_H-M   'P 1'
_cell_length_a   7.84111141
_cell_length_b   13.85504781
_cell_length_c   9.91078018
_cell_angle_alpha   90.04666264
_cell_angle_beta   89.85990791
_cell_angle_gamma   91.53897980
_symmetry_Int_Tables_number   1
_chemical_formula_structural   Rb8Mn3ZnBr16
_chemical_formula_sum   'Rb8 Mn3 Zn1 Br16'
_cell_volume   1076.30508450
_cell_formula_units_Z   1
loop_
 _symmetry_equiv_pos_site_id
 _symmetry_equiv_pos_as_xyz
  1  'x, y, z'
loop_
 _atom_site_type_symbol
 _atom_site_label
 _atom_site_symmetry_multiplicity
 _atom_site_fract_x
 _atom_site_fract_y
 _atom_site_fract_z
 _atom_site_occupancy
  Rb  Rb0  1  0.235262  0.100812  0.126250  1
  Rb  Rb1  1  0.264328  0.397567  0.624860  1
  Rb  Rb2  1  0.763668  0.898406  0.877355  1
  Rb  Rb3  1  0.735795  0.603866  0.374781  1
  Rb  Rb4  1  0.273345  0.826126  0.486568  1
  Rb  Rb5  1  0.226769  0.675437  0.987620  1
  Rb  Rb6  1  0.726809  0.173339  0.511198  1
  Rb  Rb7  1  0.774179  0.325065  0.012203  1
  Mn  Mn8  1  0.249318  0.421954  0.224305  1
  Mn  Mn9  1  0.251094  0.077982  0.725455  1
  Mn  Mn10  1  0.750911  0.578006  0.775387  1
  Zn  Zn11  1  0.747863  0.921199  0.273671  1
  Br  Br12  1  0.527401  0.369831  0.320136  1
  Br  Br13  1  0.972025  0.129367  0.821173  1
  Br  Br14  1  0.472480  0.629713  0.679521  1
  Br  Br15  1  0.022387  0.871358  0.182076  1
  Br  Br16  1  0.027393  0.303655  0.306299  1
  Br  Br17  1  0.472777  0.195814  0.808142  1
  Br  Br18  1  0.971809  0.697079  0.693880  1
  Br  Br19  1  0.529109  0.806226  0.193867  1
  Br  Br20  1  0.195114  0.584646  0.323443  1
  Br  Br21  1  0.305924  0.915569  0.824406  1
  Br  Br22  1  0.805777  0.415635  0.675751  1
  Br  Br23  1  0.695539  0.080582  0.178284  1
  Br  Br24  1  0.236361  0.421198  0.974969  1
  Br  Br25  1  0.264674  0.080203  0.476167  1
  Br  Br26  1  0.763220  0.578939  0.024796  1
  Br  Br27  1  0.738671  0.920428  0.517437  1
