# generated using pymatgen
data_Y2HoIn3RuAu2
_symmetry_space_group_name_H-M   'P 1'
_cell_length_a   7.81154919
_cell_length_b   7.81451344
_cell_length_c   3.85272600
_cell_angle_alpha   90.00000000
_cell_angle_beta   90.00000000
_cell_angle_gamma   120.01255945
_symmetry_Int_Tables_number   1
_chemical_formula_structural   Y2HoIn3RuAu2
_chemical_formula_sum   'Y2 Ho1 In3 Ru1 Au2'
_cell_volume   203.64928648
_cell_formula_units_Z   1
loop_
 _symmetry_equiv_pos_site_id
 _symmetry_equiv_pos_as_xyz
  1  'x, y, z'
loop_
 _atom_site_type_symbol
 _atom_site_label
 _atom_site_symmetry_multiplicity
 _atom_site_fract_x
 _atom_site_fract_y
 _atom_site_fract_z
 _atom_site_occupancy
  Y  Y0  1  0.395663  0.395683  0.500000  1
  Y  Y1  1  0.604337  0.000020  0.500000  1
  Ho  Ho2  1  0.000000  0.604565  0.500000  1
  In  In3  1  0.742728  0.742518  0.000000  1
  In  In4  1  0.257272  0.999790  0.000000  1
  In  In5  1  0.000000  0.257571  0.000000  1
  Ru  Ru6  1  0.000000  0.999282  0.500000  1
  Au  Au7  1  0.667558  0.334064  0.000000  1
  Au  Au8  1  0.332442  0.666506  0.000000  1
