# generated using pymatgen
data_Ce8Mn(Si4Ni)3
_symmetry_space_group_name_H-M   'P 1'
_cell_length_a   8.07462500
_cell_length_b   8.07462529
_cell_length_c   8.26397400
_cell_angle_alpha   90.00000000
_cell_angle_beta   90.00000000
_cell_angle_gamma   119.99999471
_symmetry_Int_Tables_number   1
_chemical_formula_structural   Ce8Mn(Si4Ni)3
_chemical_formula_sum   'Ce8 Mn1 Si12 Ni3'
_cell_volume   466.62106087
_cell_formula_units_Z   1
loop_
 _symmetry_equiv_pos_site_id
 _symmetry_equiv_pos_as_xyz
  1  'x, y, z'
loop_
 _atom_site_type_symbol
 _atom_site_label
 _atom_site_symmetry_multiplicity
 _atom_site_fract_x
 _atom_site_fract_y
 _atom_site_fract_z
 _atom_site_occupancy
  Ce  Ce0  1  0.000000  0.000000  0.248463  1
  Ce  Ce1  1  0.000000  0.000000  0.751326  1
  Ce  Ce2  1  0.497434  0.502566  0.253801  1
  Ce  Ce3  1  0.497434  0.994869  0.253801  1
  Ce  Ce4  1  0.005131  0.502566  0.253801  1
  Ce  Ce5  1  0.497769  0.502231  0.746273  1
  Ce  Ce6  1  0.497769  0.995537  0.746273  1
  Ce  Ce7  1  0.004463  0.502231  0.746273  1
  Mn  Mn8  1  0.333333  0.666667  0.495918  1
  Si  Si9  1  0.167679  0.832321  0.501326  1
  Si  Si10  1  0.167679  0.335358  0.501326  1
  Si  Si11  1  0.664642  0.832321  0.501326  1
  Si  Si12  1  0.829876  0.170124  0.499536  1
  Si  Si13  1  0.829876  0.659752  0.499536  1
  Si  Si14  1  0.340248  0.170124  0.499536  1
  Si  Si15  1  0.829774  0.170226  0.000316  1
  Si  Si16  1  0.829774  0.659546  0.000316  1
  Si  Si17  1  0.340454  0.170226  0.000316  1
  Si  Si18  1  0.169546  0.830454  0.999082  1
  Si  Si19  1  0.169546  0.339094  0.999082  1
  Si  Si20  1  0.660906  0.830454  0.999082  1
  Ni  Ni21  1  0.666667  0.333333  0.503141  1
  Ni  Ni22  1  0.666667  0.333333  0.997411  1
  Ni  Ni23  1  0.333333  0.666667  0.002736  1
