# generated using pymatgen
data_La4Th2Sc2Bi3Sb7
_symmetry_space_group_name_H-M   'P 1'
_cell_length_a   9.63336351
_cell_length_b   9.63803403
_cell_length_c   6.49620928
_cell_angle_alpha   90.02769836
_cell_angle_beta   90.00298295
_cell_angle_gamma   119.94673098
_symmetry_Int_Tables_number   1
_chemical_formula_structural   La4Th2Sc2Bi3Sb7
_chemical_formula_sum   'La4 Th2 Sc2 Bi3 Sb7'
_cell_volume   522.62458470
_cell_formula_units_Z   1
loop_
 _symmetry_equiv_pos_site_id
 _symmetry_equiv_pos_as_xyz
  1  'x, y, z'
loop_
 _atom_site_type_symbol
 _atom_site_label
 _atom_site_symmetry_multiplicity
 _atom_site_fract_x
 _atom_site_fract_y
 _atom_site_fract_z
 _atom_site_occupancy
  La  La0  1  0.382041  0.997552  0.748087  1
  La  La1  1  0.618404  0.622175  0.748258  1
  La  La2  1  0.621907  0.997779  0.251852  1
  La  La3  1  0.000824  0.380154  0.748187  1
  Th  Th4  1  0.002375  0.623607  0.252381  1
  Th  Th5  1  0.376178  0.379083  0.252387  1
  Sc  Sc6  1  0.999588  0.000000  0.997150  1
  Sc  Sc7  1  0.999560  0.999956  0.502923  1
  Bi  Bi8  1  0.666330  0.335984  0.003311  1
  Bi  Bi9  1  0.330594  0.664294  0.003488  1
  Bi  Bi10  1  0.666310  0.335897  0.496804  1
  Sb  Sb11  1  0.002551  0.262361  0.249814  1
  Sb  Sb12  1  0.329629  0.663272  0.494894  1
  Sb  Sb13  1  0.262399  0.260889  0.750311  1
  Sb  Sb14  1  0.741141  0.000551  0.750264  1
  Sb  Sb15  1  0.000565  0.738659  0.750290  1
  Sb  Sb16  1  0.740952  0.737039  0.249786  1
  Sb  Sb17  1  0.258650  0.000747  0.249813  1
