# generated using pymatgen
data_Nd8ReOsI8
_symmetry_space_group_name_H-M   'P 1'
_cell_length_a   11.06624763
_cell_length_b   11.06624599
_cell_length_c   6.44674338
_cell_angle_alpha   89.98795292
_cell_angle_beta   89.98794891
_cell_angle_gamma   89.74336983
_symmetry_Int_Tables_number   1
_chemical_formula_structural   Nd8ReOsI8
_chemical_formula_sum   'Nd8 Re1 Os1 I8'
_cell_volume   789.47196309
_cell_formula_units_Z   1
loop_
 _symmetry_equiv_pos_site_id
 _symmetry_equiv_pos_as_xyz
  1  'x, y, z'
loop_
 _atom_site_type_symbol
 _atom_site_label
 _atom_site_symmetry_multiplicity
 _atom_site_fract_x
 _atom_site_fract_y
 _atom_site_fract_z
 _atom_site_occupancy
  Nd  Nd0  1  0.786395  0.087081  0.000870  1
  Nd  Nd1  1  0.087181  0.786320  0.499424  1
  Nd  Nd2  1  0.085005  0.210464  0.000096  1
  Nd  Nd3  1  0.210540  0.084987  0.499753  1
  Nd  Nd4  1  0.915013  0.789460  0.000247  1
  Nd  Nd5  1  0.912919  0.213605  0.499130  1
  Nd  Nd6  1  0.213680  0.912819  0.000576  1
  Nd  Nd7  1  0.789536  0.914995  0.499904  1
  Re  Re8  1  0.000126  0.999874  0.250000  1
  Os  Os9  1  0.999947  0.000053  0.750000  1
  I  I10  1  0.627198  0.158725  0.498993  1
  I  I11  1  0.841772  0.628288  0.496580  1
  I  I12  1  0.371712  0.158228  0.003420  1
  I  I13  1  0.158069  0.371934  0.499509  1
  I  I14  1  0.628066  0.841931  0.000491  1
  I  I15  1  0.372795  0.841227  0.498713  1
  I  I16  1  0.158773  0.627205  0.001287  1
  I  I17  1  0.841275  0.372802  0.001007  1
