# generated using pymatgen
data_Dy(Ag3O4)2
_symmetry_space_group_name_H-M   'P 1'
_cell_length_a   7.15377449
_cell_length_b   7.15377540
_cell_length_c   7.15377500
_cell_angle_alpha   59.99999723
_cell_angle_beta   59.99999300
_cell_angle_gamma   59.99999690
_symmetry_Int_Tables_number   1
_chemical_formula_structural   Dy(Ag3O4)2
_chemical_formula_sum   'Dy1 Ag6 O8'
_cell_volume   258.87539999
_cell_formula_units_Z   1
loop_
 _symmetry_equiv_pos_site_id
 _symmetry_equiv_pos_as_xyz
  1  'x, y, z'
loop_
 _atom_site_type_symbol
 _atom_site_label
 _atom_site_symmetry_multiplicity
 _atom_site_fract_x
 _atom_site_fract_y
 _atom_site_fract_z
 _atom_site_occupancy
  Dy  Dy0  1  0.000000  0.000000  0.000000  1
  Ag  Ag1  1  0.500000  0.000000  0.500000  1
  Ag  Ag2  1  0.500000  0.000000  0.000000  1
  Ag  Ag3  1  0.000000  0.000000  0.500000  1
  Ag  Ag4  1  0.000000  0.500000  0.000000  1
  Ag  Ag5  1  0.000000  0.500000  0.500000  1
  Ag  Ag6  1  0.500000  0.500000  0.000000  1
  O  O7  1  0.862511  0.412465  0.862511  1
  O  O8  1  0.137489  0.137489  0.137489  1
  O  O9  1  0.862511  0.862511  0.862511  1
  O  O10  1  0.587535  0.137489  0.137489  1
  O  O11  1  0.862511  0.862511  0.412465  1
  O  O12  1  0.412465  0.862511  0.862511  1
  O  O13  1  0.137489  0.137489  0.587535  1
  O  O14  1  0.137489  0.587535  0.137489  1
