# generated using pymatgen
data_Sr8Fe7IrO24
_symmetry_space_group_name_H-M   'P 1'
_cell_length_a   7.89509507
_cell_length_b   7.89509505
_cell_length_c   7.89509409
_cell_angle_alpha   90.01071104
_cell_angle_beta   90.01071090
_cell_angle_gamma   90.01071840
_symmetry_Int_Tables_number   1
_chemical_formula_structural   Sr8Fe7IrO24
_chemical_formula_sum   'Sr8 Fe7 Ir1 O24'
_cell_volume   492.12113188
_cell_formula_units_Z   1
loop_
 _symmetry_equiv_pos_site_id
 _symmetry_equiv_pos_as_xyz
  1  'x, y, z'
loop_
 _atom_site_type_symbol
 _atom_site_label
 _atom_site_symmetry_multiplicity
 _atom_site_fract_x
 _atom_site_fract_y
 _atom_site_fract_z
 _atom_site_occupancy
  Sr  Sr0  1  0.757082  0.242882  0.757082  1
  Sr  Sr1  1  0.757107  0.242884  0.242884  1
  Sr  Sr2  1  0.757082  0.757082  0.242882  1
  Sr  Sr3  1  0.242884  0.242884  0.757107  1
  Sr  Sr4  1  0.242843  0.242843  0.242843  1
  Sr  Sr5  1  0.242882  0.757082  0.757082  1
  Sr  Sr6  1  0.242884  0.757107  0.242884  1
  Sr  Sr7  1  0.757112  0.757112  0.757112  1
  Fe  Fe8  1  0.500004  0.999973  0.999973  1
  Fe  Fe9  1  0.500004  0.000010  0.500004  1
  Fe  Fe10  1  0.500004  0.500004  0.000010  1
  Fe  Fe11  1  0.999971  0.999971  0.999971  1
  Fe  Fe12  1  0.999973  0.999973  0.500004  1
  Fe  Fe13  1  0.999973  0.500004  0.999973  1
  Fe  Fe14  1  0.000010  0.500004  0.500004  1
  Ir  Ir15  1  0.500101  0.500101  0.500101  1
  O  O16  1  0.750093  0.999963  0.999963  1
  O  O17  1  0.747102  0.999966  0.500025  1
  O  O18  1  0.747102  0.500025  0.999966  1
  O  O19  1  0.742275  0.499953  0.499953  1
  O  O20  1  0.249893  0.999980  0.999980  1
  O  O21  1  0.252890  0.999997  0.500032  1
  O  O22  1  0.252890  0.500032  0.999997  1
  O  O23  1  0.257726  0.500141  0.500141  1
  O  O24  1  0.500032  0.252890  0.999997  1
  O  O25  1  0.500141  0.257726  0.500141  1
  O  O26  1  0.500025  0.747102  0.999966  1
  O  O27  1  0.499953  0.742275  0.499953  1
  O  O28  1  0.999980  0.249893  0.999980  1
  O  O29  1  0.999997  0.252890  0.500032  1
  O  O30  1  0.999963  0.750093  0.999963  1
  O  O31  1  0.999966  0.747102  0.500025  1
  O  O32  1  0.500025  0.999966  0.747102  1
  O  O33  1  0.500032  0.999997  0.252890  1
  O  O34  1  0.499953  0.499953  0.742275  1
  O  O35  1  0.500141  0.500141  0.257726  1
  O  O36  1  0.999963  0.999963  0.750093  1
  O  O37  1  0.999980  0.999980  0.249893  1
  O  O38  1  0.999966  0.500025  0.747102  1
  O  O39  1  0.999997  0.500032  0.252890  1
