# generated using pymatgen
data_YbPrMnIr3
_symmetry_space_group_name_H-M   'P 1'
_cell_length_a   5.23785232
_cell_length_b   5.52218863
_cell_length_c   5.52218900
_cell_angle_alpha   59.99999182
_cell_angle_beta   58.18740679
_cell_angle_gamma   58.18741032
_symmetry_Int_Tables_number   1
_chemical_formula_structural   YbPrMnIr3
_chemical_formula_sum   'Yb1 Pr1 Mn1 Ir3'
_cell_volume   109.74942677
_cell_formula_units_Z   1
loop_
 _symmetry_equiv_pos_site_id
 _symmetry_equiv_pos_as_xyz
  1  'x, y, z'
loop_
 _atom_site_type_symbol
 _atom_site_label
 _atom_site_symmetry_multiplicity
 _atom_site_fract_x
 _atom_site_fract_y
 _atom_site_fract_z
 _atom_site_occupancy
  Yb  Yb0  1  0.748029  0.750657  0.750657  1
  Pr  Pr1  1  0.495164  0.501612  0.501612  1
  Mn  Mn2  1  0.625058  0.124981  0.124981  1
  Ir  Ir3  1  0.127250  0.123107  0.123107  1
  Ir  Ir4  1  0.127250  0.123107  0.626537  1
  Ir  Ir5  1  0.127250  0.626537  0.123107  1
