# generated using pymatgen
data_Nb6AlAsC2
_symmetry_space_group_name_H-M   'P 1'
_cell_length_a   5.66367603
_cell_length_b   5.66367519
_cell_length_c   8.40647800
_cell_angle_alpha   90.00000000
_cell_angle_beta   90.00000000
_cell_angle_gamma   145.83610418
_symmetry_Int_Tables_number   1
_chemical_formula_structural   Nb6AlAsC2
_chemical_formula_sum   'Nb6 Al1 As1 C2'
_cell_volume   151.42884367
_cell_formula_units_Z   1
loop_
 _symmetry_equiv_pos_site_id
 _symmetry_equiv_pos_as_xyz
  1  'x, y, z'
loop_
 _atom_site_type_symbol
 _atom_site_label
 _atom_site_symmetry_multiplicity
 _atom_site_fract_x
 _atom_site_fract_y
 _atom_site_fract_z
 _atom_site_occupancy
  Nb  Nb0  1  0.869504  0.130494  0.048557  1
  Nb  Nb1  1  0.546893  0.453105  0.250000  1
  Nb  Nb2  1  0.869504  0.130494  0.451443  1
  Nb  Nb3  1  0.132369  0.867629  0.557337  1
  Nb  Nb4  1  0.446139  0.553859  0.750000  1
  Nb  Nb5  1  0.132369  0.867629  0.942663  1
  Al  Al6  1  0.245670  0.754328  0.250000  1
  As  As7  1  0.757202  0.242796  0.750000  1
  C  C8  1  0.500170  0.499828  0.997823  1
  C  C9  1  0.500170  0.499828  0.502177  1
