# generated using pymatgen
data_Ce3TmF15
_symmetry_space_group_name_H-M   'P 1'
_cell_length_a   8.55507804
_cell_length_b   8.55507839
_cell_length_c   8.54903355
_cell_angle_alpha   79.59417854
_cell_angle_beta   79.59417681
_cell_angle_gamma   100.12874124
_symmetry_Int_Tables_number   1
_chemical_formula_structural   Ce3TmF15
_chemical_formula_sum   'Ce6 Tm2 F30'
_cell_volume   591.06215798
_cell_formula_units_Z   2
loop_
 _symmetry_equiv_pos_site_id
 _symmetry_equiv_pos_as_xyz
  1  'x, y, z'
loop_
 _atom_site_type_symbol
 _atom_site_label
 _atom_site_symmetry_multiplicity
 _atom_site_fract_x
 _atom_site_fract_y
 _atom_site_fract_z
 _atom_site_occupancy
  Ce  Ce0  1  0.249435  0.750565  0.750000  1
  Ce  Ce1  1  0.750565  0.249435  0.250000  1
  Ce  Ce2  1  0.821267  0.744268  0.327900  1
  Ce  Ce3  1  0.255732  0.178733  0.172100  1
  Ce  Ce4  1  0.178733  0.255732  0.672100  1
  Ce  Ce5  1  0.744268  0.821267  0.827900  1
  Tm  Tm6  1  0.678525  0.321475  0.750000  1
  Tm  Tm7  1  0.321475  0.678525  0.250000  1
  F  F8  1  0.149029  0.181073  0.947229  1
  F  F9  1  0.684600  0.553212  0.843561  1
  F  F10  1  0.052328  0.655461  0.316018  1
  F  F11  1  0.655461  0.052328  0.816018  1
  F  F12  1  0.553212  0.684600  0.343561  1
  F  F13  1  0.181073  0.149029  0.447229  1
  F  F14  1  0.850971  0.818927  0.052771  1
  F  F15  1  0.315400  0.446788  0.156439  1
  F  F16  1  0.947672  0.344539  0.683982  1
  F  F17  1  0.344539  0.947672  0.183982  1
  F  F18  1  0.446788  0.315400  0.656439  1
  F  F19  1  0.818927  0.850971  0.552771  1
  F  F20  1  0.225090  0.722976  0.011485  1
  F  F21  1  0.223789  0.487801  0.784858  1
  F  F22  1  0.988582  0.718614  0.777228  1
  F  F23  1  0.718614  0.988582  0.277228  1
  F  F24  1  0.487801  0.223789  0.284858  1
  F  F25  1  0.722976  0.225090  0.511485  1
  F  F26  1  0.774910  0.277024  0.988515  1
  F  F27  1  0.776211  0.512199  0.215142  1
  F  F28  1  0.011418  0.281386  0.222772  1
  F  F29  1  0.281386  0.011418  0.722772  1
  F  F30  1  0.512199  0.776211  0.715142  1
  F  F31  1  0.277024  0.774910  0.488515  1
  F  F32  1  0.966888  0.033112  0.750000  1
  F  F33  1  0.534600  0.749224  0.037410  1
  F  F34  1  0.250776  0.465400  0.462590  1
  F  F35  1  0.465400  0.250776  0.962590  1
  F  F36  1  0.749224  0.534600  0.537410  1
  F  F37  1  0.033112  0.966888  0.250000  1
