# generated using pymatgen
data_Sm12Si3GeBr12
_symmetry_space_group_name_H-M   'P 1'
_cell_length_a   10.25558710
_cell_length_b   10.29992745
_cell_length_c   10.30010503
_cell_angle_alpha   109.56178510
_cell_angle_beta   109.38846585
_cell_angle_gamma   109.37557661
_symmetry_Int_Tables_number   1
_chemical_formula_structural   Sm12Si3GeBr12
_chemical_formula_sum   'Sm12 Si3 Ge1 Br12'
_cell_volume   838.46176407
_cell_formula_units_Z   1
loop_
 _symmetry_equiv_pos_site_id
 _symmetry_equiv_pos_as_xyz
  1  'x, y, z'
loop_
 _atom_site_type_symbol
 _atom_site_label
 _atom_site_symmetry_multiplicity
 _atom_site_fract_x
 _atom_site_fract_y
 _atom_site_fract_z
 _atom_site_occupancy
  Sm  Sm0  1  0.475999  0.485370  0.239994  1
  Sm  Sm1  1  0.750003  0.237533  0.262480  1
  Sm  Sm2  1  0.749989  0.013065  0.486914  1
  Sm  Sm3  1  0.236925  0.473848  0.486914  1
  Sm  Sm4  1  0.263994  0.754623  0.239994  1
  Sm  Sm5  1  0.024011  0.260017  0.014640  1
  Sm  Sm6  1  0.012476  0.024946  0.262478  1
  Sm  Sm7  1  0.490629  0.754622  0.014639  1
  Sm  Sm8  1  0.487522  0.237522  0.475041  1
  Sm  Sm9  1  0.009377  0.485364  0.745385  1
  Sm  Sm10  1  0.263071  0.013070  0.026142  1
  Sm  Sm11  1  0.236009  0.260021  0.745384  1
  Si  Si12  1  0.250004  0.249761  0.250259  1
  Si  Si13  1  0.500254  0.000499  0.250258  1
  Si  Si14  1  0.999754  0.249755  0.499508  1
  Ge  Ge15  1  0.249997  0.499999  0.999995  1
  Br  Br16  1  0.250006  0.753928  0.746076  1
  Br  Br17  1  0.508298  0.504303  0.754775  1
  Br  Br18  1  0.991695  0.745223  0.995688  1
  Br  Br19  1  0.746476  0.250471  0.754774  1
  Br  Br20  1  0.996070  0.992147  0.746075  1
  Br  Br21  1  0.250001  0.995294  0.504704  1
  Br  Br22  1  0.754704  0.509410  0.504704  1
  Br  Br23  1  0.503992  0.250464  0.995688  1
  Br  Br24  1  0.753527  0.745228  0.249527  1
  Br  Br25  1  0.745290  0.995291  0.990582  1
  Br  Br26  1  0.996000  0.504299  0.249527  1
  Br  Br27  1  0.503927  0.753927  0.507854  1
