# generated using pymatgen
data_Nb2Co2BP
_symmetry_space_group_name_H-M   'P 1'
_cell_length_a   3.46703600
_cell_length_b   5.99520800
_cell_length_c   6.90171400
_cell_angle_alpha   90.00000000
_cell_angle_beta   90.00000000
_cell_angle_gamma   90.00000000
_symmetry_Int_Tables_number   1
_chemical_formula_structural   Nb2Co2BP
_chemical_formula_sum   'Nb4 Co4 B2 P2'
_cell_volume   143.45628007
_cell_formula_units_Z   2
loop_
 _symmetry_equiv_pos_site_id
 _symmetry_equiv_pos_as_xyz
  1  'x, y, z'
loop_
 _atom_site_type_symbol
 _atom_site_label
 _atom_site_symmetry_multiplicity
 _atom_site_fract_x
 _atom_site_fract_y
 _atom_site_fract_z
 _atom_site_occupancy
  Nb  Nb0  1  0.250000  0.032847  0.830071  1
  Nb  Nb1  1  0.250000  0.532847  0.669929  1
  Nb  Nb2  1  0.750000  0.982940  0.184400  1
  Nb  Nb3  1  0.750000  0.482940  0.315600  1
  Co  Co4  1  0.250000  0.135916  0.431462  1
  Co  Co5  1  0.250000  0.635916  0.068538  1
  Co  Co6  1  0.750000  0.854818  0.550502  1
  Co  Co7  1  0.750000  0.354818  0.949498  1
  B  B8  1  0.250000  0.769729  0.378780  1
  B  B9  1  0.250000  0.269729  0.121220  1
  P  P10  1  0.750000  0.223751  0.616433  1
  P  P11  1  0.750000  0.723751  0.883567  1
