# generated using pymatgen
data_PrNdGd2Se3N2
_symmetry_space_group_name_H-M   'P 1'
_cell_length_a   8.27006039
_cell_length_b   8.27005882
_cell_length_c   6.39108232
_cell_angle_alpha   90.24023477
_cell_angle_beta   90.24023211
_cell_angle_gamma   75.17521284
_symmetry_Int_Tables_number   1
_chemical_formula_structural   PrNdGd2Se3N2
_chemical_formula_sum   'Pr2 Nd2 Gd4 Se6 N4'
_cell_volume   422.55483460
_cell_formula_units_Z   2
loop_
 _symmetry_equiv_pos_site_id
 _symmetry_equiv_pos_as_xyz
  1  'x, y, z'
loop_
 _atom_site_type_symbol
 _atom_site_label
 _atom_site_symmetry_multiplicity
 _atom_site_fract_x
 _atom_site_fract_y
 _atom_site_fract_z
 _atom_site_occupancy
  Pr  Pr0  1  0.058519  0.691516  0.469917  1
  Pr  Pr1  1  0.308484  0.941481  0.030083  1
  Nd  Nd2  1  0.941801  0.309935  0.530011  1
  Nd  Nd3  1  0.690065  0.058199  0.969989  1
  Gd  Gd4  1  0.587849  0.742081  0.572709  1
  Gd  Gd5  1  0.257919  0.412151  0.927291  1
  Gd  Gd6  1  0.412461  0.257829  0.427283  1
  Gd  Gd7  1  0.742171  0.587539  0.072717  1
  Se  Se8  1  0.982969  0.252076  0.033578  1
  Se  Se9  1  0.408719  0.591281  0.250000  1
  Se  Se10  1  0.747924  0.017031  0.466422  1
  Se  Se11  1  0.016238  0.748095  0.966525  1
  Se  Se12  1  0.591842  0.408158  0.750000  1
  Se  Se13  1  0.251905  0.983762  0.533475  1
  N  N14  1  0.824000  0.584505  0.412771  1
  N  N15  1  0.586287  0.824646  0.912344  1
  N  N16  1  0.175354  0.413713  0.587656  1
  N  N17  1  0.415495  0.176000  0.087229  1
