# generated using pymatgen
data_NdEuLu3Pb4
_symmetry_space_group_name_H-M   'P 1'
_cell_length_a   8.24008300
_cell_length_b   8.33256200
_cell_length_c   15.66491800
_cell_angle_alpha   90.00000000
_cell_angle_beta   90.00000000
_cell_angle_gamma   90.00000000
_symmetry_Int_Tables_number   1
_chemical_formula_structural   NdEuLu3Pb4
_chemical_formula_sum   'Nd4 Eu4 Lu12 Pb16'
_cell_volume   1075.56897369
_cell_formula_units_Z   4
loop_
 _symmetry_equiv_pos_site_id
 _symmetry_equiv_pos_as_xyz
  1  'x, y, z'
loop_
 _atom_site_type_symbol
 _atom_site_label
 _atom_site_symmetry_multiplicity
 _atom_site_fract_x
 _atom_site_fract_y
 _atom_site_fract_z
 _atom_site_occupancy
  Nd  Nd0  1  0.526158  0.322215  0.403271  1
  Nd  Nd1  1  0.026158  0.177785  0.096729  1
  Nd  Nd2  1  0.473842  0.677785  0.903271  1
  Nd  Nd3  1  0.973842  0.822215  0.596729  1
  Eu  Eu4  1  0.472179  0.677476  0.596605  1
  Eu  Eu5  1  0.972179  0.822524  0.903395  1
  Eu  Eu6  1  0.527821  0.322524  0.096605  1
  Eu  Eu7  1  0.027821  0.177476  0.403395  1
  Lu  Lu8  1  0.633208  0.156779  0.622548  1
  Lu  Lu9  1  0.133208  0.343221  0.877452  1
  Lu  Lu10  1  0.366792  0.843221  0.122548  1
  Lu  Lu11  1  0.866792  0.656779  0.377452  1
  Lu  Lu12  1  0.366638  0.842986  0.377862  1
  Lu  Lu13  1  0.866638  0.657014  0.122138  1
  Lu  Lu14  1  0.633362  0.157014  0.877862  1
  Lu  Lu15  1  0.133362  0.342986  0.622138  1
  Lu  Lu16  1  0.799485  0.493735  0.749838  1
  Lu  Lu17  1  0.299485  0.006265  0.750162  1
  Lu  Lu18  1  0.200515  0.506265  0.249838  1
  Lu  Lu19  1  0.700515  0.993735  0.250162  1
  Pb  Pb20  1  0.704915  0.959162  0.456298  1
  Pb  Pb21  1  0.204915  0.540838  0.043702  1
  Pb  Pb22  1  0.295085  0.040838  0.956298  1
  Pb  Pb23  1  0.795085  0.459162  0.543702  1
  Pb  Pb24  1  0.295737  0.041548  0.544043  1
  Pb  Pb25  1  0.795737  0.458452  0.955957  1
  Pb  Pb26  1  0.704263  0.958452  0.044043  1
  Pb  Pb27  1  0.204263  0.541548  0.455957  1
  Pb  Pb28  1  0.437999  0.370529  0.750321  1
  Pb  Pb29  1  0.937999  0.129471  0.749679  1
  Pb  Pb30  1  0.562001  0.629471  0.250321  1
  Pb  Pb31  1  0.062001  0.870529  0.249679  1
  Pb  Pb32  1  0.662551  0.850020  0.750107  1
  Pb  Pb33  1  0.162551  0.649980  0.749893  1
  Pb  Pb34  1  0.337449  0.149980  0.250107  1
  Pb  Pb35  1  0.837449  0.350020  0.249893  1
