# generated using pymatgen
data_Hf6Mg3Al13PdPt6
_symmetry_space_group_name_H-M   'P 1'
_cell_length_a   8.82402234
_cell_length_b   8.82402309
_cell_length_c   8.82402310
_cell_angle_alpha   59.97189233
_cell_angle_beta   59.97189915
_cell_angle_gamma   59.97189828
_symmetry_Int_Tables_number   1
_chemical_formula_structural   Hf6Mg3Al13PdPt6
_chemical_formula_sum   'Hf6 Mg3 Al13 Pd1 Pt6'
_cell_volume   485.52099578
_cell_formula_units_Z   1
loop_
 _symmetry_equiv_pos_site_id
 _symmetry_equiv_pos_as_xyz
  1  'x, y, z'
loop_
 _atom_site_type_symbol
 _atom_site_label
 _atom_site_symmetry_multiplicity
 _atom_site_fract_x
 _atom_site_fract_y
 _atom_site_fract_z
 _atom_site_occupancy
  Hf  Hf0  1  0.680107  0.680107  0.319544  1
  Hf  Hf1  1  0.322062  0.678073  0.322062  1
  Hf  Hf2  1  0.678073  0.322062  0.322062  1
  Hf  Hf3  1  0.322062  0.322062  0.678073  1
  Hf  Hf4  1  0.680107  0.319544  0.680107  1
  Hf  Hf5  1  0.319544  0.680107  0.680107  1
  Mg  Mg6  1  0.882082  0.882082  0.355567  1
  Mg  Mg7  1  0.882082  0.355567  0.882082  1
  Mg  Mg8  1  0.355567  0.882082  0.882082  1
  Al  Al9  1  0.879361  0.879361  0.879361  1
  Al  Al10  1  0.121113  0.121113  0.638686  1
  Al  Al11  1  0.121113  0.638686  0.121113  1
  Al  Al12  1  0.638686  0.121113  0.121113  1
  Al  Al13  1  0.119834  0.119834  0.119834  1
  Al  Al14  1  0.662457  0.662457  0.010754  1
  Al  Al15  1  0.662457  0.010754  0.662457  1
  Al  Al16  1  0.010754  0.662457  0.662457  1
  Al  Al17  1  0.663423  0.663423  0.663423  1
  Al  Al18  1  0.336939  0.336939  0.988059  1
  Al  Al19  1  0.336939  0.988059  0.336939  1
  Al  Al20  1  0.988059  0.336939  0.336939  1
  Al  Al21  1  0.337541  0.337541  0.337541  1
  Pd  Pd22  1  0.995199  0.995199  0.995199  1
  Pt  Pt23  1  0.000543  0.000543  0.506422  1
  Pt  Pt24  1  0.497370  0.002187  0.497370  1
  Pt  Pt25  1  0.002187  0.497370  0.497370  1
  Pt  Pt26  1  0.497370  0.497370  0.002187  1
  Pt  Pt27  1  0.000543  0.506422  0.000543  1
  Pt  Pt28  1  0.506422  0.000543  0.000543  1
