# generated using pymatgen
data_LiNb6CoS12
_symmetry_space_group_name_H-M   'P 1'
_cell_length_a   5.80725600
_cell_length_b   5.80725581
_cell_length_c   12.34565200
_cell_angle_alpha   90.00000000
_cell_angle_beta   90.00000000
_cell_angle_gamma   120.00000110
_symmetry_Int_Tables_number   1
_chemical_formula_structural   LiNb6CoS12
_chemical_formula_sum   'Li1 Nb6 Co1 S12'
_cell_volume   360.56750614
_cell_formula_units_Z   1
loop_
 _symmetry_equiv_pos_site_id
 _symmetry_equiv_pos_as_xyz
  1  'x, y, z'
loop_
 _atom_site_type_symbol
 _atom_site_label
 _atom_site_symmetry_multiplicity
 _atom_site_fract_x
 _atom_site_fract_y
 _atom_site_fract_z
 _atom_site_occupancy
  Li  Li0  1  0.666667  0.333333  0.750000  1
  Nb  Nb1  1  0.333333  0.666667  0.011871  1
  Nb  Nb2  1  0.666667  0.333333  0.481776  1
  Nb  Nb3  1  0.333333  0.666667  0.488129  1
  Nb  Nb4  1  0.000000  0.000000  0.017297  1
  Nb  Nb5  1  0.666667  0.333333  0.018224  1
  Nb  Nb6  1  0.000000  0.000000  0.482703  1
  Co  Co7  1  0.333333  0.666667  0.250000  1
  S  S8  1  0.005266  0.667440  0.141540  1
  S  S9  1  0.670058  0.668302  0.612521  1
  S  S10  1  0.005266  0.337826  0.358460  1
  S  S11  1  0.332560  0.337826  0.141540  1
  S  S12  1  0.331698  0.001756  0.612521  1
  S  S13  1  0.331698  0.329942  0.887479  1
  S  S14  1  0.662174  0.667440  0.358460  1
  S  S15  1  0.998244  0.668302  0.887479  1
  S  S16  1  0.670058  0.001756  0.887479  1
  S  S17  1  0.332560  0.994734  0.358460  1
  S  S18  1  0.662174  0.994734  0.141540  1
  S  S19  1  0.998244  0.329942  0.612521  1
