# generated using pymatgen
data_ZrTa11Al8(PdC)4
_symmetry_space_group_name_H-M   'P 1'
_cell_length_a   8.37736317
_cell_length_b   8.42125782
_cell_length_c   8.37736284
_cell_angle_alpha   59.82652322
_cell_angle_beta   59.90763632
_cell_angle_gamma   59.82652483
_symmetry_Int_Tables_number   1
_chemical_formula_structural   ZrTa11Al8(PdC)4
_chemical_formula_sum   'Zr1 Ta11 Al8 Pd4 C4'
_cell_volume   416.51477581
_cell_formula_units_Z   1
loop_
 _symmetry_equiv_pos_site_id
 _symmetry_equiv_pos_as_xyz
  1  'x, y, z'
loop_
 _atom_site_type_symbol
 _atom_site_label
 _atom_site_symmetry_multiplicity
 _atom_site_fract_x
 _atom_site_fract_y
 _atom_site_fract_z
 _atom_site_occupancy
  Zr  Zr0  1  0.562453  0.937547  0.562453  1
  Ta  Ta1  1  0.319641  0.678968  0.681274  1
  Ta  Ta2  1  0.681274  0.320116  0.319641  1
  Ta  Ta3  1  0.318268  0.681732  0.318268  1
  Ta  Ta4  1  0.681274  0.678968  0.319641  1
  Ta  Ta5  1  0.319641  0.320116  0.681274  1
  Ta  Ta6  1  0.568914  0.564913  0.932573  1
  Ta  Ta7  1  0.932573  0.564913  0.568914  1
  Ta  Ta8  1  0.568914  0.933599  0.932573  1
  Ta  Ta9  1  0.932573  0.933599  0.568914  1
  Ta  Ta10  1  0.683775  0.316225  0.683775  1
  Ta  Ta11  1  0.929247  0.570753  0.929247  1
  Al  Al12  1  0.916706  0.915446  0.916706  1
  Al  Al13  1  0.998206  0.334030  0.333731  1
  Al  Al14  1  0.333005  0.997726  0.333005  1
  Al  Al15  1  0.333731  0.334030  0.998206  1
  Al  Al16  1  0.916706  0.251145  0.916706  1
  Al  Al17  1  0.920238  0.914360  0.251043  1
  Al  Al18  1  0.251043  0.914360  0.920238  1
  Al  Al19  1  0.333005  0.336262  0.333005  1
  Pd  Pd20  1  0.124798  0.126332  0.124798  1
  Pd  Pd21  1  0.625754  0.125629  0.122988  1
  Pd  Pd22  1  0.124798  0.624073  0.124798  1
  Pd  Pd23  1  0.122988  0.125629  0.625754  1
  C  C24  1  0.626280  0.619768  0.626280  1
  C  C25  1  0.124206  0.626044  0.623706  1
  C  C26  1  0.626280  0.127672  0.626280  1
  C  C27  1  0.623706  0.626044  0.124206  1
