# generated using pymatgen
data_Pr8Si12HgRh3
_symmetry_space_group_name_H-M   'P 1'
_cell_length_a   8.32162200
_cell_length_b   8.32162195
_cell_length_c   8.63551700
_cell_angle_alpha   90.00000000
_cell_angle_beta   90.00000000
_cell_angle_gamma   120.00000018
_symmetry_Int_Tables_number   1
_chemical_formula_structural   Pr8Si12HgRh3
_chemical_formula_sum   'Pr8 Si12 Hg1 Rh3'
_cell_volume   517.88691851
_cell_formula_units_Z   1
loop_
 _symmetry_equiv_pos_site_id
 _symmetry_equiv_pos_as_xyz
  1  'x, y, z'
loop_
 _atom_site_type_symbol
 _atom_site_label
 _atom_site_symmetry_multiplicity
 _atom_site_fract_x
 _atom_site_fract_y
 _atom_site_fract_z
 _atom_site_occupancy
  Pr  Pr0  1  0.000000  0.000000  0.746854  1
  Pr  Pr1  1  0.000000  0.000000  0.253648  1
  Pr  Pr2  1  0.496209  0.503791  0.743148  1
  Pr  Pr3  1  0.496209  0.992418  0.743148  1
  Pr  Pr4  1  0.007582  0.503791  0.743148  1
  Pr  Pr5  1  0.497593  0.502407  0.256674  1
  Pr  Pr6  1  0.004814  0.502407  0.256674  1
  Pr  Pr7  1  0.497593  0.995186  0.256674  1
  Si  Si8  1  0.843378  0.156622  0.000315  1
  Si  Si9  1  0.843378  0.686754  0.000315  1
  Si  Si10  1  0.313246  0.156622  0.000315  1
  Si  Si11  1  0.832401  0.167599  0.500621  1
  Si  Si12  1  0.832401  0.664803  0.500621  1
  Si  Si13  1  0.335197  0.167599  0.500621  1
  Si  Si14  1  0.166234  0.833766  0.499474  1
  Si  Si15  1  0.667532  0.833766  0.499474  1
  Si  Si16  1  0.166234  0.332468  0.499474  1
  Si  Si17  1  0.169726  0.830274  0.000283  1
  Si  Si18  1  0.660549  0.830274  0.000283  1
  Si  Si19  1  0.169726  0.339451  0.000283  1
  Hg  Hg20  1  0.666667  0.333333  0.996620  1
  Rh  Rh21  1  0.666667  0.333333  0.501925  1
  Rh  Rh22  1  0.333333  0.666667  0.497983  1
  Rh  Rh23  1  0.333333  0.666667  0.001429  1
