# generated using pymatgen
data_YZr2WF15
_symmetry_space_group_name_H-M   'P 1'
_cell_length_a   8.18775188
_cell_length_b   8.18775203
_cell_length_c   8.17744800
_cell_angle_alpha   79.84520959
_cell_angle_beta   79.84520941
_cell_angle_gamma   100.14366245
_symmetry_Int_Tables_number   1
_chemical_formula_structural   YZr2WF15
_chemical_formula_sum   'Y2 Zr4 W2 F30'
_cell_volume   518.88170716
_cell_formula_units_Z   2
loop_
 _symmetry_equiv_pos_site_id
 _symmetry_equiv_pos_as_xyz
  1  'x, y, z'
loop_
 _atom_site_type_symbol
 _atom_site_label
 _atom_site_symmetry_multiplicity
 _atom_site_fract_x
 _atom_site_fract_y
 _atom_site_fract_z
 _atom_site_occupancy
  Y  Y0  1  0.176905  0.823095  0.250000  1
  Y  Y1  1  0.823095  0.176905  0.750000  1
  Zr  Zr2  1  0.747653  0.677465  0.675428  1
  Zr  Zr3  1  0.322535  0.252347  0.824572  1
  Zr  Zr4  1  0.252347  0.322535  0.324572  1
  Zr  Zr5  1  0.677465  0.747653  0.175428  1
  W  W6  1  0.750357  0.249643  0.250000  1
  W  W7  1  0.249643  0.750357  0.750000  1
  F  F8  1  0.317631  0.349479  0.053009  1
  F  F9  1  0.935556  0.815049  0.151837  1
  F  F10  1  0.840371  0.459333  0.682642  1
  F  F11  1  0.459333  0.840371  0.182642  1
  F  F12  1  0.815049  0.935556  0.651837  1
  F  F13  1  0.349479  0.317631  0.553008  1
  F  F14  1  0.682369  0.650521  0.946991  1
  F  F15  1  0.064444  0.184951  0.848163  1
  F  F16  1  0.159629  0.540667  0.317358  1
  F  F17  1  0.540667  0.159629  0.817358  1
  F  F18  1  0.184951  0.064444  0.348163  1
  F  F19  1  0.650521  0.682369  0.446991  1
  F  F20  1  0.777891  0.284711  0.998450  1
  F  F21  1  0.006843  0.279056  0.215194  1
  F  F22  1  0.783936  0.506528  0.222057  1
  F  F23  1  0.506528  0.783936  0.722057  1
  F  F24  1  0.279056  0.006843  0.715194  1
  F  F25  1  0.284711  0.777891  0.498450  1
  F  F26  1  0.222109  0.715289  0.001550  1
  F  F27  1  0.993157  0.720944  0.784806  1
  F  F28  1  0.216064  0.493472  0.777943  1
  F  F29  1  0.493472  0.216064  0.277943  1
  F  F30  1  0.720944  0.993157  0.284806  1
  F  F31  1  0.715289  0.222109  0.501550  1
  F  F32  1  0.471032  0.528968  0.250000  1
  F  F33  1  0.746315  0.955497  0.973587  1
  F  F34  1  0.044503  0.253685  0.526413  1
  F  F35  1  0.253685  0.044503  0.026413  1
  F  F36  1  0.955497  0.746315  0.473587  1
  F  F37  1  0.528968  0.471032  0.750000  1
