# generated using pymatgen
data_Zn10Ag2Ir
_symmetry_space_group_name_H-M   'P 1'
_cell_length_a   8.02267476
_cell_length_b   8.02267584
_cell_length_c   8.00394747
_cell_angle_alpha   70.84707577
_cell_angle_beta   70.84707995
_cell_angle_gamma   109.71289203
_symmetry_Int_Tables_number   1
_chemical_formula_structural   Zn10Ag2Ir
_chemical_formula_sum   'Zn20 Ag4 Ir2'
_cell_volume   398.48241882
_cell_formula_units_Z   2
loop_
 _symmetry_equiv_pos_site_id
 _symmetry_equiv_pos_as_xyz
  1  'x, y, z'
loop_
 _atom_site_type_symbol
 _atom_site_label
 _atom_site_symmetry_multiplicity
 _atom_site_fract_x
 _atom_site_fract_y
 _atom_site_fract_z
 _atom_site_occupancy
  Zn  Zn0  1  0.990498  0.990498  0.799962  1
  Zn  Zn1  1  0.771048  0.771048  0.218163  1
  Zn  Zn2  1  0.213953  0.992035  0.000509  1
  Zn  Zn3  1  0.992035  0.213953  0.000509  1
  Zn  Zn4  1  0.284961  0.284961  0.369567  1
  Zn  Zn5  1  0.007245  0.726134  0.652119  1
  Zn  Zn6  1  0.726134  0.007245  0.652119  1
  Zn  Zn7  1  0.653884  0.653884  0.636352  1
  Zn  Zn8  1  0.374951  0.657716  0.344577  1
  Zn  Zn9  1  0.657716  0.374951  0.344577  1
  Zn  Zn10  1  0.351873  0.738560  0.992106  1
  Zn  Zn11  1  0.616438  0.261391  0.741019  1
  Zn  Zn12  1  0.360116  0.010248  0.263892  1
  Zn  Zn13  1  0.738560  0.351873  0.992106  1
  Zn  Zn14  1  0.010248  0.360116  0.263892  1
  Zn  Zn15  1  0.261391  0.616438  0.741019  1
  Zn  Zn16  1  0.642713  0.642713  0.994046  1
  Zn  Zn17  1  0.980656  0.640451  0.362238  1
  Zn  Zn18  1  0.640451  0.980656  0.362238  1
  Zn  Zn19  1  0.356478  0.356478  0.002131  1
  Ag  Ag20  1  0.005184  0.358414  0.624746  1
  Ag  Ag21  1  0.358414  0.005184  0.624746  1
  Ag  Ag22  1  0.003030  0.003030  0.349000  1
  Ag  Ag23  1  0.361130  0.361130  0.649466  1
  Ir  Ir24  1  0.648138  0.992755  0.009450  1
  Ir  Ir25  1  0.992755  0.648138  0.009450  1
