# generated using pymatgen
data_Ta11(BeSe4)2
_symmetry_space_group_name_H-M   'P 1'
_cell_length_a   11.88870000
_cell_length_b   19.58106000
_cell_length_c   3.42873600
_cell_angle_alpha   90.00000000
_cell_angle_beta   90.00000000
_cell_angle_gamma   90.00000000
_symmetry_Int_Tables_number   1
_chemical_formula_structural   Ta11(BeSe4)2
_chemical_formula_sum   'Ta22 Be4 Se16'
_cell_volume   798.18693292
_cell_formula_units_Z   2
loop_
 _symmetry_equiv_pos_site_id
 _symmetry_equiv_pos_as_xyz
  1  'x, y, z'
loop_
 _atom_site_type_symbol
 _atom_site_label
 _atom_site_symmetry_multiplicity
 _atom_site_fract_x
 _atom_site_fract_y
 _atom_site_fract_z
 _atom_site_occupancy
  Ta  Ta0  1  0.000000  0.000000  0.000000  1
  Ta  Ta1  1  0.679480  0.143585  0.000000  1
  Ta  Ta2  1  0.046844  0.240601  0.000000  1
  Ta  Ta3  1  0.340652  0.288933  0.000000  1
  Ta  Ta4  1  0.560960  0.386955  0.000000  1
  Ta  Ta5  1  0.324634  0.449094  0.000000  1
  Ta  Ta6  1  0.675366  0.550906  0.000000  1
  Ta  Ta7  1  0.439040  0.613045  0.000000  1
  Ta  Ta8  1  0.659348  0.711067  0.000000  1
  Ta  Ta9  1  0.953157  0.759399  0.000000  1
  Ta  Ta10  1  0.320520  0.856414  0.000000  1
  Ta  Ta11  1  0.824634  0.050906  0.500000  1
  Ta  Ta12  1  0.060960  0.113044  0.500000  1
  Ta  Ta13  1  0.840652  0.211067  0.500000  1
  Ta  Ta14  1  0.546844  0.259398  0.500000  1
  Ta  Ta15  1  0.179480  0.356415  0.500000  1
  Ta  Ta16  1  0.500000  0.500000  0.500000  1
  Ta  Ta17  1  0.820520  0.643585  0.500000  1
  Ta  Ta18  1  0.453157  0.740601  0.500000  1
  Ta  Ta19  1  0.159348  0.788933  0.500000  1
  Ta  Ta20  1  0.939040  0.886955  0.500000  1
  Ta  Ta21  1  0.175366  0.949093  0.500000  1
  Be  Be22  1  0.907971  0.129670  0.000000  1
  Be  Be23  1  0.092029  0.870331  0.000000  1
  Be  Be24  1  0.407971  0.370330  0.500000  1
  Be  Be25  1  0.592029  0.629670  0.500000  1
  Se  Se26  1  0.210413  0.056673  0.000000  1
  Se  Se27  1  0.457867  0.173781  0.000000  1
  Se  Se28  1  0.714380  0.285993  0.000000  1
  Se  Se29  1  0.108525  0.446823  0.000000  1
  Se  Se30  1  0.891475  0.553177  0.000000  1
  Se  Se31  1  0.285620  0.714007  0.000000  1
  Se  Se32  1  0.542133  0.826219  0.000000  1
  Se  Se33  1  0.789587  0.943327  0.000000  1
  Se  Se34  1  0.608525  0.053177  0.500000  1
  Se  Se35  1  0.214380  0.214007  0.500000  1
  Se  Se36  1  0.957867  0.326219  0.500000  1
  Se  Se37  1  0.710413  0.443327  0.500000  1
  Se  Se38  1  0.289587  0.556673  0.500000  1
  Se  Se39  1  0.042133  0.673781  0.500000  1
  Se  Se40  1  0.785620  0.785993  0.500000  1
  Se  Se41  1  0.391475  0.946823  0.500000  1
