# generated using pymatgen
data_Hf8CoNiOs2
_symmetry_space_group_name_H-M   'P 1'
_cell_length_a   8.59600562
_cell_length_b   8.59600529
_cell_length_c   8.61029600
_cell_angle_alpha   59.94499028
_cell_angle_beta   59.94499152
_cell_angle_gamma   60.15944424
_symmetry_Int_Tables_number   1
_chemical_formula_structural   Hf8CoNiOs2
_chemical_formula_sum   'Hf16 Co2 Ni2 Os4'
_cell_volume   450.04357579
_cell_formula_units_Z   2
loop_
 _symmetry_equiv_pos_site_id
 _symmetry_equiv_pos_as_xyz
  1  'x, y, z'
loop_
 _atom_site_type_symbol
 _atom_site_label
 _atom_site_symmetry_multiplicity
 _atom_site_fract_x
 _atom_site_fract_y
 _atom_site_fract_z
 _atom_site_occupancy
  Hf  Hf0  1  0.185710  0.608126  0.603081  1
  Hf  Hf1  1  0.608126  0.185710  0.603081  1
  Hf  Hf2  1  0.602550  0.602550  0.193860  1
  Hf  Hf3  1  0.602550  0.602550  0.601039  1
  Hf  Hf4  1  0.815104  0.815104  0.184896  1
  Hf  Hf5  1  0.185162  0.185162  0.814838  1
  Hf  Hf6  1  0.815640  0.185274  0.814006  1
  Hf  Hf7  1  0.185274  0.815640  0.185080  1
  Hf  Hf8  1  0.185274  0.815640  0.814006  1
  Hf  Hf9  1  0.815640  0.185274  0.185080  1
  Hf  Hf10  1  0.456631  0.456631  0.043369  1
  Hf  Hf11  1  0.051364  0.051364  0.448636  1
  Hf  Hf12  1  0.453750  0.043517  0.452127  1
  Hf  Hf13  1  0.043517  0.453750  0.050606  1
  Hf  Hf14  1  0.043517  0.453750  0.452127  1
  Hf  Hf15  1  0.453750  0.043517  0.050606  1
  Co  Co16  1  0.826270  0.390423  0.391653  1
  Co  Co17  1  0.390423  0.826270  0.391653  1
  Ni  Ni18  1  0.390432  0.390432  0.826409  1
  Ni  Ni19  1  0.390432  0.390432  0.392725  1
  Os  Os20  1  0.499763  0.833158  0.833540  1
  Os  Os21  1  0.833158  0.499763  0.833540  1
  Os  Os22  1  0.832981  0.832981  0.500244  1
  Os  Os23  1  0.832981  0.832981  0.833796  1
