# generated using pymatgen
data_Th6Sc4Ir5Ru
_symmetry_space_group_name_H-M   'P 1'
_cell_length_a   6.14415900
_cell_length_b   8.31254873
_cell_length_c   8.32033621
_cell_angle_alpha   119.96905144
_cell_angle_beta   90.00000000
_cell_angle_gamma   90.00000000
_symmetry_Int_Tables_number   1
_chemical_formula_structural   Th6Sc4Ir5Ru
_chemical_formula_sum   'Th6 Sc4 Ir5 Ru1'
_cell_volume   368.13195015
_cell_formula_units_Z   1
loop_
 _symmetry_equiv_pos_site_id
 _symmetry_equiv_pos_as_xyz
  1  'x, y, z'
loop_
 _atom_site_type_symbol
 _atom_site_label
 _atom_site_symmetry_multiplicity
 _atom_site_fract_x
 _atom_site_fract_y
 _atom_site_fract_z
 _atom_site_occupancy
  Th  Th0  1  0.750000  0.739629  0.739374  1
  Th  Th1  1  0.250000  0.261423  0.256829  1
  Th  Th2  1  0.750000  0.000255  0.260626  1
  Th  Th3  1  0.250000  0.004594  0.743171  1
  Th  Th4  1  0.750000  0.259489  0.000000  1
  Th  Th5  1  0.250000  0.737398  0.000000  1
  Sc  Sc6  1  0.000633  0.667444  0.333923  1
  Sc  Sc7  1  0.000633  0.333519  0.666077  1
  Sc  Sc8  1  0.499367  0.333519  0.666077  1
  Sc  Sc9  1  0.499367  0.667444  0.333923  1
  Ir  Ir10  1  0.750000  0.390894  0.391467  1
  Ir  Ir11  1  0.250000  0.610842  0.610336  1
  Ir  Ir12  1  0.750000  0.999427  0.608533  1
  Ir  Ir13  1  0.250000  0.000506  0.389664  1
  Ir  Ir14  1  0.750000  0.608023  0.000000  1
  Ru  Ru15  1  0.250000  0.385593  0.000000  1
