# generated using pymatgen
data_HoScWO6
_symmetry_space_group_name_H-M   'P 1'
_cell_length_a   5.29955900
_cell_length_b   7.55262412
_cell_length_c   11.15878826
_cell_angle_alpha   76.69077909
_cell_angle_beta   90.00000000
_cell_angle_gamma   90.00000000
_symmetry_Int_Tables_number   1
_chemical_formula_structural   HoScWO6
_chemical_formula_sum   'Ho4 Sc4 W4 O24'
_cell_volume   434.64109250
_cell_formula_units_Z   4
loop_
 _symmetry_equiv_pos_site_id
 _symmetry_equiv_pos_as_xyz
  1  'x, y, z'
loop_
 _atom_site_type_symbol
 _atom_site_label
 _atom_site_symmetry_multiplicity
 _atom_site_fract_x
 _atom_site_fract_y
 _atom_site_fract_z
 _atom_site_occupancy
  Ho  Ho0  1  0.756417  0.000000  0.750000  1
  Ho  Ho1  1  0.243583  0.000000  0.250000  1
  Ho  Ho2  1  0.687538  0.500000  0.750000  1
  Ho  Ho3  1  0.312462  0.500000  0.250000  1
  Sc  Sc4  1  0.187697  0.785997  0.586175  1
  Sc  Sc5  1  0.812303  0.785997  0.086175  1
  Sc  Sc6  1  0.187697  0.214003  0.913825  1
  Sc  Sc7  1  0.812303  0.214003  0.413825  1
  W  W8  1  0.262297  0.728316  0.888222  1
  W  W9  1  0.737703  0.728316  0.388222  1
  W  W10  1  0.262297  0.271684  0.611778  1
  W  W11  1  0.737703  0.271684  0.111778  1
  O  O12  1  0.071294  0.954590  0.894443  1
  O  O13  1  0.564454  0.834082  0.936680  1
  O  O14  1  0.928706  0.954590  0.394443  1
  O  O15  1  0.456721  0.794771  0.723261  1
  O  O16  1  0.435546  0.834082  0.436680  1
  O  O17  1  0.981830  0.713647  0.771878  1
  O  O18  1  0.543279  0.794771  0.223261  1
  O  O19  1  0.861553  0.643159  0.551777  1
  O  O20  1  0.357085  0.487905  0.885935  1
  O  O21  1  0.018170  0.713647  0.271878  1
  O  O22  1  0.357085  0.512095  0.614065  1
  O  O23  1  0.861553  0.356841  0.948223  1
  O  O24  1  0.138447  0.643159  0.051777  1
  O  O25  1  0.642915  0.487905  0.385935  1
  O  O26  1  0.981830  0.286353  0.728122  1
  O  O27  1  0.642915  0.512095  0.114065  1
  O  O28  1  0.138447  0.356841  0.448223  1
  O  O29  1  0.456721  0.205229  0.776739  1
  O  O30  1  0.018170  0.286353  0.228122  1
  O  O31  1  0.564454  0.165918  0.563320  1
  O  O32  1  0.543279  0.205229  0.276739  1
  O  O33  1  0.071294  0.045410  0.605557  1
  O  O34  1  0.435546  0.165918  0.063320  1
  O  O35  1  0.928706  0.045410  0.105557  1
