# generated using pymatgen
data_Nd3GeCl3
_symmetry_space_group_name_H-M   'P 1'
_cell_length_a   10.22904722
_cell_length_b   10.22904730
_cell_length_c   10.22904700
_cell_angle_alpha   109.47122400
_cell_angle_beta   109.47122415
_cell_angle_gamma   109.47121696
_symmetry_Int_Tables_number   1
_chemical_formula_structural   Nd3GeCl3
_chemical_formula_sum   'Nd12 Ge4 Cl12'
_cell_volume   823.91732801
_cell_formula_units_Z   4
loop_
 _symmetry_equiv_pos_site_id
 _symmetry_equiv_pos_as_xyz
  1  'x, y, z'
loop_
 _atom_site_type_symbol
 _atom_site_label
 _atom_site_symmetry_multiplicity
 _atom_site_fract_x
 _atom_site_fract_y
 _atom_site_fract_z
 _atom_site_occupancy
  Nd  Nd0  1  0.486122  0.493061  0.243061  1
  Nd  Nd1  1  0.750000  0.243061  0.256939  1
  Nd  Nd2  1  0.750000  0.006939  0.493061  1
  Nd  Nd3  1  0.243061  0.486122  0.493061  1
  Nd  Nd4  1  0.256939  0.750000  0.243061  1
  Nd  Nd5  1  0.013878  0.256939  0.006939  1
  Nd  Nd6  1  0.006939  0.013878  0.256939  1
  Nd  Nd7  1  0.493061  0.750000  0.006939  1
  Nd  Nd8  1  0.493061  0.243061  0.486122  1
  Nd  Nd9  1  0.006939  0.493061  0.750000  1
  Nd  Nd10  1  0.256939  0.006939  0.013878  1
  Nd  Nd11  1  0.243061  0.256939  0.750000  1
  Ge  Ge12  1  0.250000  0.250000  0.250000  1
  Ge  Ge13  1  0.500000  0.000000  0.250000  1
  Ge  Ge14  1  0.000000  0.250000  0.500000  1
  Ge  Ge15  1  0.250000  0.500000  0.000000  1
  Cl  Cl16  1  0.250000  0.749597  0.750403  1
  Cl  Cl17  1  0.499195  0.499597  0.749597  1
  Cl  Cl18  1  0.000805  0.750403  0.000403  1
  Cl  Cl19  1  0.750403  0.250000  0.749597  1
  Cl  Cl20  1  0.000403  0.000805  0.750403  1
  Cl  Cl21  1  0.250000  0.000403  0.499597  1
  Cl  Cl22  1  0.749597  0.499195  0.499597  1
  Cl  Cl23  1  0.499597  0.250000  0.000403  1
  Cl  Cl24  1  0.749597  0.750403  0.250000  1
  Cl  Cl25  1  0.750403  0.000403  0.000805  1
  Cl  Cl26  1  0.000403  0.499597  0.250000  1
  Cl  Cl27  1  0.499597  0.749597  0.499195  1
