# generated using pymatgen
data_Th6Pd2RuAu5
_symmetry_space_group_name_H-M   'P 1'
_cell_length_a   8.22698375
_cell_length_b   8.27241089
_cell_length_c   8.28043255
_cell_angle_alpha   114.70533893
_cell_angle_beta   113.74397538
_cell_angle_gamma   114.17867387
_symmetry_Int_Tables_number   1
_chemical_formula_structural   Th6Pd2RuAu5
_chemical_formula_sum   'Th6 Pd2 Ru1 Au5'
_cell_volume   336.98356195
_cell_formula_units_Z   1
loop_
 _symmetry_equiv_pos_site_id
 _symmetry_equiv_pos_as_xyz
  1  'x, y, z'
loop_
 _atom_site_type_symbol
 _atom_site_label
 _atom_site_symmetry_multiplicity
 _atom_site_fract_x
 _atom_site_fract_y
 _atom_site_fract_z
 _atom_site_occupancy
  Th  Th0  1  0.034124  0.395777  0.281831  1
  Th  Th1  1  0.387678  0.267892  0.021274  1
  Th  Th2  1  0.722809  0.971053  0.619332  1
  Th  Th3  1  0.270833  0.026576  0.384189  1
  Th  Th4  1  0.612812  0.729173  0.968307  1
  Th  Th5  1  0.977116  0.617661  0.729591  1
  Pd  Pd6  1  0.498774  0.498050  0.497067  1
  Pd  Pd7  1  0.424035  0.928208  0.766793  1
  Ru  Ru8  1  0.003092  0.002394  0.002786  1
  Au  Au9  1  0.930641  0.765877  0.428824  1
  Au  Au10  1  0.234609  0.572670  0.071557  1
  Au  Au11  1  0.762445  0.420787  0.925221  1
  Au  Au12  1  0.068640  0.231376  0.573438  1
  Au  Au13  1  0.572393  0.072507  0.229788  1
