# generated using pymatgen
data_Y2ErMgAl2Si2Pd
_symmetry_space_group_name_H-M   'P 1'
_cell_length_a   7.02479200
_cell_length_b   6.95299403
_cell_length_c   4.28122800
_cell_angle_alpha   90.00000000
_cell_angle_beta   90.00000000
_cell_angle_gamma   120.34217971
_symmetry_Int_Tables_number   1
_chemical_formula_structural   Y2ErMgAl2Si2Pd
_chemical_formula_sum   'Y2 Er1 Mg1 Al2 Si2 Pd1'
_cell_volume   180.46646207
_cell_formula_units_Z   1
loop_
 _symmetry_equiv_pos_site_id
 _symmetry_equiv_pos_as_xyz
  1  'x, y, z'
loop_
 _atom_site_type_symbol
 _atom_site_label
 _atom_site_symmetry_multiplicity
 _atom_site_fract_x
 _atom_site_fract_y
 _atom_site_fract_z
 _atom_site_occupancy
  Y  Y0  1  0.997673  0.418425  0.000000  1
  Y  Y1  1  0.579247  0.581574  0.000000  1
  Er  Er2  1  0.415758  0.000000  0.000000  1
  Mg  Mg3  1  0.760297  0.000000  0.500000  1
  Al  Al4  1  0.241485  0.237237  0.500000  1
  Al  Al5  1  0.004249  0.762765  0.500000  1
  Si  Si6  1  0.661770  0.338861  0.500000  1
  Si  Si7  1  0.322910  0.661140  0.500000  1
  Pd  Pd8  1  0.016613  0.000000  0.000000  1
