# generated using pymatgen
data_ThTa3(NbSn2)3
_symmetry_space_group_name_H-M   'P 1'
_cell_length_a   5.82364402
_cell_length_b   5.82538240
_cell_length_c   9.61530900
_cell_angle_alpha   90.00000000
_cell_angle_beta   90.00000000
_cell_angle_gamma   119.99980719
_symmetry_Int_Tables_number   1
_chemical_formula_structural   ThTa3(NbSn2)3
_chemical_formula_sum   'Th1 Ta3 Nb3 Sn6'
_cell_volume   282.49709120
_cell_formula_units_Z   1
loop_
 _symmetry_equiv_pos_site_id
 _symmetry_equiv_pos_as_xyz
  1  'x, y, z'
loop_
 _atom_site_type_symbol
 _atom_site_label
 _atom_site_symmetry_multiplicity
 _atom_site_fract_x
 _atom_site_fract_y
 _atom_site_fract_z
 _atom_site_occupancy
  Th  Th0  1  0.000000  0.000000  0.999905  1
  Ta  Ta1  1  0.000000  0.500000  0.751517  1
  Ta  Ta2  1  0.500000  0.500000  0.751119  1
  Ta  Ta3  1  0.000000  0.500000  0.248722  1
  Nb  Nb4  1  0.500000  0.000000  0.751369  1
  Nb  Nb5  1  0.500000  0.500000  0.248483  1
  Nb  Nb6  1  0.500000  0.000000  0.249170  1
  Sn  Sn7  1  0.666879  0.333485  0.499954  1
  Sn  Sn8  1  0.333121  0.666515  0.499954  1
  Sn  Sn9  1  0.666477  0.333054  0.000043  1
  Sn  Sn10  1  0.333523  0.666946  0.000043  1
  Sn  Sn11  1  0.000000  0.000000  0.655643  1
  Sn  Sn12  1  0.000000  0.000000  0.344077  1
