# generated using pymatgen
data_Y7HoGePd24
_symmetry_space_group_name_H-M   'P 1'
_cell_length_a   8.36954200
_cell_length_b   8.36954200
_cell_length_c   8.36954200
_cell_angle_alpha   89.99841178
_cell_angle_beta   89.99841178
_cell_angle_gamma   89.99841178
_symmetry_Int_Tables_number   1
_chemical_formula_structural   Y7HoGePd24
_chemical_formula_sum   'Y7 Ho1 Ge1 Pd24'
_cell_volume   586.27999975
_cell_formula_units_Z   1
loop_
 _symmetry_equiv_pos_site_id
 _symmetry_equiv_pos_as_xyz
  1  'x, y, z'
loop_
 _atom_site_type_symbol
 _atom_site_label
 _atom_site_symmetry_multiplicity
 _atom_site_fract_x
 _atom_site_fract_y
 _atom_site_fract_z
 _atom_site_occupancy
  Y  Y0  1  0.746784  0.746784  0.746784  1
  Y  Y1  1  0.746785  0.746785  0.253217  1
  Y  Y2  1  0.746785  0.253217  0.746785  1
  Y  Y3  1  0.253232  0.253232  0.746763  1
  Y  Y4  1  0.253232  0.746763  0.253232  1
  Y  Y5  1  0.253217  0.746785  0.746785  1
  Y  Y6  1  0.746763  0.253232  0.253232  1
  Ho  Ho7  1  0.253316  0.253316  0.253316  1
  Ge  Ge8  1  0.999958  0.999958  0.999958  1
  Pd  Pd9  1  0.259895  0.499767  0.000233  1
  Pd  Pd10  1  0.740110  0.500004  0.000011  1
  Pd  Pd11  1  0.000233  0.259895  0.499767  1
  Pd  Pd12  1  0.499767  0.259895  0.000233  1
  Pd  Pd13  1  0.000011  0.740110  0.500004  1
  Pd  Pd14  1  0.500004  0.740110  0.000011  1
  Pd  Pd15  1  0.499767  0.000233  0.259895  1
  Pd  Pd16  1  0.259895  0.000233  0.499767  1
  Pd  Pd17  1  0.500004  0.000011  0.740110  1
  Pd  Pd18  1  0.740110  0.000011  0.500004  1
  Pd  Pd19  1  0.000233  0.499767  0.259895  1
  Pd  Pd20  1  0.000011  0.500004  0.740110  1
  Pd  Pd21  1  0.253404  0.499737  0.499737  1
  Pd  Pd22  1  0.746603  0.499991  0.499991  1
  Pd  Pd23  1  0.499737  0.253404  0.499737  1
  Pd  Pd24  1  0.499991  0.746603  0.499991  1
  Pd  Pd25  1  0.499737  0.499737  0.253404  1
  Pd  Pd26  1  0.499991  0.499991  0.746603  1
  Pd  Pd27  1  0.289232  0.000216  0.000216  1
  Pd  Pd28  1  0.710759  0.000002  0.000002  1
  Pd  Pd29  1  0.000216  0.289232  0.000216  1
  Pd  Pd30  1  0.000002  0.710759  0.000002  1
  Pd  Pd31  1  0.000216  0.000216  0.289232  1
  Pd  Pd32  1  0.000002  0.000002  0.710759  1
