# generated using pymatgen
data_Ca4Ta(MoO4)3
_symmetry_space_group_name_H-M   'P 1'
_cell_length_a   5.53898234
_cell_length_b   5.74302634
_cell_length_c   7.95441743
_cell_angle_alpha   89.96302919
_cell_angle_beta   90.37964831
_cell_angle_gamma   90.46533102
_symmetry_Int_Tables_number   1
_chemical_formula_structural   Ca4Ta(MoO4)3
_chemical_formula_sum   'Ca4 Ta1 Mo3 O12'
_cell_volume   253.02022298
_cell_formula_units_Z   1
loop_
 _symmetry_equiv_pos_site_id
 _symmetry_equiv_pos_as_xyz
  1  'x, y, z'
loop_
 _atom_site_type_symbol
 _atom_site_label
 _atom_site_symmetry_multiplicity
 _atom_site_fract_x
 _atom_site_fract_y
 _atom_site_fract_z
 _atom_site_occupancy
  Ca  Ca0  1  0.985451  0.948809  0.751942  1
  Ca  Ca1  1  0.487928  0.553757  0.252488  1
  Ca  Ca2  1  0.512072  0.446243  0.747512  1
  Ca  Ca3  1  0.014549  0.051191  0.248058  1
  Ta  Ta4  1  0.000000  0.500000  0.500000  1
  Mo  Mo5  1  0.500000  0.000000  0.000000  1
  Mo  Mo6  1  0.500000  0.000000  0.500000  1
  Mo  Mo7  1  0.000000  0.500000  0.000000  1
  O  O8  1  0.605533  0.957378  0.242742  1
  O  O9  1  0.187328  0.788248  0.443113  1
  O  O10  1  0.199691  0.796345  0.050548  1
  O  O11  1  0.707721  0.699083  0.940534  1
  O  O12  1  0.707450  0.689982  0.547337  1
  O  O13  1  0.101727  0.539683  0.742566  1
  O  O14  1  0.898273  0.460317  0.257434  1
  O  O15  1  0.292550  0.310018  0.452663  1
  O  O16  1  0.292279  0.300917  0.059466  1
  O  O17  1  0.800309  0.203655  0.949452  1
  O  O18  1  0.812672  0.211752  0.556887  1
  O  O19  1  0.394467  0.042622  0.757258  1
