# generated using pymatgen
data_NdDy3(Ni7P4)2
_symmetry_space_group_name_H-M   'P 1'
_cell_length_a   3.70332600
_cell_length_b   9.17275400
_cell_length_c   10.29718963
_cell_angle_alpha   89.96650259
_cell_angle_beta   90.00000000
_cell_angle_gamma   90.00000000
_symmetry_Int_Tables_number   1
_chemical_formula_structural   NdDy3(Ni7P4)2
_chemical_formula_sum   'Nd1 Dy3 Ni14 P8'
_cell_volume   349.79236629
_cell_formula_units_Z   1
loop_
 _symmetry_equiv_pos_site_id
 _symmetry_equiv_pos_as_xyz
  1  'x, y, z'
loop_
 _atom_site_type_symbol
 _atom_site_label
 _atom_site_symmetry_multiplicity
 _atom_site_fract_x
 _atom_site_fract_y
 _atom_site_fract_z
 _atom_site_occupancy
  Nd  Nd0  1  0.000000  0.561978  0.999853  1
  Dy  Dy1  1  0.500000  0.434915  0.499291  1
  Dy  Dy2  1  0.500000  0.057861  0.283096  1
  Dy  Dy3  1  0.000000  0.941496  0.781717  1
  Ni  Ni4  1  0.500000  0.302528  0.079960  1
  Ni  Ni5  1  0.500000  0.745789  0.404737  1
  Ni  Ni6  1  0.500000  0.415832  0.799742  1
  Ni  Ni7  1  0.500000  0.057327  0.977810  1
  Ni  Ni8  1  0.500000  0.686971  0.763419  1
  Ni  Ni9  1  0.000000  0.274214  0.667458  1
  Ni  Ni10  1  0.000000  0.250212  0.903108  1
  Ni  Ni11  1  0.000000  0.694758  0.573183  1
  Ni  Ni12  1  0.500000  0.097726  0.583769  1
  Ni  Ni13  1  0.000000  0.314136  0.268056  1
  Ni  Ni14  1  0.000000  0.582496  0.311676  1
  Ni  Ni15  1  0.000000  0.905542  0.085341  1
  Ni  Ni16  1  0.000000  0.943992  0.478219  1
  Ni  Ni17  1  0.500000  0.728697  0.169906  1
  P  P18  1  0.000000  0.819362  0.288639  1
  P  P19  1  0.000000  0.190024  0.463735  1
  P  P20  1  0.500000  0.179432  0.787689  1
  P  P21  1  0.000000  0.155554  0.094642  1
  P  P22  1  0.500000  0.479147  0.220786  1
  P  P23  1  0.500000  0.812706  0.963918  1
  P  P24  1  0.500000  0.846826  0.593120  1
  P  P25  1  0.000000  0.520480  0.712532  1
