# generated using pymatgen
data_Li4Tb3PrSi8
_symmetry_space_group_name_H-M   'P 1'
_cell_length_a   3.83553500
_cell_length_b   7.65734424
_cell_length_c   10.28918633
_cell_angle_alpha   89.80821555
_cell_angle_beta   90.00000000
_cell_angle_gamma   90.00000000
_symmetry_Int_Tables_number   1
_chemical_formula_structural   Li4Tb3PrSi8
_chemical_formula_sum   'Li4 Tb3 Pr1 Si8'
_cell_volume   302.19183113
_cell_formula_units_Z   1
loop_
 _symmetry_equiv_pos_site_id
 _symmetry_equiv_pos_as_xyz
  1  'x, y, z'
loop_
 _atom_site_type_symbol
 _atom_site_label
 _atom_site_symmetry_multiplicity
 _atom_site_fract_x
 _atom_site_fract_y
 _atom_site_fract_z
 _atom_site_occupancy
  Li  Li0  1  0.250000  0.992151  0.392645  1
  Li  Li1  1  0.250000  0.489635  0.105949  1
  Li  Li2  1  0.750000  0.009970  0.609107  1
  Li  Li3  1  0.750000  0.510567  0.893267  1
  Tb  Tb4  1  0.250000  0.135726  0.863963  1
  Tb  Tb5  1  0.250000  0.638130  0.636709  1
  Tb  Tb6  1  0.750000  0.862314  0.134902  1
  Pr  Pr7  1  0.750000  0.359319  0.363816  1
  Si  Si8  1  0.250000  0.230084  0.575526  1
  Si  Si9  1  0.250000  0.732774  0.930689  1
  Si  Si10  1  0.750000  0.772115  0.431183  1
  Si  Si11  1  0.750000  0.263734  0.064440  1
  Si  Si12  1  0.250000  0.665420  0.318966  1
  Si  Si13  1  0.250000  0.154703  0.174971  1
  Si  Si14  1  0.750000  0.341728  0.683902  1
  Si  Si15  1  0.750000  0.841632  0.819966  1
