# generated using pymatgen
data_La8Ho11LuSi16
_symmetry_space_group_name_H-M   'P 1'
_cell_length_a   7.83145042
_cell_length_b   7.83145055
_cell_length_c   14.50061100
_cell_angle_alpha   90.01880973
_cell_angle_beta   89.98119027
_cell_angle_gamma   90.01021215
_symmetry_Int_Tables_number   1
_chemical_formula_structural   La8Ho11LuSi16
_chemical_formula_sum   'La8 Ho11 Lu1 Si16'
_cell_volume   889.34580560
_cell_formula_units_Z   1
loop_
 _symmetry_equiv_pos_site_id
 _symmetry_equiv_pos_as_xyz
  1  'x, y, z'
loop_
 _atom_site_type_symbol
 _atom_site_label
 _atom_site_symmetry_multiplicity
 _atom_site_fract_x
 _atom_site_fract_y
 _atom_site_fract_z
 _atom_site_occupancy
  La  La0  1  0.991560  0.642279  0.041055  1
  La  La1  1  0.008782  0.356955  0.541033  1
  La  La2  1  0.642279  0.991560  0.958945  1
  La  La3  1  0.142710  0.508419  0.790899  1
  La  La4  1  0.857668  0.491168  0.290197  1
  La  La5  1  0.508419  0.142710  0.209101  1
  La  La6  1  0.491168  0.857668  0.709803  1
  La  La7  1  0.356955  0.008782  0.458967  1
  Ho  Ho8  1  0.360675  0.492114  0.374631  1
  Ho  Ho9  1  0.860611  0.007632  0.374537  1
  Ho  Ho10  1  0.992602  0.139089  0.124619  1
  Ho  Ho11  1  0.007632  0.860611  0.625463  1
  Ho  Ho12  1  0.639310  0.507354  0.875705  1
  Ho  Ho13  1  0.492114  0.360675  0.625369  1
  Ho  Ho14  1  0.507354  0.639310  0.124295  1
  Ho  Ho15  1  0.139089  0.992602  0.875381  1
  Ho  Ho16  1  0.682610  0.682610  0.500000  1
  Ho  Ho17  1  0.818005  0.182896  0.750184  1
  Ho  Ho18  1  0.182896  0.818005  0.249816  1
  Lu  Lu19  1  0.317507  0.317507  0.000000  1
  Si  Si20  1  0.064732  0.710793  0.438080  1
  Si  Si21  1  0.936473  0.289474  0.938127  1
  Si  Si22  1  0.710793  0.064732  0.561920  1
  Si  Si23  1  0.211773  0.434477  0.186555  1
  Si  Si24  1  0.788549  0.564821  0.688506  1
  Si  Si25  1  0.434477  0.211773  0.813445  1
  Si  Si26  1  0.564821  0.788549  0.311494  1
  Si  Si27  1  0.289474  0.936473  0.061873  1
  Si  Si28  1  0.847443  0.795917  0.809162  1
  Si  Si29  1  0.153112  0.203282  0.308189  1
  Si  Si30  1  0.795917  0.847443  0.190838  1
  Si  Si31  1  0.295865  0.652507  0.558980  1
  Si  Si32  1  0.703481  0.347358  0.058888  1
  Si  Si33  1  0.652507  0.295865  0.441020  1
  Si  Si34  1  0.347358  0.703481  0.941112  1
  Si  Si35  1  0.203282  0.153112  0.691811  1
