# generated using pymatgen
data_Hf8In4PdPtAu6
_symmetry_space_group_name_H-M   'P 1'
_cell_length_a   7.56342125
_cell_length_b   7.56342133
_cell_length_c   7.01377590
_cell_angle_alpha   89.95908896
_cell_angle_beta   90.04091043
_cell_angle_gamma   89.91612507
_symmetry_Int_Tables_number   1
_chemical_formula_structural   Hf8In4PdPtAu6
_chemical_formula_sum   'Hf8 In4 Pd1 Pt1 Au6'
_cell_volume   401.22481119
_cell_formula_units_Z   1
loop_
 _symmetry_equiv_pos_site_id
 _symmetry_equiv_pos_as_xyz
  1  'x, y, z'
loop_
 _atom_site_type_symbol
 _atom_site_label
 _atom_site_symmetry_multiplicity
 _atom_site_fract_x
 _atom_site_fract_y
 _atom_site_fract_z
 _atom_site_occupancy
  Hf  Hf0  1  0.152425  0.135885  0.001641  1
  Hf  Hf1  1  0.864115  0.847575  0.001641  1
  Hf  Hf2  1  0.644864  0.355136  0.500371  1
  Hf  Hf3  1  0.345917  0.654083  0.498116  1
  Hf  Hf4  1  0.692562  0.307438  0.999682  1
  Hf  Hf5  1  0.298745  0.701255  0.001808  1
  Hf  Hf6  1  0.818709  0.806782  0.498890  1
  Hf  Hf7  1  0.193218  0.181291  0.498890  1
  In  In8  1  0.499442  0.999904  0.251590  1
  In  In9  1  0.496696  0.998739  0.749071  1
  In  In10  1  0.000096  0.500558  0.251590  1
  In  In11  1  0.001261  0.503304  0.749071  1
  Pd  Pd12  1  0.130441  0.869559  0.706801  1
  Pt  Pt13  1  0.129475  0.870525  0.289063  1
  Au  Au14  1  0.367458  0.370784  0.208400  1
  Au  Au15  1  0.629521  0.632712  0.791385  1
  Au  Au16  1  0.629216  0.632542  0.208400  1
  Au  Au17  1  0.870509  0.129491  0.710301  1
  Au  Au18  1  0.868045  0.131955  0.291905  1
  Au  Au19  1  0.367288  0.370479  0.791385  1
