# generated using pymatgen
data_LiPr8HgIr2
_symmetry_space_group_name_H-M   'P 1'
_cell_length_a   10.03997174
_cell_length_b   10.03997308
_cell_length_c   10.00236200
_cell_angle_alpha   60.12385051
_cell_angle_beta   60.12384612
_cell_angle_gamma   60.38211419
_symmetry_Int_Tables_number   1
_chemical_formula_structural   LiPr8HgIr2
_chemical_formula_sum   'Li2 Pr16 Hg2 Ir4'
_cell_volume   716.31865577
_cell_formula_units_Z   2
loop_
 _symmetry_equiv_pos_site_id
 _symmetry_equiv_pos_as_xyz
  1  'x, y, z'
loop_
 _atom_site_type_symbol
 _atom_site_label
 _atom_site_symmetry_multiplicity
 _atom_site_fract_x
 _atom_site_fract_y
 _atom_site_fract_z
 _atom_site_occupancy
  Li  Li0  1  0.577190  0.286221  0.568295  1
  Li  Li1  1  0.286221  0.577190  0.568295  1
  Pr  Pr2  1  0.347111  0.347111  0.346411  1
  Pr  Pr3  1  0.347111  0.347111  0.959367  1
  Pr  Pr4  1  0.348664  0.952829  0.349254  1
  Pr  Pr5  1  0.952829  0.348664  0.349254  1
  Pr  Pr6  1  0.809698  0.188614  0.189663  1
  Pr  Pr7  1  0.188614  0.809698  0.812025  1
  Pr  Pr8  1  0.188614  0.809698  0.189663  1
  Pr  Pr9  1  0.809698  0.188614  0.812025  1
  Pr  Pr10  1  0.184304  0.184304  0.815696  1
  Pr  Pr11  1  0.804178  0.804178  0.195822  1
  Pr  Pr12  1  0.938402  0.560691  0.561118  1
  Pr  Pr13  1  0.560691  0.938402  0.939789  1
  Pr  Pr14  1  0.560691  0.938402  0.561118  1
  Pr  Pr15  1  0.938402  0.560691  0.939789  1
  Pr  Pr16  1  0.561005  0.561005  0.938995  1
  Pr  Pr17  1  0.937763  0.937763  0.562237  1
  Hg  Hg18  1  0.580525  0.580525  0.588806  1
  Hg  Hg19  1  0.580525  0.580525  0.250145  1
  Ir  Ir20  1  0.141415  0.141415  0.141756  1
  Ir  Ir21  1  0.141415  0.141415  0.575413  1
  Ir  Ir22  1  0.141106  0.573828  0.142533  1
  Ir  Ir23  1  0.573828  0.141106  0.142533  1
