# generated using pymatgen
data_Yb2ErAl3Ge2Pd
_symmetry_space_group_name_H-M   'P 1'
_cell_length_a   6.95655813
_cell_length_b   6.95655833
_cell_length_c   4.30846800
_cell_angle_alpha   90.00000000
_cell_angle_beta   90.00000000
_cell_angle_gamma   120.30182237
_symmetry_Int_Tables_number   1
_chemical_formula_structural   Yb2ErAl3Ge2Pd
_chemical_formula_sum   'Yb2 Er1 Al3 Ge2 Pd1'
_cell_volume   180.01697317
_cell_formula_units_Z   1
loop_
 _symmetry_equiv_pos_site_id
 _symmetry_equiv_pos_as_xyz
  1  'x, y, z'
loop_
 _atom_site_type_symbol
 _atom_site_label
 _atom_site_symmetry_multiplicity
 _atom_site_fract_x
 _atom_site_fract_y
 _atom_site_fract_z
 _atom_site_occupancy
  Yb  Yb0  1  0.421169  0.000389  0.000000  1
  Yb  Yb1  1  0.000389  0.421170  0.000000  1
  Er  Er2  1  0.580727  0.580727  0.000000  1
  Al  Al3  1  0.765437  0.997684  0.500001  1
  Al  Al4  1  0.235179  0.235179  0.500001  1
  Al  Al5  1  0.997684  0.765437  0.500001  1
  Ge  Ge6  1  0.665214  0.336700  0.500001  1
  Ge  Ge7  1  0.336701  0.665214  0.500001  1
  Pd  Pd8  1  0.997501  0.997501  0.000000  1
