# generated using pymatgen
data_Hf3UCo16Si7W2
_symmetry_space_group_name_H-M   'P 1'
_cell_length_a   7.97951699
_cell_length_b   8.01385127
_cell_length_c   7.98476544
_cell_angle_alpha   59.83605186
_cell_angle_beta   60.27446637
_cell_angle_gamma   59.90094758
_symmetry_Int_Tables_number   1
_chemical_formula_structural   Hf3UCo16Si7W2
_chemical_formula_sum   'Hf3 U1 Co16 Si7 W2'
_cell_volume   361.06702470
_cell_formula_units_Z   1
loop_
 _symmetry_equiv_pos_site_id
 _symmetry_equiv_pos_as_xyz
  1  'x, y, z'
loop_
 _atom_site_type_symbol
 _atom_site_label
 _atom_site_symmetry_multiplicity
 _atom_site_fract_x
 _atom_site_fract_y
 _atom_site_fract_z
 _atom_site_occupancy
  Hf  Hf0  1  0.214089  0.203964  0.785911  1
  Hf  Hf1  1  0.799432  0.198730  0.793685  1
  Hf  Hf2  1  0.206315  0.791846  0.200568  1
  U  U3  1  0.785814  0.210834  0.214186  1
  Co  Co4  1  0.621059  0.624169  0.143727  1
  Co  Co5  1  0.163191  0.500298  0.170025  1
  Co  Co6  1  0.856273  0.388955  0.378941  1
  Co  Co7  1  0.505375  0.833494  0.832406  1
  Co  Co8  1  0.506985  0.165836  0.169416  1
  Co  Co9  1  0.830584  0.842235  0.493015  1
  Co  Co10  1  0.167594  0.171276  0.494625  1
  Co  Co11  1  0.142397  0.621501  0.620525  1
  Co  Co12  1  0.157138  0.168856  0.170146  1
  Co  Co13  1  0.379475  0.384422  0.857603  1
  Co  Co14  1  0.617335  0.620253  0.614423  1
  Co  Co15  1  0.385577  0.852010  0.382665  1
  Co  Co16  1  0.379398  0.381805  0.377002  1
  Co  Co17  1  0.829975  0.833513  0.836809  1
  Co  Co18  1  0.622998  0.138205  0.620602  1
  Co  Co19  1  0.829854  0.496140  0.842862  1
  Si  Si20  1  0.492866  0.982081  0.507134  1
  Si  Si21  1  0.490579  0.509146  0.986211  1
  Si  Si22  1  0.497460  0.494767  0.502540  1
  Si  Si23  1  0.013789  0.985936  0.509421  1
  Si  Si24  1  0.011076  0.507543  0.988924  1
  Si  Si25  1  0.992839  0.505236  0.502429  1
  Si  Si26  1  0.497571  0.000503  0.007161  1
  W  W27  1  0.198555  0.799135  0.801445  1
  W  W28  1  0.804406  0.787314  0.195594  1
