# generated using pymatgen
data_Tb14Y2MgAg3Rh4
_symmetry_space_group_name_H-M   'P 1'
_cell_length_a   9.57412380
_cell_length_b   9.59623541
_cell_length_c   9.59898791
_cell_angle_alpha   60.23129411
_cell_angle_beta   60.27226625
_cell_angle_gamma   60.23820048
_symmetry_Int_Tables_number   1
_chemical_formula_structural   Tb14Y2MgAg3Rh4
_chemical_formula_sum   'Tb14 Y2 Mg1 Ag3 Rh4'
_cell_volume   627.09630920
_cell_formula_units_Z   1
loop_
 _symmetry_equiv_pos_site_id
 _symmetry_equiv_pos_as_xyz
  1  'x, y, z'
loop_
 _atom_site_type_symbol
 _atom_site_label
 _atom_site_symmetry_multiplicity
 _atom_site_fract_x
 _atom_site_fract_y
 _atom_site_fract_z
 _atom_site_occupancy
  Tb  Tb0  1  0.601316  0.598781  0.598520  1
  Tb  Tb1  1  0.599782  0.598576  0.202711  1
  Tb  Tb2  1  0.600327  0.202140  0.598412  1
  Tb  Tb3  1  0.185513  0.605079  0.604508  1
  Tb  Tb4  1  0.060060  0.438202  0.438656  1
  Tb  Tb5  1  0.436358  0.062836  0.062586  1
  Tb  Tb6  1  0.436029  0.063041  0.436582  1
  Tb  Tb7  1  0.059405  0.439197  0.060693  1
  Tb  Tb8  1  0.435676  0.436205  0.063339  1
  Tb  Tb9  1  0.060026  0.061092  0.438770  1
  Tb  Tb10  1  0.184413  0.813898  0.814166  1
  Tb  Tb11  1  0.815172  0.185640  0.185236  1
  Tb  Tb12  1  0.813576  0.185975  0.814998  1
  Tb  Tb13  1  0.184512  0.814190  0.186897  1
  Y  Y14  1  0.814054  0.815445  0.185885  1
  Y  Y15  1  0.184215  0.186357  0.814491  1
  Mg  Mg16  1  0.539839  0.820262  0.821102  1
  Ag  Ag17  1  0.832688  0.835248  0.834836  1
  Ag  Ag18  1  0.832668  0.835191  0.498742  1
  Ag  Ag19  1  0.832736  0.498446  0.835138  1
  Rh  Rh20  1  0.388278  0.394112  0.394529  1
  Rh  Rh21  1  0.390490  0.395408  0.821230  1
  Rh  Rh22  1  0.390720  0.821375  0.395203  1
  Rh  Rh23  1  0.822147  0.393307  0.392768  1
