# generated using pymatgen
data_Pr3Dy7(SiSb)4
_symmetry_space_group_name_H-M   'P 1'
_cell_length_a   8.85964734
_cell_length_b   8.32924863
_cell_length_c   7.95077438
_cell_angle_alpha   89.55744538
_cell_angle_beta   89.90393575
_cell_angle_gamma   125.25438423
_symmetry_Int_Tables_number   1
_chemical_formula_structural   Pr3Dy7(SiSb)4
_chemical_formula_sum   'Pr3 Dy7 Si4 Sb4'
_cell_volume   479.08708709
_cell_formula_units_Z   1
loop_
 _symmetry_equiv_pos_site_id
 _symmetry_equiv_pos_as_xyz
  1  'x, y, z'
loop_
 _atom_site_type_symbol
 _atom_site_label
 _atom_site_symmetry_multiplicity
 _atom_site_fract_x
 _atom_site_fract_y
 _atom_site_fract_z
 _atom_site_occupancy
  Pr  Pr0  1  0.058498  0.337783  0.320708  1
  Pr  Pr1  1  0.943585  0.669093  0.679317  1
  Pr  Pr2  1  0.441209  0.163783  0.823803  1
  Dy  Dy3  1  0.771822  0.528549  0.164501  1
  Dy  Dy4  1  0.557368  0.822947  0.172462  1
  Dy  Dy5  1  0.225496  0.470906  0.833731  1
  Dy  Dy6  1  0.730272  0.971511  0.662451  1
  Dy  Dy7  1  0.272062  0.032539  0.335938  1
  Dy  Dy8  1  0.999079  0.998704  0.000933  1
  Dy  Dy9  1  0.500310  0.501617  0.499775  1
  Si  Si10  1  0.375814  0.378010  0.124457  1
  Si  Si11  1  0.623797  0.625539  0.875967  1
  Si  Si12  1  0.129179  0.130019  0.628490  1
  Si  Si13  1  0.868151  0.873270  0.366698  1
  Sb  Sb14  1  0.811034  0.223926  0.973736  1
  Sb  Sb15  1  0.185756  0.762764  0.038290  1
  Sb  Sb16  1  0.683533  0.270247  0.472654  1
  Sb  Sb17  1  0.323034  0.738792  0.526089  1
