# generated using pymatgen
data_Tb8Th4Tc3Ir
_symmetry_space_group_name_H-M   'P 1'
_cell_length_a   6.41352828
_cell_length_b   7.31487967
_cell_length_c   9.61888300
_cell_angle_alpha   90.00000000
_cell_angle_beta   90.00000000
_cell_angle_gamma   89.92555164
_symmetry_Int_Tables_number   1
_chemical_formula_structural   Tb8Th4Tc3Ir
_chemical_formula_sum   'Tb8 Th4 Tc3 Ir1'
_cell_volume   451.26170138
_cell_formula_units_Z   1
loop_
 _symmetry_equiv_pos_site_id
 _symmetry_equiv_pos_as_xyz
  1  'x, y, z'
loop_
 _atom_site_type_symbol
 _atom_site_label
 _atom_site_symmetry_multiplicity
 _atom_site_fract_x
 _atom_site_fract_y
 _atom_site_fract_z
 _atom_site_occupancy
  Tb  Tb0  1  0.327680  0.674970  0.067226  1
  Tb  Tb1  1  0.167505  0.176683  0.432647  1
  Tb  Tb2  1  0.664153  0.325530  0.565464  1
  Tb  Tb3  1  0.834982  0.823678  0.933268  1
  Tb  Tb4  1  0.664153  0.325530  0.934536  1
  Tb  Tb5  1  0.834982  0.823678  0.566732  1
  Tb  Tb6  1  0.327680  0.674970  0.432774  1
  Tb  Tb7  1  0.167505  0.176683  0.067353  1
  Th  Th8  1  0.851086  0.550568  0.250000  1
  Th  Th9  1  0.643296  0.047537  0.250000  1
  Th  Th10  1  0.147419  0.447644  0.750000  1
  Th  Th11  1  0.347573  0.956804  0.750000  1
  Tc  Tc12  1  0.014602  0.870546  0.250000  1
  Tc  Tc13  1  0.485805  0.371108  0.250000  1
  Tc  Tc14  1  0.980271  0.129381  0.750000  1
  Ir  Ir15  1  0.541310  0.624691  0.750000  1
