# generated using pymatgen
data_Tb8Cu9(P4Pd)3
_symmetry_space_group_name_H-M   'P 1'
_cell_length_a   3.89868800
_cell_length_b   10.71876013
_cell_length_c   13.06695004
_cell_angle_alpha   89.72958430
_cell_angle_beta   90.00000000
_cell_angle_gamma   90.00000000
_symmetry_Int_Tables_number   1
_chemical_formula_structural   Tb8Cu9(P4Pd)3
_chemical_formula_sum   'Tb8 Cu9 P12 Pd3'
_cell_volume   546.05001964
_cell_formula_units_Z   1
loop_
 _symmetry_equiv_pos_site_id
 _symmetry_equiv_pos_as_xyz
  1  'x, y, z'
loop_
 _atom_site_type_symbol
 _atom_site_label
 _atom_site_symmetry_multiplicity
 _atom_site_fract_x
 _atom_site_fract_y
 _atom_site_fract_z
 _atom_site_occupancy
  Tb  Tb0  1  0.250000  0.931770  0.792219  1
  Tb  Tb1  1  0.750000  0.430848  0.708939  1
  Tb  Tb2  1  0.250000  0.569196  0.292525  1
  Tb  Tb3  1  0.750000  0.069385  0.208386  1
  Tb  Tb4  1  0.250000  0.842417  0.503181  1
  Tb  Tb5  1  0.750000  0.341395  0.997998  1
  Tb  Tb6  1  0.250000  0.659480  0.001782  1
  Tb  Tb7  1  0.750000  0.160361  0.497419  1
  Cu  Cu8  1  0.750000  0.598951  0.487172  1
  Cu  Cu9  1  0.250000  0.271158  0.329741  1
  Cu  Cu10  1  0.750000  0.771063  0.170849  1
  Cu  Cu11  1  0.250000  0.228899  0.829758  1
  Cu  Cu12  1  0.750000  0.726715  0.667855  1
  Cu  Cu13  1  0.250000  0.863100  0.281708  1
  Cu  Cu14  1  0.750000  0.361687  0.219528  1
  Cu  Cu15  1  0.250000  0.637112  0.778965  1
  Cu  Cu16  1  0.750000  0.136988  0.719263  1
  P  P17  1  0.250000  0.236692  0.647477  1
  P  P18  1  0.750000  0.735367  0.852128  1
  P  P19  1  0.250000  0.264093  0.147261  1
  P  P20  1  0.750000  0.758451  0.355941  1
  P  P21  1  0.250000  0.607448  0.600564  1
  P  P22  1  0.750000  0.104501  0.895360  1
  P  P23  1  0.250000  0.894247  0.105611  1
  P  P24  1  0.750000  0.396131  0.395450  1
  P  P25  1  0.250000  0.057092  0.370788  1
  P  P26  1  0.750000  0.556562  0.130534  1
  P  P27  1  0.250000  0.443461  0.869350  1
  P  P28  1  0.750000  0.942121  0.629754  1
  Pd  Pd29  1  0.250000  0.402736  0.512896  1
  Pd  Pd30  1  0.750000  0.897504  0.986743  1
  Pd  Pd31  1  0.250000  0.103069  0.012852  1
