# generated using pymatgen
data_NdLu7Si12Pd3Pt
_symmetry_space_group_name_H-M   'P 1'
_cell_length_a   8.12920501
_cell_length_b   8.12862600
_cell_length_c   7.94865000
_cell_angle_alpha   90.00000087
_cell_angle_beta   89.99817260
_cell_angle_gamma   119.99772511
_symmetry_Int_Tables_number   1
_chemical_formula_structural   NdLu7Si12Pd3Pt
_chemical_formula_sum   'Nd1 Lu7 Si12 Pd3 Pt1'
_cell_volume   454.88244746
_cell_formula_units_Z   1
loop_
 _symmetry_equiv_pos_site_id
 _symmetry_equiv_pos_as_xyz
  1  'x, y, z'
loop_
 _atom_site_type_symbol
 _atom_site_label
 _atom_site_symmetry_multiplicity
 _atom_site_fract_x
 _atom_site_fract_y
 _atom_site_fract_z
 _atom_site_occupancy
  Nd  Nd0  1  0.000021  0.000010  0.250798  1
  Lu  Lu1  1  0.500590  0.499240  0.750019  1
  Lu  Lu2  1  0.501554  0.498375  0.249848  1
  Lu  Lu3  1  0.998473  0.499239  0.749985  1
  Lu  Lu4  1  0.996746  0.498373  0.249785  1
  Lu  Lu5  1  0.500586  0.001351  0.750019  1
  Lu  Lu6  1  0.501554  0.003175  0.249848  1
  Lu  Lu7  1  0.999964  0.999982  0.748978  1
  Si  Si8  1  0.834421  0.165288  0.994565  1
  Si  Si9  1  0.166126  0.833651  0.994574  1
  Si  Si10  1  0.330709  0.165354  0.994638  1
  Si  Si11  1  0.166300  0.833832  0.505305  1
  Si  Si12  1  0.667051  0.833525  0.994626  1
  Si  Si13  1  0.834421  0.165978  0.505469  1
  Si  Si14  1  0.834421  0.669132  0.994565  1
  Si  Si15  1  0.668292  0.834146  0.505479  1
  Si  Si16  1  0.166127  0.332477  0.994574  1
  Si  Si17  1  0.331523  0.165760  0.505448  1
  Si  Si18  1  0.166301  0.332470  0.505305  1
  Si  Si19  1  0.834421  0.668443  0.505469  1
  Pd  Pd20  1  0.333191  0.666594  0.002445  1
  Pd  Pd21  1  0.333980  0.666988  0.497470  1
  Pd  Pd22  1  0.666918  0.333460  0.500015  1
  Pt  Pt23  1  0.666311  0.333156  0.000773  1
