# generated using pymatgen
data_K2Pt3O8
_symmetry_space_group_name_H-M   'P 1'
_cell_length_a   7.12837757
_cell_length_b   7.12837661
_cell_length_c   5.38198906
_cell_angle_alpha   73.44758554
_cell_angle_beta   73.44758919
_cell_angle_gamma   52.73915514
_symmetry_Int_Tables_number   1
_chemical_formula_structural   K2Pt3O8
_chemical_formula_sum   'K2 Pt3 O8'
_cell_volume   206.36162556
_cell_formula_units_Z   1
loop_
 _symmetry_equiv_pos_site_id
 _symmetry_equiv_pos_as_xyz
  1  'x, y, z'
loop_
 _atom_site_type_symbol
 _atom_site_label
 _atom_site_symmetry_multiplicity
 _atom_site_fract_x
 _atom_site_fract_y
 _atom_site_fract_z
 _atom_site_occupancy
  K  K0  1  0.725630  0.725630  0.331290  1
  K  K1  1  0.274370  0.274370  0.668710  1
  Pt  Pt2  1  0.000000  0.000000  0.500000  1
  Pt  Pt3  1  0.744876  0.255124  0.000000  1
  Pt  Pt4  1  0.255124  0.744876  0.000000  1
  O  O5  1  0.410616  0.410616  0.950563  1
  O  O6  1  0.589384  0.589384  0.049437  1
  O  O7  1  0.916297  0.916297  0.899564  1
  O  O8  1  0.083703  0.083703  0.100436  1
  O  O9  1  0.307400  0.863881  0.618565  1
  O  O10  1  0.863881  0.307400  0.618565  1
  O  O11  1  0.136119  0.692600  0.381435  1
  O  O12  1  0.692600  0.136119  0.381435  1
