# generated using pymatgen
data_TbHoFe2(P3Ir4)2
_symmetry_space_group_name_H-M   'P 1'
_cell_length_a   3.92877700
_cell_length_b   10.73307400
_cell_length_c   12.42066500
_cell_angle_alpha   90.00000000
_cell_angle_beta   90.00000000
_cell_angle_gamma   90.00000000
_symmetry_Int_Tables_number   1
_chemical_formula_structural   TbHoFe2(P3Ir4)2
_chemical_formula_sum   'Tb2 Ho2 Fe4 P12 Ir16'
_cell_volume   523.75279166
_cell_formula_units_Z   2
loop_
 _symmetry_equiv_pos_site_id
 _symmetry_equiv_pos_as_xyz
  1  'x, y, z'
loop_
 _atom_site_type_symbol
 _atom_site_label
 _atom_site_symmetry_multiplicity
 _atom_site_fract_x
 _atom_site_fract_y
 _atom_site_fract_z
 _atom_site_occupancy
  Tb  Tb0  1  0.750000  0.418479  0.289127  1
  Tb  Tb1  1  0.750000  0.081521  0.789127  1
  Ho  Ho2  1  0.250000  0.581633  0.710841  1
  Ho  Ho3  1  0.250000  0.918367  0.210841  1
  Fe  Fe4  1  0.250000  0.457229  0.933219  1
  Fe  Fe5  1  0.250000  0.042771  0.433219  1
  Fe  Fe6  1  0.750000  0.543120  0.066483  1
  Fe  Fe7  1  0.750000  0.956880  0.566483  1
  P  P8  1  0.250000  0.432619  0.105436  1
  P  P9  1  0.250000  0.067381  0.605436  1
  P  P10  1  0.750000  0.567507  0.894258  1
  P  P11  1  0.750000  0.932493  0.394258  1
  P  P12  1  0.250000  0.268556  0.868736  1
  P  P13  1  0.250000  0.231444  0.368736  1
  P  P14  1  0.750000  0.731785  0.131498  1
  P  P15  1  0.750000  0.768215  0.631498  1
  P  P16  1  0.250000  0.597447  0.386624  1
  P  P17  1  0.250000  0.902553  0.886624  1
  P  P18  1  0.750000  0.402916  0.613582  1
  P  P19  1  0.750000  0.097084  0.113582  1
  Ir  Ir20  1  0.250000  0.720657  0.986102  1
  Ir  Ir21  1  0.250000  0.779343  0.486102  1
  Ir  Ir22  1  0.750000  0.279301  0.013897  1
  Ir  Ir23  1  0.750000  0.220699  0.513897  1
  Ir  Ir24  1  0.250000  0.408437  0.478405  1
  Ir  Ir25  1  0.250000  0.091563  0.978405  1
  Ir  Ir26  1  0.750000  0.591587  0.522692  1
  Ir  Ir27  1  0.750000  0.908413  0.022692  1
  Ir  Ir28  1  0.250000  0.235714  0.176564  1
  Ir  Ir29  1  0.250000  0.264286  0.676564  1
  Ir  Ir30  1  0.750000  0.763447  0.823037  1
  Ir  Ir31  1  0.750000  0.736553  0.323037  1
  Ir  Ir32  1  0.250000  0.881188  0.700836  1
  Ir  Ir33  1  0.250000  0.618812  0.200836  1
  Ir  Ir34  1  0.750000  0.117723  0.298664  1
  Ir  Ir35  1  0.750000  0.382277  0.798664  1
