# generated using pymatgen
data_Er(Tc2P)2
_symmetry_space_group_name_H-M   'P 1'
_cell_length_a   7.40150000
_cell_length_b   7.40150000
_cell_length_c   3.95196700
_cell_angle_alpha   90.00000000
_cell_angle_beta   90.00000000
_cell_angle_gamma   90.00000000
_symmetry_Int_Tables_number   1
_chemical_formula_structural   Er(Tc2P)2
_chemical_formula_sum   'Er2 Tc8 P4'
_cell_volume   216.49745548
_cell_formula_units_Z   2
loop_
 _symmetry_equiv_pos_site_id
 _symmetry_equiv_pos_as_xyz
  1  'x, y, z'
loop_
 _atom_site_type_symbol
 _atom_site_label
 _atom_site_symmetry_multiplicity
 _atom_site_fract_x
 _atom_site_fract_y
 _atom_site_fract_z
 _atom_site_occupancy
  Er  Er0  1  0.500000  0.500000  0.000000  1
  Er  Er1  1  0.000000  0.000000  0.500000  1
  Tc  Tc2  1  0.582646  0.161350  0.500000  1
  Tc  Tc3  1  0.417354  0.838650  0.500000  1
  Tc  Tc4  1  0.082646  0.338650  0.000000  1
  Tc  Tc5  1  0.917354  0.661350  0.000000  1
  Tc  Tc6  1  0.161350  0.582646  0.500000  1
  Tc  Tc7  1  0.838650  0.417354  0.500000  1
  Tc  Tc8  1  0.338650  0.082646  0.000000  1
  Tc  Tc9  1  0.661350  0.917354  0.000000  1
  P  P10  1  0.712189  0.712189  0.500000  1
  P  P11  1  0.287811  0.287811  0.500000  1
  P  P12  1  0.212189  0.787811  0.000000  1
  P  P13  1  0.787811  0.212189  0.000000  1
