# generated using pymatgen
data_Ac4La2In3Sn7
_symmetry_space_group_name_H-M   'P 1'
_cell_length_a   6.80194462
_cell_length_b   6.80194455
_cell_length_c   10.90333700
_cell_angle_alpha   90.02443640
_cell_angle_beta   90.02442798
_cell_angle_gamma   102.40838191
_symmetry_Int_Tables_number   1
_chemical_formula_structural   Ac4La2In3Sn7
_chemical_formula_sum   'Ac4 La2 In3 Sn7'
_cell_volume   492.67485908
_cell_formula_units_Z   1
loop_
 _symmetry_equiv_pos_site_id
 _symmetry_equiv_pos_as_xyz
  1  'x, y, z'
loop_
 _atom_site_type_symbol
 _atom_site_label
 _atom_site_symmetry_multiplicity
 _atom_site_fract_x
 _atom_site_fract_y
 _atom_site_fract_z
 _atom_site_occupancy
  Ac  Ac0  1  0.201648  0.798421  0.500847  1
  Ac  Ac1  1  0.201558  0.798062  0.000033  1
  Ac  Ac2  1  0.798421  0.201648  0.500847  1
  Ac  Ac3  1  0.798062  0.201558  0.000033  1
  La  La4  1  0.645991  0.645991  0.250193  1
  La  La5  1  0.357377  0.357377  0.748112  1
  In  In6  1  0.318566  0.318566  0.045124  1
  In  In7  1  0.680901  0.680901  0.953685  1
  In  In8  1  0.315767  0.315767  0.451769  1
  Sn  Sn9  1  0.030273  0.030273  0.249611  1
  Sn  Sn10  1  0.971328  0.971328  0.750714  1
  Sn  Sn11  1  0.676985  0.676985  0.546385  1
  Sn  Sn12  1  0.489753  0.084430  0.249849  1
  Sn  Sn13  1  0.918010  0.510931  0.751476  1
  Sn  Sn14  1  0.510931  0.918010  0.751476  1
  Sn  Sn15  1  0.084430  0.489753  0.249849  1
