# generated using pymatgen
data_Pr3CdCu(HgAu)2
_symmetry_space_group_name_H-M   'P 1'
_cell_length_a   8.02766607
_cell_length_b   8.02766548
_cell_length_c   3.92674200
_cell_angle_alpha   90.00000000
_cell_angle_beta   90.00000000
_cell_angle_gamma   120.34824516
_symmetry_Int_Tables_number   1
_chemical_formula_structural   Pr3CdCu(HgAu)2
_chemical_formula_sum   'Pr3 Cd1 Cu1 Hg2 Au2'
_cell_volume   218.37697196
_cell_formula_units_Z   1
loop_
 _symmetry_equiv_pos_site_id
 _symmetry_equiv_pos_as_xyz
  1  'x, y, z'
loop_
 _atom_site_type_symbol
 _atom_site_label
 _atom_site_symmetry_multiplicity
 _atom_site_fract_x
 _atom_site_fract_y
 _atom_site_fract_z
 _atom_site_occupancy
  Pr  Pr0  1  0.408277  0.994893  0.500000  1
  Pr  Pr1  1  0.994893  0.408277  0.500000  1
  Pr  Pr2  1  0.599230  0.599230  0.500000  1
  Cd  Cd3  1  0.245086  0.245086  0.000000  1
  Cu  Cu4  1  0.003820  0.003820  0.500000  1
  Hg  Hg5  1  0.753402  0.004137  0.000000  1
  Hg  Hg6  1  0.004137  0.753402  0.000000  1
  Au  Au7  1  0.332849  0.658306  0.000000  1
  Au  Au8  1  0.658306  0.332849  0.000000  1
