# generated using pymatgen
data_Ca14CdBi11
_symmetry_space_group_name_H-M   'P 1'
_cell_length_a   16.60538127
_cell_length_b   16.60538090
_cell_length_c   16.60538100
_cell_angle_alpha   117.56788670
_cell_angle_beta   117.56788604
_cell_angle_gamma   94.26683545
_symmetry_Int_Tables_number   1
_chemical_formula_structural   Ca14CdBi11
_chemical_formula_sum   'Ca56 Cd4 Bi44'
_cell_volume   3346.64356403
_cell_formula_units_Z   4
loop_
 _symmetry_equiv_pos_site_id
 _symmetry_equiv_pos_as_xyz
  1  'x, y, z'
loop_
 _atom_site_type_symbol
 _atom_site_label
 _atom_site_symmetry_multiplicity
 _atom_site_fract_x
 _atom_site_fract_y
 _atom_site_fract_z
 _atom_site_occupancy
  Ca  Ca0  1  0.306717  0.645518  0.017536  1
  Ca  Ca1  1  0.400959  0.003826  0.650409  1
  Ca  Ca2  1  0.395518  0.877982  0.838801  1
  Ca  Ca3  1  0.162051  0.378748  0.133226  1
  Ca  Ca4  1  0.039181  0.556717  0.161199  1
  Ca  Ca5  1  0.253826  0.150959  0.150409  1
  Ca  Ca6  1  0.996174  0.646584  0.397133  1
  Ca  Ca7  1  0.210819  0.872018  0.017536  1
  Ca  Ca8  1  0.477757  0.875000  0.102758  1
  Ca  Ca9  1  0.849041  0.999451  0.102867  1
  Ca  Ca10  1  0.625000  0.522243  0.397243  1
  Ca  Ca11  1  0.349041  0.246174  0.849591  1
  Ca  Ca12  1  0.854482  0.193283  0.982464  1
  Ca  Ca13  1  0.745522  0.878748  0.216697  1
  Ca  Ca14  1  0.772242  0.375000  0.897242  1
  Ca  Ca15  1  0.121252  0.337949  0.866774  1
  Ca  Ca16  1  0.943283  0.460819  0.838801  1
  Ca  Ca17  1  0.753826  0.603416  0.102867  1
  Ca  Ca18  1  0.710819  0.693283  0.338801  1
  Ca  Ca19  1  0.496174  0.099041  0.349591  1
  Ca  Ca20  1  0.900959  0.250549  0.397133  1
  Ca  Ca21  1  0.353416  0.750549  0.349591  1
  Ca  Ca22  1  0.354482  0.372018  0.661199  1
  Ca  Ca23  1  0.504478  0.221175  0.633226  1
  Ca  Ca24  1  0.245522  0.028825  0.866774  1
  Ca  Ca25  1  0.622018  0.104482  0.161199  1
  Ca  Ca26  1  0.853416  0.503826  0.602867  1
  Ca  Ca27  1  0.896584  0.746174  0.897133  1
  Ca  Ca28  1  0.895518  0.056717  0.517536  1
  Ca  Ca29  1  0.122018  0.960819  0.517536  1
  Ca  Ca30  1  0.628748  0.912051  0.633226  1
  Ca  Ca31  1  0.087949  0.721175  0.716697  1
  Ca  Ca32  1  0.127982  0.145518  0.338801  1
  Ca  Ca33  1  0.272243  0.375000  0.397242  1
  Ca  Ca34  1  0.539181  0.377982  0.482464  1
  Ca  Ca35  1  0.625000  0.022242  0.897242  1
  Ca  Ca36  1  0.749451  0.146584  0.650409  1
  Ca  Ca37  1  0.004478  0.371252  0.283303  1
  Ca  Ca38  1  0.128748  0.495522  0.716697  1
  Ca  Ca39  1  0.500549  0.650959  0.897133  1
  Ca  Ca40  1  0.971175  0.837949  0.216697  1
  Ca  Ca41  1  0.587949  0.871252  0.366774  1
  Ca  Ca42  1  0.125000  0.227758  0.602758  1
  Ca  Ca43  1  0.249451  0.599041  0.602867  1
  Ca  Ca44  1  0.778825  0.412051  0.283303  1
  Ca  Ca45  1  0.621252  0.754478  0.783303  1
  Ca  Ca46  1  0.443283  0.604482  0.482464  1
  Ca  Ca47  1  0.125000  0.727758  0.102758  1
  Ca  Ca48  1  0.627982  0.289181  0.982464  1
  Ca  Ca49  1  0.977758  0.875000  0.602758  1
  Ca  Ca50  1  0.396584  0.499451  0.150409  1
  Ca  Ca51  1  0.278825  0.995522  0.366774  1
  Ca  Ca52  1  0.662051  0.528825  0.783303  1
  Ca  Ca53  1  0.000549  0.103416  0.849591  1
  Ca  Ca54  1  0.806717  0.789181  0.661199  1
  Ca  Ca55  1  0.471175  0.254478  0.133226  1
  Cd  Cd56  1  0.000000  0.000000  0.000000  1
  Cd  Cd57  1  0.500000  0.500000  0.000000  1
  Cd  Cd58  1  0.250000  0.750000  0.500000  1
  Cd  Cd59  1  0.750000  0.250000  0.500000  1
  Bi  Bi60  1  0.288336  0.428119  0.848834  1
  Bi  Bi61  1  0.362516  0.862516  0.225034  1
  Bi  Bi62  1  0.788336  0.939502  0.860217  1
  Bi  Bi63  1  0.170714  0.810498  0.348834  1
  Bi  Bi64  1  0.958269  0.050601  0.353343  1
  Bi  Bi65  1  0.178119  0.829286  0.639783  1
  Bi  Bi66  1  0.112516  0.112516  0.725034  1
  Bi  Bi67  1  0.791731  0.199399  0.146657  1
  Bi  Bi68  1  0.354926  0.208269  0.407668  1
  Bi  Bi69  1  0.250000  0.250000  0.000000  1
  Bi  Bi70  1  0.800601  0.947257  0.592332  1
  Bi  Bi71  1  0.461664  0.821881  0.651166  1
  Bi  Bi72  1  0.060498  0.920714  0.848834  1
  Bi  Bi73  1  0.862516  0.637484  0.500000  1
  Bi  Bi74  1  0.552743  0.699399  0.407668  1
  Bi  Bi75  1  0.678119  0.038336  0.348834  1
  Bi  Bi76  1  0.071881  0.211664  0.151166  1
  Bi  Bi77  1  0.137484  0.362516  0.500000  1
  Bi  Bi78  1  0.189502  0.538336  0.360217  1
  Bi  Bi79  1  0.387484  0.387484  0.274966  1
  Bi  Bi80  1  0.500000  0.000000  0.500000  1
  Bi  Bi81  1  0.079286  0.928119  0.139783  1
  Bi  Bi82  1  0.571881  0.420714  0.860217  1
  Bi  Bi83  1  0.449399  0.541731  0.646657  1
  Bi  Bi84  1  0.670714  0.321881  0.360217  1
  Bi  Bi85  1  0.458269  0.104926  0.907668  1
  Bi  Bi86  1  0.395074  0.041731  0.092332  1
  Bi  Bi87  1  0.895074  0.802743  0.353343  1
  Bi  Bi88  1  0.697257  0.604926  0.646657  1
  Bi  Bi89  1  0.689502  0.329286  0.651166  1
  Bi  Bi90  1  0.750000  0.750000  0.000000  1
  Bi  Bi91  1  0.197257  0.550601  0.092332  1
  Bi  Bi92  1  0.961664  0.310498  0.639783  1
  Bi  Bi93  1  0.854926  0.447257  0.146657  1
  Bi  Bi94  1  0.887484  0.612516  0.000000  1
  Bi  Bi95  1  0.300601  0.708269  0.853343  1
  Bi  Bi96  1  0.000000  0.500000  0.500000  1
  Bi  Bi97  1  0.291731  0.145074  0.592332  1
  Bi  Bi98  1  0.637484  0.137484  0.774966  1
  Bi  Bi99  1  0.560498  0.711664  0.139783  1
  Bi  Bi100  1  0.579286  0.439502  0.151166  1
  Bi  Bi101  1  0.052743  0.645074  0.853343  1
  Bi  Bi102  1  0.949399  0.302743  0.907668  1
  Bi  Bi103  1  0.612516  0.887484  0.000000  1
