# generated using pymatgen
data_YbZr4(AsO4)6
_symmetry_space_group_name_H-M   'P 1'
_cell_length_a   9.22679791
_cell_length_b   9.22679792
_cell_length_c   9.46213877
_cell_angle_alpha   60.81938864
_cell_angle_beta   60.81939224
_cell_angle_gamma   60.00000079
_symmetry_Int_Tables_number   1
_chemical_formula_structural   YbZr4(AsO4)6
_chemical_formula_sum   'Yb1 Zr4 As6 O24'
_cell_volume   576.56133822
_cell_formula_units_Z   1
loop_
 _symmetry_equiv_pos_site_id
 _symmetry_equiv_pos_as_xyz
  1  'x, y, z'
loop_
 _atom_site_type_symbol
 _atom_site_label
 _atom_site_symmetry_multiplicity
 _atom_site_fract_x
 _atom_site_fract_y
 _atom_site_fract_z
 _atom_site_occupancy
  Yb  Yb0  1  0.500000  0.500000  0.500000  1
  Zr  Zr1  1  0.139711  0.139711  0.580867  1
  Zr  Zr2  1  0.860289  0.860289  0.419133  1
  Zr  Zr3  1  0.645813  0.645813  0.062562  1
  Zr  Zr4  1  0.354187  0.354187  0.937438  1
  As  As5  1  0.956304  0.258783  0.259452  1
  As  As6  1  0.258783  0.525460  0.259452  1
  As  As7  1  0.525460  0.956304  0.259452  1
  As  As8  1  0.043696  0.741217  0.740548  1
  As  As9  1  0.741217  0.474540  0.740548  1
  As  As10  1  0.474540  0.043696  0.740548  1
  O  O11  1  0.981750  0.266430  0.421638  1
  O  O12  1  0.266430  0.330182  0.421638  1
  O  O13  1  0.330182  0.981750  0.421638  1
  O  O14  1  0.018250  0.733570  0.578362  1
  O  O15  1  0.733570  0.669818  0.578362  1
  O  O16  1  0.669818  0.018250  0.578362  1
  O  O17  1  0.504910  0.884759  0.929230  1
  O  O18  1  0.884759  0.681102  0.929230  1
  O  O19  1  0.681102  0.504910  0.929230  1
  O  O20  1  0.495090  0.115241  0.070770  1
  O  O21  1  0.115241  0.318898  0.070770  1
  O  O22  1  0.318898  0.495090  0.070770  1
  O  O23  1  0.028538  0.941826  0.718878  1
  O  O24  1  0.941826  0.310757  0.718878  1
  O  O25  1  0.310757  0.028538  0.718878  1
  O  O26  1  0.971462  0.058174  0.281122  1
  O  O27  1  0.058174  0.689243  0.281122  1
  O  O28  1  0.689243  0.971462  0.281122  1
  O  O29  1  0.586714  0.746434  0.258515  1
  O  O30  1  0.746434  0.408336  0.258515  1
  O  O31  1  0.408336  0.586714  0.258515  1
  O  O32  1  0.413286  0.253566  0.741485  1
  O  O33  1  0.253566  0.591664  0.741485  1
  O  O34  1  0.591664  0.413286  0.741485  1
