# generated using pymatgen
data_Tb2TlCl7
_symmetry_space_group_name_H-M   'P 1'
_cell_length_a   12.67340900
_cell_length_b   6.97551102
_cell_length_c   13.58142900
_cell_angle_alpha   89.20585986
_cell_angle_beta   90.00000000
_cell_angle_gamma   90.00000000
_symmetry_Int_Tables_number   1
_chemical_formula_structural   Tb2TlCl7
_chemical_formula_sum   'Tb8 Tl4 Cl28'
_cell_volume   1200.53058898
_cell_formula_units_Z   4
loop_
 _symmetry_equiv_pos_site_id
 _symmetry_equiv_pos_as_xyz
  1  'x, y, z'
loop_
 _atom_site_type_symbol
 _atom_site_label
 _atom_site_symmetry_multiplicity
 _atom_site_fract_x
 _atom_site_fract_y
 _atom_site_fract_z
 _atom_site_occupancy
  Tb  Tb0  1  0.538101  0.776110  0.237418  1
  Tb  Tb1  1  0.461899  0.223890  0.762582  1
  Tb  Tb2  1  0.038101  0.223890  0.262582  1
  Tb  Tb3  1  0.961899  0.776110  0.737418  1
  Tb  Tb4  1  0.840758  0.727887  0.247459  1
  Tb  Tb5  1  0.159242  0.272113  0.752541  1
  Tb  Tb6  1  0.340758  0.272113  0.252541  1
  Tb  Tb7  1  0.659242  0.727887  0.747459  1
  Tl  Tl8  1  0.200349  0.755390  0.037059  1
  Tl  Tl9  1  0.799651  0.244610  0.962941  1
  Tl  Tl10  1  0.700349  0.244610  0.462941  1
  Tl  Tl11  1  0.299651  0.755390  0.537059  1
  Cl  Cl12  1  0.974768  0.945940  0.135565  1
  Cl  Cl13  1  0.025232  0.054060  0.864435  1
  Cl  Cl14  1  0.474768  0.054060  0.364435  1
  Cl  Cl15  1  0.525232  0.945940  0.635565  1
  Cl  Cl16  1  0.686159  0.746747  0.388382  1
  Cl  Cl17  1  0.313841  0.253253  0.611618  1
  Cl  Cl18  1  0.186159  0.253253  0.111618  1
  Cl  Cl19  1  0.813841  0.746747  0.888382  1
  Cl  Cl20  1  0.679425  0.516131  0.174024  1
  Cl  Cl21  1  0.320575  0.483869  0.825976  1
  Cl  Cl22  1  0.179425  0.483869  0.325976  1
  Cl  Cl23  1  0.820575  0.516131  0.674024  1
  Cl  Cl24  1  0.925482  0.978016  0.376859  1
  Cl  Cl25  1  0.074518  0.021984  0.623141  1
  Cl  Cl26  1  0.425482  0.021984  0.123141  1
  Cl  Cl27  1  0.574518  0.978016  0.876859  1
  Cl  Cl28  1  0.942945  0.465701  0.131618  1
  Cl  Cl29  1  0.057055  0.534299  0.868382  1
  Cl  Cl30  1  0.442945  0.534299  0.368382  1
  Cl  Cl31  1  0.557055  0.465701  0.631618  1
  Cl  Cl32  1  0.703491  0.998264  0.174885  1
  Cl  Cl33  1  0.296509  0.001736  0.825115  1
  Cl  Cl34  1  0.203491  0.001736  0.325115  1
  Cl  Cl35  1  0.796509  0.998264  0.674885  1
  Cl  Cl36  1  0.912683  0.457085  0.375380  1
  Cl  Cl37  1  0.087317  0.542915  0.624620  1
  Cl  Cl38  1  0.412683  0.542915  0.124620  1
  Cl  Cl39  1  0.587317  0.457085  0.875380  1
