# generated using pymatgen
data_Ho5AsSe4
_symmetry_space_group_name_H-M   'P 1'
_cell_length_a   7.04622488
_cell_length_b   7.04622495
_cell_length_c   7.04622515
_cell_angle_alpha   99.56804019
_cell_angle_beta   99.56803215
_cell_angle_gamma   131.87921260
_symmetry_Int_Tables_number   1
_chemical_formula_structural   Ho5AsSe4
_chemical_formula_sum   'Ho5 As1 Se4'
_cell_volume   237.84373339
_cell_formula_units_Z   1
loop_
 _symmetry_equiv_pos_site_id
 _symmetry_equiv_pos_as_xyz
  1  'x, y, z'
loop_
 _atom_site_type_symbol
 _atom_site_label
 _atom_site_symmetry_multiplicity
 _atom_site_fract_x
 _atom_site_fract_y
 _atom_site_fract_z
 _atom_site_occupancy
  Ho  Ho0  1  0.401656  0.791829  0.193485  1
  Ho  Ho1  1  0.000000  0.000000  0.000000  1
  Ho  Ho2  1  0.598344  0.208171  0.806515  1
  Ho  Ho3  1  0.208171  0.401656  0.609826  1
  Ho  Ho4  1  0.791829  0.598344  0.390174  1
  As  As5  1  0.500000  0.500000  0.000000  1
  Se  Se6  1  0.097456  0.698381  0.795836  1
  Se  Se7  1  0.698381  0.902544  0.600924  1
  Se  Se8  1  0.301619  0.097456  0.399076  1
  Se  Se9  1  0.902544  0.301619  0.204164  1
