# generated using pymatgen
data_Tm2LuIn3Rh2Pb
_symmetry_space_group_name_H-M   'P 1'
_cell_length_a   7.81813595
_cell_length_b   7.82867002
_cell_length_c   3.85125200
_cell_angle_alpha   90.00000000
_cell_angle_beta   90.00000000
_cell_angle_gamma   120.01206041
_symmetry_Int_Tables_number   1
_chemical_formula_structural   Tm2LuIn3Rh2Pb
_chemical_formula_sum   'Tm2 Lu1 In3 Rh2 Pb1'
_cell_volume   204.11314885
_cell_formula_units_Z   1
loop_
 _symmetry_equiv_pos_site_id
 _symmetry_equiv_pos_as_xyz
  1  'x, y, z'
loop_
 _atom_site_type_symbol
 _atom_site_label
 _atom_site_symmetry_multiplicity
 _atom_site_fract_x
 _atom_site_fract_y
 _atom_site_fract_z
 _atom_site_occupancy
  Tm  Tm0  1  0.615015  0.580104  0.500000  1
  Tm  Tm1  1  0.419995  0.034788  0.500000  1
  Lu  Lu2  1  0.964173  0.384342  0.500000  1
  In  In3  1  0.258030  0.245650  0.000000  1
  In  In4  1  0.987466  0.741665  0.000000  1
  In  In5  1  0.754885  0.013383  0.000000  1
  Rh  Rh6  1  0.000010  0.000399  0.500000  1
  Rh  Rh7  1  0.667821  0.333562  0.000000  1
  Pb  Pb8  1  0.332604  0.666110  0.000000  1
