# generated using pymatgen
data_Zr12GaSiSe2
_symmetry_space_group_name_H-M   'P 1'
_cell_length_a   11.06128582
_cell_length_b   11.05737481
_cell_length_c   5.48500100
_cell_angle_alpha   90.00000000
_cell_angle_beta   90.00000000
_cell_angle_gamma   90.09520690
_symmetry_Int_Tables_number   1
_chemical_formula_structural   Zr12GaSiSe2
_chemical_formula_sum   'Zr24 Ga2 Si2 Se4'
_cell_volume   670.86287219
_cell_formula_units_Z   2
loop_
 _symmetry_equiv_pos_site_id
 _symmetry_equiv_pos_as_xyz
  1  'x, y, z'
loop_
 _atom_site_type_symbol
 _atom_site_label
 _atom_site_symmetry_multiplicity
 _atom_site_fract_x
 _atom_site_fract_y
 _atom_site_fract_z
 _atom_site_occupancy
  Zr  Zr0  1  0.919404  0.608258  0.540542  1
  Zr  Zr1  1  0.080596  0.391742  0.540542  1
  Zr  Zr2  1  0.894204  0.415497  0.034220  1
  Zr  Zr3  1  0.105796  0.584503  0.034220  1
  Zr  Zr4  1  0.582592  0.894623  0.965224  1
  Zr  Zr5  1  0.417408  0.105377  0.965224  1
  Zr  Zr6  1  0.604827  0.082853  0.462853  1
  Zr  Zr7  1  0.395173  0.917147  0.462853  1
  Zr  Zr8  1  0.862394  0.973896  0.718425  1
  Zr  Zr9  1  0.137606  0.026104  0.718425  1
  Zr  Zr10  1  0.526861  0.359234  0.216753  1
  Zr  Zr11  1  0.473139  0.640766  0.216753  1
  Zr  Zr12  1  0.639658  0.526434  0.781871  1
  Zr  Zr13  1  0.360342  0.473566  0.781871  1
  Zr  Zr14  1  0.974252  0.140327  0.282062  1
  Zr  Zr15  1  0.025748  0.859673  0.282062  1
  Zr  Zr16  1  0.819635  0.715851  0.005764  1
  Zr  Zr17  1  0.180365  0.284149  0.005764  1
  Zr  Zr18  1  0.786771  0.316051  0.509873  1
  Zr  Zr19  1  0.213229  0.683949  0.509873  1
  Zr  Zr20  1  0.681784  0.785594  0.490451  1
  Zr  Zr21  1  0.318216  0.214406  0.490451  1
  Zr  Zr22  1  0.716862  0.181961  0.989568  1
  Zr  Zr23  1  0.283138  0.818039  0.989568  1
  Ga  Ga24  1  0.704932  0.540551  0.289035  1
  Ga  Ga25  1  0.295068  0.459449  0.289035  1
  Si  Si26  1  0.959147  0.204242  0.788278  1
  Si  Si27  1  0.040853  0.795758  0.788278  1
  Se  Se28  1  0.793278  0.960553  0.213520  1
  Se  Se29  1  0.206722  0.039447  0.213520  1
  Se  Se30  1  0.540289  0.292855  0.711561  1
  Se  Se31  1  0.459711  0.707145  0.711561  1
