# generated using pymatgen
data_YHo3Ga4(IrPt)2
_symmetry_space_group_name_H-M   'P 1'
_cell_length_a   4.41159500
_cell_length_b   6.81307044
_cell_length_c   7.72223556
_cell_angle_alpha   90.37537728
_cell_angle_beta   90.00000000
_cell_angle_gamma   90.00000000
_symmetry_Int_Tables_number   1
_chemical_formula_structural   YHo3Ga4(IrPt)2
_chemical_formula_sum   'Y1 Ho3 Ga4 Ir2 Pt2'
_cell_volume   232.09844974
_cell_formula_units_Z   1
loop_
 _symmetry_equiv_pos_site_id
 _symmetry_equiv_pos_as_xyz
  1  'x, y, z'
loop_
 _atom_site_type_symbol
 _atom_site_label
 _atom_site_symmetry_multiplicity
 _atom_site_fract_x
 _atom_site_fract_y
 _atom_site_fract_z
 _atom_site_occupancy
  Y  Y0  1  0.750000  0.523814  0.811452  1
  Ho  Ho1  1  0.250000  0.982784  0.305580  1
  Ho  Ho2  1  0.250000  0.481868  0.194309  1
  Ho  Ho3  1  0.750000  0.024288  0.687219  1
  Ga  Ga4  1  0.250000  0.335997  0.568086  1
  Ga  Ga5  1  0.250000  0.835202  0.932536  1
  Ga  Ga6  1  0.750000  0.659205  0.427377  1
  Ga  Ga7  1  0.750000  0.158595  0.072274  1
  Ir  Ir8  1  0.750000  0.771066  0.108836  1
  Ir  Ir9  1  0.750000  0.270689  0.393834  1
  Pt  Pt10  1  0.250000  0.225814  0.892740  1
  Pt  Pt11  1  0.250000  0.730679  0.605757  1
