# generated using pymatgen
data_Dy7Er13Sn9Pb7
_symmetry_space_group_name_H-M   'P 1'
_cell_length_a   8.05804229
_cell_length_b   8.17593664
_cell_length_c   15.45810708
_cell_angle_alpha   90.00967751
_cell_angle_beta   90.09732274
_cell_angle_gamma   89.96155861
_symmetry_Int_Tables_number   1
_chemical_formula_structural   Dy7Er13Sn9Pb7
_chemical_formula_sum   'Dy7 Er13 Sn9 Pb7'
_cell_volume   1018.40996630
_cell_formula_units_Z   1
loop_
 _symmetry_equiv_pos_site_id
 _symmetry_equiv_pos_as_xyz
  1  'x, y, z'
loop_
 _atom_site_type_symbol
 _atom_site_label
 _atom_site_symmetry_multiplicity
 _atom_site_fract_x
 _atom_site_fract_y
 _atom_site_fract_z
 _atom_site_occupancy
  Dy  Dy0  1  0.024916  0.177915  0.600998  1
  Dy  Dy1  1  0.475825  0.678024  0.399405  1
  Dy  Dy2  1  0.974791  0.819117  0.099816  1
  Dy  Dy3  1  0.478302  0.675078  0.099710  1
  Dy  Dy4  1  0.975603  0.821818  0.399366  1
  Dy  Dy5  1  0.523852  0.322256  0.600264  1
  Dy  Dy6  1  0.022868  0.179785  0.900433  1
  Er  Er7  1  0.367785  0.839123  0.875331  1
  Er  Er8  1  0.867333  0.660988  0.624748  1
  Er  Er9  1  0.632013  0.161085  0.375224  1
  Er  Er10  1  0.129412  0.338792  0.123771  1
  Er  Er11  1  0.632425  0.163745  0.123545  1
  Er  Er12  1  0.131613  0.339067  0.375400  1
  Er  Er13  1  0.367767  0.839707  0.625324  1
  Er  Er14  1  0.867756  0.659512  0.876690  1
  Er  Er15  1  0.528320  0.324823  0.900046  1
  Er  Er16  1  0.198847  0.503713  0.750506  1
  Er  Er17  1  0.698621  0.996422  0.750329  1
  Er  Er18  1  0.800732  0.496077  0.248181  1
  Er  Er19  1  0.301562  0.003831  0.249662  1
  Sn  Sn20  1  0.791475  0.460996  0.041316  1
  Sn  Sn21  1  0.563851  0.620610  0.750236  1
  Sn  Sn22  1  0.063073  0.878369  0.750753  1
  Sn  Sn23  1  0.434977  0.379437  0.249872  1
  Sn  Sn24  1  0.936233  0.119654  0.249850  1
  Sn  Sn25  1  0.333330  0.150726  0.750965  1
  Sn  Sn26  1  0.831900  0.350431  0.750279  1
  Sn  Sn27  1  0.668000  0.850719  0.249438  1
  Sn  Sn28  1  0.168703  0.649192  0.249746  1
  Pb  Pb29  1  0.290817  0.037470  0.041267  1
  Pb  Pb30  1  0.791288  0.461560  0.458494  1
  Pb  Pb31  1  0.708395  0.961899  0.541184  1
  Pb  Pb32  1  0.210340  0.537935  0.958981  1
  Pb  Pb33  1  0.707973  0.962277  0.958926  1
  Pb  Pb34  1  0.208134  0.539383  0.541136  1
  Pb  Pb35  1  0.291167  0.038463  0.458807  1
