# generated using pymatgen
data_Pr6Sc7Al9Ir7
_symmetry_space_group_name_H-M   'P 1'
_cell_length_a   9.33355232
_cell_length_b   9.33355158
_cell_length_c   9.33355186
_cell_angle_alpha   59.98560458
_cell_angle_beta   59.98560522
_cell_angle_gamma   59.98560731
_symmetry_Int_Tables_number   1
_chemical_formula_structural   Pr6Sc7Al9Ir7
_chemical_formula_sum   'Pr6 Sc7 Al9 Ir7'
_cell_volume   574.75674306
_cell_formula_units_Z   1
loop_
 _symmetry_equiv_pos_site_id
 _symmetry_equiv_pos_as_xyz
  1  'x, y, z'
loop_
 _atom_site_type_symbol
 _atom_site_label
 _atom_site_symmetry_multiplicity
 _atom_site_fract_x
 _atom_site_fract_y
 _atom_site_fract_z
 _atom_site_occupancy
  Pr  Pr0  1  0.688995  0.688995  0.311576  1
  Pr  Pr1  1  0.306730  0.698210  0.306730  1
  Pr  Pr2  1  0.698210  0.306730  0.306730  1
  Pr  Pr3  1  0.306730  0.306730  0.698210  1
  Pr  Pr4  1  0.688995  0.311576  0.688995  1
  Pr  Pr5  1  0.311576  0.688995  0.688995  1
  Sc  Sc6  1  0.881891  0.881891  0.362931  1
  Sc  Sc7  1  0.881891  0.362931  0.881891  1
  Sc  Sc8  1  0.362931  0.881891  0.881891  1
  Sc  Sc9  1  0.877890  0.877890  0.877890  1
  Sc  Sc10  1  0.120821  0.120821  0.634271  1
  Sc  Sc11  1  0.120821  0.634271  0.120821  1
  Sc  Sc12  1  0.634271  0.120821  0.120821  1
  Al  Al13  1  0.118547  0.118547  0.118547  1
  Al  Al14  1  0.670329  0.670329  0.990249  1
  Al  Al15  1  0.670329  0.990249  0.670329  1
  Al  Al16  1  0.990249  0.670329  0.670329  1
  Al  Al17  1  0.671028  0.671028  0.671028  1
  Al  Al18  1  0.325556  0.325556  0.012576  1
  Al  Al19  1  0.325556  0.012576  0.325556  1
  Al  Al20  1  0.012576  0.325556  0.325556  1
  Al  Al21  1  0.328843  0.328843  0.328843  1
  Ir  Ir22  1  0.002199  0.002199  0.002199  1
  Ir  Ir23  1  0.001366  0.001366  0.498590  1
  Ir  Ir24  1  0.500607  0.000495  0.500607  1
  Ir  Ir25  1  0.000495  0.500607  0.500607  1
  Ir  Ir26  1  0.500607  0.500607  0.000495  1
  Ir  Ir27  1  0.001366  0.498590  0.001366  1
  Ir  Ir28  1  0.498590  0.001366  0.001366  1
