# generated using pymatgen
data_Ag2AsOsF12
_symmetry_space_group_name_H-M   'P 1'
_cell_length_a   5.55539735
_cell_length_b   5.95815169
_cell_length_c   8.09797977
_cell_angle_alpha   96.85403682
_cell_angle_beta   89.73840125
_cell_angle_gamma   90.17527616
_symmetry_Int_Tables_number   1
_chemical_formula_structural   Ag2AsOsF12
_chemical_formula_sum   'Ag2 As1 Os1 F12'
_cell_volume   266.12310186
_cell_formula_units_Z   1
loop_
 _symmetry_equiv_pos_site_id
 _symmetry_equiv_pos_as_xyz
  1  'x, y, z'
loop_
 _atom_site_type_symbol
 _atom_site_label
 _atom_site_symmetry_multiplicity
 _atom_site_fract_x
 _atom_site_fract_y
 _atom_site_fract_z
 _atom_site_occupancy
  Ag  Ag0  1  0.000000  0.000000  0.000000  1
  Ag  Ag1  1  0.500000  0.500000  0.500000  1
  As  As2  1  0.500000  0.500000  0.000000  1
  Os  Os3  1  0.000000  0.000000  0.500000  1
  F  F4  1  0.865277  0.992375  0.718248  1
  F  F5  1  0.133847  0.294544  0.565119  1
  F  F6  1  0.243881  0.642725  0.931769  1
  F  F7  1  0.363553  0.495818  0.198986  1
  F  F8  1  0.363751  0.235316  0.929557  1
  F  F9  1  0.288395  0.861147  0.570009  1
  F  F10  1  0.711605  0.138853  0.429991  1
  F  F11  1  0.636249  0.764684  0.070443  1
  F  F12  1  0.636447  0.504182  0.801014  1
  F  F13  1  0.756119  0.357275  0.068231  1
  F  F14  1  0.866153  0.705456  0.434881  1
  F  F15  1  0.134723  0.007625  0.281752  1
