# generated using pymatgen
data_Ca4Ge5Rh9
_symmetry_space_group_name_H-M   'P 1'
_cell_length_a   11.92592823
_cell_length_b   11.92592841
_cell_length_c   11.92592801
_cell_angle_alpha   27.51702214
_cell_angle_beta   27.51702012
_cell_angle_gamma   27.51702114
_symmetry_Int_Tables_number   1
_chemical_formula_structural   Ca4Ge5Rh9
_chemical_formula_sum   'Ca4 Ge5 Rh9'
_cell_volume   319.57581408
_cell_formula_units_Z   1
loop_
 _symmetry_equiv_pos_site_id
 _symmetry_equiv_pos_as_xyz
  1  'x, y, z'
loop_
 _atom_site_type_symbol
 _atom_site_label
 _atom_site_symmetry_multiplicity
 _atom_site_fract_x
 _atom_site_fract_y
 _atom_site_fract_z
 _atom_site_occupancy
  Ca  Ca0  1  0.949553  0.949553  0.949553  1
  Ca  Ca1  1  0.852604  0.852604  0.852604  1
  Ca  Ca2  1  0.147396  0.147396  0.147396  1
  Ca  Ca3  1  0.050447  0.050447  0.050447  1
  Ge  Ge4  1  0.277855  0.277855  0.277855  1
  Ge  Ge5  1  0.500000  0.500000  0.500000  1
  Ge  Ge6  1  0.388382  0.388382  0.388382  1
  Ge  Ge7  1  0.722145  0.722145  0.722145  1
  Ge  Ge8  1  0.611618  0.611618  0.611618  1
  Rh  Rh9  1  0.608805  0.608805  0.109197  1
  Rh  Rh10  1  0.890803  0.391195  0.391195  1
  Rh  Rh11  1  0.500000  0.000000  0.500000  1
  Rh  Rh12  1  0.391195  0.890803  0.391195  1
  Rh  Rh13  1  0.500000  0.500000  0.000000  1
  Rh  Rh14  1  0.109197  0.608805  0.608805  1
  Rh  Rh15  1  0.000000  0.500000  0.500000  1
  Rh  Rh16  1  0.391195  0.391195  0.890803  1
  Rh  Rh17  1  0.608805  0.109197  0.608805  1
