# generated using pymatgen
data_Lu4Be4Co9Os
_symmetry_space_group_name_H-M   'P 1'
_cell_length_a   4.95744563
_cell_length_b   4.95744584
_cell_length_c   11.42675479
_cell_angle_alpha   77.47165023
_cell_angle_beta   77.47165040
_cell_angle_gamma   59.99999708
_symmetry_Int_Tables_number   1
_chemical_formula_structural   Lu4Be4Co9Os
_chemical_formula_sum   'Lu4 Be4 Co9 Os1'
_cell_volume   235.45036679
_cell_formula_units_Z   1
loop_
 _symmetry_equiv_pos_site_id
 _symmetry_equiv_pos_as_xyz
  1  'x, y, z'
loop_
 _atom_site_type_symbol
 _atom_site_label
 _atom_site_symmetry_multiplicity
 _atom_site_fract_x
 _atom_site_fract_y
 _atom_site_fract_z
 _atom_site_occupancy
  Lu  Lu0  1  0.949599  0.949599  0.151200  1
  Lu  Lu1  1  0.050401  0.050401  0.848800  1
  Lu  Lu2  1  0.852299  0.852299  0.443102  1
  Lu  Lu3  1  0.147701  0.147701  0.556899  1
  Be  Be4  1  0.718458  0.718458  0.844626  1
  Be  Be5  1  0.281542  0.281542  0.155374  1
  Be  Be6  1  0.613340  0.613340  0.159982  1
  Be  Be7  1  0.386660  0.386660  0.840018  1
  Co  Co8  1  0.000000  0.500000  0.000000  1
  Co  Co9  1  0.500000  0.000000  0.000000  1
  Co  Co10  1  0.500000  0.500000  0.000000  1
  Co  Co11  1  0.392451  0.392451  0.314725  1
  Co  Co12  1  0.900373  0.392451  0.314725  1
  Co  Co13  1  0.392451  0.900373  0.314725  1
  Co  Co14  1  0.607549  0.607549  0.685275  1
  Co  Co15  1  0.099627  0.607549  0.685275  1
  Co  Co16  1  0.607549  0.099627  0.685275  1
  Os  Os17  1  0.500000  0.500000  0.500000  1
