# generated using pymatgen
data_ErZrMn4Ni8P7
_symmetry_space_group_name_H-M   'P 1'
_cell_length_a   9.09101189
_cell_length_b   9.06939146
_cell_length_c   3.61851200
_cell_angle_alpha   90.00000000
_cell_angle_beta   90.00000000
_cell_angle_gamma   119.95967137
_symmetry_Int_Tables_number   1
_chemical_formula_structural   ErZrMn4Ni8P7
_chemical_formula_sum   'Er1 Zr1 Mn4 Ni8 P7'
_cell_volume   258.48025092
_cell_formula_units_Z   1
loop_
 _symmetry_equiv_pos_site_id
 _symmetry_equiv_pos_as_xyz
  1  'x, y, z'
loop_
 _atom_site_type_symbol
 _atom_site_label
 _atom_site_symmetry_multiplicity
 _atom_site_fract_x
 _atom_site_fract_y
 _atom_site_fract_z
 _atom_site_occupancy
  Er  Er0  1  0.998723  0.998776  0.500000  1
  Zr  Zr1  1  0.333672  0.665052  0.000000  1
  Mn  Mn2  1  0.508869  0.455377  0.000000  1
  Mn  Mn3  1  0.789998  0.237328  0.500000  1
  Mn  Mn4  1  0.764920  0.555436  0.500000  1
  Mn  Mn5  1  0.442523  0.206613  0.500000  1
  Ni  Ni6  1  0.043869  0.274171  0.000000  1
  Ni  Ni7  1  0.730278  0.771676  0.000000  1
  Ni  Ni8  1  0.231441  0.959149  0.000000  1
  Ni  Ni9  1  0.543856  0.054094  0.000000  1
  Ni  Ni10  1  0.946706  0.489415  0.000000  1
  Ni  Ni11  1  0.610536  0.892229  0.500000  1
  Ni  Ni12  1  0.106737  0.719683  0.500000  1
  Ni  Ni13  1  0.280538  0.386067  0.500000  1
  P  P14  1  0.783062  0.042049  0.000000  1
  P  P15  1  0.958666  0.740366  0.000000  1
  P  P16  1  0.259642  0.219212  0.000000  1
  P  P17  1  0.375919  0.922277  0.500000  1
  P  P18  1  0.076981  0.453807  0.500000  1
  P  P19  1  0.547558  0.621111  0.500000  1
  P  P20  1  0.665506  0.336114  0.000000  1
