# generated using pymatgen
data_Cu3B4Ir4Pd
_symmetry_space_group_name_H-M   'P 1'
_cell_length_a   6.71385657
_cell_length_b   6.01207948
_cell_length_c   5.50878255
_cell_angle_alpha   70.01879843
_cell_angle_beta   57.89259245
_cell_angle_gamma   50.45609526
_symmetry_Int_Tables_number   1
_chemical_formula_structural   Cu3B4Ir4Pd
_chemical_formula_sum   'Cu3 B4 Ir4 Pd1'
_cell_volume   145.24092443
_cell_formula_units_Z   1
loop_
 _symmetry_equiv_pos_site_id
 _symmetry_equiv_pos_as_xyz
  1  'x, y, z'
loop_
 _atom_site_type_symbol
 _atom_site_label
 _atom_site_symmetry_multiplicity
 _atom_site_fract_x
 _atom_site_fract_y
 _atom_site_fract_z
 _atom_site_occupancy
  Cu  Cu0  1  0.461401  0.308541  0.367188  1
  Cu  Cu1  1  0.863630  0.366131  0.308362  1
  Cu  Cu2  1  0.883243  0.384305  0.792641  1
  B  B3  1  0.053711  0.982220  0.562032  1
  B  B4  1  0.683914  0.851576  0.198063  1
  B  B5  1  0.388361  0.571277  0.991456  1
  B  B6  1  0.279762  0.192050  0.840906  1
  Ir  Ir7  1  0.094626  0.629415  0.866028  1
  Ir  Ir8  1  0.385671  0.850087  0.149415  1
  Ir  Ir9  1  0.618779  0.160222  0.850898  1
  Ir  Ir10  1  0.396095  0.869319  0.634294  1
  Pd  Pd11  1  0.941206  0.784457  0.388319  1
