# generated using pymatgen
data_Nd2Sm6Si12PdAu3
_symmetry_space_group_name_H-M   'P 1'
_cell_length_a   8.25430400
_cell_length_b   8.25430491
_cell_length_c   8.51191700
_cell_angle_alpha   90.00000000
_cell_angle_beta   90.00000000
_cell_angle_gamma   119.99999637
_symmetry_Int_Tables_number   1
_chemical_formula_structural   Nd2Sm6Si12PdAu3
_chemical_formula_sum   'Nd2 Sm6 Si12 Pd1 Au3'
_cell_volume   502.24890032
_cell_formula_units_Z   1
loop_
 _symmetry_equiv_pos_site_id
 _symmetry_equiv_pos_as_xyz
  1  'x, y, z'
loop_
 _atom_site_type_symbol
 _atom_site_label
 _atom_site_symmetry_multiplicity
 _atom_site_fract_x
 _atom_site_fract_y
 _atom_site_fract_z
 _atom_site_occupancy
  Nd  Nd0  1  0.000000  0.000000  0.748520  1
  Nd  Nd1  1  0.000000  0.000000  0.251795  1
  Sm  Sm2  1  0.500688  0.499312  0.747959  1
  Sm  Sm3  1  0.501511  0.498489  0.252129  1
  Sm  Sm4  1  0.998625  0.499312  0.747959  1
  Sm  Sm5  1  0.996979  0.498489  0.252129  1
  Sm  Sm6  1  0.500688  0.001375  0.747959  1
  Sm  Sm7  1  0.501511  0.003021  0.252129  1
  Si  Si8  1  0.836042  0.163958  0.000916  1
  Si  Si9  1  0.164230  0.835770  0.999214  1
  Si  Si10  1  0.327916  0.163958  0.000916  1
  Si  Si11  1  0.162811  0.837189  0.499629  1
  Si  Si12  1  0.671539  0.835770  0.999214  1
  Si  Si13  1  0.832187  0.167813  0.500780  1
  Si  Si14  1  0.836042  0.672084  0.000916  1
  Si  Si15  1  0.674378  0.837189  0.499629  1
  Si  Si16  1  0.164230  0.328461  0.999214  1
  Si  Si17  1  0.335625  0.167813  0.500780  1
  Si  Si18  1  0.162811  0.325622  0.499629  1
  Si  Si19  1  0.832187  0.664375  0.500780  1
  Pd  Pd20  1  0.666667  0.333333  0.499266  1
  Au  Au21  1  0.666667  0.333333  0.997852  1
  Au  Au22  1  0.333333  0.666667  0.001795  1
  Au  Au23  1  0.333333  0.666667  0.498892  1
