# generated using pymatgen
data_HoErGa3Au
_symmetry_space_group_name_H-M   'P 1'
_cell_length_a   4.48238000
_cell_length_b   4.48238141
_cell_length_c   7.16711500
_cell_angle_alpha   90.00000000
_cell_angle_beta   90.00000000
_cell_angle_gamma   120.00000436
_symmetry_Int_Tables_number   1
_chemical_formula_structural   HoErGa3Au
_chemical_formula_sum   'Ho1 Er1 Ga3 Au1'
_cell_volume   124.70746914
_cell_formula_units_Z   1
loop_
 _symmetry_equiv_pos_site_id
 _symmetry_equiv_pos_as_xyz
  1  'x, y, z'
loop_
 _atom_site_type_symbol
 _atom_site_label
 _atom_site_symmetry_multiplicity
 _atom_site_fract_x
 _atom_site_fract_y
 _atom_site_fract_z
 _atom_site_occupancy
  Ho  Ho0  1  0.333333  0.666667  0.737601  1
  Er  Er1  1  0.333333  0.666667  0.257174  1
  Ga  Ga2  1  0.666667  0.333333  0.469923  1
  Ga  Ga3  1  0.666667  0.333333  0.048699  1
  Ga  Ga4  1  0.000000  0.000000  0.953999  1
  Au  Au5  1  0.000000  0.000000  0.532603  1
