# generated using pymatgen
data_Pr2TmCoSn6
_symmetry_space_group_name_H-M   'P 1'
_cell_length_a   8.54634961
_cell_length_b   8.54634987
_cell_length_c   13.45553000
_cell_angle_alpha   90.00000000
_cell_angle_beta   90.00000000
_cell_angle_gamma   148.55606347
_symmetry_Int_Tables_number   1
_chemical_formula_structural   Pr2TmCoSn6
_chemical_formula_sum   'Pr4 Tm2 Co2 Sn12'
_cell_volume   512.68783121
_cell_formula_units_Z   2
loop_
 _symmetry_equiv_pos_site_id
 _symmetry_equiv_pos_as_xyz
  1  'x, y, z'
loop_
 _atom_site_type_symbol
 _atom_site_label
 _atom_site_symmetry_multiplicity
 _atom_site_fract_x
 _atom_site_fract_y
 _atom_site_fract_z
 _atom_site_occupancy
  Pr  Pr0  1  0.900681  0.099319  0.092661  1
  Pr  Pr1  1  0.099319  0.900681  0.592661  1
  Pr  Pr2  1  0.099319  0.900681  0.907339  1
  Pr  Pr3  1  0.900681  0.099319  0.407339  1
  Tm  Tm4  1  0.898651  0.101349  0.750000  1
  Tm  Tm5  1  0.101349  0.898651  0.250000  1
  Co  Co6  1  0.296015  0.703985  0.250000  1
  Co  Co7  1  0.703985  0.296015  0.750000  1
  Sn  Sn8  1  0.755084  0.244916  0.572210  1
  Sn  Sn9  1  0.427169  0.572831  0.580362  1
  Sn  Sn10  1  0.572831  0.427169  0.419638  1
  Sn  Sn11  1  0.731731  0.268269  0.250000  1
  Sn  Sn12  1  0.268269  0.731731  0.750000  1
  Sn  Sn13  1  0.244916  0.755084  0.072210  1
  Sn  Sn14  1  0.244916  0.755084  0.427790  1
  Sn  Sn15  1  0.572831  0.427169  0.080362  1
  Sn  Sn16  1  0.453750  0.546250  0.250000  1
  Sn  Sn17  1  0.546250  0.453750  0.750000  1
  Sn  Sn18  1  0.755084  0.244916  0.927790  1
  Sn  Sn19  1  0.427169  0.572831  0.919638  1
