# generated using pymatgen
data_CsCd4In(GaTe3)4
_symmetry_space_group_name_H-M   'P 1'
_cell_length_a   9.80051960
_cell_length_b   9.85653333
_cell_length_c   10.11297285
_cell_angle_alpha   108.20421232
_cell_angle_beta   106.94533430
_cell_angle_gamma   107.68447981
_symmetry_Int_Tables_number   1
_chemical_formula_structural   CsCd4In(GaTe3)4
_chemical_formula_sum   'Cs1 Cd4 In1 Ga4 Te12'
_cell_volume   799.54502230
_cell_formula_units_Z   1
loop_
 _symmetry_equiv_pos_site_id
 _symmetry_equiv_pos_as_xyz
  1  'x, y, z'
loop_
 _atom_site_type_symbol
 _atom_site_label
 _atom_site_symmetry_multiplicity
 _atom_site_fract_x
 _atom_site_fract_y
 _atom_site_fract_z
 _atom_site_occupancy
  Cs  Cs0  1  0.997461  0.001573  0.000392  1
  Cd  Cd1  1  0.488916  0.338105  0.933880  1
  Cd  Cd2  1  0.628565  0.710007  0.403800  1
  Cd  Cd3  1  0.407743  0.642300  0.717279  1
  Cd  Cd4  1  0.710932  0.401281  0.631652  1
  In  In5  1  0.188126  0.555486  0.025297  1
  Ga  Ga6  1  0.020762  0.184204  0.551094  1
  Ga  Ga7  1  0.565033  0.026531  0.194556  1
  Ga  Ga8  1  0.934510  0.472979  0.337166  1
  Ga  Ga9  1  0.321896  0.930968  0.471878  1
  Te  Te10  1  0.873169  0.634989  0.553929  1
  Te  Te11  1  0.549626  0.880813  0.631991  1
  Te  Te12  1  0.653788  0.578395  0.870404  1
  Te  Te13  1  0.371203  0.425467  0.158141  1
  Te  Te14  1  0.152501  0.375305  0.442545  1
  Te  Te15  1  0.431456  0.142822  0.368555  1
  Te  Te16  1  0.057670  0.684583  0.230961  1
  Te  Te17  1  0.215366  0.066964  0.669794  1
  Te  Te18  1  0.702080  0.218709  0.082600  1
  Te  Te19  1  0.781453  0.929265  0.297956  1
  Te  Te20  1  0.305684  0.798525  0.939397  1
  Te  Te21  1  0.923260  0.281930  0.767938  1
