# generated using pymatgen
data_K7Rb11(AlSb4)2
_symmetry_space_group_name_H-M   'P 1'
_cell_length_a   10.88649583
_cell_length_b   10.90587432
_cell_length_c   11.38639177
_cell_angle_alpha   89.95890653
_cell_angle_beta   89.99727376
_cell_angle_gamma   119.77659549
_symmetry_Int_Tables_number   1
_chemical_formula_structural   K7Rb11(AlSb4)2
_chemical_formula_sum   'K7 Rb11 Al2 Sb8'
_cell_volume   1173.37943121
_cell_formula_units_Z   1
loop_
 _symmetry_equiv_pos_site_id
 _symmetry_equiv_pos_as_xyz
  1  'x, y, z'
loop_
 _atom_site_type_symbol
 _atom_site_label
 _atom_site_symmetry_multiplicity
 _atom_site_fract_x
 _atom_site_fract_y
 _atom_site_fract_z
 _atom_site_occupancy
  K  K0  1  0.119483  0.238666  0.250792  1
  K  K1  1  0.881077  0.762430  0.749866  1
  K  K2  1  0.762036  0.880963  0.250241  1
  K  K3  1  0.119107  0.881051  0.250222  1
  K  K4  1  0.881753  0.119802  0.749552  1
  K  K5  1  0.237992  0.119850  0.749543  1
  K  K6  1  0.206787  0.413697  0.542799  1
  Rb  Rb7  1  0.791566  0.582942  0.044211  1
  Rb  Rb8  1  0.582005  0.790775  0.544058  1
  Rb  Rb9  1  0.208675  0.790679  0.544079  1
  Rb  Rb10  1  0.791508  0.208139  0.044010  1
  Rb  Rb11  1  0.416630  0.208057  0.043960  1
  Rb  Rb12  1  0.791658  0.583156  0.456364  1
  Rb  Rb13  1  0.792154  0.208640  0.456101  1
  Rb  Rb14  1  0.416486  0.208546  0.456141  1
  Rb  Rb15  1  0.583046  0.791867  0.956029  1
  Rb  Rb16  1  0.208724  0.791768  0.955996  1
  Rb  Rb17  1  0.208356  0.416928  0.955398  1
  Al  Al18  1  0.333002  0.666460  0.251099  1
  Al  Al19  1  0.666889  0.333327  0.748979  1
  Sb  Sb20  1  0.999869  0.999733  0.000287  1
  Sb  Sb21  1  0.001132  0.002327  0.500179  1
  Sb  Sb22  1  0.475902  0.523739  0.251570  1
  Sb  Sb23  1  0.523447  0.476348  0.748572  1
  Sb  Sb24  1  0.475796  0.951424  0.249636  1
  Sb  Sb25  1  0.048011  0.523717  0.251608  1
  Sb  Sb26  1  0.952699  0.476384  0.748557  1
  Sb  Sb27  1  0.524207  0.048587  0.750157  1
