# generated using pymatgen
data_Dy3Lu7Cd3Pt
_symmetry_space_group_name_H-M   'P 1'
_cell_length_a   9.57594300
_cell_length_b   9.57594420
_cell_length_c   9.63414700
_cell_angle_alpha   90.00000000
_cell_angle_beta   90.00000000
_cell_angle_gamma   119.99999931
_symmetry_Int_Tables_number   1
_chemical_formula_structural   Dy3Lu7Cd3Pt
_chemical_formula_sum   'Dy6 Lu14 Cd6 Pt2'
_cell_volume   765.08037548
_cell_formula_units_Z   2
loop_
 _symmetry_equiv_pos_site_id
 _symmetry_equiv_pos_as_xyz
  1  'x, y, z'
loop_
 _atom_site_type_symbol
 _atom_site_label
 _atom_site_symmetry_multiplicity
 _atom_site_fract_x
 _atom_site_fract_y
 _atom_site_fract_z
 _atom_site_occupancy
  Dy  Dy0  1  0.541464  0.458536  0.250000  1
  Dy  Dy1  1  0.541464  0.082927  0.250000  1
  Dy  Dy2  1  0.917073  0.458536  0.250000  1
  Dy  Dy3  1  0.458536  0.541464  0.750000  1
  Dy  Dy4  1  0.458536  0.917073  0.750000  1
  Dy  Dy5  1  0.082927  0.541464  0.750000  1
  Lu  Lu6  1  0.000000  0.000000  0.500000  1
  Lu  Lu7  1  0.000000  0.000000  0.000000  1
  Lu  Lu8  1  0.208537  0.791463  0.441786  1
  Lu  Lu9  1  0.208537  0.417076  0.441786  1
  Lu  Lu10  1  0.582924  0.791463  0.441786  1
  Lu  Lu11  1  0.791463  0.208537  0.558214  1
  Lu  Lu12  1  0.791463  0.582924  0.558214  1
  Lu  Lu13  1  0.417076  0.208537  0.558214  1
  Lu  Lu14  1  0.791463  0.208537  0.941786  1
  Lu  Lu15  1  0.791463  0.582924  0.941786  1
  Lu  Lu16  1  0.417076  0.208537  0.941786  1
  Lu  Lu17  1  0.208537  0.791463  0.058214  1
  Lu  Lu18  1  0.208537  0.417076  0.058214  1
  Lu  Lu19  1  0.582924  0.791463  0.058214  1
  Cd  Cd20  1  0.886204  0.113796  0.250000  1
  Cd  Cd21  1  0.886204  0.772410  0.250000  1
  Cd  Cd22  1  0.227590  0.113796  0.250000  1
  Cd  Cd23  1  0.113796  0.886204  0.750000  1
  Cd  Cd24  1  0.113796  0.227590  0.750000  1
  Cd  Cd25  1  0.772410  0.886204  0.750000  1
  Pt  Pt26  1  0.333333  0.666667  0.250000  1
  Pt  Pt27  1  0.666667  0.333333  0.750000  1
