# generated using pymatgen
data_Nd6HoErIn8
_symmetry_space_group_name_H-M   'P 1'
_cell_length_a   6.69729295
_cell_length_b   6.69729312
_cell_length_c   10.19647000
_cell_angle_alpha   90.00000000
_cell_angle_beta   90.00000000
_cell_angle_gamma   98.36503885
_symmetry_Int_Tables_number   1
_chemical_formula_structural   Nd6HoErIn8
_chemical_formula_sum   'Nd6 Ho1 Er1 In8'
_cell_volume   452.48413992
_cell_formula_units_Z   1
loop_
 _symmetry_equiv_pos_site_id
 _symmetry_equiv_pos_as_xyz
  1  'x, y, z'
loop_
 _atom_site_type_symbol
 _atom_site_label
 _atom_site_symmetry_multiplicity
 _atom_site_fract_x
 _atom_site_fract_y
 _atom_site_fract_z
 _atom_site_occupancy
  Nd  Nd0  1  0.533561  0.533561  0.250000  1
  Nd  Nd1  1  0.466702  0.466702  0.750000  1
  Nd  Nd2  1  0.246057  0.753879  0.499903  1
  Nd  Nd3  1  0.246057  0.753879  0.000097  1
  Nd  Nd4  1  0.753879  0.246057  0.499903  1
  Nd  Nd5  1  0.753879  0.246057  0.000097  1
  Ho  Ho6  1  0.022959  0.022958  0.750000  1
  Er  Er7  1  0.977054  0.977053  0.250000  1
  In  In8  1  0.249924  0.249924  0.022662  1
  In  In9  1  0.750030  0.750030  0.977471  1
  In  In10  1  0.249924  0.249924  0.477338  1
  In  In11  1  0.750030  0.750030  0.522529  1
  In  In12  1  0.478601  0.024495  0.250000  1
  In  In13  1  0.975484  0.521367  0.750000  1
  In  In14  1  0.521367  0.975484  0.750000  1
  In  In15  1  0.024495  0.478601  0.250000  1
