# generated using pymatgen
data_HoTm2Si2Ag3Hg
_symmetry_space_group_name_H-M   'P 1'
_cell_length_a   7.18621000
_cell_length_b   7.18620970
_cell_length_c   4.19914100
_cell_angle_alpha   90.00000000
_cell_angle_beta   90.00000000
_cell_angle_gamma   119.99799328
_symmetry_Int_Tables_number   1
_chemical_formula_structural   HoTm2Si2Ag3Hg
_chemical_formula_sum   'Ho1 Tm2 Si2 Ag3 Hg1'
_cell_volume   187.80176150
_cell_formula_units_Z   1
loop_
 _symmetry_equiv_pos_site_id
 _symmetry_equiv_pos_as_xyz
  1  'x, y, z'
loop_
 _atom_site_type_symbol
 _atom_site_label
 _atom_site_symmetry_multiplicity
 _atom_site_fract_x
 _atom_site_fract_y
 _atom_site_fract_z
 _atom_site_occupancy
  Ho  Ho0  1  0.421904  0.421904  0.500000  1
  Tm  Tm1  1  0.577946  0.000115  0.500000  1
  Tm  Tm2  1  0.000115  0.577946  0.500000  1
  Si  Si3  1  0.667360  0.332973  0.000000  1
  Si  Si4  1  0.332973  0.667360  0.000000  1
  Ag  Ag5  1  0.730607  0.730607  0.000000  1
  Ag  Ag6  1  0.269929  0.999760  0.000000  1
  Ag  Ag7  1  0.999760  0.269929  0.000000  1
  Hg  Hg8  1  0.999405  0.999405  0.500000  1
