# generated using pymatgen
data_Ce5Bi3Os
_symmetry_space_group_name_H-M   'P 1'
_cell_length_a   6.40096200
_cell_length_b   9.68665464
_cell_length_c   9.68615600
_cell_angle_alpha   120.00170348
_cell_angle_beta   90.00000000
_cell_angle_gamma   90.00000000
_symmetry_Int_Tables_number   1
_chemical_formula_structural   Ce5Bi3Os
_chemical_formula_sum   'Ce10 Bi6 Os2'
_cell_volume   520.10819995
_cell_formula_units_Z   2
loop_
 _symmetry_equiv_pos_site_id
 _symmetry_equiv_pos_as_xyz
  1  'x, y, z'
loop_
 _atom_site_type_symbol
 _atom_site_label
 _atom_site_symmetry_multiplicity
 _atom_site_fract_x
 _atom_site_fract_y
 _atom_site_fract_z
 _atom_site_occupancy
  Ce  Ce0  1  0.500002  0.333327  0.666667  1
  Ce  Ce1  1  0.500002  0.666660  0.333333  1
  Ce  Ce2  1  0.000002  0.666673  0.333333  1
  Ce  Ce3  1  0.000002  0.333340  0.666667  1
  Ce  Ce4  1  0.749979  0.240886  0.000000  1
  Ce  Ce5  1  0.750010  0.758948  0.758941  1
  Ce  Ce6  1  0.750010  0.000007  0.241059  1
  Ce  Ce7  1  0.249979  0.759114  0.000000  1
  Ce  Ce8  1  0.250010  0.241052  0.241059  1
  Ce  Ce9  1  0.250010  0.999993  0.758941  1
  Bi  Bi10  1  0.749999  0.607598  0.000000  1
  Bi  Bi11  1  0.750004  0.392296  0.392354  1
  Bi  Bi12  1  0.750004  0.999943  0.607646  1
  Bi  Bi13  1  0.249999  0.392402  0.000000  1
  Bi  Bi14  1  0.250004  0.607704  0.607646  1
  Bi  Bi15  1  0.250004  0.000057  0.392354  1
  Os  Os16  1  0.499990  0.999999  0.000000  1
  Os  Os17  1  0.999990  0.000001  0.000000  1
