# generated using pymatgen
data_Tm8TiNb11Si15P
_symmetry_space_group_name_H-M   'P 1'
_cell_length_a   7.06962425
_cell_length_b   7.06140084
_cell_length_c   13.02848200
_cell_angle_alpha   89.97771912
_cell_angle_beta   89.89780218
_cell_angle_gamma   89.95363785
_symmetry_Int_Tables_number   1
_chemical_formula_structural   Tm8TiNb11Si15P
_chemical_formula_sum   'Tm8 Ti1 Nb11 Si15 P1'
_cell_volume   650.39942421
_cell_formula_units_Z   1
loop_
 _symmetry_equiv_pos_site_id
 _symmetry_equiv_pos_as_xyz
  1  'x, y, z'
loop_
 _atom_site_type_symbol
 _atom_site_label
 _atom_site_symmetry_multiplicity
 _atom_site_fract_x
 _atom_site_fract_y
 _atom_site_fract_z
 _atom_site_occupancy
  Tm  Tm0  1  0.342580  0.001443  0.468144  1
  Tm  Tm1  1  0.496233  0.846573  0.717924  1
  Tm  Tm2  1  0.500297  0.157298  0.218206  1
  Tm  Tm3  1  0.842478  0.498014  0.282138  1
  Tm  Tm4  1  0.157485  0.496380  0.781204  1
  Tm  Tm5  1  0.658695  0.997322  0.968368  1
  Tm  Tm6  1  0.001497  0.342194  0.532949  1
  Tm  Tm7  1  0.998931  0.658486  0.031671  1
  Ti  Ti8  1  0.995489  0.849191  0.626898  1
  Nb  Nb9  1  0.328457  0.328477  0.999469  1
  Nb  Nb10  1  0.171528  0.828487  0.250017  1
  Nb  Nb11  1  0.828789  0.172555  0.749017  1
  Nb  Nb12  1  0.670922  0.671210  0.500223  1
  Nb  Nb13  1  0.154684  0.008236  0.871035  1
  Nb  Nb14  1  0.493082  0.651890  0.124427  1
  Nb  Nb15  1  0.503882  0.345339  0.625313  1
  Nb  Nb16  1  0.653414  0.494790  0.876534  1
  Nb  Nb17  1  0.348220  0.505716  0.376304  1
  Nb  Nb18  1  0.846803  0.993166  0.374401  1
  Nb  Nb19  1  0.007005  0.151706  0.126071  1
  Si  Si20  1  0.364929  0.704773  0.931069  1
  Si  Si21  1  0.634112  0.295769  0.432193  1
  Si  Si22  1  0.703913  0.365191  0.068720  1
  Si  Si23  1  0.295219  0.635552  0.568521  1
  Si  Si24  1  0.795859  0.864968  0.181683  1
  Si  Si25  1  0.134684  0.203917  0.318985  1
  Si  Si26  1  0.866163  0.796628  0.817394  1
  Si  Si27  1  0.294471  0.953974  0.063135  1
  Si  Si28  1  0.545770  0.794207  0.313831  1
  Si  Si29  1  0.459483  0.206884  0.816539  1
  Si  Si30  1  0.794469  0.548655  0.685102  1
  Si  Si31  1  0.205519  0.453756  0.186364  1
  Si  Si32  1  0.707362  0.045032  0.564108  1
  Si  Si33  1  0.953824  0.294402  0.936351  1
  Si  Si34  1  0.045760  0.706705  0.437084  1
  P  P35  1  0.197996  0.131112  0.678608  1
