# generated using pymatgen
data_Rb9InSb4
_symmetry_space_group_name_H-M   'P 1'
_cell_length_a   11.10203500
_cell_length_b   11.10203532
_cell_length_c   11.77355800
_cell_angle_alpha   90.00000000
_cell_angle_beta   90.00000000
_cell_angle_gamma   119.99999607
_symmetry_Int_Tables_number   1
_chemical_formula_structural   Rb9InSb4
_chemical_formula_sum   'Rb18 In2 Sb8'
_cell_volume   1256.73460329
_cell_formula_units_Z   2
loop_
 _symmetry_equiv_pos_site_id
 _symmetry_equiv_pos_as_xyz
  1  'x, y, z'
loop_
 _atom_site_type_symbol
 _atom_site_label
 _atom_site_symmetry_multiplicity
 _atom_site_fract_x
 _atom_site_fract_y
 _atom_site_fract_z
 _atom_site_occupancy
  Rb  Rb0  1  0.118705  0.237409  0.250000  1
  Rb  Rb1  1  0.881295  0.118705  0.750000  1
  Rb  Rb2  1  0.237409  0.118705  0.750000  1
  Rb  Rb3  1  0.762591  0.881295  0.250000  1
  Rb  Rb4  1  0.118705  0.881295  0.250000  1
  Rb  Rb5  1  0.881295  0.762591  0.750000  1
  Rb  Rb6  1  0.207398  0.414796  0.542956  1
  Rb  Rb7  1  0.792602  0.207398  0.042956  1
  Rb  Rb8  1  0.414796  0.207398  0.042956  1
  Rb  Rb9  1  0.585204  0.792602  0.542956  1
  Rb  Rb10  1  0.207398  0.792602  0.542956  1
  Rb  Rb11  1  0.792602  0.585204  0.457044  1
  Rb  Rb12  1  0.792602  0.207398  0.457044  1
  Rb  Rb13  1  0.792602  0.585204  0.042956  1
  Rb  Rb14  1  0.414796  0.207398  0.457044  1
  Rb  Rb15  1  0.585204  0.792602  0.957044  1
  Rb  Rb16  1  0.207398  0.414796  0.957044  1
  Rb  Rb17  1  0.207398  0.792602  0.957044  1
  In  In18  1  0.333333  0.666667  0.250000  1
  In  In19  1  0.666667  0.333333  0.750000  1
  Sb  Sb20  1  0.482800  0.517200  0.250000  1
  Sb  Sb21  1  0.965597  0.482800  0.750000  1
  Sb  Sb22  1  0.517200  0.034403  0.750000  1
  Sb  Sb23  1  0.482800  0.965597  0.250000  1
  Sb  Sb24  1  0.034403  0.517200  0.250000  1
  Sb  Sb25  1  0.517200  0.482800  0.750000  1
  Sb  Sb26  1  0.000000  0.000000  0.000000  1
  Sb  Sb27  1  0.000000  0.000000  0.500000  1
