# generated using pymatgen
data_Ho5Er11In4PdRh3
_symmetry_space_group_name_H-M   'P 1'
_cell_length_a   9.60152420
_cell_length_b   9.60479610
_cell_length_c   9.60283403
_cell_angle_alpha   60.01596016
_cell_angle_beta   59.99707256
_cell_angle_gamma   60.02588631
_symmetry_Int_Tables_number   1
_chemical_formula_structural   Ho5Er11In4PdRh3
_chemical_formula_sum   'Ho5 Er11 In4 Pd1 Rh3'
_cell_volume   626.38364380
_cell_formula_units_Z   1
loop_
 _symmetry_equiv_pos_site_id
 _symmetry_equiv_pos_as_xyz
  1  'x, y, z'
loop_
 _atom_site_type_symbol
 _atom_site_label
 _atom_site_symmetry_multiplicity
 _atom_site_fract_x
 _atom_site_fract_y
 _atom_site_fract_z
 _atom_site_occupancy
  Ho  Ho0  1  0.192844  0.184433  0.811271  1
  Ho  Ho1  1  0.437785  0.062943  0.061683  1
  Ho  Ho2  1  0.437691  0.063054  0.437597  1
  Ho  Ho3  1  0.061622  0.440419  0.061867  1
  Ho  Ho4  1  0.650707  0.048487  0.650403  1
  Er  Er5  1  0.188328  0.811456  0.811661  1
  Er  Er6  1  0.061460  0.063021  0.437785  1
  Er  Er7  1  0.811218  0.184354  0.193067  1
  Er  Er8  1  0.811771  0.811585  0.188359  1
  Er  Er9  1  0.646573  0.652908  0.053906  1
  Er  Er10  1  0.646647  0.652863  0.646611  1
  Er  Er11  1  0.061606  0.440485  0.436227  1
  Er  Er12  1  0.053856  0.653104  0.646435  1
  Er  Er13  1  0.811311  0.184408  0.811265  1
  Er  Er14  1  0.436340  0.440520  0.061632  1
  Er  Er15  1  0.188266  0.811445  0.188580  1
  In  In16  1  0.416192  0.751137  0.416334  1
  In  In17  1  0.417151  0.415554  0.750397  1
  In  In18  1  0.750629  0.415376  0.417060  1
  In  In19  1  0.416957  0.415563  0.416868  1
  Pd  Pd20  1  0.856080  0.431001  0.856386  1
  Rh  Rh21  1  0.857800  0.855345  0.429256  1
  Rh  Rh22  1  0.429405  0.855053  0.857790  1
  Rh  Rh23  1  0.857761  0.855484  0.857562  1
