# generated using pymatgen
data_NdLuCr3O12
_symmetry_space_group_name_H-M   'P 1'
_cell_length_a   9.95747669
_cell_length_b   9.95747861
_cell_length_c   9.95747900
_cell_angle_alpha   57.95430993
_cell_angle_beta   57.95430301
_cell_angle_gamma   57.95431182
_symmetry_Int_Tables_number   1
_chemical_formula_structural   NdLuCr3O12
_chemical_formula_sum   'Nd2 Lu2 Cr6 O24'
_cell_volume   665.35668741
_cell_formula_units_Z   2
loop_
 _symmetry_equiv_pos_site_id
 _symmetry_equiv_pos_as_xyz
  1  'x, y, z'
loop_
 _atom_site_type_symbol
 _atom_site_label
 _atom_site_symmetry_multiplicity
 _atom_site_fract_x
 _atom_site_fract_y
 _atom_site_fract_z
 _atom_site_occupancy
  Nd  Nd0  1  0.640120  0.640120  0.640120  1
  Nd  Nd1  1  0.359880  0.359880  0.359880  1
  Lu  Lu2  1  0.142519  0.142519  0.142519  1
  Lu  Lu3  1  0.857481  0.857481  0.857481  1
  Cr  Cr4  1  0.761785  0.029128  0.465777  1
  Cr  Cr5  1  0.970871  0.534224  0.238215  1
  Cr  Cr6  1  0.534224  0.238215  0.970872  1
  Cr  Cr7  1  0.465776  0.761785  0.029129  1
  Cr  Cr8  1  0.029129  0.465776  0.761785  1
  Cr  Cr9  1  0.238215  0.970871  0.534224  1
  O  O10  1  0.926060  0.064640  0.293279  1
  O  O11  1  0.786062  0.994831  0.634498  1
  O  O12  1  0.005169  0.365502  0.213938  1
  O  O13  1  0.706721  0.073940  0.935360  1
  O  O14  1  0.589822  0.196694  0.446138  1
  O  O15  1  0.864026  0.487057  0.741357  1
  O  O16  1  0.512943  0.258643  0.135974  1
  O  O17  1  0.803306  0.553862  0.410178  1
  O  O18  1  0.935360  0.706721  0.073940  1
  O  O19  1  0.553862  0.410178  0.803306  1
  O  O20  1  0.365502  0.213938  0.005169  1
  O  O21  1  0.258643  0.135974  0.512943  1
  O  O22  1  0.741357  0.864026  0.487057  1
  O  O23  1  0.634498  0.786062  0.994831  1
  O  O24  1  0.446138  0.589822  0.196694  1
  O  O25  1  0.064640  0.293279  0.926060  1
  O  O26  1  0.196694  0.446138  0.589822  1
  O  O27  1  0.487057  0.741357  0.864026  1
  O  O28  1  0.135974  0.512943  0.258643  1
  O  O29  1  0.410178  0.803306  0.553862  1
  O  O30  1  0.293279  0.926060  0.064640  1
  O  O31  1  0.994831  0.634498  0.786062  1
  O  O32  1  0.213938  0.005169  0.365502  1
  O  O33  1  0.073940  0.935360  0.706721  1
