# generated using pymatgen
data_HfZr7(CdCu2)4
_symmetry_space_group_name_H-M   'P 1'
_cell_length_a   7.26134258
_cell_length_b   7.26134259
_cell_length_c   6.85110800
_cell_angle_alpha   90.00000000
_cell_angle_beta   90.00000000
_cell_angle_gamma   90.08167493
_symmetry_Int_Tables_number   1
_chemical_formula_structural   HfZr7(CdCu2)4
_chemical_formula_sum   'Hf1 Zr7 Cd4 Cu8'
_cell_volume   361.23866306
_cell_formula_units_Z   1
loop_
 _symmetry_equiv_pos_site_id
 _symmetry_equiv_pos_as_xyz
  1  'x, y, z'
loop_
 _atom_site_type_symbol
 _atom_site_label
 _atom_site_symmetry_multiplicity
 _atom_site_fract_x
 _atom_site_fract_y
 _atom_site_fract_z
 _atom_site_occupancy
  Hf  Hf0  1  0.193022  0.193022  0.500000  1
  Zr  Zr1  1  0.149774  0.149774  0.000000  1
  Zr  Zr2  1  0.849951  0.849951  0.000000  1
  Zr  Zr3  1  0.649268  0.349132  0.500000  1
  Zr  Zr4  1  0.349132  0.649268  0.500000  1
  Zr  Zr5  1  0.692929  0.306705  0.000000  1
  Zr  Zr6  1  0.306705  0.692929  0.000000  1
  Zr  Zr7  1  0.807253  0.807253  0.500000  1
  Cd  Cd8  1  0.499850  0.000008  0.251056  1
  Cd  Cd9  1  0.499850  0.000008  0.748944  1
  Cd  Cd10  1  0.000008  0.499850  0.251056  1
  Cd  Cd11  1  0.000008  0.499850  0.748944  1
  Cu  Cu12  1  0.374937  0.374937  0.204575  1
  Cu  Cu13  1  0.623009  0.623009  0.798229  1
  Cu  Cu14  1  0.623009  0.623009  0.201771  1
  Cu  Cu15  1  0.878427  0.124752  0.701079  1
  Cu  Cu16  1  0.878427  0.124752  0.298921  1
  Cu  Cu17  1  0.374937  0.374937  0.795425  1
  Cu  Cu18  1  0.124752  0.878427  0.298921  1
  Cu  Cu19  1  0.124752  0.878427  0.701079  1
