# generated using pymatgen
data_Cr2ReIr4Ru
_symmetry_space_group_name_H-M   'P 1'
_cell_length_a   5.41031500
_cell_length_b   5.46214561
_cell_length_c   4.29872000
_cell_angle_alpha   90.00000000
_cell_angle_beta   90.00000000
_cell_angle_gamma   119.68659178
_symmetry_Int_Tables_number   1
_chemical_formula_structural   Cr2ReIr4Ru
_chemical_formula_sum   'Cr2 Re1 Ir4 Ru1'
_cell_volume   110.36173493
_cell_formula_units_Z   1
loop_
 _symmetry_equiv_pos_site_id
 _symmetry_equiv_pos_as_xyz
  1  'x, y, z'
loop_
 _atom_site_type_symbol
 _atom_site_label
 _atom_site_symmetry_multiplicity
 _atom_site_fract_x
 _atom_site_fract_y
 _atom_site_fract_z
 _atom_site_occupancy
  Cr  Cr0  1  0.333931  0.667863  0.750000  1
  Cr  Cr1  1  0.670296  0.340591  0.250000  1
  Re  Re2  1  0.169576  0.339153  0.250000  1
  Ir  Ir3  1  0.661963  0.824858  0.250000  1
  Ir  Ir4  1  0.162895  0.824858  0.250000  1
  Ir  Ir5  1  0.339838  0.170785  0.750000  1
  Ir  Ir6  1  0.830945  0.170785  0.750000  1
  Ru  Ru7  1  0.830554  0.661109  0.750000  1
