# generated using pymatgen
data_Hf4Ti2Si4MoW
_symmetry_space_group_name_H-M   'P 1'
_cell_length_a   3.56929800
_cell_length_b   6.87850692
_cell_length_c   8.26286708
_cell_angle_alpha   90.15017356
_cell_angle_beta   90.00000000
_cell_angle_gamma   90.00000000
_symmetry_Int_Tables_number   1
_chemical_formula_structural   Hf4Ti2Si4MoW
_chemical_formula_sum   'Hf4 Ti2 Si4 Mo1 W1'
_cell_volume   202.86459671
_cell_formula_units_Z   1
loop_
 _symmetry_equiv_pos_site_id
 _symmetry_equiv_pos_as_xyz
  1  'x, y, z'
loop_
 _atom_site_type_symbol
 _atom_site_label
 _atom_site_symmetry_multiplicity
 _atom_site_fract_x
 _atom_site_fract_y
 _atom_site_fract_z
 _atom_site_occupancy
  Hf  Hf0  1  0.250000  0.549522  0.165521  1
  Hf  Hf1  1  0.250000  0.050171  0.334339  1
  Hf  Hf2  1  0.750000  0.457158  0.835119  1
  Hf  Hf3  1  0.750000  0.956983  0.666015  1
  Ti  Ti4  1  0.250000  0.625115  0.558410  1
  Ti  Ti5  1  0.250000  0.126353  0.940569  1
  Si  Si6  1  0.250000  0.754217  0.860140  1
  Si  Si7  1  0.250000  0.254081  0.639306  1
  Si  Si8  1  0.750000  0.245584  0.138759  1
  Si  Si9  1  0.750000  0.746879  0.361225  1
  Mo  Mo10  1  0.750000  0.367360  0.440732  1
  W  W11  1  0.750000  0.866577  0.059865  1
