# generated using pymatgen
data_Ce2HgRuRh
_symmetry_space_group_name_H-M   'P 1'
_cell_length_a   7.66266202
_cell_length_b   7.66266169
_cell_length_c   3.68364700
_cell_angle_alpha   90.00000000
_cell_angle_beta   90.00000000
_cell_angle_gamma   90.56293544
_symmetry_Int_Tables_number   1
_chemical_formula_structural   Ce2HgRuRh
_chemical_formula_sum   'Ce4 Hg2 Ru2 Rh2'
_cell_volume   216.28000249
_cell_formula_units_Z   2
loop_
 _symmetry_equiv_pos_site_id
 _symmetry_equiv_pos_as_xyz
  1  'x, y, z'
loop_
 _atom_site_type_symbol
 _atom_site_label
 _atom_site_symmetry_multiplicity
 _atom_site_fract_x
 _atom_site_fract_y
 _atom_site_fract_z
 _atom_site_occupancy
  Ce  Ce0  1  0.672831  0.172831  0.500000  1
  Ce  Ce1  1  0.327169  0.827169  0.500000  1
  Ce  Ce2  1  0.164579  0.335421  0.500000  1
  Ce  Ce3  1  0.835421  0.664579  0.500000  1
  Hg  Hg4  1  0.000000  0.000000  0.000000  1
  Hg  Hg5  1  0.500000  0.500000  0.000000  1
  Ru  Ru6  1  0.140466  0.640466  0.000000  1
  Ru  Ru7  1  0.859534  0.359534  0.000000  1
  Rh  Rh8  1  0.635146  0.864854  0.000000  1
  Rh  Rh9  1  0.364854  0.135146  0.000000  1
