# generated using pymatgen
data_Ag2IrRh3(PbO7)2
_symmetry_space_group_name_H-M   'P 1'
_cell_length_a   7.24474247
_cell_length_b   7.31329109
_cell_length_c   7.24474282
_cell_angle_alpha   59.65427062
_cell_angle_beta   59.56775557
_cell_angle_gamma   59.65427535
_symmetry_Int_Tables_number   1
_chemical_formula_structural   Ag2IrRh3(PbO7)2
_chemical_formula_sum   'Ag2 Ir1 Rh3 Pb2 O14'
_cell_volume   269.11042723
_cell_formula_units_Z   1
loop_
 _symmetry_equiv_pos_site_id
 _symmetry_equiv_pos_as_xyz
  1  'x, y, z'
loop_
 _atom_site_type_symbol
 _atom_site_label
 _atom_site_symmetry_multiplicity
 _atom_site_fract_x
 _atom_site_fract_y
 _atom_site_fract_z
 _atom_site_occupancy
  Ag  Ag0  1  0.625000  0.125000  0.125000  1
  Ag  Ag1  1  0.125000  0.125000  0.625000  1
  Ir  Ir2  1  0.625000  0.125000  0.625000  1
  Rh  Rh3  1  0.125000  0.625000  0.625000  1
  Rh  Rh4  1  0.625000  0.625000  0.125000  1
  Rh  Rh5  1  0.625000  0.625000  0.625000  1
  Pb  Pb6  1  0.125000  0.625000  0.125000  1
  Pb  Pb7  1  0.125000  0.125000  0.125000  1
  O  O8  1  0.706890  0.706600  0.291674  1
  O  O9  1  0.299705  0.297741  0.710588  1
  O  O10  1  0.690005  0.304471  0.690005  1
  O  O11  1  0.290305  0.711752  0.290305  1
  O  O12  1  0.291674  0.706600  0.706890  1
  O  O13  1  0.710588  0.297741  0.299705  1
  O  O14  1  0.543110  0.543400  0.958326  1
  O  O15  1  0.950295  0.952259  0.539412  1
  O  O16  1  0.559995  0.945529  0.559995  1
  O  O17  1  0.959695  0.538248  0.959695  1
  O  O18  1  0.958326  0.543400  0.543110  1
  O  O19  1  0.539412  0.952259  0.950295  1
  O  O20  1  0.267680  0.230376  0.267680  1
  O  O21  1  0.982320  0.019624  0.982320  1
