# generated using pymatgen
data_K2Al(ZnAu2)3
_symmetry_space_group_name_H-M   'P 1'
_cell_length_a   5.67330170
_cell_length_b   7.03711881
_cell_length_c   13.45609500
_cell_angle_alpha   90.00000000
_cell_angle_beta   90.00000000
_cell_angle_gamma   89.74518379
_symmetry_Int_Tables_number   1
_chemical_formula_structural   K2Al(ZnAu2)3
_chemical_formula_sum   'K4 Al2 Zn6 Au12'
_cell_volume   537.21176153
_cell_formula_units_Z   2
loop_
 _symmetry_equiv_pos_site_id
 _symmetry_equiv_pos_as_xyz
  1  'x, y, z'
loop_
 _atom_site_type_symbol
 _atom_site_label
 _atom_site_symmetry_multiplicity
 _atom_site_fract_x
 _atom_site_fract_y
 _atom_site_fract_z
 _atom_site_occupancy
  K  K0  1  0.252081  0.107890  0.077692  1
  K  K1  1  0.247919  0.392110  0.577692  1
  K  K2  1  0.750412  0.892147  0.922346  1
  K  K3  1  0.749588  0.607853  0.422346  1
  Al  Al4  1  0.500684  0.898388  0.653274  1
  Al  Al5  1  0.999316  0.601612  0.153274  1
  Zn  Zn6  1  0.999259  0.894172  0.651829  1
  Zn  Zn7  1  0.500741  0.605828  0.151829  1
  Zn  Zn8  1  0.501502  0.104637  0.347148  1
  Zn  Zn9  1  0.998498  0.395363  0.847148  1
  Zn  Zn10  1  0.001136  0.103491  0.349227  1
  Zn  Zn11  1  0.498864  0.396509  0.849227  1
  Au  Au12  1  0.253145  0.105101  0.785776  1
  Au  Au13  1  0.246855  0.394899  0.285776  1
  Au  Au14  1  0.757880  0.893399  0.208951  1
  Au  Au15  1  0.742120  0.606601  0.708951  1
  Au  Au16  1  0.250850  0.703351  0.789583  1
  Au  Au17  1  0.249150  0.796649  0.289583  1
  Au  Au18  1  0.755127  0.297484  0.211460  1
  Au  Au19  1  0.744873  0.202516  0.711460  1
  Au  Au20  1  0.240939  0.586225  0.992650  1
  Au  Au21  1  0.259061  0.913775  0.492650  1
  Au  Au22  1  0.750257  0.418402  0.010063  1
  Au  Au23  1  0.749743  0.081598  0.510063  1
