# generated using pymatgen
data_ErNp3(B6W)2
_symmetry_space_group_name_H-M   'P 1'
_cell_length_a   3.62710600
_cell_length_b   9.32068359
_cell_length_c   11.38276777
_cell_angle_alpha   89.95857240
_cell_angle_beta   90.00000000
_cell_angle_gamma   90.00000000
_symmetry_Int_Tables_number   1
_chemical_formula_structural   ErNp3(B6W)2
_chemical_formula_sum   'Er2 Np6 B24 W4'
_cell_volume   384.81835153
_cell_formula_units_Z   2
loop_
 _symmetry_equiv_pos_site_id
 _symmetry_equiv_pos_as_xyz
  1  'x, y, z'
loop_
 _atom_site_type_symbol
 _atom_site_label
 _atom_site_symmetry_multiplicity
 _atom_site_fract_x
 _atom_site_fract_y
 _atom_site_fract_z
 _atom_site_occupancy
  Er  Er0  1  0.000000  0.337932  0.407586  1
  Er  Er1  1  0.000000  0.662068  0.592414  1
  Np  Np2  1  0.000000  0.837963  0.092877  1
  Np  Np3  1  0.000000  0.162037  0.907123  1
  Np  Np4  1  0.000000  0.958994  0.400209  1
  Np  Np5  1  0.000000  0.041006  0.599791  1
  Np  Np6  1  0.000000  0.458680  0.099534  1
  Np  Np7  1  0.000000  0.541320  0.900466  1
  B  B8  1  0.500000  0.551399  0.432338  1
  B  B9  1  0.500000  0.448601  0.567662  1
  B  B10  1  0.500000  0.051329  0.067359  1
  B  B11  1  0.500000  0.948671  0.932641  1
  B  B12  1  0.500000  0.745314  0.424573  1
  B  B13  1  0.500000  0.254686  0.575427  1
  B  B14  1  0.500000  0.245477  0.075540  1
  B  B15  1  0.500000  0.754523  0.924460  1
  B  B16  1  0.500000  0.806997  0.274159  1
  B  B17  1  0.500000  0.193003  0.725841  1
  B  B18  1  0.500000  0.306001  0.224874  1
  B  B19  1  0.500000  0.693999  0.775126  1
  B  B20  1  0.500000  0.645685  0.186529  1
  B  B21  1  0.500000  0.354315  0.813471  1
  B  B22  1  0.500000  0.145393  0.313190  1
  B  B23  1  0.500000  0.854607  0.686810  1
  B  B24  1  0.500000  0.987296  0.221388  1
  B  B25  1  0.500000  0.012704  0.778612  1
  B  B26  1  0.500000  0.487738  0.278868  1
  B  B27  1  0.500000  0.512262  0.721132  1
  B  B28  1  0.500000  0.641524  0.039220  1
  B  B29  1  0.500000  0.358476  0.960780  1
  B  B30  1  0.500000  0.139413  0.461196  1
  B  B31  1  0.500000  0.860587  0.538804  1
  W  W32  1  0.000000  0.648945  0.316292  1
  W  W33  1  0.000000  0.351055  0.683708  1
  W  W34  1  0.000000  0.145274  0.178940  1
  W  W35  1  0.000000  0.854726  0.821060  1
