# generated using pymatgen
data_Y13Ho3MgCo4Ag3
_symmetry_space_group_name_H-M   'P 1'
_cell_length_a   9.48341374
_cell_length_b   9.49115803
_cell_length_c   9.49115800
_cell_angle_alpha   60.00000709
_cell_angle_beta   59.97299004
_cell_angle_gamma   59.97298747
_symmetry_Int_Tables_number   1
_chemical_formula_structural   Y13Ho3MgCo4Ag3
_chemical_formula_sum   'Y13 Ho3 Mg1 Co4 Ag3'
_cell_volume   603.82445714
_cell_formula_units_Z   1
loop_
 _symmetry_equiv_pos_site_id
 _symmetry_equiv_pos_as_xyz
  1  'x, y, z'
loop_
 _atom_site_type_symbol
 _atom_site_label
 _atom_site_symmetry_multiplicity
 _atom_site_fract_x
 _atom_site_fract_y
 _atom_site_fract_z
 _atom_site_occupancy
  Y  Y0  1  0.948727  0.350424  0.350424  1
  Y  Y1  1  0.810098  0.188722  0.188722  1
  Y  Y2  1  0.186696  0.813165  0.813165  1
  Y  Y3  1  0.186696  0.813165  0.186975  1
  Y  Y4  1  0.810098  0.188722  0.812458  1
  Y  Y5  1  0.186696  0.186975  0.813165  1
  Y  Y6  1  0.810098  0.812458  0.188722  1
  Y  Y7  1  0.935458  0.563046  0.563046  1
  Y  Y8  1  0.561799  0.937040  0.937040  1
  Y  Y9  1  0.561799  0.937040  0.564120  1
  Y  Y10  1  0.935458  0.563046  0.938450  1
  Y  Y11  1  0.561799  0.564120  0.937040  1
  Y  Y12  1  0.935458  0.938450  0.563046  1
  Ho  Ho13  1  0.346630  0.346106  0.346106  1
  Ho  Ho14  1  0.346630  0.346106  0.961158  1
  Ho  Ho15  1  0.346630  0.961158  0.346106  1
  Mg  Mg16  1  0.287610  0.570796  0.570796  1
  Co  Co17  1  0.140676  0.142421  0.142421  1
  Co  Co18  1  0.140676  0.142421  0.574481  1
  Co  Co19  1  0.140676  0.574481  0.142421  1
  Co  Co20  1  0.572583  0.142472  0.142472  1
  Ag  Ag21  1  0.582336  0.582562  0.582562  1
  Ag  Ag22  1  0.582336  0.582562  0.252541  1
  Ag  Ag23  1  0.582336  0.252541  0.582562  1
