# generated using pymatgen
data_Y3Er5In3Tc
_symmetry_space_group_name_H-M   'P 1'
_cell_length_a   10.33343929
_cell_length_b   10.33876555
_cell_length_c   7.06273000
_cell_angle_alpha   90.00000000
_cell_angle_beta   90.00000000
_cell_angle_gamma   119.95647720
_symmetry_Int_Tables_number   1
_chemical_formula_structural   Y3Er5In3Tc
_chemical_formula_sum   'Y6 Er10 In6 Tc2'
_cell_volume   653.74309393
_cell_formula_units_Z   2
loop_
 _symmetry_equiv_pos_site_id
 _symmetry_equiv_pos_as_xyz
  1  'x, y, z'
loop_
 _atom_site_type_symbol
 _atom_site_label
 _atom_site_symmetry_multiplicity
 _atom_site_fract_x
 _atom_site_fract_y
 _atom_site_fract_z
 _atom_site_occupancy
  Y  Y0  1  0.530632  0.061265  0.796904  1
  Y  Y1  1  0.938766  0.469378  0.796843  1
  Y  Y2  1  0.530604  0.469388  0.796836  1
  Y  Y3  1  0.469368  0.938735  0.296904  1
  Y  Y4  1  0.061234  0.530622  0.296843  1
  Y  Y5  1  0.469396  0.530612  0.296836  1
  Er  Er6  1  0.822801  0.645606  0.499481  1
  Er  Er7  1  0.354403  0.177208  0.499399  1
  Er  Er8  1  0.822792  0.177213  0.499377  1
  Er  Er9  1  0.177199  0.354394  0.999481  1
  Er  Er10  1  0.645597  0.822792  0.999399  1
  Er  Er11  1  0.177208  0.822787  0.999377  1
  Er  Er12  1  0.666666  0.333321  0.168413  1
  Er  Er13  1  0.333334  0.666679  0.668413  1
  Er  Er14  1  0.000004  0.999988  0.775252  1
  Er  Er15  1  0.999996  0.000012  0.275252  1
  In  In16  1  0.837131  0.674278  0.040356  1
  In  In17  1  0.325779  0.162942  0.040398  1
  In  In18  1  0.837147  0.162936  0.040423  1
  In  In19  1  0.162869  0.325722  0.540356  1
  In  In20  1  0.674221  0.837058  0.540398  1
  In  In21  1  0.162853  0.837064  0.540423  1
  Tc  Tc22  1  0.666642  0.333272  0.564270  1
  Tc  Tc23  1  0.333358  0.666728  0.064270  1
