# generated using pymatgen
data_NdFe3P3Rh2
_symmetry_space_group_name_H-M   'P 1'
_cell_length_a   3.79884200
_cell_length_b   10.46541000
_cell_length_c   12.25252000
_cell_angle_alpha   90.00000000
_cell_angle_beta   90.00000000
_cell_angle_gamma   90.00000000
_symmetry_Int_Tables_number   1
_chemical_formula_structural   NdFe3P3Rh2
_chemical_formula_sum   'Nd4 Fe12 P12 Rh8'
_cell_volume   487.11656465
_cell_formula_units_Z   4
loop_
 _symmetry_equiv_pos_site_id
 _symmetry_equiv_pos_as_xyz
  1  'x, y, z'
loop_
 _atom_site_type_symbol
 _atom_site_label
 _atom_site_symmetry_multiplicity
 _atom_site_fract_x
 _atom_site_fract_y
 _atom_site_fract_z
 _atom_site_occupancy
  Nd  Nd0  1  0.250000  0.581784  0.709090  1
  Nd  Nd1  1  0.250000  0.918216  0.209090  1
  Nd  Nd2  1  0.750000  0.418216  0.290910  1
  Nd  Nd3  1  0.750000  0.081784  0.790910  1
  Fe  Fe4  1  0.250000  0.224314  0.170558  1
  Fe  Fe5  1  0.250000  0.275686  0.670558  1
  Fe  Fe6  1  0.750000  0.775686  0.829442  1
  Fe  Fe7  1  0.750000  0.724314  0.329442  1
  Fe  Fe8  1  0.250000  0.878691  0.696993  1
  Fe  Fe9  1  0.250000  0.621309  0.196993  1
  Fe  Fe10  1  0.750000  0.121309  0.303007  1
  Fe  Fe11  1  0.750000  0.378691  0.803007  1
  Fe  Fe12  1  0.250000  0.459914  0.935552  1
  Fe  Fe13  1  0.250000  0.040086  0.435552  1
  Fe  Fe14  1  0.750000  0.540086  0.064448  1
  Fe  Fe15  1  0.750000  0.959914  0.564448  1
  P  P16  1  0.250000  0.429770  0.110935  1
  P  P17  1  0.250000  0.070230  0.610935  1
  P  P18  1  0.750000  0.570230  0.889065  1
  P  P19  1  0.750000  0.929770  0.389065  1
  P  P20  1  0.250000  0.278333  0.853315  1
  P  P21  1  0.250000  0.221667  0.353315  1
  P  P22  1  0.750000  0.721667  0.146685  1
  P  P23  1  0.750000  0.778333  0.646685  1
  P  P24  1  0.250000  0.609641  0.379370  1
  P  P25  1  0.250000  0.890359  0.879370  1
  P  P26  1  0.750000  0.390359  0.620630  1
  P  P27  1  0.750000  0.109641  0.120630  1
  Rh  Rh28  1  0.250000  0.706174  0.985216  1
  Rh  Rh29  1  0.250000  0.793826  0.485216  1
  Rh  Rh30  1  0.750000  0.293826  0.014784  1
  Rh  Rh31  1  0.750000  0.206174  0.514784  1
  Rh  Rh32  1  0.250000  0.403916  0.482722  1
  Rh  Rh33  1  0.250000  0.096084  0.982722  1
  Rh  Rh34  1  0.750000  0.596084  0.517278  1
  Rh  Rh35  1  0.750000  0.903916  0.017278  1
