# generated using pymatgen
data_Sr2Yb3Si8Ni17
_symmetry_space_group_name_H-M   'P 1'
_cell_length_a   13.13957791
_cell_length_b   13.13957867
_cell_length_c   3.96773400
_cell_angle_alpha   90.00000000
_cell_angle_beta   90.00000000
_cell_angle_gamma   140.97056687
_symmetry_Int_Tables_number   1
_chemical_formula_structural   Sr2Yb3Si8Ni17
_chemical_formula_sum   'Sr2 Yb3 Si8 Ni17'
_cell_volume   431.37261066
_cell_formula_units_Z   1
loop_
 _symmetry_equiv_pos_site_id
 _symmetry_equiv_pos_as_xyz
  1  'x, y, z'
loop_
 _atom_site_type_symbol
 _atom_site_label
 _atom_site_symmetry_multiplicity
 _atom_site_fract_x
 _atom_site_fract_y
 _atom_site_fract_z
 _atom_site_occupancy
  Sr  Sr0  1  0.831319  0.614753  0.000000  1
  Sr  Sr1  1  0.614753  0.831319  0.000000  1
  Yb  Yb2  1  0.188316  0.795024  0.500000  1
  Yb  Yb3  1  0.795024  0.188316  0.500000  1
  Yb  Yb4  1  0.222978  0.222978  0.500000  1
  Si  Si5  1  0.162602  0.998004  0.000000  1
  Si  Si6  1  0.998004  0.162602  0.000000  1
  Si  Si7  1  0.473771  0.957277  0.000000  1
  Si  Si8  1  0.957277  0.473771  0.000000  1
  Si  Si9  1  0.584154  0.306716  0.500000  1
  Si  Si10  1  0.306716  0.584154  0.500000  1
  Si  Si11  1  0.488887  0.488887  0.000000  1
  Si  Si12  1  0.758226  0.758226  0.500000  1
  Ni  Ni13  1  0.372134  0.039832  0.000000  1
  Ni  Ni14  1  0.039832  0.372134  0.000000  1
  Ni  Ni15  1  0.669976  0.270973  0.000000  1
  Ni  Ni16  1  0.270973  0.669976  0.000000  1
  Ni  Ni17  1  0.444735  0.279617  0.000000  1
  Ni  Ni18  1  0.279617  0.444735  0.000000  1
  Ni  Ni19  1  0.016765  0.895642  0.500000  1
  Ni  Ni20  1  0.895642  0.016765  0.500000  1
  Ni  Ni21  1  0.308093  0.085943  0.500000  1
  Ni  Ni22  1  0.085943  0.308093  0.500000  1
  Ni  Ni23  1  0.515848  0.084509  0.500000  1
  Ni  Ni24  1  0.084509  0.515848  0.500000  1
  Ni  Ni25  1  0.841878  0.438125  0.500000  1
  Ni  Ni26  1  0.438125  0.841878  0.500000  1
  Ni  Ni27  1  0.568960  0.470807  0.500000  1
  Ni  Ni28  1  0.470807  0.568960  0.500000  1
  Ni  Ni29  1  0.930376  0.930376  0.000000  1
