# generated using pymatgen
data_Th8Cu3Si12Rh
_symmetry_space_group_name_H-M   'P 1'
_cell_length_a   8.14242900
_cell_length_b   8.14242930
_cell_length_c   8.52334100
_cell_angle_alpha   90.00000000
_cell_angle_beta   90.00000000
_cell_angle_gamma   119.99999471
_symmetry_Int_Tables_number   1
_chemical_formula_structural   Th8Cu3Si12Rh
_chemical_formula_sum   'Th8 Cu3 Si12 Rh1'
_cell_volume   489.38256798
_cell_formula_units_Z   1
loop_
 _symmetry_equiv_pos_site_id
 _symmetry_equiv_pos_as_xyz
  1  'x, y, z'
loop_
 _atom_site_type_symbol
 _atom_site_label
 _atom_site_symmetry_multiplicity
 _atom_site_fract_x
 _atom_site_fract_y
 _atom_site_fract_z
 _atom_site_occupancy
  Th  Th0  1  0.000000  0.000000  0.749732  1
  Th  Th1  1  0.000000  0.000000  0.250430  1
  Th  Th2  1  0.498433  0.501567  0.750004  1
  Th  Th3  1  0.498433  0.996868  0.750004  1
  Th  Th4  1  0.003132  0.501567  0.750004  1
  Th  Th5  1  0.498989  0.501011  0.250008  1
  Th  Th6  1  0.002025  0.501011  0.250008  1
  Th  Th7  1  0.498989  0.997975  0.250008  1
  Cu  Cu8  1  0.666667  0.333333  0.997779  1
  Cu  Cu9  1  0.666667  0.333333  0.501734  1
  Cu  Cu10  1  0.333333  0.666667  0.498854  1
  Si  Si11  1  0.831125  0.168875  0.999879  1
  Si  Si12  1  0.831125  0.662250  0.999879  1
  Si  Si13  1  0.337750  0.168875  0.999879  1
  Si  Si14  1  0.830363  0.169637  0.500194  1
  Si  Si15  1  0.830363  0.660725  0.500194  1
  Si  Si16  1  0.339275  0.169637  0.500194  1
  Si  Si17  1  0.169097  0.830903  0.499873  1
  Si  Si18  1  0.661806  0.830903  0.499873  1
  Si  Si19  1  0.169097  0.338194  0.499873  1
  Si  Si20  1  0.166284  0.833716  0.000295  1
  Si  Si21  1  0.667433  0.833716  0.000295  1
  Si  Si22  1  0.166284  0.332567  0.000295  1
  Rh  Rh23  1  0.333333  0.666667  0.000712  1
