# generated using pymatgen
data_NdCdCuNi2Pt
_symmetry_space_group_name_H-M   'P 1'
_cell_length_a   5.15992861
_cell_length_b   5.12476404
_cell_length_c   5.25019874
_cell_angle_alpha   60.20141139
_cell_angle_beta   60.56716169
_cell_angle_gamma   59.77277231
_symmetry_Int_Tables_number   1
_chemical_formula_structural   NdCdCuNi2Pt
_chemical_formula_sum   'Nd1 Cd1 Cu1 Ni2 Pt1'
_cell_volume   98.56163014
_cell_formula_units_Z   1
loop_
 _symmetry_equiv_pos_site_id
 _symmetry_equiv_pos_as_xyz
  1  'x, y, z'
loop_
 _atom_site_type_symbol
 _atom_site_label
 _atom_site_symmetry_multiplicity
 _atom_site_fract_x
 _atom_site_fract_y
 _atom_site_fract_z
 _atom_site_occupancy
  Nd  Nd0  1  0.248421  0.251334  0.251824  1
  Cd  Cd1  1  0.004234  0.002716  0.988815  1
  Cu  Cu2  1  0.625166  0.121522  0.628147  1
  Ni  Ni3  1  0.121208  0.624860  0.628462  1
  Ni  Ni4  1  0.625471  0.624860  0.628462  1
  Pt  Pt5  1  0.625501  0.624710  0.124291  1
