# generated using pymatgen
data_Tm5Co19SiP11
_symmetry_space_group_name_H-M   'P 1'
_cell_length_a   11.98114536
_cell_length_b   11.98114557
_cell_length_c   3.66808700
_cell_angle_alpha   90.00000000
_cell_angle_beta   90.00000000
_cell_angle_gamma   119.94542837
_symmetry_Int_Tables_number   1
_chemical_formula_structural   Tm5Co19SiP11
_chemical_formula_sum   'Tm5 Co19 Si1 P11'
_cell_volume   456.25275233
_cell_formula_units_Z   1
loop_
 _symmetry_equiv_pos_site_id
 _symmetry_equiv_pos_as_xyz
  1  'x, y, z'
loop_
 _atom_site_type_symbol
 _atom_site_label
 _atom_site_symmetry_multiplicity
 _atom_site_fract_x
 _atom_site_fract_y
 _atom_site_fract_z
 _atom_site_occupancy
  Tm  Tm0  1  0.666124  0.334253  0.000000  1
  Tm  Tm1  1  0.334253  0.666124  0.000000  1
  Tm  Tm2  1  0.183897  0.183897  0.500000  1
  Tm  Tm3  1  0.813017  0.000407  0.500000  1
  Tm  Tm4  1  0.000407  0.813017  0.500000  1
  Co  Co5  1  0.820862  0.198944  0.000000  1
  Co  Co6  1  0.802208  0.624017  0.000000  1
  Co  Co7  1  0.377719  0.174167  0.000000  1
  Co  Co8  1  0.198944  0.820862  0.000000  1
  Co  Co9  1  0.624017  0.802208  0.000000  1
  Co  Co10  1  0.174167  0.377719  0.000000  1
  Co  Co11  1  0.557415  0.557415  0.000000  1
  Co  Co12  1  0.446697  0.997023  0.000000  1
  Co  Co13  1  0.997023  0.446697  0.000000  1
  Co  Co14  1  0.641468  0.125339  0.500000  1
  Co  Co15  1  0.873689  0.516499  0.500000  1
  Co  Co16  1  0.485829  0.357970  0.500000  1
  Co  Co17  1  0.125339  0.641468  0.500000  1
  Co  Co18  1  0.516499  0.873689  0.500000  1
  Co  Co19  1  0.357970  0.485829  0.500000  1
  Co  Co20  1  0.717270  0.717270  0.500000  1
  Co  Co21  1  0.284730  0.998375  0.500000  1
  Co  Co22  1  0.998375  0.284730  0.500000  1
  Co  Co23  1  0.000779  0.000779  0.000000  1
  Si  Si24  1  0.367958  0.367958  0.000000  1
  P  P25  1  0.632746  0.999929  0.000000  1
  P  P26  1  0.999929  0.632746  0.000000  1
  P  P27  1  0.832613  0.314526  0.500000  1
  P  P28  1  0.685504  0.520528  0.500000  1
  P  P29  1  0.480584  0.166438  0.500000  1
  P  P30  1  0.314526  0.832613  0.500000  1
  P  P31  1  0.520528  0.685504  0.500000  1
  P  P32  1  0.166438  0.480584  0.500000  1
  P  P33  1  0.820949  0.820949  0.000000  1
  P  P34  1  0.180358  0.999167  0.000000  1
  P  P35  1  0.999167  0.180358  0.000000  1
