# generated using pymatgen
data_Tb4Er(TcO6)2
_symmetry_space_group_name_H-M   'P 1'
_cell_length_a   6.84388242
_cell_length_b   6.84388219
_cell_length_c   7.54170100
_cell_angle_alpha   73.73152831
_cell_angle_beta   73.73152639
_cell_angle_gamma   49.08909154
_symmetry_Int_Tables_number   1
_chemical_formula_structural   Tb4Er(TcO6)2
_chemical_formula_sum   'Tb4 Er1 Tc2 O12'
_cell_volume   253.98154799
_cell_formula_units_Z   1
loop_
 _symmetry_equiv_pos_site_id
 _symmetry_equiv_pos_as_xyz
  1  'x, y, z'
loop_
 _atom_site_type_symbol
 _atom_site_label
 _atom_site_symmetry_multiplicity
 _atom_site_fract_x
 _atom_site_fract_y
 _atom_site_fract_z
 _atom_site_occupancy
  Tb  Tb0  1  0.695461  0.695461  0.642420  1
  Tb  Tb1  1  0.304539  0.304539  0.357580  1
  Tb  Tb2  1  0.683847  0.683847  0.175923  1
  Tb  Tb3  1  0.316153  0.316153  0.824077  1
  Er  Er4  1  0.000000  0.000000  0.500000  1
  Tc  Tc5  1  0.786558  0.213442  0.000000  1
  Tc  Tc6  1  0.213442  0.786558  0.000000  1
  O  O7  1  0.001223  0.001223  0.204960  1
  O  O8  1  0.998777  0.998777  0.795040  1
  O  O9  1  0.584729  0.086539  0.084022  1
  O  O10  1  0.415271  0.913461  0.915978  1
  O  O11  1  0.913461  0.415271  0.915978  1
  O  O12  1  0.086539  0.584729  0.084022  1
  O  O13  1  0.498656  0.498656  0.176543  1
  O  O14  1  0.501344  0.501344  0.823457  1
  O  O15  1  0.402399  0.901847  0.427246  1
  O  O16  1  0.597601  0.098153  0.572754  1
  O  O17  1  0.098153  0.597601  0.572754  1
  O  O18  1  0.901847  0.402399  0.427246  1
