# generated using pymatgen
data_GdDy3Re4F28
_symmetry_space_group_name_H-M   'P 1'
_cell_length_a   5.58368104
_cell_length_b   8.87114131
_cell_length_c   11.97817800
_cell_angle_alpha   63.77927308
_cell_angle_beta   89.96506030
_cell_angle_gamma   90.10377030
_symmetry_Int_Tables_number   1
_chemical_formula_structural   GdDy3Re4F28
_chemical_formula_sum   'Gd1 Dy3 Re4 F28'
_cell_volume   532.26730391
_cell_formula_units_Z   1
loop_
 _symmetry_equiv_pos_site_id
 _symmetry_equiv_pos_as_xyz
  1  'x, y, z'
loop_
 _atom_site_type_symbol
 _atom_site_label
 _atom_site_symmetry_multiplicity
 _atom_site_fract_x
 _atom_site_fract_y
 _atom_site_fract_z
 _atom_site_occupancy
  Gd  Gd0  1  0.241457  0.812988  0.766756  1
  Dy  Dy1  1  0.257847  0.812584  0.266690  1
  Dy  Dy2  1  0.742271  0.190741  0.732715  1
  Dy  Dy3  1  0.758447  0.187903  0.233227  1
  Re  Re4  1  0.754236  0.727096  0.045223  1
  Re  Re5  1  0.245714  0.270885  0.957189  1
  Re  Re6  1  0.254957  0.273553  0.455620  1
  Re  Re7  1  0.745464  0.727424  0.542044  1
  F  F8  1  0.951819  0.704165  0.417006  1
  F  F9  1  0.048828  0.296096  0.581317  1
  F  F10  1  0.452054  0.294974  0.081923  1
  F  F11  1  0.551800  0.702589  0.919661  1
  F  F12  1  0.467793  0.729639  0.141311  1
  F  F13  1  0.531325  0.270571  0.859774  1
  F  F14  1  0.969669  0.270389  0.359093  1
  F  F15  1  0.030964  0.728208  0.638330  1
  F  F16  1  0.954314  0.749373  0.173618  1
  F  F17  1  0.045739  0.250119  0.827934  1
  F  F18  1  0.454943  0.250819  0.327209  1
  F  F19  1  0.549432  0.748339  0.671716  1
  F  F20  1  0.767344  0.479660  0.144377  1
  F  F21  1  0.232128  0.517060  0.857044  1
  F  F22  1  0.267541  0.520433  0.356123  1
  F  F23  1  0.732273  0.480569  0.642633  1
  F  F24  1  0.951605  0.281440  0.046768  1
  F  F25  1  0.048019  0.715589  0.956743  1
  F  F26  1  0.450170  0.717922  0.453031  1
  F  F27  1  0.548634  0.282869  0.545829  1
  F  F28  1  0.744779  0.973961  0.447298  1
  F  F29  1  0.255498  0.027035  0.550605  1
  F  F30  1  0.244549  0.024300  0.053157  1
  F  F31  1  0.755235  0.973578  0.948471  1
  F  F32  1  0.577514  0.971507  0.233250  1
  F  F33  1  0.422747  0.033662  0.767155  1
  F  F34  1  0.077002  0.028723  0.266900  1
  F  F35  1  0.915889  0.973235  0.732266  1
