# generated using pymatgen
data_Nd6Al24Re3Pt5
_symmetry_space_group_name_H-M   'P 1'
_cell_length_a   8.95664900
_cell_length_b   9.00116157
_cell_length_c   9.68950785
_cell_angle_alpha   90.33816709
_cell_angle_beta   90.00000000
_cell_angle_gamma   119.83654472
_symmetry_Int_Tables_number   1
_chemical_formula_structural   Nd6Al24Re3Pt5
_chemical_formula_sum   'Nd6 Al24 Re3 Pt5'
_cell_volume   677.60932778
_cell_formula_units_Z   1
loop_
 _symmetry_equiv_pos_site_id
 _symmetry_equiv_pos_as_xyz
  1  'x, y, z'
loop_
 _atom_site_type_symbol
 _atom_site_label
 _atom_site_symmetry_multiplicity
 _atom_site_fract_x
 _atom_site_fract_y
 _atom_site_fract_z
 _atom_site_occupancy
  Nd  Nd0  1  0.189803  0.379606  0.250610  1
  Nd  Nd1  1  0.810197  0.620394  0.749390  1
  Nd  Nd2  1  0.619519  0.812176  0.250662  1
  Nd  Nd3  1  0.380481  0.187824  0.749338  1
  Nd  Nd4  1  0.192658  0.812176  0.250662  1
  Nd  Nd5  1  0.807342  0.187824  0.749338  1
  Al  Al6  1  0.333190  0.666381  0.025067  1
  Al  Al7  1  0.666810  0.333619  0.974933  1
  Al  Al8  1  0.664399  0.328797  0.524626  1
  Al  Al9  1  0.335601  0.671203  0.475374  1
  Al  Al10  1  0.162399  0.324798  0.574042  1
  Al  Al11  1  0.837601  0.675202  0.425958  1
  Al  Al12  1  0.674329  0.842487  0.574501  1
  Al  Al13  1  0.838362  0.676724  0.075135  1
  Al  Al14  1  0.325671  0.157513  0.425499  1
  Al  Al15  1  0.161638  0.323276  0.924865  1
  Al  Al16  1  0.168159  0.842487  0.574501  1
  Al  Al17  1  0.324301  0.162958  0.078042  1
  Al  Al18  1  0.831841  0.157513  0.425499  1
  Al  Al19  1  0.675699  0.837042  0.921958  1
  Al  Al20  1  0.838656  0.162958  0.078042  1
  Al  Al21  1  0.161344  0.837042  0.921958  1
  Al  Al22  1  0.564309  0.128616  0.252692  1
  Al  Al23  1  0.435691  0.871384  0.747308  1
  Al  Al24  1  0.871409  0.434790  0.249561  1
  Al  Al25  1  0.128591  0.565210  0.750439  1
  Al  Al26  1  0.563381  0.434790  0.249561  1
  Al  Al27  1  0.436619  0.565210  0.750439  1
  Al  Al28  1  0.001465  0.002930  0.250204  1
  Al  Al29  1  0.998535  0.997070  0.749796  1
  Re  Re30  1  0.500000  0.000000  0.500000  1
  Re  Re31  1  0.000000  0.000000  0.000000  1
  Re  Re32  1  0.000000  0.000000  0.500000  1
  Pt  Pt33  1  0.500000  0.000000  0.000000  1
  Pt  Pt34  1  0.000000  0.500000  0.000000  1
  Pt  Pt35  1  0.500000  0.500000  0.000000  1
  Pt  Pt36  1  0.000000  0.500000  0.500000  1
  Pt  Pt37  1  0.500000  0.500000  0.500000  1
