# generated using pymatgen
data_Pr12In(GaI4)3
_symmetry_space_group_name_H-M   'P 1'
_cell_length_a   11.03032040
_cell_length_b   11.03223587
_cell_length_c   10.91238773
_cell_angle_alpha   109.13575389
_cell_angle_beta   109.41604529
_cell_angle_gamma   109.63127729
_symmetry_Int_Tables_number   1
_chemical_formula_structural   Pr12In(GaI4)3
_chemical_formula_sum   'Pr12 In1 Ga3 I12'
_cell_volume   1025.11642867
_cell_formula_units_Z   1
loop_
 _symmetry_equiv_pos_site_id
 _symmetry_equiv_pos_as_xyz
  1  'x, y, z'
loop_
 _atom_site_type_symbol
 _atom_site_label
 _atom_site_symmetry_multiplicity
 _atom_site_fract_x
 _atom_site_fract_y
 _atom_site_fract_z
 _atom_site_occupancy
  Pr  Pr0  1  0.028021  0.264090  0.013913  1
  Pr  Pr1  1  0.759811  0.016507  0.494892  1
  Pr  Pr2  1  0.256849  0.740099  0.234815  1
  Pr  Pr3  1  0.483412  0.740255  0.005340  1
  Pr  Pr4  1  0.759438  0.243214  0.264701  1
  Pr  Pr5  1  0.014758  0.485135  0.749857  1
  Pr  Pr6  1  0.236019  0.264113  0.750242  1
  Pr  Pr7  1  0.483626  0.243060  0.478260  1
  Pr  Pr8  1  0.470618  0.485230  0.235388  1
  Pr  Pr9  1  0.256619  0.016701  0.021724  1
  Pr  Pr10  1  0.014954  0.030011  0.265056  1
  Pr  Pr11  1  0.235825  0.471616  0.485743  1
  In  In12  1  0.499846  0.999814  0.249641  1
  Ga  Ga13  1  0.250114  0.499980  0.000146  1
  Ga  Ga14  1  0.250130  0.250178  0.250068  1
  Ga  Ga15  1  0.999962  0.249956  0.500059  1
  I  I16  1  0.756859  0.743589  0.250410  1
  I  I17  1  0.992605  0.507155  0.249675  1
  I  I18  1  0.249207  0.755969  0.741982  1
  I  I19  1  0.756576  0.513041  0.506506  1
  I  I20  1  0.506653  0.250713  0.992881  1
  I  I21  1  0.743757  0.993543  0.986096  1
  I  I22  1  0.992805  0.985643  0.742899  1
  I  I23  1  0.514536  0.507133  0.757443  1
  I  I24  1  0.249656  0.993453  0.507450  1
  I  I25  1  0.743918  0.250434  0.757624  1
  I  I26  1  0.506786  0.755883  0.513950  1
  I  I27  1  0.986642  0.743483  0.993239  1
