# generated using pymatgen
data_CaYbAlPd3
_symmetry_space_group_name_H-M   'P 1'
_cell_length_a   5.21822745
_cell_length_b   5.21822770
_cell_length_c   5.21822712
_cell_angle_alpha   66.28850317
_cell_angle_beta   66.28849991
_cell_angle_gamma   66.28850026
_symmetry_Int_Tables_number   1
_chemical_formula_structural   CaYbAlPd3
_chemical_formula_sum   'Ca1 Yb1 Al1 Pd3'
_cell_volume   114.11023082
_cell_formula_units_Z   1
loop_
 _symmetry_equiv_pos_site_id
 _symmetry_equiv_pos_as_xyz
  1  'x, y, z'
loop_
 _atom_site_type_symbol
 _atom_site_label
 _atom_site_symmetry_multiplicity
 _atom_site_fract_x
 _atom_site_fract_y
 _atom_site_fract_z
 _atom_site_occupancy
  Ca  Ca0  1  0.252337  0.252337  0.252337  1
  Yb  Yb1  1  0.995753  0.995753  0.995753  1
  Al  Al2  1  0.624630  0.624630  0.624630  1
  Pd  Pd3  1  0.626442  0.626442  0.124398  1
  Pd  Pd4  1  0.626442  0.124398  0.626442  1
  Pd  Pd5  1  0.124398  0.626442  0.626442  1
