# generated using pymatgen
data_Tm5HgRu2
_symmetry_space_group_name_H-M   'P 1'
_cell_length_a   8.50548090
_cell_length_b   8.50547983
_cell_length_c   8.50548091
_cell_angle_alpha   126.32965798
_cell_angle_beta   126.32965554
_cell_angle_gamma   79.34700383
_symmetry_Int_Tables_number   1
_chemical_formula_structural   Tm5HgRu2
_chemical_formula_sum   'Tm10 Hg2 Ru4'
_cell_volume   386.05315264
_cell_formula_units_Z   2
loop_
 _symmetry_equiv_pos_site_id
 _symmetry_equiv_pos_as_xyz
  1  'x, y, z'
loop_
 _atom_site_type_symbol
 _atom_site_label
 _atom_site_symmetry_multiplicity
 _atom_site_fract_x
 _atom_site_fract_y
 _atom_site_fract_z
 _atom_site_occupancy
  Tm  Tm0  1  0.000000  0.000000  0.000000  1
  Tm  Tm1  1  0.500000  0.500000  0.000000  1
  Tm  Tm2  1  0.792207  0.292207  0.816786  1
  Tm  Tm3  1  0.207793  0.707793  0.183214  1
  Tm  Tm4  1  0.475421  0.975421  0.183214  1
  Tm  Tm5  1  0.292207  0.475421  0.500000  1
  Tm  Tm6  1  0.024579  0.207793  0.500000  1
  Tm  Tm7  1  0.524579  0.024579  0.816786  1
  Tm  Tm8  1  0.707793  0.524579  0.500000  1
  Tm  Tm9  1  0.975421  0.792207  0.500000  1
  Hg  Hg10  1  0.250000  0.250000  0.000000  1
  Hg  Hg11  1  0.750000  0.750000  0.000000  1
  Ru  Ru12  1  0.142012  0.642012  0.784023  1
  Ru  Ru13  1  0.857988  0.357988  0.215977  1
  Ru  Ru14  1  0.642012  0.857988  0.500000  1
  Ru  Ru15  1  0.357988  0.142012  0.500000  1
