# generated using pymatgen
data_Hf6Al16Ir4RhAu2
_symmetry_space_group_name_H-M   'P 1'
_cell_length_a   8.76840394
_cell_length_b   8.74434163
_cell_length_c   8.76840384
_cell_angle_alpha   60.09073297
_cell_angle_beta   59.81852813
_cell_angle_gamma   60.09073539
_symmetry_Int_Tables_number   1
_chemical_formula_structural   Hf6Al16Ir4RhAu2
_chemical_formula_sum   'Hf6 Al16 Ir4 Rh1 Au2'
_cell_volume   475.38631554
_cell_formula_units_Z   1
loop_
 _symmetry_equiv_pos_site_id
 _symmetry_equiv_pos_as_xyz
  1  'x, y, z'
loop_
 _atom_site_type_symbol
 _atom_site_label
 _atom_site_symmetry_multiplicity
 _atom_site_fract_x
 _atom_site_fract_y
 _atom_site_fract_z
 _atom_site_occupancy
  Hf  Hf0  1  0.686329  0.313670  0.313670  1
  Hf  Hf1  1  0.313670  0.686329  0.686329  1
  Hf  Hf2  1  0.325993  0.674006  0.325993  1
  Hf  Hf3  1  0.313670  0.313670  0.686329  1
  Hf  Hf4  1  0.674006  0.325993  0.674006  1
  Hf  Hf5  1  0.686329  0.686329  0.313670  1
  Al  Al6  1  0.335393  0.341525  0.335393  1
  Al  Al7  1  0.341525  0.335393  0.987688  1
  Al  Al8  1  0.987688  0.335393  0.341525  1
  Al  Al9  1  0.335393  0.987688  0.335393  1
  Al  Al10  1  0.664607  0.658475  0.664607  1
  Al  Al11  1  0.658475  0.664607  0.012312  1
  Al  Al12  1  0.664607  0.012312  0.664607  1
  Al  Al13  1  0.012312  0.664607  0.658475  1
  Al  Al14  1  0.125412  0.105495  0.125412  1
  Al  Al15  1  0.105495  0.125412  0.643681  1
  Al  Al16  1  0.643681  0.125412  0.105495  1
  Al  Al17  1  0.125412  0.643681  0.125412  1
  Al  Al18  1  0.874587  0.894504  0.874587  1
  Al  Al19  1  0.894504  0.874587  0.356322  1
  Al  Al20  1  0.874587  0.356322  0.874587  1
  Al  Al21  1  0.356322  0.874587  0.894504  1
  Ir  Ir22  1  0.500000  0.000000  0.000000  1
  Ir  Ir23  1  0.000000  0.500000  0.500000  1
  Ir  Ir24  1  0.000000  0.000000  0.500000  1
  Ir  Ir25  1  0.500000  0.500000  0.000000  1
  Rh  Rh26  1  0.000000  0.000000  0.000000  1
  Au  Au27  1  0.000000  0.500000  0.000000  1
  Au  Au28  1  0.500000  0.000000  0.500000  1
