# generated using pymatgen
data_RbTi2(FeH6)2
_symmetry_space_group_name_H-M   'P 1'
_cell_length_a   4.39464300
_cell_length_b   4.39464457
_cell_length_c   8.81216200
_cell_angle_alpha   90.00000000
_cell_angle_beta   90.00000000
_cell_angle_gamma   119.99999573
_symmetry_Int_Tables_number   1
_chemical_formula_structural   RbTi2(FeH6)2
_chemical_formula_sum   'Rb1 Ti2 Fe2 H12'
_cell_volume   147.38744130
_cell_formula_units_Z   1
loop_
 _symmetry_equiv_pos_site_id
 _symmetry_equiv_pos_as_xyz
  1  'x, y, z'
loop_
 _atom_site_type_symbol
 _atom_site_label
 _atom_site_symmetry_multiplicity
 _atom_site_fract_x
 _atom_site_fract_y
 _atom_site_fract_z
 _atom_site_occupancy
  Rb  Rb0  1  0.000000  0.000000  0.000000  1
  Ti  Ti1  1  0.666667  0.333333  0.384419  1
  Ti  Ti2  1  0.333333  0.666667  0.615581  1
  Fe  Fe3  1  0.666667  0.333333  0.680128  1
  Fe  Fe4  1  0.333333  0.666667  0.319872  1
  H  H5  1  0.157768  0.842232  0.411491  1
  H  H6  1  0.684465  0.842232  0.411491  1
  H  H7  1  0.157768  0.315535  0.411491  1
  H  H8  1  0.842232  0.157768  0.588509  1
  H  H9  1  0.315535  0.157768  0.588509  1
  H  H10  1  0.842232  0.684465  0.588509  1
  H  H11  1  0.497851  0.995702  0.786801  1
  H  H12  1  0.497851  0.502149  0.786801  1
  H  H13  1  0.004298  0.502149  0.786801  1
  H  H14  1  0.502149  0.004298  0.213199  1
  H  H15  1  0.502149  0.497851  0.213199  1
  H  H16  1  0.995702  0.497851  0.213199  1
