# generated using pymatgen
data_ErPa5(Cu3Sn4)2
_symmetry_space_group_name_H-M   'P 1'
_cell_length_a   8.28376132
_cell_length_b   8.28273801
_cell_length_c   8.28479553
_cell_angle_alpha   109.51967441
_cell_angle_beta   109.33980467
_cell_angle_gamma   109.57808463
_symmetry_Int_Tables_number   1
_chemical_formula_structural   ErPa5(Cu3Sn4)2
_chemical_formula_sum   'Er1 Pa5 Cu6 Sn8'
_cell_volume   437.45330430
_cell_formula_units_Z   1
loop_
 _symmetry_equiv_pos_site_id
 _symmetry_equiv_pos_as_xyz
  1  'x, y, z'
loop_
 _atom_site_type_symbol
 _atom_site_label
 _atom_site_symmetry_multiplicity
 _atom_site_fract_x
 _atom_site_fract_y
 _atom_site_fract_z
 _atom_site_occupancy
  Er  Er0  1  0.874927  0.750021  0.125102  1
  Pa  Pa1  1  0.123226  0.374233  0.248624  1
  Pa  Pa2  1  0.624884  0.249968  0.375025  1
  Pa  Pa3  1  0.751311  0.874564  0.625563  1
  Pa  Pa4  1  0.374399  0.125626  0.748842  1
  Pa  Pa5  1  0.251164  0.625527  0.876816  1
  Cu  Cu6  1  0.749557  0.374572  0.125812  1
  Cu  Cu7  1  0.625092  0.876288  0.250518  1
  Cu  Cu8  1  0.251134  0.125391  0.374972  1
  Cu  Cu9  1  0.375085  0.750074  0.624945  1
  Cu  Cu10  1  0.874282  0.623845  0.748932  1
  Cu  Cu11  1  0.125078  0.249911  0.874885  1
  Sn  Sn12  1  0.170602  0.999944  0.001358  1
  Sn  Sn13  1  0.671000  0.000483  0.000136  1
  Sn  Sn14  1  0.501515  0.499945  0.170562  1
  Sn  Sn15  1  0.329221  0.829025  0.328746  1
  Sn  Sn16  1  0.999760  0.670750  0.500383  1
  Sn  Sn17  1  0.998476  0.169344  0.498625  1
  Sn  Sn18  1  0.499857  0.499548  0.670717  1
  Sn  Sn19  1  0.829432  0.330944  0.829438  1
