# generated using pymatgen
data_Pr8Sm2InSi5
_symmetry_space_group_name_H-M   'P 1'
_cell_length_a   7.78192147
_cell_length_b   7.78192214
_cell_length_c   9.24203573
_cell_angle_alpha   114.89818553
_cell_angle_beta   114.89818758
_cell_angle_gamma   89.99999498
_symmetry_Int_Tables_number   1
_chemical_formula_structural   Pr8Sm2InSi5
_chemical_formula_sum   'Pr8 Sm2 In1 Si5'
_cell_volume   449.66753366
_cell_formula_units_Z   1
loop_
 _symmetry_equiv_pos_site_id
 _symmetry_equiv_pos_as_xyz
  1  'x, y, z'
loop_
 _atom_site_type_symbol
 _atom_site_label
 _atom_site_symmetry_multiplicity
 _atom_site_fract_x
 _atom_site_fract_y
 _atom_site_fract_z
 _atom_site_occupancy
  Pr  Pr0  1  0.976869  0.829921  0.279816  1
  Pr  Pr1  1  0.302948  0.449895  0.279816  1
  Pr  Pr2  1  0.829921  0.302948  0.279816  1
  Pr  Pr3  1  0.449895  0.976869  0.279816  1
  Pr  Pr4  1  0.050105  0.197052  0.720184  1
  Pr  Pr5  1  0.670079  0.523131  0.720184  1
  Pr  Pr6  1  0.197052  0.670079  0.720184  1
  Pr  Pr7  1  0.523131  0.050105  0.720184  1
  Sm  Sm8  1  0.524969  0.524969  0.049939  1
  Sm  Sm9  1  0.975031  0.975031  0.950061  1
  In  In10  1  0.750000  0.750000  0.500000  1
  Si  Si11  1  0.250000  0.250000  0.500000  1
  Si  Si12  1  0.616412  0.883588  0.000000  1
  Si  Si13  1  0.383588  0.116412  0.000000  1
  Si  Si14  1  0.883588  0.383588  0.000000  1
  Si  Si15  1  0.116412  0.616412  0.000000  1
