# generated using pymatgen
data_Sc12Co6Ir5Ru
_symmetry_space_group_name_H-M   'P 1'
_cell_length_a   4.50671200
_cell_length_b   6.39045900
_cell_length_c   13.49587100
_cell_angle_alpha   90.00000000
_cell_angle_beta   89.99989820
_cell_angle_gamma   90.00000000
_symmetry_Int_Tables_number   1
_chemical_formula_structural   Sc12Co6Ir5Ru
_chemical_formula_sum   'Sc12 Co6 Ir5 Ru1'
_cell_volume   388.68052149
_cell_formula_units_Z   1
loop_
 _symmetry_equiv_pos_site_id
 _symmetry_equiv_pos_as_xyz
  1  'x, y, z'
loop_
 _atom_site_type_symbol
 _atom_site_label
 _atom_site_symmetry_multiplicity
 _atom_site_fract_x
 _atom_site_fract_y
 _atom_site_fract_z
 _atom_site_occupancy
  Sc  Sc0  1  0.499999  0.248048  0.999232  1
  Sc  Sc1  1  0.499999  0.751952  0.999232  1
  Sc  Sc2  1  0.999760  0.249554  0.166634  1
  Sc  Sc3  1  0.999760  0.750447  0.166634  1
  Sc  Sc4  1  0.499759  0.249772  0.333329  1
  Sc  Sc5  1  0.499759  0.750228  0.333329  1
  Sc  Sc6  1  0.999998  0.249616  0.500000  1
  Sc  Sc7  1  0.999998  0.750385  0.500000  1
  Sc  Sc8  1  0.500236  0.248108  0.667446  1
  Sc  Sc9  1  0.500236  0.751892  0.667446  1
  Sc  Sc10  1  0.000239  0.247215  0.833363  1
  Sc  Sc11  1  0.000239  0.752786  0.833363  1
  Co  Co12  1  0.000006  0.000000  0.000330  1
  Co  Co13  1  0.499705  0.499999  0.166747  1
  Co  Co14  1  0.999712  0.000000  0.333324  1
  Co  Co15  1  0.499994  0.499999  0.499923  1
  Co  Co16  1  0.000286  0.000000  0.666346  1
  Co  Co17  1  0.500292  0.499999  0.833325  1
  Ir  Ir18  1  0.000000  0.499999  0.000355  1
  Ir  Ir19  1  0.499741  0.000000  0.166862  1
  Ir  Ir20  1  0.999735  0.499999  0.333338  1
  Ir  Ir21  1  0.500000  0.000000  0.499802  1
  Ir  Ir22  1  0.000269  0.499999  0.666303  1
  Ru  Ru23  1  0.500276  0.000000  0.833335  1
