# generated using pymatgen
data_Lu4(Al8Pd3)3
_symmetry_space_group_name_H-M   'P 1'
_cell_length_a   7.50809075
_cell_length_b   7.53946753
_cell_length_c   13.12489875
_cell_angle_alpha   84.60068935
_cell_angle_beta   79.12356244
_cell_angle_gamma   60.01414878
_symmetry_Int_Tables_number   1
_chemical_formula_structural   Lu4(Al8Pd3)3
_chemical_formula_sum   'Lu4 Al24 Pd9'
_cell_volume   631.95514283
_cell_formula_units_Z   1
loop_
 _symmetry_equiv_pos_site_id
 _symmetry_equiv_pos_as_xyz
  1  'x, y, z'
loop_
 _atom_site_type_symbol
 _atom_site_label
 _atom_site_symmetry_multiplicity
 _atom_site_fract_x
 _atom_site_fract_y
 _atom_site_fract_z
 _atom_site_occupancy
  Lu  Lu0  1  0.393690  0.169071  0.807763  1
  Lu  Lu1  1  0.606310  0.830929  0.192237  1
  Lu  Lu2  1  0.734141  0.498626  0.807676  1
  Lu  Lu3  1  0.265859  0.501374  0.192324  1
  Al  Al4  1  0.683890  0.833923  0.943991  1
  Al  Al5  1  0.316110  0.166077  0.056009  1
  Al  Al6  1  0.146165  0.832759  0.561569  1
  Al  Al7  1  0.853835  0.167241  0.438431  1
  Al  Al8  1  0.479198  0.166518  0.558816  1
  Al  Al9  1  0.520802  0.833482  0.441184  1
  Al  Al10  1  0.217707  0.165243  0.328085  1
  Al  Al11  1  0.782293  0.834757  0.671915  1
  Al  Al12  1  0.437211  0.506153  0.672046  1
  Al  Al13  1  0.562789  0.493847  0.327954  1
  Al  Al14  1  0.109013  0.160021  0.670854  1
  Al  Al15  1  0.890987  0.839979  0.329146  1
  Al  Al16  1  0.354173  0.498827  0.944110  1
  Al  Al17  1  0.645827  0.501173  0.055890  1
  Al  Al18  1  0.016192  0.168289  0.951879  1
  Al  Al19  1  0.983808  0.831711  0.048121  1
  Al  Al20  1  0.186836  0.499523  0.441067  1
  Al  Al21  1  0.813164  0.500477  0.558933  1
  Al  Al22  1  0.732521  0.163994  0.183320  1
  Al  Al23  1  0.267479  0.836006  0.816680  1
  Al  Al24  1  0.061701  0.630090  0.815575  1
  Al  Al25  1  0.938299  0.369910  0.184425  1
  Al  Al26  1  0.854129  0.042806  0.816105  1
  Al  Al27  1  0.145871  0.957194  0.183895  1
  Pd  Pd28  1  0.119442  0.491398  0.639399  1
  Pd  Pd29  1  0.880558  0.508602  0.360601  1
  Pd  Pd30  1  0.656875  0.171542  0.999758  1
  Pd  Pd31  1  0.343125  0.828458  0.000242  1
  Pd  Pd32  1  0.537252  0.166997  0.360643  1
  Pd  Pd33  1  0.462748  0.833003  0.639357  1
  Pd  Pd34  1  0.777360  0.175626  0.638273  1
  Pd  Pd35  1  0.222640  0.824374  0.361727  1
  Pd  Pd36  1  0.000000  0.500000  0.000000  1
