# generated using pymatgen
data_Nd3Al12TcRh3
_symmetry_space_group_name_H-M   'P 1'
_cell_length_a   8.94533500
_cell_length_b   8.94533631
_cell_length_c   9.66512700
_cell_angle_alpha   90.00000000
_cell_angle_beta   90.00000000
_cell_angle_gamma   120.00000626
_symmetry_Int_Tables_number   1
_chemical_formula_structural   Nd3Al12TcRh3
_chemical_formula_sum   'Nd6 Al24 Tc2 Rh6'
_cell_volume   669.77888428
_cell_formula_units_Z   2
loop_
 _symmetry_equiv_pos_site_id
 _symmetry_equiv_pos_as_xyz
  1  'x, y, z'
loop_
 _atom_site_type_symbol
 _atom_site_label
 _atom_site_symmetry_multiplicity
 _atom_site_fract_x
 _atom_site_fract_y
 _atom_site_fract_z
 _atom_site_occupancy
  Nd  Nd0  1  0.190466  0.380932  0.250000  1
  Nd  Nd1  1  0.809534  0.619068  0.750000  1
  Nd  Nd2  1  0.619068  0.809534  0.250000  1
  Nd  Nd3  1  0.380932  0.190466  0.750000  1
  Nd  Nd4  1  0.190466  0.809534  0.250000  1
  Nd  Nd5  1  0.809534  0.190466  0.750000  1
  Al  Al6  1  0.333333  0.666667  0.019461  1
  Al  Al7  1  0.666667  0.333333  0.980539  1
  Al  Al8  1  0.666667  0.333333  0.519461  1
  Al  Al9  1  0.333333  0.666667  0.480539  1
  Al  Al10  1  0.162757  0.325516  0.574534  1
  Al  Al11  1  0.837243  0.674484  0.425466  1
  Al  Al12  1  0.674484  0.837243  0.574534  1
  Al  Al13  1  0.837243  0.674484  0.074534  1
  Al  Al14  1  0.325516  0.162757  0.425466  1
  Al  Al15  1  0.162757  0.325516  0.925466  1
  Al  Al16  1  0.162757  0.837243  0.574534  1
  Al  Al17  1  0.325516  0.162757  0.074534  1
  Al  Al18  1  0.837243  0.162757  0.425466  1
  Al  Al19  1  0.674484  0.837243  0.925466  1
  Al  Al20  1  0.837243  0.162757  0.074534  1
  Al  Al21  1  0.162757  0.837243  0.925466  1
  Al  Al22  1  0.563860  0.127718  0.250000  1
  Al  Al23  1  0.436140  0.872282  0.750000  1
  Al  Al24  1  0.872282  0.436140  0.250000  1
  Al  Al25  1  0.127718  0.563860  0.750000  1
  Al  Al26  1  0.563860  0.436140  0.250000  1
  Al  Al27  1  0.436140  0.563860  0.750000  1
  Al  Al28  1  0.000000  0.000000  0.250000  1
  Al  Al29  1  0.000000  0.000000  0.750000  1
  Tc  Tc30  1  0.000000  0.000000  0.000000  1
  Tc  Tc31  1  0.000000  0.000000  0.500000  1
  Rh  Rh32  1  0.500000  0.000000  0.000000  1
  Rh  Rh33  1  0.000000  0.500000  0.000000  1
  Rh  Rh34  1  0.500000  0.000000  0.500000  1
  Rh  Rh35  1  0.500000  0.500000  0.000000  1
  Rh  Rh36  1  0.000000  0.500000  0.500000  1
  Rh  Rh37  1  0.500000  0.500000  0.500000  1
