# generated using pymatgen
data_Tb6Al24NiPd2Ru5
_symmetry_space_group_name_H-M   'P 1'
_cell_length_a   8.83313608
_cell_length_b   8.82079051
_cell_length_c   9.51010910
_cell_angle_alpha   90.07257626
_cell_angle_beta   90.18719591
_cell_angle_gamma   119.47002525
_symmetry_Int_Tables_number   1
_chemical_formula_structural   Tb6Al24NiPd2Ru5
_chemical_formula_sum   'Tb6 Al24 Ni1 Pd2 Ru5'
_cell_volume   645.10214707
_cell_formula_units_Z   1
loop_
 _symmetry_equiv_pos_site_id
 _symmetry_equiv_pos_as_xyz
  1  'x, y, z'
loop_
 _atom_site_type_symbol
 _atom_site_label
 _atom_site_symmetry_multiplicity
 _atom_site_fract_x
 _atom_site_fract_y
 _atom_site_fract_z
 _atom_site_occupancy
  Tb  Tb0  1  0.381796  0.188930  0.250666  1
  Tb  Tb1  1  0.810236  0.192558  0.252316  1
  Tb  Tb2  1  0.812158  0.616385  0.248763  1
  Tb  Tb3  1  0.618204  0.811070  0.749334  1
  Tb  Tb4  1  0.189764  0.807442  0.747684  1
  Tb  Tb5  1  0.187842  0.383615  0.751237  1
  Al  Al6  1  0.438836  0.874718  0.246993  1
  Al  Al7  1  0.122851  0.559775  0.251311  1
  Al  Al8  1  0.438843  0.560908  0.257638  1
  Al  Al9  1  0.561164  0.125282  0.753007  1
  Al  Al10  1  0.877149  0.440225  0.748689  1
  Al  Al11  1  0.561157  0.439092  0.742362  1
  Al  Al12  1  0.158323  0.831878  0.422540  1
  Al  Al13  1  0.162220  0.326536  0.425152  1
  Al  Al14  1  0.675708  0.832879  0.422747  1
  Al  Al15  1  0.841677  0.168122  0.577460  1
  Al  Al16  1  0.837780  0.673464  0.574848  1
  Al  Al17  1  0.324292  0.167121  0.577253  1
  Al  Al18  1  0.836309  0.163814  0.923582  1
  Al  Al19  1  0.842189  0.675622  0.922315  1
  Al  Al20  1  0.324038  0.157357  0.923126  1
  Al  Al21  1  0.163691  0.836186  0.076418  1
  Al  Al22  1  0.157811  0.324378  0.077685  1
  Al  Al23  1  0.675962  0.842643  0.076874  1
  Al  Al24  1  0.331526  0.659909  0.525663  1
  Al  Al25  1  0.668474  0.340091  0.474337  1
  Al  Al26  1  0.669549  0.329290  0.024140  1
  Al  Al27  1  0.330451  0.670710  0.975860  1
  Al  Al28  1  0.002462  0.998445  0.249955  1
  Al  Al29  1  0.997538  0.001555  0.750045  1
  Ni  Ni30  1  0.500000  0.500000  0.500000  1
  Pd  Pd31  1  0.500000  0.000000  0.500000  1
  Pd  Pd32  1  0.500000  0.500000  0.000000  1
  Ru  Ru33  1  0.000000  0.000000  0.500000  1
  Ru  Ru34  1  0.000000  0.000000  0.000000  1
  Ru  Ru35  1  0.000000  0.500000  0.500000  1
  Ru  Ru36  1  0.500000  0.000000  0.000000  1
  Ru  Ru37  1  0.000000  0.500000  0.000000  1
