# generated using pymatgen
data_Y12InCo2Si2Ag
_symmetry_space_group_name_H-M   'P 1'
_cell_length_a   8.48892317
_cell_length_b   8.48892427
_cell_length_c   8.48892400
_cell_angle_alpha   113.25794350
_cell_angle_beta   110.34493334
_cell_angle_gamma   104.91925567
_symmetry_Int_Tables_number   1
_chemical_formula_structural   Y12InCo2Si2Ag
_chemical_formula_sum   'Y12 In1 Co2 Si2 Ag1'
_cell_volume   468.37182962
_cell_formula_units_Z   1
loop_
 _symmetry_equiv_pos_site_id
 _symmetry_equiv_pos_as_xyz
  1  'x, y, z'
loop_
 _atom_site_type_symbol
 _atom_site_label
 _atom_site_symmetry_multiplicity
 _atom_site_fract_x
 _atom_site_fract_y
 _atom_site_fract_z
 _atom_site_occupancy
  Y  Y0  1  0.433618  0.235978  0.197641  1
  Y  Y1  1  0.566382  0.764022  0.802359  1
  Y  Y2  1  0.038337  0.235978  0.802360  1
  Y  Y3  1  0.961663  0.764022  0.197640  1
  Y  Y4  1  0.185662  0.286585  0.472252  1
  Y  Y5  1  0.814338  0.713415  0.527748  1
  Y  Y6  1  0.185666  0.713415  0.899079  1
  Y  Y7  1  0.814334  0.286585  0.100921  1
  Y  Y8  1  0.305942  0.616884  0.310943  1
  Y  Y9  1  0.694058  0.383116  0.689057  1
  Y  Y10  1  0.305946  0.995001  0.689055  1
  Y  Y11  1  0.694054  0.004999  0.310945  1
  In  In12  1  0.500000  0.500000  0.000000  1
  Co  Co13  1  0.107087  0.607088  0.500001  1
  Co  Co14  1  0.892913  0.392912  0.499999  1
  Si  Si15  1  0.363256  0.000000  0.363256  1
  Si  Si16  1  0.636744  0.000000  0.636744  1
  Ag  Ag17  1  0.000000  0.000000  0.000000  1
