# generated using pymatgen
data_NbHg4Sb3O14
_symmetry_space_group_name_H-M   'P 1'
_cell_length_a   7.51442548
_cell_length_b   7.51442580
_cell_length_c   7.51442541
_cell_angle_alpha   59.39780357
_cell_angle_beta   59.39779902
_cell_angle_gamma   59.39780242
_symmetry_Int_Tables_number   1
_chemical_formula_structural   NbHg4Sb3O14
_chemical_formula_sum   'Nb1 Hg4 Sb3 O14'
_cell_volume   295.92360211
_cell_formula_units_Z   1
loop_
 _symmetry_equiv_pos_site_id
 _symmetry_equiv_pos_as_xyz
  1  'x, y, z'
loop_
 _atom_site_type_symbol
 _atom_site_label
 _atom_site_symmetry_multiplicity
 _atom_site_fract_x
 _atom_site_fract_y
 _atom_site_fract_z
 _atom_site_occupancy
  Nb  Nb0  1  0.125000  0.125000  0.125000  1
  Hg  Hg1  1  0.625000  0.625000  0.625000  1
  Hg  Hg2  1  0.625000  0.125000  0.625000  1
  Hg  Hg3  1  0.625000  0.625000  0.125000  1
  Hg  Hg4  1  0.125000  0.625000  0.625000  1
  Sb  Sb5  1  0.125000  0.625000  0.125000  1
  Sb  Sb6  1  0.125000  0.125000  0.625000  1
  Sb  Sb7  1  0.625000  0.125000  0.125000  1
  O  O8  1  0.802785  0.802785  0.198117  1
  O  O9  1  0.802785  0.198117  0.802785  1
  O  O10  1  0.060346  0.060346  0.441870  1
  O  O11  1  0.808130  0.189654  0.189654  1
  O  O12  1  0.447215  0.447215  0.051883  1
  O  O13  1  0.060346  0.441870  0.060346  1
  O  O14  1  0.198117  0.802785  0.802785  1
  O  O15  1  0.447215  0.051883  0.447215  1
  O  O16  1  0.497865  0.497865  0.497865  1
  O  O17  1  0.189654  0.808130  0.189654  1
  O  O18  1  0.189654  0.189654  0.808130  1
  O  O19  1  0.752135  0.752135  0.752135  1
  O  O20  1  0.441870  0.060346  0.060346  1
  O  O21  1  0.051883  0.447215  0.447215  1
