# generated using pymatgen
data_KLiBiF5
_symmetry_space_group_name_H-M   'P 1'
_cell_length_a   12.01535200
_cell_length_b   6.51425783
_cell_length_c   6.73114533
_cell_angle_alpha   66.44719302
_cell_angle_beta   90.00000000
_cell_angle_gamma   90.00000000
_symmetry_Int_Tables_number   1
_chemical_formula_structural   KLiBiF5
_chemical_formula_sum   'K4 Li4 Bi4 F20'
_cell_volume   482.96308172
_cell_formula_units_Z   4
loop_
 _symmetry_equiv_pos_site_id
 _symmetry_equiv_pos_as_xyz
  1  'x, y, z'
loop_
 _atom_site_type_symbol
 _atom_site_label
 _atom_site_symmetry_multiplicity
 _atom_site_fract_x
 _atom_site_fract_y
 _atom_site_fract_z
 _atom_site_occupancy
  K  K0  1  0.849165  0.035534  0.946721  1
  K  K1  1  0.650835  0.535534  0.946721  1
  K  K2  1  0.349165  0.464466  0.053279  1
  K  K3  1  0.150835  0.964466  0.053279  1
  Li  Li4  1  0.746164  0.461555  0.440293  1
  Li  Li5  1  0.753836  0.961555  0.440293  1
  Li  Li6  1  0.253836  0.538445  0.559707  1
  Li  Li7  1  0.246164  0.038445  0.559707  1
  Bi  Bi8  1  0.998888  0.319562  0.318120  1
  Bi  Bi9  1  0.001112  0.680438  0.681880  1
  Bi  Bi10  1  0.501112  0.819562  0.318120  1
  Bi  Bi11  1  0.498888  0.180438  0.681880  1
  F  F12  1  0.677178  0.286259  0.708760  1
  F  F13  1  0.608685  0.965797  0.542014  1
  F  F14  1  0.322822  0.713741  0.291240  1
  F  F15  1  0.006640  0.317793  0.960101  1
  F  F16  1  0.177178  0.213741  0.291240  1
  F  F17  1  0.391315  0.034203  0.457986  1
  F  F18  1  0.891315  0.465797  0.542014  1
  F  F19  1  0.533449  0.449232  0.332963  1
  F  F20  1  0.796015  0.273699  0.285003  1
  F  F21  1  0.296015  0.226301  0.714997  1
  F  F22  1  0.466551  0.550768  0.667037  1
  F  F23  1  0.993360  0.682207  0.039899  1
  F  F24  1  0.203985  0.726301  0.714997  1
  F  F25  1  0.506640  0.182207  0.039899  1
  F  F26  1  0.966551  0.949232  0.332963  1
  F  F27  1  0.703985  0.773699  0.285003  1
  F  F28  1  0.033449  0.050768  0.667037  1
  F  F29  1  0.822822  0.786259  0.708760  1
  F  F30  1  0.108685  0.534203  0.457986  1
  F  F31  1  0.493360  0.817793  0.960101  1
