# generated using pymatgen
data_Dy5Te9
_symmetry_space_group_name_H-M   'P 1'
_cell_length_a   13.16834610
_cell_length_b   13.16834586
_cell_length_c   10.83428698
_cell_angle_alpha   80.34035147
_cell_angle_beta   80.34035118
_cell_angle_gamma   26.96648435
_symmetry_Int_Tables_number   1
_chemical_formula_structural   Dy5Te9
_chemical_formula_sum   'Dy10 Te18'
_cell_volume   839.16448851
_cell_formula_units_Z   2
loop_
 _symmetry_equiv_pos_site_id
 _symmetry_equiv_pos_as_xyz
  1  'x, y, z'
loop_
 _atom_site_type_symbol
 _atom_site_label
 _atom_site_symmetry_multiplicity
 _atom_site_fract_x
 _atom_site_fract_y
 _atom_site_fract_z
 _atom_site_occupancy
  Dy  Dy0  1  0.946871  0.044068  0.241727  1
  Dy  Dy1  1  0.147029  0.247306  0.842454  1
  Dy  Dy2  1  0.345266  0.450501  0.437045  1
  Dy  Dy3  1  0.537790  0.654581  0.036315  1
  Dy  Dy4  1  0.755767  0.833570  0.637950  1
  Dy  Dy5  1  0.345419  0.462210  0.963685  1
  Dy  Dy6  1  0.549499  0.654734  0.562955  1
  Dy  Dy7  1  0.752694  0.852971  0.157546  1
  Dy  Dy8  1  0.955932  0.053129  0.758273  1
  Dy  Dy9  1  0.166430  0.244233  0.362050  1
  Te  Te10  1  0.474488  0.570986  0.821953  1
  Te  Te11  1  0.071066  0.178868  0.620952  1
  Te  Te12  1  0.870503  0.978820  0.020544  1
  Te  Te13  1  0.681114  0.763628  0.423084  1
  Te  Te14  1  0.273161  0.376489  0.222036  1
  Te  Te15  1  0.021180  0.129497  0.979456  1
  Te  Te16  1  0.623511  0.726839  0.777964  1
  Te  Te17  1  0.429014  0.525512  0.178047  1
  Te  Te18  1  0.236372  0.318886  0.576916  1
  Te  Te19  1  0.821132  0.928934  0.379048  1
  Te  Te20  1  0.699635  0.300365  0.500000  1
  Te  Te21  1  0.299100  0.900871  0.300502  1
  Te  Te22  1  0.099129  0.700900  0.699498  1
  Te  Te23  1  0.892161  0.492642  0.115672  1
  Te  Te24  1  0.507358  0.107839  0.884328  1
  Te  Te25  1  0.000739  0.601524  0.897125  1
  Te  Te26  1  0.199162  0.800838  0.500000  1
  Te  Te27  1  0.398476  0.999261  0.102875  1
