# generated using pymatgen
data_PICl10
_symmetry_space_group_name_H-M   'P 1'
_cell_length_a   10.23722000
_cell_length_b   10.23722000
_cell_length_c   7.99658400
_cell_angle_alpha   90.00000000
_cell_angle_beta   90.00000000
_cell_angle_gamma   90.00000000
_symmetry_Int_Tables_number   1
_chemical_formula_structural   PICl10
_chemical_formula_sum   'P2 I2 Cl20'
_cell_volume   838.04738753
_cell_formula_units_Z   2
loop_
 _symmetry_equiv_pos_site_id
 _symmetry_equiv_pos_as_xyz
  1  'x, y, z'
loop_
 _atom_site_type_symbol
 _atom_site_label
 _atom_site_symmetry_multiplicity
 _atom_site_fract_x
 _atom_site_fract_y
 _atom_site_fract_z
 _atom_site_occupancy
  P  P0  1  0.000000  0.000000  0.000000  1
  P  P1  1  0.500000  0.500000  0.000000  1
  I  I2  1  0.000000  0.500000  0.620142  1
  I  I3  1  0.500000  0.000000  0.379858  1
  Cl  Cl4  1  0.350158  0.543833  0.141611  1
  Cl  Cl5  1  0.043833  0.149842  0.141611  1
  Cl  Cl6  1  0.956167  0.850158  0.141611  1
  Cl  Cl7  1  0.649842  0.456167  0.141611  1
  Cl  Cl8  1  0.149842  0.956167  0.858389  1
  Cl  Cl9  1  0.456167  0.350158  0.858389  1
  Cl  Cl10  1  0.543833  0.649842  0.858389  1
  Cl  Cl11  1  0.850158  0.043833  0.858389  1
  Cl  Cl12  1  0.000000  0.500000  0.933913  1
  Cl  Cl13  1  0.500000  0.000000  0.066087  1
  Cl  Cl14  1  0.000000  0.500000  0.300598  1
  Cl  Cl15  1  0.500000  0.000000  0.699402  1
  Cl  Cl16  1  0.224811  0.595599  0.620479  1
  Cl  Cl17  1  0.095599  0.275189  0.620479  1
  Cl  Cl18  1  0.904401  0.724811  0.620479  1
  Cl  Cl19  1  0.775189  0.404401  0.620479  1
  Cl  Cl20  1  0.275189  0.904401  0.379521  1
  Cl  Cl21  1  0.404401  0.224811  0.379521  1
  Cl  Cl22  1  0.595599  0.775189  0.379521  1
  Cl  Cl23  1  0.724811  0.095599  0.379521  1
