# generated using pymatgen
data_TbEr3Cd2(Ni7B2)2
_symmetry_space_group_name_H-M   'P 1'
_cell_length_a   4.99611722
_cell_length_b   4.99895471
_cell_length_c   14.20408700
_cell_angle_alpha   90.00251406
_cell_angle_beta   89.99987154
_cell_angle_gamma   120.01483552
_symmetry_Int_Tables_number   1
_chemical_formula_structural   TbEr3Cd2(Ni7B2)2
_chemical_formula_sum   'Tb1 Er3 Cd2 Ni14 B4'
_cell_volume   307.17851255
_cell_formula_units_Z   1
loop_
 _symmetry_equiv_pos_site_id
 _symmetry_equiv_pos_as_xyz
  1  'x, y, z'
loop_
 _atom_site_type_symbol
 _atom_site_label
 _atom_site_symmetry_multiplicity
 _atom_site_fract_x
 _atom_site_fract_y
 _atom_site_fract_z
 _atom_site_occupancy
  Tb  Tb0  1  0.666809  0.333389  0.529826  1
  Er  Er1  1  0.333253  0.666626  0.029172  1
  Er  Er2  1  0.666732  0.333396  0.757306  1
  Er  Er3  1  0.333251  0.666609  0.255843  1
  Cd  Cd4  1  0.333607  0.666788  0.467064  1
  Cd  Cd5  1  0.666436  0.333197  0.968481  1
  Ni  Ni6  1  0.834657  0.165091  0.350971  1
  Ni  Ni7  1  0.834663  0.669562  0.350982  1
  Ni  Ni8  1  0.000066  0.000038  0.999397  1
  Ni  Ni9  1  0.000149  0.000053  0.499032  1
  Ni  Ni10  1  0.833789  0.667772  0.147726  1
  Ni  Ni11  1  0.166024  0.834126  0.648950  1
  Ni  Ni12  1  0.668311  0.834147  0.649023  1
  Ni  Ni13  1  0.331937  0.165935  0.147889  1
  Ni  Ni14  1  0.833804  0.165962  0.147731  1
  Ni  Ni15  1  0.165685  0.331267  0.852194  1
  Ni  Ni16  1  0.165679  0.834511  0.852183  1
  Ni  Ni17  1  0.166023  0.331894  0.648946  1
  Ni  Ni18  1  0.668990  0.834562  0.852145  1
  Ni  Ni19  1  0.330241  0.165116  0.350838  1
  B  B20  1  0.667017  0.333551  0.249451  1
  B  B21  1  0.333164  0.666576  0.750164  1
  B  B22  1  0.000390  0.000232  0.747985  1
  B  B23  1  0.999324  0.999599  0.246701  1
