# generated using pymatgen
data_CsCr2P5O16
_symmetry_space_group_name_H-M   'P 1'
_cell_length_a   9.37008200
_cell_length_b   7.55859122
_cell_length_c   10.35815700
_cell_angle_alpha   67.72894275
_cell_angle_beta   90.00000000
_cell_angle_gamma   90.00000000
_symmetry_Int_Tables_number   1
_chemical_formula_structural   CsCr2P5O16
_chemical_formula_sum   'Cs2 Cr4 P10 O32'
_cell_volume   678.88597398
_cell_formula_units_Z   2
loop_
 _symmetry_equiv_pos_site_id
 _symmetry_equiv_pos_as_xyz
  1  'x, y, z'
loop_
 _atom_site_type_symbol
 _atom_site_label
 _atom_site_symmetry_multiplicity
 _atom_site_fract_x
 _atom_site_fract_y
 _atom_site_fract_z
 _atom_site_occupancy
  Cs  Cs0  1  0.195301  0.980531  0.265529  1
  Cs  Cs1  1  0.804699  0.980531  0.765529  1
  Cr  Cr2  1  0.630645  0.908849  0.375142  1
  Cr  Cr3  1  0.141075  0.360586  0.475822  1
  Cr  Cr4  1  0.369355  0.908849  0.875142  1
  Cr  Cr5  1  0.858925  0.360586  0.975822  1
  P  P6  1  0.584433  0.102968  0.039312  1
  P  P7  1  0.543492  0.499252  0.000674  1
  P  P8  1  0.127710  0.263385  0.811414  1
  P  P9  1  0.704684  0.552068  0.638211  1
  P  P10  1  0.872290  0.263385  0.311414  1
  P  P11  1  0.860345  0.599336  0.381997  1
  P  P12  1  0.456508  0.499252  0.500674  1
  P  P13  1  0.295316  0.552068  0.138211  1
  P  P14  1  0.139655  0.599336  0.881997  1
  P  P15  1  0.415567  0.102968  0.539312  1
  O  O16  1  0.506286  0.314126  0.968997  1
  O  O17  1  0.216868  0.476734  0.029843  1
  O  O18  1  0.745274  0.130217  0.021376  1
  O  O19  1  0.545058  0.468438  0.642996  1
  O  O20  1  0.066038  0.279194  0.670825  1
  O  O21  1  0.518655  0.670957  0.386009  1
  O  O22  1  0.230589  0.456109  0.278442  1
  O  O23  1  0.818955  0.481206  0.290407  1
  O  O24  1  0.454942  0.468438  0.142996  1
  O  O25  1  0.299103  0.502733  0.530212  1
  O  O26  1  0.481345  0.670957  0.886009  1
  O  O27  1  0.493714  0.314126  0.468997  1
  O  O28  1  0.933962  0.279194  0.170825  1
  O  O29  1  0.783132  0.476734  0.529843  1
  O  O30  1  0.465309  0.992611  0.452729  1
  O  O31  1  0.019413  0.596899  0.408954  1
  O  O32  1  0.700897  0.502733  0.030212  1
  O  O33  1  0.800460  0.797930  0.314715  1
  O  O34  1  0.199540  0.797930  0.814715  1
  O  O35  1  0.702979  0.768349  0.575414  1
  O  O36  1  0.254726  0.130217  0.521376  1
  O  O37  1  0.987362  0.213031  0.425076  1
  O  O38  1  0.259148  0.139571  0.860401  1
  O  O39  1  0.769411  0.456109  0.778442  1
  O  O40  1  0.463874  0.026380  0.690641  1
  O  O41  1  0.534691  0.992611  0.952729  1
  O  O42  1  0.740852  0.139571  0.360401  1
  O  O43  1  0.536126  0.026380  0.190641  1
  O  O44  1  0.980587  0.596899  0.908954  1
  O  O45  1  0.012638  0.213031  0.925076  1
  O  O46  1  0.181045  0.481206  0.790407  1
  O  O47  1  0.297021  0.768349  0.075414  1
