# generated using pymatgen
data_La4Cd3Ni2
_symmetry_space_group_name_H-M   'P 1'
_cell_length_a   3.82651900
_cell_length_b   7.71460959
_cell_length_c   8.39576673
_cell_angle_alpha   107.93590163
_cell_angle_beta   90.00000000
_cell_angle_gamma   90.00000000
_symmetry_Int_Tables_number   1
_chemical_formula_structural   La4Cd3Ni2
_chemical_formula_sum   'La4 Cd3 Ni2'
_cell_volume   235.79906572
_cell_formula_units_Z   1
loop_
 _symmetry_equiv_pos_site_id
 _symmetry_equiv_pos_as_xyz
  1  'x, y, z'
loop_
 _atom_site_type_symbol
 _atom_site_label
 _atom_site_symmetry_multiplicity
 _atom_site_fract_x
 _atom_site_fract_y
 _atom_site_fract_z
 _atom_site_occupancy
  La  La0  1  0.500000  0.912942  0.782684  1
  La  La1  1  0.500000  0.087058  0.217316  1
  La  La2  1  0.500000  0.392642  0.686218  1
  La  La3  1  0.500000  0.607358  0.313782  1
  Cd  Cd4  1  0.000000  0.697233  0.994344  1
  Cd  Cd5  1  0.000000  0.302767  0.005656  1
  Cd  Cd6  1  0.000000  0.000000  0.500000  1
  Ni  Ni7  1  0.000000  0.654209  0.608630  1
  Ni  Ni8  1  0.000000  0.345791  0.391370  1
