# generated using pymatgen
data_Ce3ScAl2Ir3
_symmetry_space_group_name_H-M   'P 1'
_cell_length_a   7.17544702
_cell_length_b   7.17544785
_cell_length_c   4.18883100
_cell_angle_alpha   90.00000000
_cell_angle_beta   90.00000000
_cell_angle_gamma   120.31783873
_symmetry_Int_Tables_number   1
_chemical_formula_structural   Ce3ScAl2Ir3
_chemical_formula_sum   'Ce3 Sc1 Al2 Ir3'
_cell_volume   186.17509242
_cell_formula_units_Z   1
loop_
 _symmetry_equiv_pos_site_id
 _symmetry_equiv_pos_as_xyz
  1  'x, y, z'
loop_
 _atom_site_type_symbol
 _atom_site_label
 _atom_site_symmetry_multiplicity
 _atom_site_fract_x
 _atom_site_fract_y
 _atom_site_fract_z
 _atom_site_occupancy
  Ce  Ce0  1  0.403817  0.403817  0.500000  1
  Ce  Ce1  1  0.576553  0.010516  0.500000  1
  Ce  Ce2  1  0.010516  0.576553  0.500000  1
  Sc  Sc3  1  0.765016  0.765016  0.000000  1
  Al  Al4  1  0.238150  0.000042  0.000000  1
  Al  Al5  1  0.000042  0.238150  0.000000  1
  Ir  Ir6  1  0.666013  0.327117  0.000000  1
  Ir  Ir7  1  0.327117  0.666013  0.000000  1
  Ir  Ir8  1  0.012778  0.012778  0.500000  1
