# generated using pymatgen
data_CeEr2Th(InNi2)2
_symmetry_space_group_name_H-M   'P 1'
_cell_length_a   7.49417313
_cell_length_b   7.49417383
_cell_length_c   3.62996800
_cell_angle_alpha   90.00000000
_cell_angle_beta   90.00000000
_cell_angle_gamma   92.89863620
_symmetry_Int_Tables_number   1
_chemical_formula_structural   CeEr2Th(InNi2)2
_chemical_formula_sum   'Ce1 Er2 Th1 In2 Ni4'
_cell_volume   203.60773482
_cell_formula_units_Z   1
loop_
 _symmetry_equiv_pos_site_id
 _symmetry_equiv_pos_as_xyz
  1  'x, y, z'
loop_
 _atom_site_type_symbol
 _atom_site_label
 _atom_site_symmetry_multiplicity
 _atom_site_fract_x
 _atom_site_fract_y
 _atom_site_fract_z
 _atom_site_occupancy
  Ce  Ce0  1  0.675965  0.175965  0.500000  1
  Er  Er1  1  0.172005  0.327493  0.500000  1
  Er  Er2  1  0.827493  0.672005  0.500000  1
  Th  Th3  1  0.325807  0.825807  0.500000  1
  In  In4  1  0.502112  0.496812  0.000000  1
  In  In5  1  0.996812  0.002112  0.000000  1
  Ni  Ni6  1  0.122804  0.622804  0.000000  1
  Ni  Ni7  1  0.875286  0.375286  0.000000  1
  Ni  Ni8  1  0.621229  0.880486  0.000000  1
  Ni  Ni9  1  0.380486  0.121229  0.000000  1
