# generated using pymatgen
data_YHo3(OsC2)2
_symmetry_space_group_name_H-M   'P 1'
_cell_length_a   5.12020300
_cell_length_b   6.44091533
_cell_length_c   9.77784004
_cell_angle_alpha   89.92619193
_cell_angle_beta   90.00000000
_cell_angle_gamma   90.00000000
_symmetry_Int_Tables_number   1
_chemical_formula_structural   YHo3(OsC2)2
_chemical_formula_sum   'Y2 Ho6 Os4 C8'
_cell_volume   322.46110476
_cell_formula_units_Z   2
loop_
 _symmetry_equiv_pos_site_id
 _symmetry_equiv_pos_as_xyz
  1  'x, y, z'
loop_
 _atom_site_type_symbol
 _atom_site_label
 _atom_site_symmetry_multiplicity
 _atom_site_fract_x
 _atom_site_fract_y
 _atom_site_fract_z
 _atom_site_occupancy
  Y  Y0  1  0.750000  0.973872  0.718920  1
  Y  Y1  1  0.250000  0.026128  0.281080  1
  Ho  Ho2  1  0.250000  0.683431  0.552563  1
  Ho  Ho3  1  0.750000  0.316569  0.447437  1
  Ho  Ho4  1  0.750000  0.815953  0.052988  1
  Ho  Ho5  1  0.250000  0.184047  0.947012  1
  Ho  Ho6  1  0.250000  0.525365  0.219912  1
  Ho  Ho7  1  0.750000  0.474635  0.780088  1
  Os  Os8  1  0.250000  0.725861  0.865336  1
  Os  Os9  1  0.750000  0.274139  0.134664  1
  Os  Os10  1  0.750000  0.773266  0.365641  1
  Os  Os11  1  0.250000  0.226734  0.634359  1
  C  C12  1  0.250000  0.462108  0.758098  1
  C  C13  1  0.750000  0.537892  0.241902  1
  C  C14  1  0.750000  0.037560  0.258024  1
  C  C15  1  0.250000  0.962440  0.741976  1
  C  C16  1  0.250000  0.824129  0.053151  1
  C  C17  1  0.750000  0.175871  0.946849  1
  C  C18  1  0.750000  0.672458  0.553411  1
  C  C19  1  0.250000  0.327542  0.446589  1
