# generated using pymatgen
data_Pr5Ho3Si12IrRh3
_symmetry_space_group_name_H-M   'P 1'
_cell_length_a   8.24766300
_cell_length_b   8.24766353
_cell_length_c   8.23874100
_cell_angle_alpha   90.00000000
_cell_angle_beta   90.00000000
_cell_angle_gamma   120.00000190
_symmetry_Int_Tables_number   1
_chemical_formula_structural   Pr5Ho3Si12IrRh3
_chemical_formula_sum   'Pr5 Ho3 Si12 Ir1 Rh3'
_cell_volume   485.34808015
_cell_formula_units_Z   1
loop_
 _symmetry_equiv_pos_site_id
 _symmetry_equiv_pos_as_xyz
  1  'x, y, z'
loop_
 _atom_site_type_symbol
 _atom_site_label
 _atom_site_symmetry_multiplicity
 _atom_site_fract_x
 _atom_site_fract_y
 _atom_site_fract_z
 _atom_site_occupancy
  Pr  Pr0  1  0.000000  0.000000  0.249247  1
  Pr  Pr1  1  0.000000  0.000000  0.750264  1
  Pr  Pr2  1  0.504827  0.495173  0.250100  1
  Pr  Pr3  1  0.504827  0.009655  0.250100  1
  Pr  Pr4  1  0.990345  0.495173  0.250100  1
  Ho  Ho5  1  0.492143  0.507857  0.749925  1
  Ho  Ho6  1  0.492143  0.984287  0.749925  1
  Ho  Ho7  1  0.015713  0.507857  0.749925  1
  Si  Si8  1  0.166895  0.833105  0.507595  1
  Si  Si9  1  0.166895  0.333790  0.507595  1
  Si  Si10  1  0.666210  0.833105  0.507595  1
  Si  Si11  1  0.831207  0.168793  0.505638  1
  Si  Si12  1  0.831207  0.662415  0.505638  1
  Si  Si13  1  0.337585  0.168793  0.505638  1
  Si  Si14  1  0.831438  0.168562  0.994419  1
  Si  Si15  1  0.831438  0.662879  0.994419  1
  Si  Si16  1  0.337121  0.168562  0.994419  1
  Si  Si17  1  0.166959  0.833041  0.991933  1
  Si  Si18  1  0.166959  0.333919  0.991933  1
  Si  Si19  1  0.666081  0.833041  0.991933  1
  Ir  Ir20  1  0.333333  0.666667  0.493532  1
  Rh  Rh21  1  0.666667  0.333333  0.546572  1
  Rh  Rh22  1  0.666667  0.333333  0.952873  1
  Rh  Rh23  1  0.333333  0.666667  0.008681  1
