# generated using pymatgen
data_Ba4AlZn7Au20
_symmetry_space_group_name_H-M   'P 1'
_cell_length_a   7.32265800
_cell_length_b   9.22102213
_cell_length_c   10.23257800
_cell_angle_alpha   89.25278673
_cell_angle_beta   90.00000000
_cell_angle_gamma   90.00000000
_symmetry_Int_Tables_number   1
_chemical_formula_structural   Ba4AlZn7Au20
_chemical_formula_sum   'Ba4 Al1 Zn7 Au20'
_cell_volume   690.86938285
_cell_formula_units_Z   1
loop_
 _symmetry_equiv_pos_site_id
 _symmetry_equiv_pos_as_xyz
  1  'x, y, z'
loop_
 _atom_site_type_symbol
 _atom_site_label
 _atom_site_symmetry_multiplicity
 _atom_site_fract_x
 _atom_site_fract_y
 _atom_site_fract_z
 _atom_site_occupancy
  Ba  Ba0  1  0.250000  0.251579  0.118871  1
  Ba  Ba1  1  0.250000  0.749575  0.381088  1
  Ba  Ba2  1  0.750000  0.747667  0.881494  1
  Ba  Ba3  1  0.750000  0.250418  0.617940  1
  Al  Al4  1  0.250000  0.059780  0.621057  1
  Zn  Zn5  1  0.250000  0.558165  0.879687  1
  Zn  Zn6  1  0.750000  0.937422  0.379676  1
  Zn  Zn7  1  0.750000  0.439240  0.118852  1
  Zn  Zn8  1  0.250000  0.351358  0.479007  1
  Zn  Zn9  1  0.250000  0.849490  0.019212  1
  Zn  Zn10  1  0.750000  0.652217  0.518974  1
  Zn  Zn11  1  0.750000  0.151460  0.982976  1
  Au  Au12  1  0.058215  0.102132  0.397063  1
  Au  Au13  1  0.442582  0.603532  0.104208  1
  Au  Au14  1  0.556615  0.899951  0.605096  1
  Au  Au15  1  0.943916  0.393846  0.894322  1
  Au  Au16  1  0.943385  0.899951  0.605096  1
  Au  Au17  1  0.556084  0.393846  0.894322  1
  Au  Au18  1  0.441785  0.102132  0.397063  1
  Au  Au19  1  0.057418  0.603532  0.104208  1
  Au  Au20  1  0.039814  0.053214  0.860398  1
  Au  Au21  1  0.459537  0.556158  0.642979  1
  Au  Au22  1  0.541604  0.947346  0.140061  1
  Au  Au23  1  0.958175  0.446727  0.359455  1
  Au  Au24  1  0.958396  0.947346  0.140061  1
  Au  Au25  1  0.541825  0.446727  0.359455  1
  Au  Au26  1  0.460186  0.053214  0.860398  1
  Au  Au27  1  0.040463  0.556158  0.642979  1
  Au  Au28  1  0.250000  0.299591  0.736144  1
  Au  Au29  1  0.250000  0.805450  0.757062  1
  Au  Au30  1  0.750000  0.695329  0.255786  1
  Au  Au31  1  0.750000  0.195451  0.245007  1
