# generated using pymatgen
data_Tb4Ho6CoRu3
_symmetry_space_group_name_H-M   'P 1'
_cell_length_a   6.32789762
_cell_length_b   7.22068369
_cell_length_c   8.50426816
_cell_angle_alpha   96.77745031
_cell_angle_beta   111.92028455
_cell_angle_gamma   89.89890900
_symmetry_Int_Tables_number   1
_chemical_formula_structural   Tb4Ho6CoRu3
_chemical_formula_sum   'Tb4 Ho6 Co1 Ru3'
_cell_volume   357.58605947
_cell_formula_units_Z   1
loop_
 _symmetry_equiv_pos_site_id
 _symmetry_equiv_pos_as_xyz
  1  'x, y, z'
loop_
 _atom_site_type_symbol
 _atom_site_label
 _atom_site_symmetry_multiplicity
 _atom_site_fract_x
 _atom_site_fract_y
 _atom_site_fract_z
 _atom_site_occupancy
  Tb  Tb0  1  0.976662  0.910813  0.187891  1
  Tb  Tb1  1  0.789779  0.584004  0.809186  1
  Tb  Tb2  1  0.022235  0.083705  0.813285  1
  Tb  Tb3  1  0.200803  0.416053  0.187709  1
  Ho  Ho4  1  0.642097  0.812241  0.432757  1
  Ho  Ho5  1  0.208407  0.686360  0.566586  1
  Ho  Ho6  1  0.359808  0.186160  0.565071  1
  Ho  Ho7  1  0.793044  0.318090  0.431966  1
  Ho  Ho8  1  0.424661  0.747590  0.001923  1
  Ho  Ho9  1  0.580237  0.253362  0.001942  1
  Co  Co10  1  0.824685  0.576857  0.223773  1
  Ru  Ru11  1  0.601787  0.925016  0.779131  1
  Ru  Ru12  1  0.177224  0.425849  0.777287  1
  Ru  Ru13  1  0.398571  0.073901  0.221493  1
