# generated using pymatgen
data_Dy12ZnIn(CoCu)2
_symmetry_space_group_name_H-M   'P 1'
_cell_length_a   8.37890773
_cell_length_b   8.37880859
_cell_length_c   8.37890619
_cell_angle_alpha   112.73224329
_cell_angle_beta   109.29800823
_cell_angle_gamma   106.44538767
_symmetry_Int_Tables_number   1
_chemical_formula_structural   Dy12ZnIn(CoCu)2
_chemical_formula_sum   'Dy12 Zn1 In1 Co2 Cu2'
_cell_volume   451.45653192
_cell_formula_units_Z   1
loop_
 _symmetry_equiv_pos_site_id
 _symmetry_equiv_pos_as_xyz
  1  'x, y, z'
loop_
 _atom_site_type_symbol
 _atom_site_label
 _atom_site_symmetry_multiplicity
 _atom_site_fract_x
 _atom_site_fract_y
 _atom_site_fract_z
 _atom_site_occupancy
  Dy  Dy0  1  0.429212  0.234119  0.195092  1
  Dy  Dy1  1  0.570788  0.765881  0.804908  1
  Dy  Dy2  1  0.039027  0.234119  0.804907  1
  Dy  Dy3  1  0.960973  0.765881  0.195093  1
  Dy  Dy4  1  0.181601  0.288469  0.470070  1
  Dy  Dy5  1  0.818399  0.711531  0.529930  1
  Dy  Dy6  1  0.181601  0.711531  0.893132  1
  Dy  Dy7  1  0.818399  0.288469  0.106868  1
  Dy  Dy8  1  0.310363  0.618514  0.308151  1
  Dy  Dy9  1  0.689637  0.381486  0.691849  1
  Dy  Dy10  1  0.310364  0.002215  0.691852  1
  Dy  Dy11  1  0.689636  0.997785  0.308148  1
  Zn  Zn12  1  0.000000  0.000000  0.000000  1
  In  In13  1  0.500000  0.500000  0.000000  1
  Co  Co14  1  0.112659  0.612657  0.499998  1
  Co  Co15  1  0.887341  0.387343  0.500002  1
  Cu  Cu16  1  0.355574  0.000000  0.355574  1
  Cu  Cu17  1  0.644426  0.000000  0.644426  1
