# generated using pymatgen
data_Ac(Ni5As3)2
_symmetry_space_group_name_H-M   'P 1'
_cell_length_a   8.99360281
_cell_length_b   8.99360329
_cell_length_c   9.06979300
_cell_angle_alpha   90.00000000
_cell_angle_beta   90.00000000
_cell_angle_gamma   136.39694926
_symmetry_Int_Tables_number   1
_chemical_formula_structural   Ac(Ni5As3)2
_chemical_formula_sum   'Ac2 Ni20 As12'
_cell_volume   505.93957074
_cell_formula_units_Z   2
loop_
 _symmetry_equiv_pos_site_id
 _symmetry_equiv_pos_as_xyz
  1  'x, y, z'
loop_
 _atom_site_type_symbol
 _atom_site_label
 _atom_site_symmetry_multiplicity
 _atom_site_fract_x
 _atom_site_fract_y
 _atom_site_fract_z
 _atom_site_occupancy
  Ac  Ac0  1  0.000000  0.000000  0.500000  1
  Ac  Ac1  1  0.500000  0.500000  0.000000  1
  Ni  Ni2  1  0.211090  0.788910  0.297915  1
  Ni  Ni3  1  0.288910  0.711090  0.797915  1
  Ni  Ni4  1  0.916597  0.583403  0.750000  1
  Ni  Ni5  1  0.711090  0.288910  0.202085  1
  Ni  Ni6  1  0.083403  0.416597  0.250000  1
  Ni  Ni7  1  0.416597  0.083403  0.750000  1
  Ni  Ni8  1  0.954658  0.045342  0.886859  1
  Ni  Ni9  1  0.045342  0.954658  0.113141  1
  Ni  Ni10  1  0.545342  0.454658  0.386859  1
  Ni  Ni11  1  0.454658  0.545342  0.613141  1
  Ni  Ni12  1  0.477192  0.130407  0.472604  1
  Ni  Ni13  1  0.130407  0.477192  0.527396  1
  Ni  Ni14  1  0.022808  0.369593  0.972604  1
  Ni  Ni15  1  0.369593  0.022808  0.027396  1
  Ni  Ni16  1  0.522808  0.869593  0.527396  1
  Ni  Ni17  1  0.869593  0.522808  0.472604  1
  Ni  Ni18  1  0.977192  0.630407  0.027396  1
  Ni  Ni19  1  0.630407  0.977192  0.972604  1
  Ni  Ni20  1  0.583403  0.916597  0.250000  1
  Ni  Ni21  1  0.788910  0.211090  0.702085  1
  As  As22  1  0.143403  0.356597  0.750000  1
  As  As23  1  0.356597  0.143403  0.250000  1
  As  As24  1  0.410142  0.589858  0.363731  1
  As  As25  1  0.589858  0.410142  0.636269  1
  As  As26  1  0.089858  0.910142  0.863731  1
  As  As27  1  0.910142  0.089858  0.136269  1
  As  As28  1  0.291737  0.708263  0.072828  1
  As  As29  1  0.708263  0.291737  0.927172  1
  As  As30  1  0.208263  0.791737  0.572828  1
  As  As31  1  0.791737  0.208263  0.427172  1
  As  As32  1  0.856597  0.643403  0.250000  1
  As  As33  1  0.643403  0.856597  0.750000  1
