# generated using pymatgen
data_Tb5Ho5In8NiAu3
_symmetry_space_group_name_H-M   'P 1'
_cell_length_a   8.20846721
_cell_length_b   18.37968450
_cell_length_c   3.64663700
_cell_angle_alpha   90.00000000
_cell_angle_beta   90.00000000
_cell_angle_gamma   89.84715032
_symmetry_Int_Tables_number   1
_chemical_formula_structural   Tb5Ho5In8NiAu3
_chemical_formula_sum   'Tb5 Ho5 In8 Ni1 Au3'
_cell_volume   550.16265675
_cell_formula_units_Z   1
loop_
 _symmetry_equiv_pos_site_id
 _symmetry_equiv_pos_as_xyz
  1  'x, y, z'
loop_
 _atom_site_type_symbol
 _atom_site_label
 _atom_site_symmetry_multiplicity
 _atom_site_fract_x
 _atom_site_fract_y
 _atom_site_fract_z
 _atom_site_occupancy
  Tb  Tb0  1  0.500458  0.497860  0.000000  1
  Tb  Tb1  1  0.001821  0.001925  0.000000  1
  Tb  Tb2  1  0.759201  0.283031  0.000000  1
  Tb  Tb3  1  0.262299  0.714497  0.000000  1
  Tb  Tb4  1  0.761935  0.784221  0.000000  1
  Ho  Ho5  1  0.224966  0.223784  0.000000  1
  Ho  Ho6  1  0.621229  0.082672  0.000000  1
  Ho  Ho7  1  0.378265  0.921729  0.000000  1
  Ho  Ho8  1  0.878281  0.577435  0.000000  1
  Ho  Ho9  1  0.114968  0.410939  0.000000  1
  In  In10  1  0.707880  0.936238  0.500000  1
  In  In11  1  0.291320  0.070241  0.500000  1
  In  In12  1  0.796164  0.430402  0.500000  1
  In  In13  1  0.204775  0.561646  0.500000  1
  In  In14  1  0.581745  0.646475  0.500000  1
  In  In15  1  0.418846  0.351145  0.500000  1
  In  In16  1  0.926337  0.151411  0.500000  1
  In  In17  1  0.080665  0.852884  0.500000  1
  Ni  Ni18  1  0.027100  0.303731  0.500000  1
  Au  Au19  1  0.525348  0.198944  0.500000  1
  Au  Au20  1  0.467658  0.804238  0.500000  1
  Au  Au21  1  0.968739  0.694554  0.500000  1
