# generated using pymatgen
data_Yb5CuAgIr
_symmetry_space_group_name_H-M   'P 1'
_cell_length_a   8.92083018
_cell_length_b   8.92082943
_cell_length_c   8.92083100
_cell_angle_alpha   129.91406007
_cell_angle_beta   129.99924450
_cell_angle_gamma   73.47609511
_symmetry_Int_Tables_number   1
_chemical_formula_structural   Yb5CuAgIr
_chemical_formula_sum   'Yb10 Cu2 Ag2 Ir2'
_cell_volume   407.11210394
_cell_formula_units_Z   2
loop_
 _symmetry_equiv_pos_site_id
 _symmetry_equiv_pos_as_xyz
  1  'x, y, z'
loop_
 _atom_site_type_symbol
 _atom_site_label
 _atom_site_symmetry_multiplicity
 _atom_site_fract_x
 _atom_site_fract_y
 _atom_site_fract_z
 _atom_site_occupancy
  Yb  Yb0  1  0.463876  0.955942  0.152710  1
  Yb  Yb1  1  0.196769  0.688835  0.152710  1
  Yb  Yb2  1  0.535242  0.026268  0.831691  1
  Yb  Yb3  1  0.035242  0.203552  0.508974  1
  Yb  Yb4  1  0.696769  0.544058  0.507934  1
  Yb  Yb5  1  0.963876  0.811165  0.507934  1
  Yb  Yb6  1  0.997160  0.993393  0.990553  1
  Yb  Yb7  1  0.497160  0.506607  0.003766  1
  Yb  Yb8  1  0.805423  0.296448  0.831691  1
  Yb  Yb9  1  0.305423  0.473732  0.508974  1
  Cu  Cu10  1  0.378134  0.121643  0.499778  1
  Cu  Cu11  1  0.878134  0.378357  0.256493  1
  Ag  Ag12  1  0.753566  0.750000  0.003566  1
  Ag  Ag13  1  0.253566  0.250000  0.003566  1
  Ir  Ir14  1  0.119831  0.619534  0.739363  1
  Ir  Ir15  1  0.619831  0.880466  0.500296  1
