# generated using pymatgen
data_Y6Tm10Cd4Ir3Rh
_symmetry_space_group_name_H-M   'P 1'
_cell_length_a   9.58367089
_cell_length_b   9.58367146
_cell_length_c   9.58367097
_cell_angle_alpha   59.94003117
_cell_angle_beta   59.94002840
_cell_angle_gamma   59.94002816
_symmetry_Int_Tables_number   1
_chemical_formula_structural   Y6Tm10Cd4Ir3Rh
_chemical_formula_sum   'Y6 Tm10 Cd4 Ir3 Rh1'
_cell_volume   621.56932900
_cell_formula_units_Z   1
loop_
 _symmetry_equiv_pos_site_id
 _symmetry_equiv_pos_as_xyz
  1  'x, y, z'
loop_
 _atom_site_type_symbol
 _atom_site_label
 _atom_site_symmetry_multiplicity
 _atom_site_fract_x
 _atom_site_fract_y
 _atom_site_fract_z
 _atom_site_occupancy
  Y  Y0  1  0.940606  0.560708  0.560708  1
  Y  Y1  1  0.562301  0.938618  0.938618  1
  Y  Y2  1  0.560708  0.940606  0.560708  1
  Y  Y3  1  0.938618  0.562301  0.938618  1
  Y  Y4  1  0.560708  0.560708  0.940606  1
  Y  Y5  1  0.938618  0.938618  0.562301  1
  Tm  Tm6  1  0.347742  0.347742  0.347742  1
  Tm  Tm7  1  0.349437  0.349437  0.954194  1
  Tm  Tm8  1  0.349437  0.954194  0.349437  1
  Tm  Tm9  1  0.954194  0.349437  0.349437  1
  Tm  Tm10  1  0.809737  0.188479  0.188479  1
  Tm  Tm11  1  0.187308  0.811551  0.811551  1
  Tm  Tm12  1  0.188479  0.809737  0.188479  1
  Tm  Tm13  1  0.811551  0.187308  0.811551  1
  Tm  Tm14  1  0.188479  0.188479  0.809737  1
  Tm  Tm15  1  0.811551  0.811551  0.187308  1
  Cd  Cd16  1  0.579778  0.579778  0.579778  1
  Cd  Cd17  1  0.580582  0.580582  0.257941  1
  Cd  Cd18  1  0.580582  0.257941  0.580582  1
  Cd  Cd19  1  0.257941  0.580582  0.580582  1
  Ir  Ir20  1  0.142467  0.142467  0.574701  1
  Ir  Ir21  1  0.142467  0.574701  0.142467  1
  Ir  Ir22  1  0.574701  0.142467  0.142467  1
  Rh  Rh23  1  0.142012  0.142012  0.142012  1
