# generated using pymatgen
data_YbScB6Ru
_symmetry_space_group_name_H-M   'P 1'
_cell_length_a   3.53953600
_cell_length_b   8.97063800
_cell_length_c   11.33548100
_cell_angle_alpha   90.00000000
_cell_angle_beta   90.00000000
_cell_angle_gamma   90.00000000
_symmetry_Int_Tables_number   1
_chemical_formula_structural   YbScB6Ru
_chemical_formula_sum   'Yb4 Sc4 B24 Ru4'
_cell_volume   359.92301545
_cell_formula_units_Z   4
loop_
 _symmetry_equiv_pos_site_id
 _symmetry_equiv_pos_as_xyz
  1  'x, y, z'
loop_
 _atom_site_type_symbol
 _atom_site_label
 _atom_site_symmetry_multiplicity
 _atom_site_fract_x
 _atom_site_fract_y
 _atom_site_fract_z
 _atom_site_occupancy
  Yb  Yb0  1  0.000000  0.323143  0.414899  1
  Yb  Yb1  1  0.000000  0.676857  0.585101  1
  Yb  Yb2  1  0.000000  0.823143  0.085101  1
  Yb  Yb3  1  0.000000  0.176857  0.914899  1
  Sc  Sc4  1  0.000000  0.942696  0.367793  1
  Sc  Sc5  1  0.000000  0.057304  0.632207  1
  Sc  Sc6  1  0.000000  0.442696  0.132207  1
  Sc  Sc7  1  0.000000  0.557304  0.867793  1
  B  B8  1  0.500000  0.554511  0.432600  1
  B  B9  1  0.500000  0.445489  0.567400  1
  B  B10  1  0.500000  0.054511  0.067400  1
  B  B11  1  0.500000  0.945489  0.932600  1
  B  B12  1  0.500000  0.752772  0.417624  1
  B  B13  1  0.500000  0.247228  0.582376  1
  B  B14  1  0.500000  0.252772  0.082376  1
  B  B15  1  0.500000  0.747228  0.917624  1
  B  B16  1  0.500000  0.794155  0.264289  1
  B  B17  1  0.500000  0.205845  0.735711  1
  B  B18  1  0.500000  0.294155  0.235711  1
  B  B19  1  0.500000  0.705845  0.764289  1
  B  B20  1  0.500000  0.629477  0.183297  1
  B  B21  1  0.500000  0.370523  0.816703  1
  B  B22  1  0.500000  0.129477  0.316703  1
  B  B23  1  0.500000  0.870523  0.683297  1
  B  B24  1  0.500000  0.981762  0.212364  1
  B  B25  1  0.500000  0.018238  0.787636  1
  B  B26  1  0.500000  0.481762  0.287636  1
  B  B27  1  0.500000  0.518238  0.712364  1
  B  B28  1  0.500000  0.594195  0.025628  1
  B  B29  1  0.500000  0.405805  0.974372  1
  B  B30  1  0.500000  0.094195  0.474372  1
  B  B31  1  0.500000  0.905805  0.525628  1
  Ru  Ru32  1  0.000000  0.640907  0.317524  1
  Ru  Ru33  1  0.000000  0.359093  0.682476  1
  Ru  Ru34  1  0.000000  0.140907  0.182476  1
  Ru  Ru35  1  0.000000  0.859093  0.817524  1
