# generated using pymatgen
data_MnFe2Pd9
_symmetry_space_group_name_H-M   'P 1'
_cell_length_a   3.90465200
_cell_length_b   3.90465200
_cell_length_c   11.70426700
_cell_angle_alpha   90.00000000
_cell_angle_beta   90.00000000
_cell_angle_gamma   90.00000000
_symmetry_Int_Tables_number   1
_chemical_formula_structural   MnFe2Pd9
_chemical_formula_sum   'Mn1 Fe2 Pd9'
_cell_volume   178.44685071
_cell_formula_units_Z   1
loop_
 _symmetry_equiv_pos_site_id
 _symmetry_equiv_pos_as_xyz
  1  'x, y, z'
loop_
 _atom_site_type_symbol
 _atom_site_label
 _atom_site_symmetry_multiplicity
 _atom_site_fract_x
 _atom_site_fract_y
 _atom_site_fract_z
 _atom_site_occupancy
  Mn  Mn0  1  0.000000  0.000000  0.000000  1
  Fe  Fe1  1  0.000000  0.000000  0.332696  1
  Fe  Fe2  1  0.000000  0.000000  0.667304  1
  Pd  Pd3  1  0.500000  0.500000  0.000000  1
  Pd  Pd4  1  0.500000  0.500000  0.334289  1
  Pd  Pd5  1  0.500000  0.500000  0.665711  1
  Pd  Pd6  1  0.500000  0.000000  0.169334  1
  Pd  Pd7  1  0.500000  0.000000  0.500000  1
  Pd  Pd8  1  0.500000  0.000000  0.830666  1
  Pd  Pd9  1  0.000000  0.500000  0.169334  1
  Pd  Pd10  1  0.000000  0.500000  0.500000  1
  Pd  Pd11  1  0.000000  0.500000  0.830666  1
