# generated using pymatgen
data_Nb4SiAs3Ru4
_symmetry_space_group_name_H-M   'P 1'
_cell_length_a   3.89422700
_cell_length_b   6.47074620
_cell_length_c   7.37995886
_cell_angle_alpha   89.73804755
_cell_angle_beta   90.00000000
_cell_angle_gamma   90.00000000
_symmetry_Int_Tables_number   1
_chemical_formula_structural   Nb4SiAs3Ru4
_chemical_formula_sum   'Nb4 Si1 As3 Ru4'
_cell_volume   185.96235244
_cell_formula_units_Z   1
loop_
 _symmetry_equiv_pos_site_id
 _symmetry_equiv_pos_as_xyz
  1  'x, y, z'
loop_
 _atom_site_type_symbol
 _atom_site_label
 _atom_site_symmetry_multiplicity
 _atom_site_fract_x
 _atom_site_fract_y
 _atom_site_fract_z
 _atom_site_occupancy
  Nb  Nb0  1  0.250000  0.017402  0.825117  1
  Nb  Nb1  1  0.250000  0.528794  0.679191  1
  Nb  Nb2  1  0.750000  0.972542  0.173676  1
  Nb  Nb3  1  0.750000  0.476614  0.322102  1
  Si  Si4  1  0.750000  0.727900  0.876595  1
  As  As5  1  0.250000  0.768047  0.375443  1
  As  As6  1  0.250000  0.267513  0.122255  1
  As  As7  1  0.750000  0.233814  0.625264  1
  Ru  Ru8  1  0.250000  0.147860  0.439817  1
  Ru  Ru9  1  0.250000  0.650292  0.055961  1
  Ru  Ru10  1  0.750000  0.852266  0.565437  1
  Ru  Ru11  1  0.750000  0.356957  0.939141  1
