# generated using pymatgen
data_La4Pr4Bi3O8
_symmetry_space_group_name_H-M   'P 1'
_cell_length_a   7.36770095
_cell_length_b   7.36770133
_cell_length_c   15.91049083
_cell_angle_alpha   73.29873664
_cell_angle_beta   73.29873649
_cell_angle_gamma   31.74375373
_symmetry_Int_Tables_number   1
_chemical_formula_structural   La4Pr4Bi3O8
_chemical_formula_sum   'La4 Pr4 Bi3 O8'
_cell_volume   433.64012427
_cell_formula_units_Z   1
loop_
 _symmetry_equiv_pos_site_id
 _symmetry_equiv_pos_as_xyz
  1  'x, y, z'
loop_
 _atom_site_type_symbol
 _atom_site_label
 _atom_site_symmetry_multiplicity
 _atom_site_fract_x
 _atom_site_fract_y
 _atom_site_fract_z
 _atom_site_occupancy
  La  La0  1  0.879138  0.881241  0.651340  1
  La  La1  1  0.118759  0.120862  0.348660  1
  La  La2  1  0.450061  0.456749  0.830976  1
  La  La3  1  0.543251  0.549939  0.169024  1
  Pr  Pr4  1  0.715472  0.724584  0.911838  1
  Pr  Pr5  1  0.275416  0.284528  0.088162  1
  Pr  Pr6  1  0.642851  0.643402  0.567827  1
  Pr  Pr7  1  0.356598  0.357149  0.432173  1
  Bi  Bi8  1  0.170826  0.172423  0.733332  1
  Bi  Bi9  1  0.827577  0.829174  0.266668  1
  Bi  Bi10  1  0.990699  0.009301  0.000000  1
  O  O11  1  0.468930  0.470888  0.632897  1
  O  O12  1  0.529112  0.531070  0.367103  1
  O  O13  1  0.878595  0.885593  0.799822  1
  O  O14  1  0.114407  0.121405  0.200178  1
  O  O15  1  0.164580  0.165072  0.487201  1
  O  O16  1  0.834928  0.835420  0.512799  1
  O  O17  1  0.290893  0.300096  0.933835  1
  O  O18  1  0.699904  0.709107  0.066165  1
