# generated using pymatgen
data_Nd4CuIr2Pd
_symmetry_space_group_name_H-M   'P 1'
_cell_length_a   4.45224000
_cell_length_b   5.79040115
_cell_length_c   7.46424785
_cell_angle_alpha   90.56323842
_cell_angle_beta   90.00000000
_cell_angle_gamma   90.00000000
_symmetry_Int_Tables_number   1
_chemical_formula_structural   Nd4CuIr2Pd
_chemical_formula_sum   'Nd4 Cu1 Ir2 Pd1'
_cell_volume   192.42091987
_cell_formula_units_Z   1
loop_
 _symmetry_equiv_pos_site_id
 _symmetry_equiv_pos_as_xyz
  1  'x, y, z'
loop_
 _atom_site_type_symbol
 _atom_site_label
 _atom_site_symmetry_multiplicity
 _atom_site_fract_x
 _atom_site_fract_y
 _atom_site_fract_z
 _atom_site_occupancy
  Nd  Nd0  1  0.000000  0.638629  0.329619  1
  Nd  Nd1  1  0.000000  0.867925  0.809959  1
  Nd  Nd2  1  0.500000  0.364965  0.685006  1
  Nd  Nd3  1  0.500000  0.135618  0.172823  1
  Cu  Cu4  1  0.500000  0.625512  0.038300  1
  Ir  Ir5  1  0.000000  0.373083  0.969652  1
  Ir  Ir6  1  0.500000  0.844418  0.543448  1
  Pd  Pd7  1  0.000000  0.149852  0.451194  1
