# generated using pymatgen
data_Tm2Mn2Br
_symmetry_space_group_name_H-M   'P 1'
_cell_length_a   3.79915200
_cell_length_b   3.79915187
_cell_length_c   16.86714900
_cell_angle_alpha   90.00000000
_cell_angle_beta   90.00000000
_cell_angle_gamma   120.00000109
_symmetry_Int_Tables_number   1
_chemical_formula_structural   Tm2Mn2Br
_chemical_formula_sum   'Tm4 Mn4 Br2'
_cell_volume   210.83641990
_cell_formula_units_Z   2
loop_
 _symmetry_equiv_pos_site_id
 _symmetry_equiv_pos_as_xyz
  1  'x, y, z'
loop_
 _atom_site_type_symbol
 _atom_site_label
 _atom_site_symmetry_multiplicity
 _atom_site_fract_x
 _atom_site_fract_y
 _atom_site_fract_z
 _atom_site_occupancy
  Tm  Tm0  1  0.000000  0.000000  0.113697  1
  Tm  Tm1  1  0.000000  0.000000  0.386303  1
  Tm  Tm2  1  0.000000  0.000000  0.613696  1
  Tm  Tm3  1  0.000000  0.000000  0.886303  1
  Mn  Mn4  1  0.333334  0.666667  0.010602  1
  Mn  Mn5  1  0.333334  0.666667  0.489397  1
  Mn  Mn6  1  0.666667  0.333334  0.510602  1
  Mn  Mn7  1  0.666667  0.333334  0.989398  1
  Br  Br8  1  0.666667  0.333334  0.250000  1
  Br  Br9  1  0.333334  0.666667  0.750000  1
