# generated using pymatgen
data_Hf6Al7Ni16H3
_symmetry_space_group_name_H-M   'P 1'
_cell_length_a   8.25565635
_cell_length_b   8.25565811
_cell_length_c   8.25510385
_cell_angle_alpha   119.87545054
_cell_angle_beta   120.15930479
_cell_angle_gamma   89.97391799
_symmetry_Int_Tables_number   1
_chemical_formula_structural   Hf6Al7Ni16H3
_chemical_formula_sum   'Hf6 Al7 Ni16 H3'
_cell_volume   397.72127393
_cell_formula_units_Z   1
loop_
 _symmetry_equiv_pos_site_id
 _symmetry_equiv_pos_as_xyz
  1  'x, y, z'
loop_
 _atom_site_type_symbol
 _atom_site_label
 _atom_site_symmetry_multiplicity
 _atom_site_fract_x
 _atom_site_fract_y
 _atom_site_fract_z
 _atom_site_occupancy
  Hf  Hf0  1  0.797394  0.213698  0.004779  1
  Hf  Hf1  1  0.797379  0.792605  0.583667  1
  Hf  Hf2  1  0.777516  0.777516  0.000000  1
  Hf  Hf3  1  0.208920  0.792615  0.995221  1
  Hf  Hf4  1  0.208939  0.213712  0.416333  1
  Hf  Hf5  1  0.210826  0.210826  0.000000  1
  Al  Al6  1  0.498967  0.497071  0.495986  1
  Al  Al7  1  0.498894  0.002910  0.001786  1
  Al  Al8  1  0.499633  0.999633  0.500000  1
  Al  Al9  1  0.001085  0.002983  0.504014  1
  Al  Al10  1  0.001122  0.497108  0.998214  1
  Al  Al11  1  0.998187  0.498187  0.500000  1
  Al  Al12  1  0.499333  0.499333  0.000000  1
  Ni  Ni13  1  0.486795  0.827680  0.659103  1
  Ni  Ni14  1  0.168577  0.827690  0.340897  1
  Ni  Ni15  1  0.167820  0.831408  0.663590  1
  Ni  Ni16  1  0.167817  0.504228  0.336410  1
  Ni  Ni17  1  0.504691  0.167630  0.337022  1
  Ni  Ni18  1  0.830607  0.167669  0.662978  1
  Ni  Ni19  1  0.832164  0.164590  0.332371  1
  Ni  Ni20  1  0.832220  0.499794  0.667629  1
  Ni  Ni21  1  0.859689  0.617572  0.242205  1
  Ni  Ni22  1  0.375367  0.617483  0.757795  1
  Ni  Ni23  1  0.380396  0.618955  0.238536  1
  Ni  Ni24  1  0.380419  0.141861  0.761464  1
  Ni  Ni25  1  0.139374  0.381010  0.758320  1
  Ni  Ni26  1  0.622690  0.381054  0.241680  1
  Ni  Ni27  1  0.618344  0.377964  0.759578  1
  Ni  Ni28  1  0.618385  0.858766  0.240422  1
  H  H29  1  0.027830  0.027830  0.000000  1
  H  H30  1  0.722334  0.904213  0.818129  1
  H  H31  1  0.086084  0.904206  0.181871  1
