# generated using pymatgen
data_BaSr4Eu(SiAs2)4
_symmetry_space_group_name_H-M   'P 1'
_cell_length_a   9.78144994
_cell_length_b   9.78145063
_cell_length_c   7.53812018
_cell_angle_alpha   75.08987431
_cell_angle_beta   75.08988632
_cell_angle_gamma   122.75576205
_symmetry_Int_Tables_number   1
_chemical_formula_structural   BaSr4Eu(SiAs2)4
_chemical_formula_sum   'Ba1 Sr4 Eu1 Si4 As8'
_cell_volume   511.61265154
_cell_formula_units_Z   1
loop_
 _symmetry_equiv_pos_site_id
 _symmetry_equiv_pos_as_xyz
  1  'x, y, z'
loop_
 _atom_site_type_symbol
 _atom_site_label
 _atom_site_symmetry_multiplicity
 _atom_site_fract_x
 _atom_site_fract_y
 _atom_site_fract_z
 _atom_site_occupancy
  Ba  Ba0  1  0.942204  0.057796  0.250000  1
  Sr  Sr1  1  0.564741  0.435260  0.750000  1
  Sr  Sr2  1  0.434810  0.565190  0.250000  1
  Sr  Sr3  1  0.813405  0.186596  0.750000  1
  Sr  Sr4  1  0.185743  0.814257  0.250000  1
  Eu  Eu5  1  0.061138  0.938862  0.750000  1
  Si  Si6  1  0.171184  0.527946  0.843064  1
  Si  Si7  1  0.472054  0.828816  0.656936  1
  Si  Si8  1  0.829809  0.471273  0.153662  1
  Si  Si9  1  0.528727  0.170191  0.346338  1
  As  As10  1  0.953363  0.559248  0.781940  1
  As  As11  1  0.440752  0.046637  0.718060  1
  As  As12  1  0.673953  0.807291  0.758727  1
  As  As13  1  0.192709  0.326047  0.741273  1
  As  As14  1  0.321679  0.186966  0.260087  1
  As  As15  1  0.813034  0.678321  0.239913  1
  As  As16  1  0.549363  0.948667  0.286577  1
  As  As17  1  0.051333  0.450637  0.213423  1
