# generated using pymatgen
data_Cs7Rb(NpI5)4
_symmetry_space_group_name_H-M   'P 1'
_cell_length_a   9.57361196
_cell_length_b   10.03676989
_cell_length_c   15.23472200
_cell_angle_alpha   89.93465949
_cell_angle_beta   89.93091190
_cell_angle_gamma   90.23898596
_symmetry_Int_Tables_number   1
_chemical_formula_structural   Cs7Rb(NpI5)4
_chemical_formula_sum   'Cs7 Rb1 Np4 I20'
_cell_volume   1463.86134613
_cell_formula_units_Z   1
loop_
 _symmetry_equiv_pos_site_id
 _symmetry_equiv_pos_as_xyz
  1  'x, y, z'
loop_
 _atom_site_type_symbol
 _atom_site_label
 _atom_site_symmetry_multiplicity
 _atom_site_fract_x
 _atom_site_fract_y
 _atom_site_fract_z
 _atom_site_occupancy
  Cs  Cs0  1  0.058108  0.996284  0.171892  1
  Cs  Cs1  1  0.441531  0.996084  0.672266  1
  Cs  Cs2  1  0.057538  0.503407  0.171040  1
  Cs  Cs3  1  0.558167  0.003952  0.327765  1
  Cs  Cs4  1  0.941461  0.495733  0.827832  1
  Cs  Cs5  1  0.558302  0.495846  0.327678  1
  Cs  Cs6  1  0.441265  0.503572  0.673110  1
  Rb  Rb7  1  0.942792  0.002508  0.827716  1
  Np  Np8  1  0.931211  0.751149  0.503809  1
  Np  Np9  1  0.069453  0.250730  0.496972  1
  Np  Np10  1  0.429624  0.250259  0.995734  1
  Np  Np11  1  0.570330  0.751712  0.003121  1
  I  I12  1  0.116747  0.752077  0.675733  1
  I  I13  1  0.882600  0.249570  0.326573  1
  I  I14  1  0.620622  0.248343  0.826620  1
  I  I15  1  0.381690  0.747972  0.173103  1
  I  I16  1  0.837979  0.044026  0.572716  1
  I  I17  1  0.160519  0.955921  0.427762  1
  I  I18  1  0.338550  0.953943  0.928369  1
  I  I19  1  0.163294  0.544406  0.429299  1
  I  I20  1  0.661376  0.045664  0.071746  1
  I  I21  1  0.837108  0.456057  0.572004  1
  I  I22  1  0.663650  0.457009  0.071569  1
  I  I23  1  0.337346  0.543701  0.928785  1
  I  I24  1  0.594922  0.749060  0.512266  1
  I  I25  1  0.404844  0.250845  0.488459  1
  I  I26  1  0.092214  0.246239  0.985240  1
  I  I27  1  0.907200  0.753206  0.009930  1
  I  I28  1  0.657783  0.755148  0.803853  1
  I  I29  1  0.345584  0.249880  0.195220  1
  I  I30  1  0.149656  0.244906  0.697702  1
  I  I31  1  0.846534  0.750795  0.304116  1
