# generated using pymatgen
data_Yb2Pt2O6F
_symmetry_space_group_name_H-M   'P 1'
_cell_length_a   7.22368276
_cell_length_b   7.22368246
_cell_length_c   7.22368200
_cell_angle_alpha   60.00000212
_cell_angle_beta   60.00000349
_cell_angle_gamma   59.99999831
_symmetry_Int_Tables_number   1
_chemical_formula_structural   Yb2Pt2O6F
_chemical_formula_sum   'Yb4 Pt4 O12 F2'
_cell_volume   266.53911196
_cell_formula_units_Z   2
loop_
 _symmetry_equiv_pos_site_id
 _symmetry_equiv_pos_as_xyz
  1  'x, y, z'
loop_
 _atom_site_type_symbol
 _atom_site_label
 _atom_site_symmetry_multiplicity
 _atom_site_fract_x
 _atom_site_fract_y
 _atom_site_fract_z
 _atom_site_occupancy
  Yb  Yb0  1  0.125000  0.125000  0.625000  1
  Yb  Yb1  1  0.125000  0.625000  0.125000  1
  Yb  Yb2  1  0.625000  0.125000  0.125000  1
  Yb  Yb3  1  0.125000  0.125000  0.125000  1
  Pt  Pt4  1  0.625000  0.625000  0.125000  1
  Pt  Pt5  1  0.625000  0.125000  0.625000  1
  Pt  Pt6  1  0.125000  0.625000  0.625000  1
  Pt  Pt7  1  0.625000  0.625000  0.625000  1
  O  O8  1  0.287039  0.287039  0.712961  1
  O  O9  1  0.712961  0.712961  0.287039  1
  O  O10  1  0.962961  0.537039  0.537039  1
  O  O11  1  0.712961  0.287039  0.287039  1
  O  O12  1  0.537039  0.962961  0.537039  1
  O  O13  1  0.537039  0.537039  0.962961  1
  O  O14  1  0.287039  0.712961  0.712961  1
  O  O15  1  0.962961  0.537039  0.962961  1
  O  O16  1  0.537039  0.962961  0.962961  1
  O  O17  1  0.712961  0.287039  0.712961  1
  O  O18  1  0.287039  0.712961  0.287039  1
  O  O19  1  0.962961  0.962961  0.537039  1
  F  F20  1  0.250000  0.250000  0.250000  1
  F  F21  1  0.000000  0.000000  0.000000  1
