# generated using pymatgen
data_DyY15InHg3Rh4
_symmetry_space_group_name_H-M   'P 1'
_cell_length_a   9.66193479
_cell_length_b   9.65589130
_cell_length_c   9.65589172
_cell_angle_alpha   59.98180458
_cell_angle_beta   59.99698158
_cell_angle_gamma   59.99698844
_symmetry_Int_Tables_number   1
_chemical_formula_structural   DyY15InHg3Rh4
_chemical_formula_sum   'Dy1 Y15 In1 Hg3 Rh4'
_cell_volume   636.87516749
_cell_formula_units_Z   1
loop_
 _symmetry_equiv_pos_site_id
 _symmetry_equiv_pos_as_xyz
  1  'x, y, z'
loop_
 _atom_site_type_symbol
 _atom_site_label
 _atom_site_symmetry_multiplicity
 _atom_site_fract_x
 _atom_site_fract_y
 _atom_site_fract_z
 _atom_site_occupancy
  Dy  Dy0  1  0.551478  0.148685  0.148685  1
  Y  Y1  1  0.689875  0.310597  0.310597  1
  Y  Y2  1  0.690145  0.690320  0.310240  1
  Y  Y3  1  0.310641  0.689791  0.310702  1
  Y  Y4  1  0.936093  0.936149  0.561091  1
  Y  Y5  1  0.148175  0.148212  0.552952  1
  Y  Y6  1  0.562653  0.937155  0.562370  1
  Y  Y7  1  0.149327  0.149326  0.149326  1
  Y  Y8  1  0.310641  0.310702  0.689791  1
  Y  Y9  1  0.936972  0.562673  0.562673  1
  Y  Y10  1  0.562653  0.562370  0.937155  1
  Y  Y11  1  0.561132  0.936250  0.936250  1
  Y  Y12  1  0.936093  0.561091  0.936149  1
  Y  Y13  1  0.148175  0.552952  0.148212  1
  Y  Y14  1  0.310230  0.690204  0.690204  1
  Y  Y15  1  0.690145  0.310240  0.690320  1
  In  In16  1  0.919464  0.919401  0.919401  1
  Hg  Hg17  1  0.915016  0.915041  0.255567  1
  Hg  Hg18  1  0.255660  0.915020  0.915020  1
  Hg  Hg19  1  0.915016  0.255567  0.915041  1
  Rh  Rh20  1  0.357738  0.356615  0.356615  1
  Rh  Rh21  1  0.927726  0.356897  0.356897  1
  Rh  Rh22  1  0.357476  0.356269  0.928472  1
  Rh  Rh23  1  0.357476  0.928472  0.356269  1
