# generated using pymatgen
data_Ho8Zr11TiSi15Sn
_symmetry_space_group_name_H-M   'P 1'
_cell_length_a   7.36364659
_cell_length_b   7.33299938
_cell_length_c   13.50262656
_cell_angle_alpha   90.11425971
_cell_angle_beta   89.66752520
_cell_angle_gamma   89.91264652
_symmetry_Int_Tables_number   1
_chemical_formula_structural   Ho8Zr11TiSi15Sn
_chemical_formula_sum   'Ho8 Zr11 Ti1 Si15 Sn1'
_cell_volume   729.09505726
_cell_formula_units_Z   1
loop_
 _symmetry_equiv_pos_site_id
 _symmetry_equiv_pos_as_xyz
  1  'x, y, z'
loop_
 _atom_site_type_symbol
 _atom_site_label
 _atom_site_symmetry_multiplicity
 _atom_site_fract_x
 _atom_site_fract_y
 _atom_site_fract_z
 _atom_site_occupancy
  Ho  Ho0  1  0.347699  0.000957  0.460734  1
  Ho  Ho1  1  0.504647  0.839286  0.715645  1
  Ho  Ho2  1  0.504007  0.155160  0.214441  1
  Ho  Ho3  1  0.846006  0.497013  0.286100  1
  Ho  Ho4  1  0.153856  0.509470  0.786818  1
  Ho  Ho5  1  0.657626  0.994644  0.965176  1
  Ho  Ho6  1  0.994398  0.352419  0.530450  1
  Ho  Ho7  1  0.997868  0.653826  0.037058  1
  Zr  Zr8  1  0.325122  0.325059  0.000651  1
  Zr  Zr9  1  0.175286  0.825141  0.250748  1
  Zr  Zr10  1  0.819831  0.172955  0.750643  1
  Zr  Zr11  1  0.675025  0.677307  0.500169  1
  Zr  Zr12  1  0.147548  0.003358  0.880475  1
  Zr  Zr13  1  0.497191  0.646693  0.125532  1
  Zr  Zr14  1  0.510312  0.358955  0.626113  1
  Zr  Zr15  1  0.650273  0.498406  0.875204  1
  Zr  Zr16  1  0.351205  0.506105  0.375857  1
  Zr  Zr17  1  0.851620  0.998429  0.374829  1
  Zr  Zr18  1  0.004252  0.147545  0.125044  1
  Ti  Ti19  1  0.978140  0.839389  0.619764  1
  Si  Si20  1  0.361577  0.705075  0.934126  1
  Si  Si21  1  0.636804  0.293838  0.432689  1
  Si  Si22  1  0.707105  0.360313  0.067069  1
  Si  Si23  1  0.287966  0.642644  0.569074  1
  Si  Si24  1  0.793979  0.860447  0.183527  1
  Si  Si25  1  0.139625  0.207098  0.316872  1
  Si  Si26  1  0.863703  0.796834  0.813233  1
  Si  Si27  1  0.297934  0.949444  0.064782  1
  Si  Si28  1  0.551665  0.795446  0.312577  1
  Si  Si29  1  0.456294  0.203762  0.817032  1
  Si  Si30  1  0.800320  0.552888  0.686667  1
  Si  Si31  1  0.204605  0.449799  0.187592  1
  Si  Si32  1  0.706394  0.048369  0.564120  1
  Si  Si33  1  0.949959  0.296714  0.936591  1
  Si  Si34  1  0.049818  0.709467  0.438948  1
  Sn  Sn35  1  0.200338  0.125743  0.673648  1
