# generated using pymatgen
data_Nd8Be(Pd7Pt)3
_symmetry_space_group_name_H-M   'P 1'
_cell_length_a   8.46836500
_cell_length_b   8.47869600
_cell_length_c   8.48772300
_cell_angle_alpha   90.00000000
_cell_angle_beta   90.00000000
_cell_angle_gamma   90.00000000
_symmetry_Int_Tables_number   1
_chemical_formula_structural   Nd8Be(Pd7Pt)3
_chemical_formula_sum   'Nd8 Be1 Pd21 Pt3'
_cell_volume   609.42438874
_cell_formula_units_Z   1
loop_
 _symmetry_equiv_pos_site_id
 _symmetry_equiv_pos_as_xyz
  1  'x, y, z'
loop_
 _atom_site_type_symbol
 _atom_site_label
 _atom_site_symmetry_multiplicity
 _atom_site_fract_x
 _atom_site_fract_y
 _atom_site_fract_z
 _atom_site_occupancy
  Nd  Nd0  1  0.250155  0.249753  0.249869  1
  Nd  Nd1  1  0.749112  0.749078  0.749311  1
  Nd  Nd2  1  0.749112  0.749078  0.250689  1
  Nd  Nd3  1  0.749845  0.249753  0.750131  1
  Nd  Nd4  1  0.250155  0.249753  0.750131  1
  Nd  Nd5  1  0.250888  0.749078  0.250689  1
  Nd  Nd6  1  0.250888  0.749078  0.749311  1
  Nd  Nd7  1  0.749845  0.249753  0.249869  1
  Be  Be8  1  0.000000  0.007063  0.000000  1
  Pd  Pd9  1  0.255986  0.500042  0.000000  1
  Pd  Pd10  1  0.744014  0.500042  0.000000  1
  Pd  Pd11  1  0.000000  0.256256  0.500000  1
  Pd  Pd12  1  0.500000  0.253491  0.000000  1
  Pd  Pd13  1  0.000000  0.742533  0.500000  1
  Pd  Pd14  1  0.500000  0.744634  0.000000  1
  Pd  Pd15  1  0.500000  0.999685  0.254646  1
  Pd  Pd16  1  0.256932  0.999705  0.500000  1
  Pd  Pd17  1  0.500000  0.999685  0.745354  1
  Pd  Pd18  1  0.743068  0.999705  0.500000  1
  Pd  Pd19  1  0.000000  0.500131  0.256085  1
  Pd  Pd20  1  0.000000  0.500131  0.743915  1
  Pd  Pd21  1  0.252335  0.499623  0.500000  1
  Pd  Pd22  1  0.747665  0.499623  0.500000  1
  Pd  Pd23  1  0.500000  0.251878  0.500000  1
  Pd  Pd24  1  0.500000  0.747656  0.500000  1
  Pd  Pd25  1  0.500000  0.499628  0.252139  1
  Pd  Pd26  1  0.500000  0.499628  0.747861  1
  Pd  Pd27  1  0.000000  0.732773  0.000000  1
  Pd  Pd28  1  0.000000  0.998923  0.273709  1
  Pd  Pd29  1  0.000000  0.998923  0.726291  1
  Pt  Pt30  1  0.268318  0.998494  0.000000  1
  Pt  Pt31  1  0.731682  0.998494  0.000000  1
  Pt  Pt32  1  0.000000  0.275929  0.000000  1
