# generated using pymatgen
data_Ac3In3PtAu2
_symmetry_space_group_name_H-M   'P 1'
_cell_length_a   8.02773300
_cell_length_b   8.02773436
_cell_length_c   4.38358200
_cell_angle_alpha   90.00000000
_cell_angle_beta   90.00000000
_cell_angle_gamma   119.99999850
_symmetry_Int_Tables_number   1
_chemical_formula_structural   Ac3In3PtAu2
_chemical_formula_sum   'Ac3 In3 Pt1 Au2'
_cell_volume   244.65026255
_cell_formula_units_Z   1
loop_
 _symmetry_equiv_pos_site_id
 _symmetry_equiv_pos_as_xyz
  1  'x, y, z'
loop_
 _atom_site_type_symbol
 _atom_site_label
 _atom_site_symmetry_multiplicity
 _atom_site_fract_x
 _atom_site_fract_y
 _atom_site_fract_z
 _atom_site_occupancy
  Ac  Ac0  1  0.588573  0.009384  0.500000  1
  Ac  Ac1  1  0.420811  0.411427  0.500000  1
  Ac  Ac2  1  0.990616  0.579189  0.500000  1
  In  In3  1  0.997755  0.245301  0.000000  1
  In  In4  1  0.754699  0.752453  0.000000  1
  In  In5  1  0.247547  0.002245  0.000000  1
  Pt  Pt6  1  0.666667  0.333333  0.000000  1
  Au  Au7  1  0.333333  0.666667  0.000000  1
  Au  Au8  1  0.000000  0.000000  0.500000  1
