# generated using pymatgen
data_Li2Nd3MgAg2Ir
_symmetry_space_group_name_H-M   'P 1'
_cell_length_a   7.75785906
_cell_length_b   7.76448717
_cell_length_c   4.03707600
_cell_angle_alpha   90.00000000
_cell_angle_beta   90.00000000
_cell_angle_gamma   119.62222497
_symmetry_Int_Tables_number   1
_chemical_formula_structural   Li2Nd3MgAg2Ir
_chemical_formula_sum   'Li2 Nd3 Mg1 Ag2 Ir1'
_cell_volume   211.39411740
_cell_formula_units_Z   1
loop_
 _symmetry_equiv_pos_site_id
 _symmetry_equiv_pos_as_xyz
  1  'x, y, z'
loop_
 _atom_site_type_symbol
 _atom_site_label
 _atom_site_symmetry_multiplicity
 _atom_site_fract_x
 _atom_site_fract_y
 _atom_site_fract_z
 _atom_site_occupancy
  Li  Li0  1  0.240688  0.994900  0.500000  1
  Li  Li1  1  0.999973  0.244284  0.500000  1
  Nd  Nd2  1  0.569712  0.976930  0.000000  1
  Nd  Nd3  1  0.027690  0.597875  0.000000  1
  Nd  Nd4  1  0.397013  0.423258  0.000000  1
  Mg  Mg5  1  0.752664  0.755450  0.500000  1
  Ag  Ag6  1  0.667633  0.334830  0.500000  1
  Ag  Ag7  1  0.004470  0.004114  0.000000  1
  Ir  Ir8  1  0.340158  0.668358  0.500000  1
