# generated using pymatgen
data_TmLu5Co17TcP12
_symmetry_space_group_name_H-M   'P 1'
_cell_length_a   3.66348600
_cell_length_b   10.45861700
_cell_length_c   12.11256100
_cell_angle_alpha   90.00000000
_cell_angle_beta   90.00000000
_cell_angle_gamma   90.00000000
_symmetry_Int_Tables_number   1
_chemical_formula_structural   TmLu5Co17TcP12
_chemical_formula_sum   'Tm1 Lu5 Co17 Tc1 P12'
_cell_volume   464.09273788
_cell_formula_units_Z   1
loop_
 _symmetry_equiv_pos_site_id
 _symmetry_equiv_pos_as_xyz
  1  'x, y, z'
loop_
 _atom_site_type_symbol
 _atom_site_label
 _atom_site_symmetry_multiplicity
 _atom_site_fract_x
 _atom_site_fract_y
 _atom_site_fract_z
 _atom_site_occupancy
  Tm  Tm0  1  0.500000  0.000000  0.476850  1
  Lu  Lu1  1  0.000000  0.500000  0.525136  1
  Lu  Lu2  1  0.500000  0.818087  0.206861  1
  Lu  Lu3  1  0.500000  0.181913  0.206861  1
  Lu  Lu4  1  0.000000  0.682033  0.794827  1
  Lu  Lu5  1  0.000000  0.317967  0.794827  1
  Co  Co6  1  0.000000  0.000000  0.839192  1
  Co  Co7  1  0.500000  0.500000  0.702502  1
  Co  Co8  1  0.000000  0.000000  0.296348  1
  Co  Co9  1  0.000000  0.500000  0.987209  1
  Co  Co10  1  0.500000  0.000000  0.014844  1
  Co  Co11  1  0.500000  0.331831  0.990278  1
  Co  Co12  1  0.500000  0.668169  0.990278  1
  Co  Co13  1  0.000000  0.166539  0.006044  1
  Co  Co14  1  0.000000  0.833461  0.006044  1
  Co  Co15  1  0.500000  0.297178  0.431342  1
  Co  Co16  1  0.500000  0.702822  0.431342  1
  Co  Co17  1  0.000000  0.203194  0.568864  1
  Co  Co18  1  0.000000  0.796806  0.568864  1
  Co  Co19  1  0.500000  0.877808  0.708559  1
  Co  Co20  1  0.500000  0.122192  0.708559  1
  Co  Co21  1  0.000000  0.622005  0.292593  1
  Co  Co22  1  0.000000  0.377995  0.292593  1
  Tc  Tc23  1  0.500000  0.500000  0.157672  1
  P  P24  1  0.500000  0.500000  0.879999  1
  P  P25  1  0.000000  0.000000  0.118507  1
  P  P26  1  0.500000  0.500000  0.351551  1
  P  P27  1  0.000000  0.000000  0.654048  1
  P  P28  1  0.500000  0.312901  0.617368  1
  P  P29  1  0.500000  0.687099  0.617368  1
  P  P30  1  0.000000  0.187171  0.383257  1
  P  P31  1  0.000000  0.812829  0.383257  1
  P  P32  1  0.500000  0.848750  0.890633  1
  P  P33  1  0.500000  0.151250  0.890633  1
  P  P34  1  0.000000  0.656782  0.107446  1
  P  P35  1  0.000000  0.343218  0.107446  1
