# generated using pymatgen
data_Yb11Pr9Ge16
_symmetry_space_group_name_H-M   'P 1'
_cell_length_a   7.57102873
_cell_length_b   8.04517434
_cell_length_c   15.28595173
_cell_angle_alpha   89.98696490
_cell_angle_beta   89.86514243
_cell_angle_gamma   90.05176395
_symmetry_Int_Tables_number   1
_chemical_formula_structural   Yb11Pr9Ge16
_chemical_formula_sum   'Yb11 Pr9 Ge16'
_cell_volume   931.06809840
_cell_formula_units_Z   1
loop_
 _symmetry_equiv_pos_site_id
 _symmetry_equiv_pos_as_xyz
  1  'x, y, z'
loop_
 _atom_site_type_symbol
 _atom_site_label
 _atom_site_symmetry_multiplicity
 _atom_site_fract_x
 _atom_site_fract_y
 _atom_site_fract_z
 _atom_site_occupancy
  Yb  Yb0  1  0.324130  0.823187  0.878846  1
  Yb  Yb1  1  0.824760  0.676134  0.620843  1
  Yb  Yb2  1  0.675308  0.176430  0.378205  1
  Yb  Yb3  1  0.176808  0.322848  0.122969  1
  Yb  Yb4  1  0.675309  0.176102  0.122645  1
  Yb  Yb5  1  0.175142  0.323471  0.378039  1
  Yb  Yb6  1  0.323829  0.823380  0.621333  1
  Yb  Yb7  1  0.155022  0.499303  0.748245  1
  Yb  Yb8  1  0.650810  0.001053  0.746464  1
  Yb  Yb9  1  0.846925  0.495066  0.251093  1
  Yb  Yb10  1  0.347615  0.004956  0.251108  1
  Pr  Pr11  1  0.825698  0.680767  0.876782  1
  Pr  Pr12  1  0.478416  0.312802  0.902031  1
  Pr  Pr13  1  0.981285  0.185162  0.596342  1
  Pr  Pr14  1  0.519740  0.686320  0.401630  1
  Pr  Pr15  1  0.022762  0.813169  0.101721  1
  Pr  Pr16  1  0.520342  0.686748  0.100536  1
  Pr  Pr17  1  0.019455  0.814100  0.401608  1
  Pr  Pr18  1  0.479541  0.315122  0.595959  1
  Pr  Pr19  1  0.980015  0.184980  0.901667  1
  Ge  Ge20  1  0.345304  0.032835  0.039792  1
  Ge  Ge21  1  0.845748  0.467314  0.460529  1
  Ge  Ge22  1  0.653628  0.967281  0.538962  1
  Ge  Ge23  1  0.155321  0.530483  0.961701  1
  Ge  Ge24  1  0.651299  0.968531  0.961440  1
  Ge  Ge25  1  0.153236  0.532133  0.538854  1
  Ge  Ge26  1  0.345327  0.032613  0.460882  1
  Ge  Ge27  1  0.846974  0.466475  0.039717  1
  Ge  Ge28  1  0.530586  0.598193  0.749350  1
  Ge  Ge29  1  0.032028  0.902237  0.750174  1
  Ge  Ge30  1  0.468599  0.401059  0.250458  1
  Ge  Ge31  1  0.968403  0.099125  0.250105  1
  Ge  Ge32  1  0.269942  0.130778  0.749607  1
  Ge  Ge33  1  0.770041  0.370310  0.749845  1
  Ge  Ge34  1  0.730288  0.869623  0.250165  1
  Ge  Ge35  1  0.230364  0.629907  0.250351  1
