# generated using pymatgen
data_CaPrB2(RhN)2
_symmetry_space_group_name_H-M   'P 1'
_cell_length_a   3.80278800
_cell_length_b   3.80278800
_cell_length_c   7.55438200
_cell_angle_alpha   90.00000000
_cell_angle_beta   90.00000000
_cell_angle_gamma   90.00000000
_symmetry_Int_Tables_number   1
_chemical_formula_structural   CaPrB2(RhN)2
_chemical_formula_sum   'Ca1 Pr1 B2 Rh2 N2'
_cell_volume   109.24540309
_cell_formula_units_Z   1
loop_
 _symmetry_equiv_pos_site_id
 _symmetry_equiv_pos_as_xyz
  1  'x, y, z'
loop_
 _atom_site_type_symbol
 _atom_site_label
 _atom_site_symmetry_multiplicity
 _atom_site_fract_x
 _atom_site_fract_y
 _atom_site_fract_z
 _atom_site_occupancy
  Ca  Ca0  1  0.500001  0.000000  0.164798  1
  Pr  Pr1  1  0.000000  0.500001  0.833988  1
  B  B2  1  0.000000  0.500001  0.344857  1
  B  B3  1  0.500001  0.000000  0.653923  1
  Rh  Rh4  1  0.000000  0.000000  0.499416  1
  Rh  Rh5  1  0.500001  0.500001  0.499416  1
  N  N6  1  0.000000  0.500001  0.157417  1
  N  N7  1  0.500001  0.000000  0.846185  1
