# generated using pymatgen
data_CeScPa2Sb5
_symmetry_space_group_name_H-M   'P 1'
_cell_length_a   9.34470293
_cell_length_b   9.33187628
_cell_length_c   6.27696100
_cell_angle_alpha   90.00000000
_cell_angle_beta   90.00000000
_cell_angle_gamma   119.95460852
_symmetry_Int_Tables_number   1
_chemical_formula_structural   CeScPa2Sb5
_chemical_formula_sum   'Ce2 Sc2 Pa4 Sb10'
_cell_volume   474.25617713
_cell_formula_units_Z   2
loop_
 _symmetry_equiv_pos_site_id
 _symmetry_equiv_pos_as_xyz
  1  'x, y, z'
loop_
 _atom_site_type_symbol
 _atom_site_label
 _atom_site_symmetry_multiplicity
 _atom_site_fract_x
 _atom_site_fract_y
 _atom_site_fract_z
 _atom_site_occupancy
  Ce  Ce0  1  0.385189  0.001277  0.750000  1
  Ce  Ce1  1  0.385189  0.383912  0.250000  1
  Sc  Sc2  1  0.000727  0.000363  0.000000  1
  Sc  Sc3  1  0.000727  0.000363  0.500000  1
  Pa  Pa4  1  0.001541  0.612276  0.250000  1
  Pa  Pa5  1  0.001541  0.389265  0.750000  1
  Pa  Pa6  1  0.612029  0.612641  0.750000  1
  Pa  Pa7  1  0.612029  0.999388  0.250000  1
  Sb  Sb8  1  0.672250  0.336125  0.500000  1
  Sb  Sb9  1  0.334137  0.667069  0.000000  1
  Sb  Sb10  1  0.733141  0.000354  0.750000  1
  Sb  Sb11  1  0.733141  0.732788  0.250000  1
  Sb  Sb12  1  0.334137  0.667069  0.500000  1
  Sb  Sb13  1  0.672250  0.336125  0.000000  1
  Sb  Sb14  1  0.264951  0.995547  0.250000  1
  Sb  Sb15  1  0.264951  0.269404  0.750000  1
  Sb  Sb16  1  0.996033  0.729513  0.750000  1
  Sb  Sb17  1  0.996033  0.266520  0.250000  1
