# generated using pymatgen
data_Sr6BiRuO12
_symmetry_space_group_name_H-M   'P 1'
_cell_length_a   6.99842042
_cell_length_b   6.99842180
_cell_length_c   6.99842093
_cell_angle_alpha   92.12872351
_cell_angle_beta   92.12871601
_cell_angle_gamma   92.12871143
_symmetry_Int_Tables_number   1
_chemical_formula_structural   Sr6BiRuO12
_chemical_formula_sum   'Sr6 Bi1 Ru1 O12'
_cell_volume   342.04022195
_cell_formula_units_Z   1
loop_
 _symmetry_equiv_pos_site_id
 _symmetry_equiv_pos_as_xyz
  1  'x, y, z'
loop_
 _atom_site_type_symbol
 _atom_site_label
 _atom_site_symmetry_multiplicity
 _atom_site_fract_x
 _atom_site_fract_y
 _atom_site_fract_z
 _atom_site_occupancy
  Sr  Sr0  1  0.066824  0.255680  0.564848  1
  Sr  Sr1  1  0.435152  0.933176  0.744320  1
  Sr  Sr2  1  0.744320  0.435152  0.933176  1
  Sr  Sr3  1  0.255680  0.564848  0.066824  1
  Sr  Sr4  1  0.564848  0.066824  0.255680  1
  Sr  Sr5  1  0.933176  0.744320  0.435152  1
  Bi  Bi6  1  0.000000  0.000000  0.000000  1
  Ru  Ru7  1  0.500000  0.500000  0.500000  1
  O  O8  1  0.067985  0.292689  0.928885  1
  O  O9  1  0.071115  0.932015  0.707311  1
  O  O10  1  0.453988  0.571257  0.763219  1
  O  O11  1  0.707311  0.071115  0.932015  1
  O  O12  1  0.236781  0.546012  0.428743  1
  O  O13  1  0.428743  0.236781  0.546012  1
  O  O14  1  0.571257  0.763219  0.453988  1
  O  O15  1  0.763219  0.453988  0.571257  1
  O  O16  1  0.292689  0.928885  0.067985  1
  O  O17  1  0.546012  0.428743  0.236781  1
  O  O18  1  0.928885  0.067985  0.292689  1
  O  O19  1  0.932015  0.707311  0.071115  1
