# generated using pymatgen
data_Er2Tm3IrPt2
_symmetry_space_group_name_H-M   'P 1'
_cell_length_a   10.93227700
_cell_length_b   10.93227700
_cell_length_c   6.30530200
_cell_angle_alpha   90.00000000
_cell_angle_beta   90.00000000
_cell_angle_gamma   90.00000000
_symmetry_Int_Tables_number   1
_chemical_formula_structural   Er2Tm3IrPt2
_chemical_formula_sum   'Er8 Tm12 Ir4 Pt8'
_cell_volume   753.57615339
_cell_formula_units_Z   4
loop_
 _symmetry_equiv_pos_site_id
 _symmetry_equiv_pos_as_xyz
  1  'x, y, z'
loop_
 _atom_site_type_symbol
 _atom_site_label
 _atom_site_symmetry_multiplicity
 _atom_site_fract_x
 _atom_site_fract_y
 _atom_site_fract_z
 _atom_site_occupancy
  Er  Er0  1  0.294745  0.087227  0.374085  1
  Er  Er1  1  0.294745  0.912773  0.874085  1
  Er  Er2  1  0.705255  0.087227  0.874085  1
  Er  Er3  1  0.705255  0.912773  0.374085  1
  Er  Er4  1  0.587227  0.794745  0.874085  1
  Er  Er5  1  0.587227  0.205255  0.374085  1
  Er  Er6  1  0.412773  0.794745  0.374085  1
  Er  Er7  1  0.412773  0.205255  0.874085  1
  Tm  Tm8  1  0.204348  0.413272  0.625430  1
  Tm  Tm9  1  0.204348  0.586728  0.125430  1
  Tm  Tm10  1  0.795652  0.413272  0.125430  1
  Tm  Tm11  1  0.795652  0.586728  0.625430  1
  Tm  Tm12  1  0.913272  0.704348  0.125430  1
  Tm  Tm13  1  0.913272  0.295652  0.625430  1
  Tm  Tm14  1  0.086728  0.704348  0.625430  1
  Tm  Tm15  1  0.086728  0.295652  0.125430  1
  Tm  Tm16  1  0.000000  0.000000  0.500195  1
  Tm  Tm17  1  0.000000  0.000000  0.000195  1
  Tm  Tm18  1  0.500000  0.500000  0.000195  1
  Tm  Tm19  1  0.500000  0.500000  0.500195  1
  Ir  Ir20  1  0.500000  0.000000  0.120313  1
  Ir  Ir21  1  0.500000  0.000000  0.620313  1
  Ir  Ir22  1  0.000000  0.500000  0.879585  1
  Ir  Ir23  1  0.000000  0.500000  0.379585  1
  Pt  Pt24  1  0.847153  0.154100  0.250413  1
  Pt  Pt25  1  0.847153  0.845900  0.750413  1
  Pt  Pt26  1  0.152847  0.154100  0.750413  1
  Pt  Pt27  1  0.152847  0.845900  0.250413  1
  Pt  Pt28  1  0.654100  0.347153  0.750413  1
  Pt  Pt29  1  0.654100  0.652847  0.250413  1
  Pt  Pt30  1  0.345900  0.347153  0.250413  1
  Pt  Pt31  1  0.345900  0.652847  0.750413  1
