# generated using pymatgen
data_Y13Ho4(ThIr4)3
_symmetry_space_group_name_H-M   'P 1'
_cell_length_a   11.01445224
_cell_length_b   10.97910782
_cell_length_c   6.35320400
_cell_angle_alpha   90.03787674
_cell_angle_beta   89.78681636
_cell_angle_gamma   89.86525610
_symmetry_Int_Tables_number   1
_chemical_formula_structural   Y13Ho4(ThIr4)3
_chemical_formula_sum   'Y13 Ho4 Th3 Ir12'
_cell_volume   768.27809438
_cell_formula_units_Z   1
loop_
 _symmetry_equiv_pos_site_id
 _symmetry_equiv_pos_as_xyz
  1  'x, y, z'
loop_
 _atom_site_type_symbol
 _atom_site_label
 _atom_site_symmetry_multiplicity
 _atom_site_fract_x
 _atom_site_fract_y
 _atom_site_fract_z
 _atom_site_occupancy
  Y  Y0  1  0.707534  0.908770  0.376817  1
  Y  Y1  1  0.591180  0.785234  0.879476  1
  Y  Y2  1  0.590247  0.212246  0.379003  1
  Y  Y3  1  0.416115  0.785475  0.378821  1
  Y  Y4  1  0.411097  0.216087  0.878831  1
  Y  Y5  1  0.208685  0.414077  0.621452  1
  Y  Y6  1  0.208205  0.587455  0.121287  1
  Y  Y7  1  0.791070  0.413433  0.120724  1
  Y  Y8  1  0.791817  0.587209  0.620650  1
  Y  Y9  1  0.911967  0.708653  0.120406  1
  Y  Y10  1  0.914116  0.291546  0.618043  1
  Y  Y11  1  0.085194  0.707722  0.618872  1
  Y  Y12  1  0.085814  0.292744  0.116404  1
  Ho  Ho13  1  0.995854  0.998707  0.500270  1
  Ho  Ho14  1  0.999919  0.999981  0.001355  1
  Ho  Ho15  1  0.499714  0.499586  0.005120  1
  Ho  Ho16  1  0.501614  0.498940  0.505490  1
  Th  Th17  1  0.292606  0.092897  0.379680  1
  Th  Th18  1  0.291486  0.907097  0.879553  1
  Th  Th19  1  0.707202  0.089695  0.881729  1
  Ir  Ir20  1  0.847845  0.152979  0.242174  1
  Ir  Ir21  1  0.845460  0.850792  0.753132  1
  Ir  Ir22  1  0.154253  0.148953  0.744368  1
  Ir  Ir23  1  0.154773  0.850653  0.247103  1
  Ir  Ir24  1  0.653484  0.346406  0.754298  1
  Ir  Ir25  1  0.653028  0.649426  0.252981  1
  Ir  Ir26  1  0.346585  0.347819  0.256522  1
  Ir  Ir27  1  0.347685  0.653802  0.754985  1
  Ir  Ir28  1  0.497348  0.000922  0.118588  1
  Ir  Ir29  1  0.498942  0.999689  0.624971  1
  Ir  Ir30  1  0.999584  0.500375  0.873355  1
  Ir  Ir31  1  0.999574  0.500628  0.373539  1
