# generated using pymatgen
data_Hf2FeNi2P3
_symmetry_space_group_name_H-M   'P 1'
_cell_length_a   3.62027200
_cell_length_b   10.04058200
_cell_length_c   12.06164700
_cell_angle_alpha   90.00000000
_cell_angle_beta   90.00000000
_cell_angle_gamma   90.00000000
_symmetry_Int_Tables_number   1
_chemical_formula_structural   Hf2FeNi2P3
_chemical_formula_sum   'Hf8 Fe4 Ni8 P12'
_cell_volume   438.43650067
_cell_formula_units_Z   4
loop_
 _symmetry_equiv_pos_site_id
 _symmetry_equiv_pos_as_xyz
  1  'x, y, z'
loop_
 _atom_site_type_symbol
 _atom_site_label
 _atom_site_symmetry_multiplicity
 _atom_site_fract_x
 _atom_site_fract_y
 _atom_site_fract_z
 _atom_site_occupancy
  Hf  Hf0  1  0.250000  0.339962  0.994407  1
  Hf  Hf1  1  0.250000  0.160038  0.494407  1
  Hf  Hf2  1  0.750000  0.660038  0.005593  1
  Hf  Hf3  1  0.750000  0.839962  0.505593  1
  Hf  Hf4  1  0.250000  0.428563  0.702547  1
  Hf  Hf5  1  0.250000  0.071437  0.202547  1
  Hf  Hf6  1  0.750000  0.571437  0.297453  1
  Hf  Hf7  1  0.750000  0.928563  0.797453  1
  Fe  Fe8  1  0.250000  0.904683  0.986025  1
  Fe  Fe9  1  0.250000  0.595317  0.486025  1
  Fe  Fe10  1  0.750000  0.095317  0.013975  1
  Fe  Fe11  1  0.750000  0.404683  0.513975  1
  Ni  Ni12  1  0.250000  0.136854  0.720269  1
  Ni  Ni13  1  0.250000  0.363146  0.220269  1
  Ni  Ni14  1  0.750000  0.863146  0.279731  1
  Ni  Ni15  1  0.750000  0.636854  0.779731  1
  Ni  Ni16  1  0.250000  0.765259  0.167558  1
  Ni  Ni17  1  0.250000  0.734741  0.667558  1
  Ni  Ni18  1  0.750000  0.234741  0.832442  1
  Ni  Ni19  1  0.750000  0.265259  0.332442  1
  P  P20  1  0.250000  0.101354  0.904138  1
  P  P21  1  0.250000  0.398646  0.404138  1
  P  P22  1  0.750000  0.898646  0.095862  1
  P  P23  1  0.750000  0.601354  0.595862  1
  P  P24  1  0.250000  0.740603  0.858073  1
  P  P25  1  0.250000  0.759397  0.358073  1
  P  P26  1  0.750000  0.259397  0.141927  1
  P  P27  1  0.750000  0.240603  0.641927  1
  P  P28  1  0.250000  0.549755  0.129140  1
  P  P29  1  0.250000  0.950245  0.629140  1
  P  P30  1  0.750000  0.450245  0.870860  1
  P  P31  1  0.750000  0.049755  0.370860  1
