# generated using pymatgen
data_Y3Tm9ZnCo4Bi
_symmetry_space_group_name_H-M   'P 1'
_cell_length_a   8.32485645
_cell_length_b   8.32485770
_cell_length_c   8.30198974
_cell_angle_alpha   109.80852559
_cell_angle_beta   111.17402200
_cell_angle_gamma   107.56834950
_symmetry_Int_Tables_number   1
_chemical_formula_structural   Y3Tm9ZnCo4Bi
_chemical_formula_sum   'Y3 Tm9 Zn1 Co4 Bi1'
_cell_volume   441.82320759
_cell_formula_units_Z   1
loop_
 _symmetry_equiv_pos_site_id
 _symmetry_equiv_pos_as_xyz
  1  'x, y, z'
loop_
 _atom_site_type_symbol
 _atom_site_label
 _atom_site_symmetry_multiplicity
 _atom_site_fract_x
 _atom_site_fract_y
 _atom_site_fract_z
 _atom_site_occupancy
  Y  Y0  1  0.284842  0.184259  0.469101  1
  Y  Y1  1  0.715688  0.816585  0.532272  1
  Y  Y2  1  0.284660  0.816044  0.100704  1
  Tm  Tm3  1  0.714508  0.182386  0.896895  1
  Tm  Tm4  1  0.623510  0.313856  0.308175  1
  Tm  Tm5  1  0.377673  0.686981  0.691285  1
  Tm  Tm6  1  0.004304  0.313612  0.691285  1
  Tm  Tm7  1  0.994318  0.684664  0.308175  1
  Tm  Tm8  1  0.217394  0.425025  0.205934  1
  Tm  Tm9  1  0.781051  0.572818  0.793132  1
  Tm  Tm10  1  0.220313  0.012081  0.793132  1
  Tm  Tm11  1  0.780909  0.988540  0.205934  1
  Zn  Zn12  1  0.998929  0.000099  0.999028  1
  Co  Co13  1  0.999431  0.376987  0.376418  1
  Co  Co14  1  0.999975  0.622658  0.622634  1
  Co  Co15  1  0.388014  0.888304  0.502864  1
  Co  Co16  1  0.614560  0.114850  0.502864  1
  Bi  Bi17  1  0.499920  0.500250  0.000170  1
