# generated using pymatgen
data_Sr2Zn2CuP3
_symmetry_space_group_name_H-M   'P 1'
_cell_length_a   4.12403700
_cell_length_b   4.12403828
_cell_length_c   22.75440800
_cell_angle_alpha   90.00000000
_cell_angle_beta   90.00000000
_cell_angle_gamma   119.99999774
_symmetry_Int_Tables_number   1
_chemical_formula_structural   Sr2Zn2CuP3
_chemical_formula_sum   'Sr4 Zn4 Cu2 P6'
_cell_volume   335.15169771
_cell_formula_units_Z   2
loop_
 _symmetry_equiv_pos_site_id
 _symmetry_equiv_pos_as_xyz
  1  'x, y, z'
loop_
 _atom_site_type_symbol
 _atom_site_label
 _atom_site_symmetry_multiplicity
 _atom_site_fract_x
 _atom_site_fract_y
 _atom_site_fract_z
 _atom_site_occupancy
  Sr  Sr0  1  0.000000  0.000000  0.656692  1
  Sr  Sr1  1  0.000000  0.000000  0.343308  1
  Sr  Sr2  1  0.000000  0.000000  0.156692  1
  Sr  Sr3  1  0.000000  0.000000  0.843308  1
  Zn  Zn4  1  0.333333  0.666667  0.958853  1
  Zn  Zn5  1  0.666667  0.333333  0.458853  1
  Zn  Zn6  1  0.666667  0.333333  0.041147  1
  Zn  Zn7  1  0.333333  0.666667  0.541147  1
  Cu  Cu8  1  0.666667  0.333333  0.750000  1
  Cu  Cu9  1  0.333333  0.666667  0.250000  1
  P  P10  1  0.666667  0.333333  0.570646  1
  P  P11  1  0.333333  0.666667  0.429354  1
  P  P12  1  0.333333  0.666667  0.750000  1
  P  P13  1  0.666667  0.333333  0.929354  1
  P  P14  1  0.333333  0.666667  0.070646  1
  P  P15  1  0.666667  0.333333  0.250000  1
