# generated using pymatgen
data_Sr2Zr2Ni2SbAs3
_symmetry_space_group_name_H-M   'P 1'
_cell_length_a   4.21417300
_cell_length_b   4.21417373
_cell_length_c   14.70015000
_cell_angle_alpha   90.00000000
_cell_angle_beta   90.00000000
_cell_angle_gamma   119.99998646
_symmetry_Int_Tables_number   1
_chemical_formula_structural   Sr2Zr2Ni2SbAs3
_chemical_formula_sum   'Sr2 Zr2 Ni2 Sb1 As3'
_cell_volume   226.08786490
_cell_formula_units_Z   1
loop_
 _symmetry_equiv_pos_site_id
 _symmetry_equiv_pos_as_xyz
  1  'x, y, z'
loop_
 _atom_site_type_symbol
 _atom_site_label
 _atom_site_symmetry_multiplicity
 _atom_site_fract_x
 _atom_site_fract_y
 _atom_site_fract_z
 _atom_site_occupancy
  Sr  Sr0  1  0.666667  0.333333  0.401694  1
  Sr  Sr1  1  0.333333  0.666667  0.888568  1
  Zr  Zr2  1  0.333333  0.666667  0.629683  1
  Zr  Zr3  1  0.666667  0.333333  0.116529  1
  Ni  Ni4  1  0.000000  0.000000  0.705923  1
  Ni  Ni5  1  0.000000  0.000000  0.192071  1
  Sb  Sb6  1  0.333333  0.666667  0.251079  1
  As  As7  1  0.000000  0.000000  0.025890  1
  As  As8  1  0.000000  0.000000  0.537644  1
  As  As9  1  0.666667  0.333333  0.750918  1
