# generated using pymatgen
data_LaYbPrPt2
_symmetry_space_group_name_H-M   'P 1'
_cell_length_a   7.72704786
_cell_length_b   7.72704720
_cell_length_c   7.72704792
_cell_angle_alpha   70.97688547
_cell_angle_beta   70.97689018
_cell_angle_gamma   70.97689207
_symmetry_Int_Tables_number   1
_chemical_formula_structural   LaYbPrPt2
_chemical_formula_sum   'La3 Yb3 Pr3 Pt6'
_cell_volume   399.69153302
_cell_formula_units_Z   3
loop_
 _symmetry_equiv_pos_site_id
 _symmetry_equiv_pos_as_xyz
  1  'x, y, z'
loop_
 _atom_site_type_symbol
 _atom_site_label
 _atom_site_symmetry_multiplicity
 _atom_site_fract_x
 _atom_site_fract_y
 _atom_site_fract_z
 _atom_site_occupancy
  La  La0  1  0.672507  0.395415  0.154885  1
  La  La1  1  0.154885  0.672507  0.395415  1
  La  La2  1  0.395415  0.154885  0.672507  1
  Yb  Yb3  1  0.999697  0.999697  0.999697  1
  Yb  Yb4  1  0.804954  0.804954  0.804954  1
  Yb  Yb5  1  0.195482  0.195482  0.195482  1
  Pr  Pr6  1  0.330406  0.603614  0.844061  1
  Pr  Pr7  1  0.844061  0.330406  0.603614  1
  Pr  Pr8  1  0.603614  0.844061  0.330406  1
  Pt  Pt9  1  0.166894  0.957201  0.585103  1
  Pt  Pt10  1  0.585103  0.166894  0.957201  1
  Pt  Pt11  1  0.957201  0.585103  0.166894  1
  Pt  Pt12  1  0.833519  0.043050  0.413212  1
  Pt  Pt13  1  0.413212  0.833519  0.043050  1
  Pt  Pt14  1  0.043050  0.413212  0.833519  1
