# generated using pymatgen
data_Dy7Ho5Tc3Ir
_symmetry_space_group_name_H-M   'P 1'
_cell_length_a   6.28448112
_cell_length_b   7.39631000
_cell_length_c   9.13118614
_cell_angle_alpha   90.00024920
_cell_angle_beta   90.01973134
_cell_angle_gamma   90.00640598
_symmetry_Int_Tables_number   1
_chemical_formula_structural   Dy7Ho5Tc3Ir
_chemical_formula_sum   'Dy7 Ho5 Tc3 Ir1'
_cell_volume   424.43549716
_cell_formula_units_Z   1
loop_
 _symmetry_equiv_pos_site_id
 _symmetry_equiv_pos_as_xyz
  1  'x, y, z'
loop_
 _atom_site_type_symbol
 _atom_site_label
 _atom_site_symmetry_multiplicity
 _atom_site_fract_x
 _atom_site_fract_y
 _atom_site_fract_z
 _atom_site_occupancy
  Dy  Dy0  1  0.333085  0.675960  0.064302  1
  Dy  Dy1  1  0.163306  0.175755  0.436708  1
  Dy  Dy2  1  0.665116  0.322886  0.561641  1
  Dy  Dy3  1  0.873940  0.540862  0.249963  1
  Dy  Dy4  1  0.625599  0.038539  0.249894  1
  Dy  Dy5  1  0.131230  0.458402  0.750061  1
  Dy  Dy6  1  0.370806  0.959979  0.750082  1
  Ho  Ho7  1  0.835352  0.825221  0.937858  1
  Ho  Ho8  1  0.665169  0.322897  0.938420  1
  Ho  Ho9  1  0.835324  0.825062  0.562125  1
  Ho  Ho10  1  0.333110  0.676002  0.435696  1
  Ho  Ho11  1  0.163258  0.175819  0.063118  1
  Tc  Tc12  1  0.039840  0.883562  0.250085  1
  Tc  Tc13  1  0.461999  0.386235  0.249805  1
  Tc  Tc14  1  0.959892  0.116369  0.750285  1
  Ir  Ir15  1  0.542973  0.616451  0.749957  1
