# generated using pymatgen
data_Ce3Ho9Tc3Rh
_symmetry_space_group_name_H-M   'P 1'
_cell_length_a   6.39717900
_cell_length_b   7.14451817
_cell_length_c   9.43111800
_cell_angle_alpha   90.00000000
_cell_angle_beta   90.00000000
_cell_angle_gamma   90.68673001
_symmetry_Int_Tables_number   1
_chemical_formula_structural   Ce3Ho9Tc3Rh
_chemical_formula_sum   'Ce3 Ho9 Tc3 Rh1'
_cell_volume   431.01603898
_cell_formula_units_Z   1
loop_
 _symmetry_equiv_pos_site_id
 _symmetry_equiv_pos_as_xyz
  1  'x, y, z'
loop_
 _atom_site_type_symbol
 _atom_site_label
 _atom_site_symmetry_multiplicity
 _atom_site_fract_x
 _atom_site_fract_y
 _atom_site_fract_z
 _atom_site_occupancy
  Ce  Ce0  1  0.862979  0.558346  0.250000  1
  Ce  Ce1  1  0.629741  0.054547  0.250000  1
  Ce  Ce2  1  0.131823  0.437848  0.750000  1
  Ho  Ho3  1  0.327749  0.677662  0.061907  1
  Ho  Ho4  1  0.165616  0.177082  0.436821  1
  Ho  Ho5  1  0.666251  0.325134  0.561406  1
  Ho  Ho6  1  0.832877  0.821559  0.934841  1
  Ho  Ho7  1  0.666251  0.325134  0.938594  1
  Ho  Ho8  1  0.832877  0.821559  0.565159  1
  Ho  Ho9  1  0.327749  0.677662  0.438093  1
  Ho  Ho10  1  0.165616  0.177082  0.063179  1
  Ho  Ho11  1  0.375695  0.963719  0.750000  1
  Tc  Tc12  1  0.007305  0.863580  0.250000  1
  Tc  Tc13  1  0.493677  0.361786  0.250000  1
  Tc  Tc14  1  0.975636  0.142319  0.750000  1
  Rh  Rh15  1  0.538163  0.614982  0.750000  1
