# generated using pymatgen
data_TaNb8VSi6
_symmetry_space_group_name_H-M   'P 1'
_cell_length_a   7.54733533
_cell_length_b   7.54733482
_cell_length_c   7.54733532
_cell_angle_alpha   128.63736341
_cell_angle_beta   128.63735901
_cell_angle_gamma   75.59478061
_symmetry_Int_Tables_number   1
_chemical_formula_structural   TaNb8VSi6
_chemical_formula_sum   'Ta1 Nb8 V1 Si6'
_cell_volume   255.19770383
_cell_formula_units_Z   1
loop_
 _symmetry_equiv_pos_site_id
 _symmetry_equiv_pos_as_xyz
  1  'x, y, z'
loop_
 _atom_site_type_symbol
 _atom_site_label
 _atom_site_symmetry_multiplicity
 _atom_site_fract_x
 _atom_site_fract_y
 _atom_site_fract_z
 _atom_site_occupancy
  Ta  Ta0  1  0.000000  0.000000  0.000000  1
  Nb  Nb1  1  0.018520  0.518083  0.834153  1
  Nb  Nb2  1  0.683928  0.184366  0.165847  1
  Nb  Nb3  1  0.518083  0.683928  0.499562  1
  Nb  Nb4  1  0.184366  0.018520  0.500438  1
  Nb  Nb5  1  0.981480  0.481917  0.165847  1
  Nb  Nb6  1  0.316072  0.815634  0.834153  1
  Nb  Nb7  1  0.481917  0.316072  0.500438  1
  Nb  Nb8  1  0.815634  0.981480  0.499562  1
  V  V9  1  0.500000  0.500000  0.000000  1
  Si  Si10  1  0.750580  0.750580  0.000000  1
  Si  Si11  1  0.249420  0.249420  0.000000  1
  Si  Si12  1  0.624875  0.136493  0.761366  1
  Si  Si13  1  0.375125  0.863507  0.238634  1
  Si  Si14  1  0.136493  0.375125  0.511619  1
  Si  Si15  1  0.863507  0.624875  0.488381  1
