# generated using pymatgen
data_Zr4Mn6AlOs
_symmetry_space_group_name_H-M   'P 1'
_cell_length_a   4.97981500
_cell_length_b   4.97981536
_cell_length_c   8.42598300
_cell_angle_alpha   90.00000000
_cell_angle_beta   90.00000000
_cell_angle_gamma   119.99999097
_symmetry_Int_Tables_number   1
_chemical_formula_structural   Zr4Mn6AlOs
_chemical_formula_sum   'Zr4 Mn6 Al1 Os1'
_cell_volume   180.95796315
_cell_formula_units_Z   1
loop_
 _symmetry_equiv_pos_site_id
 _symmetry_equiv_pos_as_xyz
  1  'x, y, z'
loop_
 _atom_site_type_symbol
 _atom_site_label
 _atom_site_symmetry_multiplicity
 _atom_site_fract_x
 _atom_site_fract_y
 _atom_site_fract_z
 _atom_site_occupancy
  Zr  Zr0  1  0.333333  0.666667  0.428515  1
  Zr  Zr1  1  0.666667  0.333333  0.937519  1
  Zr  Zr2  1  0.666667  0.333333  0.571485  1
  Zr  Zr3  1  0.333333  0.666667  0.062481  1
  Mn  Mn4  1  0.174107  0.348212  0.750339  1
  Mn  Mn5  1  0.825893  0.174107  0.249661  1
  Mn  Mn6  1  0.348212  0.174107  0.249661  1
  Mn  Mn7  1  0.651788  0.825893  0.750339  1
  Mn  Mn8  1  0.825893  0.651788  0.249661  1
  Mn  Mn9  1  0.174107  0.825893  0.750339  1
  Al  Al10  1  0.000000  0.000000  0.500000  1
  Os  Os11  1  0.000000  0.000000  0.000000  1
