# generated using pymatgen
data_HoTm9(IrRu)2
_symmetry_space_group_name_H-M   'P 1'
_cell_length_a   6.33470514
_cell_length_b   7.22102646
_cell_length_c   8.35126561
_cell_angle_alpha   96.78553544
_cell_angle_beta   112.28626596
_cell_angle_gamma   90.02445675
_symmetry_Int_Tables_number   1
_chemical_formula_structural   HoTm9(IrRu)2
_chemical_formula_sum   'Ho1 Tm9 Ir2 Ru2'
_cell_volume   350.57487206
_cell_formula_units_Z   1
loop_
 _symmetry_equiv_pos_site_id
 _symmetry_equiv_pos_as_xyz
  1  'x, y, z'
loop_
 _atom_site_type_symbol
 _atom_site_label
 _atom_site_symmetry_multiplicity
 _atom_site_fract_x
 _atom_site_fract_y
 _atom_site_fract_z
 _atom_site_occupancy
  Ho  Ho0  1  0.792120  0.081540  0.814846  1
  Tm  Tm1  1  0.977725  0.417933  0.185300  1
  Tm  Tm2  1  0.209618  0.915183  0.183740  1
  Tm  Tm3  1  0.025985  0.584690  0.816742  1
  Tm  Tm4  1  0.207674  0.182439  0.562988  1
  Tm  Tm5  1  0.644840  0.318244  0.436497  1
  Tm  Tm6  1  0.790164  0.814888  0.437674  1
  Tm  Tm7  1  0.351982  0.684561  0.561799  1
  Tm  Tm8  1  0.423347  0.250260  0.000005  1
  Tm  Tm9  1  0.576333  0.749799  0.000147  1
  Ir  Ir10  1  0.604315  0.424451  0.779025  1
  Ir  Ir11  1  0.825881  0.076514  0.221497  1
  Ru  Ru12  1  0.394186  0.575016  0.219101  1
  Ru  Ru13  1  0.175829  0.924482  0.780640  1
