# generated using pymatgen
data_Dy2ErAl12Ru3Pt
_symmetry_space_group_name_H-M   'P 1'
_cell_length_a   8.81157495
_cell_length_b   8.79632086
_cell_length_c   9.55633796
_cell_angle_alpha   90.05140730
_cell_angle_beta   90.08248738
_cell_angle_gamma   119.58685678
_symmetry_Int_Tables_number   1
_chemical_formula_structural   Dy2ErAl12Ru3Pt
_chemical_formula_sum   'Dy4 Er2 Al24 Ru6 Pt2'
_cell_volume   644.12260869
_cell_formula_units_Z   2
loop_
 _symmetry_equiv_pos_site_id
 _symmetry_equiv_pos_as_xyz
  1  'x, y, z'
loop_
 _atom_site_type_symbol
 _atom_site_label
 _atom_site_symmetry_multiplicity
 _atom_site_fract_x
 _atom_site_fract_y
 _atom_site_fract_z
 _atom_site_occupancy
  Dy  Dy0  1  0.191120  0.386618  0.252206  1
  Dy  Dy1  1  0.808880  0.613382  0.747794  1
  Dy  Dy2  1  0.615616  0.808553  0.251431  1
  Dy  Dy3  1  0.384384  0.191447  0.748569  1
  Er  Er4  1  0.191920  0.804181  0.251973  1
  Er  Er5  1  0.808080  0.195819  0.748027  1
  Al  Al6  1  0.327238  0.664336  0.025924  1
  Al  Al7  1  0.672762  0.335664  0.974076  1
  Al  Al8  1  0.666815  0.332904  0.522483  1
  Al  Al9  1  0.333185  0.667096  0.477517  1
  Al  Al10  1  0.163464  0.326989  0.576927  1
  Al  Al11  1  0.836536  0.673011  0.423073  1
  Al  Al12  1  0.674073  0.837471  0.576695  1
  Al  Al13  1  0.842280  0.675569  0.078678  1
  Al  Al14  1  0.325927  0.162529  0.423305  1
  Al  Al15  1  0.157720  0.324431  0.921322  1
  Al  Al16  1  0.163545  0.837187  0.576992  1
  Al  Al17  1  0.322752  0.161453  0.079466  1
  Al  Al18  1  0.836455  0.162813  0.423008  1
  Al  Al19  1  0.677248  0.838547  0.920534  1
  Al  Al20  1  0.841638  0.167186  0.078341  1
  Al  Al21  1  0.158362  0.832814  0.921659  1
  Al  Al22  1  0.561834  0.124776  0.252415  1
  Al  Al23  1  0.438166  0.875224  0.747585  1
  Al  Al24  1  0.877614  0.439607  0.248935  1
  Al  Al25  1  0.122386  0.560393  0.751065  1
  Al  Al26  1  0.562759  0.437364  0.252769  1
  Al  Al27  1  0.437241  0.562636  0.747231  1
  Al  Al28  1  0.998689  0.999284  0.250306  1
  Al  Al29  1  0.001311  0.000716  0.749694  1
  Ru  Ru30  1  0.000000  0.500000  0.000000  1
  Ru  Ru31  1  0.500000  0.000000  0.500000  1
  Ru  Ru32  1  0.000000  0.500000  0.500000  1
  Ru  Ru33  1  0.500000  0.500000  0.500000  1
  Ru  Ru34  1  0.000000  0.000000  0.000000  1
  Ru  Ru35  1  0.000000  0.000000  0.500000  1
  Pt  Pt36  1  0.500000  0.000000  0.000000  1
  Pt  Pt37  1  0.500000  0.500000  0.000000  1
