# generated using pymatgen
data_CsNd(AgBi)2
_symmetry_space_group_name_H-M   'P 1'
_cell_length_a   4.97201900
_cell_length_b   4.97201946
_cell_length_c   9.73559900
_cell_angle_alpha   90.00000000
_cell_angle_beta   90.00000000
_cell_angle_gamma   120.00000362
_symmetry_Int_Tables_number   1
_chemical_formula_structural   CsNd(AgBi)2
_chemical_formula_sum   'Cs1 Nd1 Ag2 Bi2'
_cell_volume   208.42935869
_cell_formula_units_Z   1
loop_
 _symmetry_equiv_pos_site_id
 _symmetry_equiv_pos_as_xyz
  1  'x, y, z'
loop_
 _atom_site_type_symbol
 _atom_site_label
 _atom_site_symmetry_multiplicity
 _atom_site_fract_x
 _atom_site_fract_y
 _atom_site_fract_z
 _atom_site_occupancy
  Cs  Cs0  1  0.000000  0.000000  0.500000  1
  Nd  Nd1  1  0.000000  0.000000  0.000000  1
  Ag  Ag2  1  0.666667  0.333333  0.156374  1
  Ag  Ag3  1  0.333333  0.666667  0.843626  1
  Bi  Bi4  1  0.666667  0.333333  0.797039  1
  Bi  Bi5  1  0.333333  0.666667  0.202961  1
