# generated using pymatgen
data_MgZr12Si3(Ir2N)4
_symmetry_space_group_name_H-M   'P 1'
_cell_length_a   8.56199717
_cell_length_b   8.54251674
_cell_length_c   8.54251600
_cell_angle_alpha   60.00000287
_cell_angle_beta   60.07523803
_cell_angle_gamma   60.07523661
_symmetry_Int_Tables_number   1
_chemical_formula_structural   MgZr12Si3(Ir2N)4
_chemical_formula_sum   'Mg1 Zr12 Si3 Ir8 N4'
_cell_volume   442.30788405
_cell_formula_units_Z   1
loop_
 _symmetry_equiv_pos_site_id
 _symmetry_equiv_pos_as_xyz
  1  'x, y, z'
loop_
 _atom_site_type_symbol
 _atom_site_label
 _atom_site_symmetry_multiplicity
 _atom_site_fract_x
 _atom_site_fract_y
 _atom_site_fract_z
 _atom_site_occupancy
  Mg  Mg0  1  0.125000  0.625000  0.625000  1
  Zr  Zr1  1  0.806465  0.807934  0.192801  1
  Zr  Zr2  1  0.192637  0.190607  0.808378  1
  Zr  Zr3  1  0.806465  0.192801  0.807934  1
  Zr  Zr4  1  0.192637  0.808378  0.190607  1
  Zr  Zr5  1  0.192637  0.808378  0.808378  1
  Zr  Zr6  1  0.806465  0.192801  0.192801  1
  Zr  Zr7  1  0.443535  0.442066  0.057199  1
  Zr  Zr8  1  0.057363  0.059393  0.441622  1
  Zr  Zr9  1  0.443535  0.057199  0.442066  1
  Zr  Zr10  1  0.057363  0.441622  0.059393  1
  Zr  Zr11  1  0.057363  0.441622  0.441622  1
  Zr  Zr12  1  0.443535  0.057199  0.057199  1
  Si  Si13  1  0.625000  0.125000  0.625000  1
  Si  Si14  1  0.625000  0.625000  0.125000  1
  Si  Si15  1  0.625000  0.625000  0.625000  1
  Ir  Ir16  1  0.751338  0.416221  0.416221  1
  Ir  Ir17  1  0.425269  0.752828  0.410952  1
  Ir  Ir18  1  0.425269  0.410952  0.752828  1
  Ir  Ir19  1  0.425269  0.410952  0.410952  1
  Ir  Ir20  1  0.498662  0.833779  0.833779  1
  Ir  Ir21  1  0.824731  0.497172  0.839048  1
  Ir  Ir22  1  0.824731  0.839048  0.497172  1
  Ir  Ir23  1  0.824731  0.839048  0.839048  1
  N  N24  1  0.625000  0.125000  0.125000  1
  N  N25  1  0.125000  0.625000  0.125000  1
  N  N26  1  0.125000  0.125000  0.625000  1
  N  N27  1  0.125000  0.125000  0.125000  1
