# generated using pymatgen
data_Tb3Al9Si3OsRu3
_symmetry_space_group_name_H-M   'P 1'
_cell_length_a   8.68616236
_cell_length_b   8.66327262
_cell_length_c   9.55133100
_cell_angle_alpha   90.00000000
_cell_angle_beta   90.00000000
_cell_angle_gamma   120.04043843
_symmetry_Int_Tables_number   1
_chemical_formula_structural   Tb3Al9Si3OsRu3
_chemical_formula_sum   'Tb6 Al18 Si6 Os2 Ru6'
_cell_volume   622.19617816
_cell_formula_units_Z   2
loop_
 _symmetry_equiv_pos_site_id
 _symmetry_equiv_pos_as_xyz
  1  'x, y, z'
loop_
 _atom_site_type_symbol
 _atom_site_label
 _atom_site_symmetry_multiplicity
 _atom_site_fract_x
 _atom_site_fract_y
 _atom_site_fract_z
 _atom_site_occupancy
  Tb  Tb0  1  0.194535  0.385814  0.250000  1
  Tb  Tb1  1  0.805465  0.614186  0.750000  1
  Tb  Tb2  1  0.611306  0.807104  0.250000  1
  Tb  Tb3  1  0.388694  0.192896  0.750000  1
  Tb  Tb4  1  0.197191  0.808933  0.250000  1
  Tb  Tb5  1  0.802809  0.191067  0.750000  1
  Al  Al6  1  0.163970  0.329035  0.579698  1
  Al  Al7  1  0.836030  0.670965  0.420302  1
  Al  Al8  1  0.670884  0.835419  0.577951  1
  Al  Al9  1  0.836030  0.670965  0.079698  1
  Al  Al10  1  0.329116  0.164581  0.422049  1
  Al  Al11  1  0.163970  0.329035  0.920302  1
  Al  Al12  1  0.163879  0.834718  0.578694  1
  Al  Al13  1  0.329116  0.164581  0.077951  1
  Al  Al14  1  0.836121  0.165282  0.421306  1
  Al  Al15  1  0.670884  0.835419  0.922049  1
  Al  Al16  1  0.836121  0.165282  0.078694  1
  Al  Al17  1  0.163879  0.834718  0.921306  1
  Al  Al18  1  0.874255  0.433992  0.250000  1
  Al  Al19  1  0.125745  0.566008  0.750000  1
  Al  Al20  1  0.561774  0.432424  0.250000  1
  Al  Al21  1  0.438226  0.567576  0.750000  1
  Al  Al22  1  0.999389  0.999202  0.250000  1
  Al  Al23  1  0.000611  0.000798  0.750000  1
  Si  Si24  1  0.331596  0.663914  0.037707  1
  Si  Si25  1  0.668404  0.336086  0.962293  1
  Si  Si26  1  0.668404  0.336086  0.537707  1
  Si  Si27  1  0.331596  0.663914  0.462293  1
  Si  Si28  1  0.562997  0.125912  0.250000  1
  Si  Si29  1  0.437003  0.874088  0.750000  1
  Os  Os30  1  0.500000  0.500000  0.000000  1
  Os  Os31  1  0.500000  0.500000  0.500000  1
  Ru  Ru32  1  0.500000  0.000000  0.000000  1
  Ru  Ru33  1  0.000000  0.500000  0.000000  1
  Ru  Ru34  1  0.500000  0.000000  0.500000  1
  Ru  Ru35  1  0.000000  0.500000  0.500000  1
  Ru  Ru36  1  0.000000  0.000000  0.000000  1
  Ru  Ru37  1  0.000000  0.000000  0.500000  1
