# generated using pymatgen
data_Nd8Tm12Si15Sn
_symmetry_space_group_name_H-M   'P 1'
_cell_length_a   7.77934472
_cell_length_b   7.81206302
_cell_length_c   14.33940200
_cell_angle_alpha   89.75803438
_cell_angle_beta   89.97538578
_cell_angle_gamma   89.89800099
_symmetry_Int_Tables_number   1
_chemical_formula_structural   Nd8Tm12Si15Sn
_chemical_formula_sum   'Nd8 Tm12 Si15 Sn1'
_cell_volume   871.43539334
_cell_formula_units_Z   1
loop_
 _symmetry_equiv_pos_site_id
 _symmetry_equiv_pos_as_xyz
  1  'x, y, z'
loop_
 _atom_site_type_symbol
 _atom_site_label
 _atom_site_symmetry_multiplicity
 _atom_site_fract_x
 _atom_site_fract_y
 _atom_site_fract_z
 _atom_site_occupancy
  Nd  Nd0  1  0.989873  0.355962  0.206652  1
  Nd  Nd1  1  0.004962  0.646609  0.711112  1
  Nd  Nd2  1  0.136851  0.503733  0.464257  1
  Nd  Nd3  1  0.505778  0.852929  0.038358  1
  Nd  Nd4  1  0.854991  0.504556  0.958584  1
  Nd  Nd5  1  0.494628  0.145306  0.542510  1
  Nd  Nd6  1  0.355316  0.995549  0.790754  1
  Nd  Nd7  1  0.650807  0.998472  0.289354  1
  Tm  Tm8  1  0.179604  0.179129  0.999289  1
  Tm  Tm9  1  0.819512  0.823669  0.501921  1
  Tm  Tm10  1  0.322659  0.684969  0.248189  1
  Tm  Tm11  1  0.680238  0.320977  0.750385  1
  Tm  Tm12  1  0.137134  0.996294  0.376207  1
  Tm  Tm13  1  0.857305  0.993583  0.874916  1
  Tm  Tm14  1  0.492386  0.644346  0.626780  1
  Tm  Tm15  1  0.357176  0.505770  0.874027  1
  Tm  Tm16  1  0.506045  0.355846  0.121970  1
  Tm  Tm17  1  0.656429  0.504536  0.376572  1
  Tm  Tm18  1  0.005852  0.144736  0.624507  1
  Tm  Tm19  1  0.991767  0.854248  0.121662  1
  Si  Si20  1  0.647586  0.705628  0.812980  1
  Si  Si21  1  0.204115  0.854142  0.564871  1
  Si  Si22  1  0.147585  0.793748  0.935826  1
  Si  Si23  1  0.795523  0.147101  0.060732  1
  Si  Si24  1  0.850880  0.203646  0.437395  1
  Si  Si25  1  0.294386  0.352662  0.688372  1
  Si  Si26  1  0.703216  0.645953  0.184916  1
  Si  Si27  1  0.288519  0.050390  0.183539  1
  Si  Si28  1  0.709009  0.941167  0.688555  1
  Si  Si29  1  0.441497  0.792336  0.438178  1
  Si  Si30  1  0.208723  0.557220  0.061362  1
  Si  Si31  1  0.560379  0.209272  0.936931  1
  Si  Si32  1  0.788176  0.440923  0.564133  1
  Si  Si33  1  0.059985  0.290551  0.811742  1
  Si  Si34  1  0.943993  0.708099  0.311194  1
  Sn  Sn35  1  0.357116  0.295940  0.321267  1
