# generated using pymatgen
data_Sc9Re3W
_symmetry_space_group_name_H-M   'P 1'
_cell_length_a   8.70565700
_cell_length_b   8.70565751
_cell_length_c   8.33688000
_cell_angle_alpha   90.00000000
_cell_angle_beta   90.00000000
_cell_angle_gamma   119.99999425
_symmetry_Int_Tables_number   1
_chemical_formula_structural   Sc9Re3W
_chemical_formula_sum   'Sc18 Re6 W2'
_cell_volume   547.18897321
_cell_formula_units_Z   2
loop_
 _symmetry_equiv_pos_site_id
 _symmetry_equiv_pos_as_xyz
  1  'x, y, z'
loop_
 _atom_site_type_symbol
 _atom_site_label
 _atom_site_symmetry_multiplicity
 _atom_site_fract_x
 _atom_site_fract_y
 _atom_site_fract_z
 _atom_site_occupancy
  Sc  Sc0  1  0.400324  0.200162  0.056066  1
  Sc  Sc1  1  0.799838  0.200162  0.056066  1
  Sc  Sc2  1  0.799837  0.599675  0.056066  1
  Sc  Sc3  1  0.095742  0.547870  0.250000  1
  Sc  Sc4  1  0.452130  0.547870  0.250000  1
  Sc  Sc5  1  0.452130  0.904259  0.250000  1
  Sc  Sc6  1  0.400324  0.200162  0.443934  1
  Sc  Sc7  1  0.799838  0.200162  0.443934  1
  Sc  Sc8  1  0.799837  0.599675  0.443934  1
  Sc  Sc9  1  0.200162  0.400325  0.556067  1
  Sc  Sc10  1  0.200161  0.799838  0.556067  1
  Sc  Sc11  1  0.599676  0.799838  0.556067  1
  Sc  Sc12  1  0.547869  0.095741  0.750001  1
  Sc  Sc13  1  0.547870  0.452130  0.750001  1
  Sc  Sc14  1  0.904259  0.452130  0.750001  1
  Sc  Sc15  1  0.200162  0.400325  0.943933  1
  Sc  Sc16  1  0.200161  0.799838  0.943933  1
  Sc  Sc17  1  0.599676  0.799838  0.943933  1
  Re  Re18  1  0.110037  0.220074  0.250000  1
  Re  Re19  1  0.110036  0.889963  0.250000  1
  Re  Re20  1  0.779927  0.889963  0.250000  1
  Re  Re21  1  0.220074  0.110037  0.750001  1
  Re  Re22  1  0.889963  0.110037  0.750001  1
  Re  Re23  1  0.889962  0.779926  0.750001  1
  W  W24  1  0.000000  0.000000  0.000000  1
  W  W25  1  0.000000  0.000000  0.500000  1
