# generated using pymatgen
data_PrNd2PBr3
_symmetry_space_group_name_H-M   'P 1'
_cell_length_a   10.31814265
_cell_length_b   10.31814257
_cell_length_c   10.31814300
_cell_angle_alpha   109.47265910
_cell_angle_beta   109.47265623
_cell_angle_gamma   109.46834428
_symmetry_Int_Tables_number   1
_chemical_formula_structural   PrNd2PBr3
_chemical_formula_sum   'Pr4 Nd8 P4 Br12'
_cell_volume   845.63454411
_cell_formula_units_Z   4
loop_
 _symmetry_equiv_pos_site_id
 _symmetry_equiv_pos_as_xyz
  1  'x, y, z'
loop_
 _atom_site_type_symbol
 _atom_site_label
 _atom_site_symmetry_multiplicity
 _atom_site_fract_x
 _atom_site_fract_y
 _atom_site_fract_z
 _atom_site_occupancy
  Pr  Pr0  1  0.486195  0.236195  0.472389  1
  Pr  Pr1  1  0.013805  0.486195  0.750000  1
  Pr  Pr2  1  0.263805  0.013805  0.027611  1
  Pr  Pr3  1  0.236195  0.263805  0.750000  1
  Nd  Nd4  1  0.471244  0.485447  0.235954  1
  Nd  Nd5  1  0.749493  0.235290  0.264046  1
  Nd  Nd6  1  0.750507  0.014553  0.485797  1
  Nd  Nd7  1  0.235290  0.471244  0.485797  1
  Nd  Nd8  1  0.264710  0.750507  0.235954  1
  Nd  Nd9  1  0.028756  0.264710  0.014203  1
  Nd  Nd10  1  0.014553  0.028756  0.264046  1
  Nd  Nd11  1  0.485447  0.749493  0.014203  1
  P  P12  1  0.248977  0.251023  0.250000  1
  P  P13  1  0.501023  0.998977  0.250000  1
  P  P14  1  0.998977  0.248977  0.497954  1
  P  P15  1  0.251023  0.501023  0.002046  1
  Br  Br16  1  0.251747  0.755624  0.743530  1
  Br  Br17  1  0.512093  0.508218  0.756470  1
  Br  Br18  1  0.987907  0.744376  0.996123  1
  Br  Br19  1  0.744376  0.248253  0.756470  1
  Br  Br20  1  0.991782  0.987907  0.743530  1
  Br  Br21  1  0.248253  0.991782  0.503877  1
  Br  Br22  1  0.755624  0.512093  0.503877  1
  Br  Br23  1  0.508218  0.251747  0.996123  1
  Br  Br24  1  0.755192  0.744808  0.250000  1
  Br  Br25  1  0.744808  0.994808  0.989616  1
  Br  Br26  1  0.994808  0.505192  0.250000  1
  Br  Br27  1  0.505192  0.755192  0.510384  1
