# generated using pymatgen
data_Pr6Si5GeRh12
_symmetry_space_group_name_H-M   'P 1'
_cell_length_a   5.70004700
_cell_length_b   5.70004581
_cell_length_c   15.26525900
_cell_angle_alpha   90.00000000
_cell_angle_beta   90.00000000
_cell_angle_gamma   119.99998948
_symmetry_Int_Tables_number   1
_chemical_formula_structural   Pr6Si5GeRh12
_chemical_formula_sum   'Pr6 Si5 Ge1 Rh12'
_cell_volume   429.52815632
_cell_formula_units_Z   1
loop_
 _symmetry_equiv_pos_site_id
 _symmetry_equiv_pos_as_xyz
  1  'x, y, z'
loop_
 _atom_site_type_symbol
 _atom_site_label
 _atom_site_symmetry_multiplicity
 _atom_site_fract_x
 _atom_site_fract_y
 _atom_site_fract_z
 _atom_site_occupancy
  Pr  Pr0  1  0.333333  0.666667  0.537979  1
  Pr  Pr1  1  0.666667  0.333333  0.462021  1
  Pr  Pr2  1  0.666667  0.333333  0.038232  1
  Pr  Pr3  1  0.333333  0.666667  0.961768  1
  Pr  Pr4  1  0.333333  0.666667  0.749605  1
  Pr  Pr5  1  0.666667  0.333333  0.250395  1
  Si  Si6  1  0.000000  0.000000  0.251653  1
  Si  Si7  1  0.000000  0.000000  0.748347  1
  Si  Si8  1  0.333333  0.666667  0.251820  1
  Si  Si9  1  0.666667  0.333333  0.748180  1
  Si  Si10  1  0.000000  0.000000  0.500000  1
  Ge  Ge11  1  0.000000  0.000000  0.000000  1
  Rh  Rh12  1  0.165872  0.331744  0.137391  1
  Rh  Rh13  1  0.834128  0.668256  0.862609  1
  Rh  Rh14  1  0.668256  0.834128  0.137391  1
  Rh  Rh15  1  0.835063  0.670126  0.633040  1
  Rh  Rh16  1  0.331744  0.165872  0.862609  1
  Rh  Rh17  1  0.164937  0.329874  0.366960  1
  Rh  Rh18  1  0.165872  0.834128  0.137391  1
  Rh  Rh19  1  0.329874  0.164937  0.633040  1
  Rh  Rh20  1  0.834128  0.165872  0.862609  1
  Rh  Rh21  1  0.670126  0.835063  0.366960  1
  Rh  Rh22  1  0.835063  0.164937  0.633040  1
  Rh  Rh23  1  0.164937  0.835063  0.366960  1
