# generated using pymatgen
data_Zr3Be2AsOs3
_symmetry_space_group_name_H-M   'P 1'
_cell_length_a   6.83009600
_cell_length_b   6.83009731
_cell_length_c   3.38868400
_cell_angle_alpha   90.00000000
_cell_angle_beta   90.00000000
_cell_angle_gamma   120.00001305
_symmetry_Int_Tables_number   1
_chemical_formula_structural   Zr3Be2AsOs3
_chemical_formula_sum   'Zr3 Be2 As1 Os3'
_cell_volume   136.90375042
_cell_formula_units_Z   1
loop_
 _symmetry_equiv_pos_site_id
 _symmetry_equiv_pos_as_xyz
  1  'x, y, z'
loop_
 _atom_site_type_symbol
 _atom_site_label
 _atom_site_symmetry_multiplicity
 _atom_site_fract_x
 _atom_site_fract_y
 _atom_site_fract_z
 _atom_site_occupancy
  Zr  Zr0  1  0.407424  0.391442  0.500000  1
  Zr  Zr1  1  0.608558  0.015982  0.500000  1
  Zr  Zr2  1  0.984018  0.592576  0.500000  1
  Be  Be3  1  0.666667  0.333333  0.000000  1
  Be  Be4  1  0.000000  0.000000  0.500000  1
  As  As5  1  0.333333  0.666667  0.000000  1
  Os  Os6  1  0.756580  0.752620  0.000000  1
  Os  Os7  1  0.247380  0.003961  0.000000  1
  Os  Os8  1  0.996039  0.243420  0.000000  1
