# generated using pymatgen
data_Cs3NaOs2O9
_symmetry_space_group_name_H-M   'P 1'
_cell_length_a   6.48464800
_cell_length_b   6.48490751
_cell_length_c   14.89251600
_cell_angle_alpha   90.00000000
_cell_angle_beta   90.00000000
_cell_angle_gamma   119.99963149
_symmetry_Int_Tables_number   1
_chemical_formula_structural   Cs3NaOs2O9
_chemical_formula_sum   'Cs6 Na2 Os4 O18'
_cell_volume   542.36357263
_cell_formula_units_Z   2
loop_
 _symmetry_equiv_pos_site_id
 _symmetry_equiv_pos_as_xyz
  1  'x, y, z'
loop_
 _atom_site_type_symbol
 _atom_site_label
 _atom_site_symmetry_multiplicity
 _atom_site_fract_x
 _atom_site_fract_y
 _atom_site_fract_z
 _atom_site_occupancy
  Cs  Cs0  1  0.000004  0.000004  0.250000  1
  Cs  Cs1  1  0.999996  0.999996  0.750000  1
  Cs  Cs2  1  0.333336  0.666661  0.396950  1
  Cs  Cs3  1  0.666664  0.333339  0.603050  1
  Cs  Cs4  1  0.666664  0.333339  0.896950  1
  Cs  Cs5  1  0.333336  0.666661  0.103050  1
  Na  Na6  1  0.000000  0.000000  0.500000  1
  Na  Na7  1  0.000000  0.000000  0.000000  1
  Os  Os8  1  0.666656  0.333451  0.348194  1
  Os  Os9  1  0.333344  0.666549  0.651806  1
  Os  Os10  1  0.333344  0.666549  0.848194  1
  Os  Os11  1  0.666656  0.333451  0.151806  1
  O  O12  1  0.540960  0.459016  0.250000  1
  O  O13  1  0.541004  0.081976  0.250000  1
  O  O14  1  0.918052  0.458999  0.250000  1
  O  O15  1  0.459040  0.540984  0.750000  1
  O  O16  1  0.458996  0.918024  0.750000  1
  O  O17  1  0.081948  0.541001  0.750000  1
  O  O18  1  0.382060  0.191038  0.406628  1
  O  O19  1  0.809002  0.191006  0.406634  1
  O  O20  1  0.808949  0.617905  0.406622  1
  O  O21  1  0.617940  0.808962  0.593372  1
  O  O22  1  0.190998  0.808994  0.593366  1
  O  O23  1  0.191051  0.382095  0.593378  1
  O  O24  1  0.617940  0.808962  0.906628  1
  O  O25  1  0.190998  0.808994  0.906634  1
  O  O26  1  0.191051  0.382095  0.906622  1
  O  O27  1  0.382060  0.191038  0.093372  1
  O  O28  1  0.809002  0.191006  0.093366  1
  O  O29  1  0.808949  0.617905  0.093378  1
