# generated using pymatgen
data_Eu3ZrF12
_symmetry_space_group_name_H-M   'P 1'
_cell_length_a   6.65970700
_cell_length_b   6.65970718
_cell_length_c   5.32703300
_cell_angle_alpha   90.00000000
_cell_angle_beta   90.00000000
_cell_angle_gamma   110.00746186
_symmetry_Int_Tables_number   1
_chemical_formula_structural   Eu3ZrF12
_chemical_formula_sum   'Eu3 Zr1 F12'
_cell_volume   222.00403598
_cell_formula_units_Z   1
loop_
 _symmetry_equiv_pos_site_id
 _symmetry_equiv_pos_as_xyz
  1  'x, y, z'
loop_
 _atom_site_type_symbol
 _atom_site_label
 _atom_site_symmetry_multiplicity
 _atom_site_fract_x
 _atom_site_fract_y
 _atom_site_fract_z
 _atom_site_occupancy
  Eu  Eu0  1  0.750000  0.750000  0.000000  1
  Eu  Eu1  1  0.250000  0.750000  0.464165  1
  Eu  Eu2  1  0.750000  0.250000  0.535835  1
  Zr  Zr3  1  0.250000  0.250000  0.000000  1
  F  F4  1  0.644048  0.952180  0.278701  1
  F  F5  1  0.279299  0.050132  0.715695  1
  F  F6  1  0.855952  0.547820  0.278701  1
  F  F7  1  0.547820  0.855952  0.721299  1
  F  F8  1  0.220701  0.449868  0.715695  1
  F  F9  1  0.449868  0.220701  0.284305  1
  F  F10  1  0.952180  0.644048  0.721299  1
  F  F11  1  0.050132  0.279299  0.284305  1
  F  F12  1  0.388141  0.572480  0.154140  1
  F  F13  1  0.572480  0.388141  0.845860  1
  F  F14  1  0.111859  0.927520  0.154140  1
  F  F15  1  0.927520  0.111859  0.845860  1
