# generated using pymatgen
data_EuDyTc6Ni6P7
_symmetry_space_group_name_H-M   'P 1'
_cell_length_a   9.39731500
_cell_length_b   9.39731553
_cell_length_c   3.73120600
_cell_angle_alpha   90.00000000
_cell_angle_beta   90.00000000
_cell_angle_gamma   119.99999975
_symmetry_Int_Tables_number   1
_chemical_formula_structural   EuDyTc6Ni6P7
_chemical_formula_sum   'Eu1 Dy1 Tc6 Ni6 P7'
_cell_volume   285.35629268
_cell_formula_units_Z   1
loop_
 _symmetry_equiv_pos_site_id
 _symmetry_equiv_pos_as_xyz
  1  'x, y, z'
loop_
 _atom_site_type_symbol
 _atom_site_label
 _atom_site_symmetry_multiplicity
 _atom_site_fract_x
 _atom_site_fract_y
 _atom_site_fract_z
 _atom_site_occupancy
  Eu  Eu0  1  0.000000  0.000000  0.500000  1
  Dy  Dy1  1  0.666667  0.333333  0.000000  1
  Tc  Tc2  1  0.723362  0.101944  0.500000  1
  Tc  Tc3  1  0.898056  0.621419  0.500000  1
  Tc  Tc4  1  0.378581  0.276638  0.500000  1
  Tc  Tc5  1  0.542010  0.752609  0.500000  1
  Tc  Tc6  1  0.247391  0.789401  0.500000  1
  Tc  Tc7  1  0.210599  0.457990  0.500000  1
  Ni  Ni8  1  0.755699  0.724926  0.000000  1
  Ni  Ni9  1  0.275074  0.030773  0.000000  1
  Ni  Ni10  1  0.969227  0.244301  0.000000  1
  Ni  Ni11  1  0.491976  0.941094  0.000000  1
  Ni  Ni12  1  0.058906  0.550881  0.000000  1
  Ni  Ni13  1  0.449119  0.508024  0.000000  1
  P  P14  1  0.453291  0.070748  0.500000  1
  P  P15  1  0.929252  0.382543  0.500000  1
  P  P16  1  0.617457  0.546709  0.500000  1
  P  P17  1  0.333333  0.666667  0.000000  1
  P  P18  1  0.741911  0.960088  0.000000  1
  P  P19  1  0.039912  0.781823  0.000000  1
  P  P20  1  0.218177  0.258089  0.000000  1
