# generated using pymatgen
data_Nd2TlI2
_symmetry_space_group_name_H-M   'P 1'
_cell_length_a   13.08997784
_cell_length_b   13.08997743
_cell_length_c   13.08997775
_cell_angle_alpha   18.87078717
_cell_angle_beta   18.87079243
_cell_angle_gamma   18.87079088
_symmetry_Int_Tables_number   1
_chemical_formula_structural   Nd2TlI2
_chemical_formula_sum   'Nd2 Tl1 I2'
_cell_volume   205.03543481
_cell_formula_units_Z   1
loop_
 _symmetry_equiv_pos_site_id
 _symmetry_equiv_pos_as_xyz
  1  'x, y, z'
loop_
 _atom_site_type_symbol
 _atom_site_label
 _atom_site_symmetry_multiplicity
 _atom_site_fract_x
 _atom_site_fract_y
 _atom_site_fract_z
 _atom_site_occupancy
  Nd  Nd0  1  0.386674  0.386674  0.386674  1
  Nd  Nd1  1  0.613326  0.613326  0.613326  1
  Tl  Tl2  1  0.000000  0.000000  0.000000  1
  I  I3  1  0.226962  0.226962  0.226962  1
  I  I4  1  0.773038  0.773038  0.773038  1
