# generated using pymatgen
data_Dy6ZrCo16NiP12
_symmetry_space_group_name_H-M   'P 1'
_cell_length_a   3.71173000
_cell_length_b   10.57881300
_cell_length_c   12.31369900
_cell_angle_alpha   90.00000000
_cell_angle_beta   90.00000000
_cell_angle_gamma   90.00000000
_symmetry_Int_Tables_number   1
_chemical_formula_structural   Dy6ZrCo16NiP12
_chemical_formula_sum   'Dy6 Zr1 Co16 Ni1 P12'
_cell_volume   483.50598098
_cell_formula_units_Z   1
loop_
 _symmetry_equiv_pos_site_id
 _symmetry_equiv_pos_as_xyz
  1  'x, y, z'
loop_
 _atom_site_type_symbol
 _atom_site_label
 _atom_site_symmetry_multiplicity
 _atom_site_fract_x
 _atom_site_fract_y
 _atom_site_fract_z
 _atom_site_occupancy
  Dy  Dy0  1  0.000000  0.500000  0.527252  1
  Dy  Dy1  1  0.500000  0.000000  0.477626  1
  Dy  Dy2  1  0.500000  0.821059  0.207582  1
  Dy  Dy3  1  0.500000  0.178941  0.207582  1
  Dy  Dy4  1  0.000000  0.684780  0.796842  1
  Dy  Dy5  1  0.000000  0.315220  0.796842  1
  Zr  Zr6  1  0.500000  0.500000  0.154001  1
  Co  Co7  1  0.000000  0.000000  0.836519  1
  Co  Co8  1  0.000000  0.000000  0.296418  1
  Co  Co9  1  0.000000  0.500000  0.983389  1
  Co  Co10  1  0.500000  0.000000  0.014174  1
  Co  Co11  1  0.500000  0.327129  0.987820  1
  Co  Co12  1  0.500000  0.672871  0.987820  1
  Co  Co13  1  0.000000  0.161137  0.001207  1
  Co  Co14  1  0.000000  0.838863  0.001207  1
  Co  Co15  1  0.500000  0.294537  0.434884  1
  Co  Co16  1  0.500000  0.705463  0.434884  1
  Co  Co17  1  0.000000  0.201460  0.570289  1
  Co  Co18  1  0.000000  0.798540  0.570289  1
  Co  Co19  1  0.500000  0.880177  0.707851  1
  Co  Co20  1  0.500000  0.119823  0.707851  1
  Co  Co21  1  0.000000  0.622819  0.297609  1
  Co  Co22  1  0.000000  0.377181  0.297609  1
  Ni  Ni23  1  0.500000  0.500000  0.702814  1
  P  P24  1  0.500000  0.500000  0.882289  1
  P  P25  1  0.000000  0.000000  0.116799  1
  P  P26  1  0.500000  0.500000  0.361284  1
  P  P27  1  0.000000  0.000000  0.655095  1
  P  P28  1  0.500000  0.308104  0.617145  1
  P  P29  1  0.500000  0.691896  0.617145  1
  P  P30  1  0.000000  0.188259  0.386384  1
  P  P31  1  0.000000  0.811741  0.386384  1
  P  P32  1  0.500000  0.853117  0.888817  1
  P  P33  1  0.500000  0.146883  0.888817  1
  P  P34  1  0.000000  0.665617  0.099741  1
  P  P35  1  0.000000  0.334383  0.099741  1
