# generated using pymatgen
data_MnCd2P6BrN12
_symmetry_space_group_name_H-M   'P 1'
_cell_length_a   7.35467803
_cell_length_b   7.38215311
_cell_length_c   7.38215376
_cell_angle_alpha   110.83658096
_cell_angle_beta   109.37234339
_cell_angle_gamma   109.37233091
_symmetry_Int_Tables_number   1
_chemical_formula_structural   MnCd2P6BrN12
_chemical_formula_sum   'Mn1 Cd2 P6 Br1 N12'
_cell_volume   303.96071148
_cell_formula_units_Z   1
loop_
 _symmetry_equiv_pos_site_id
 _symmetry_equiv_pos_as_xyz
  1  'x, y, z'
loop_
 _atom_site_type_symbol
 _atom_site_label
 _atom_site_symmetry_multiplicity
 _atom_site_fract_x
 _atom_site_fract_y
 _atom_site_fract_z
 _atom_site_occupancy
  Mn  Mn0  1  0.444322  0.049255  0.049255  1
  Cd  Cd1  1  0.992686  0.334122  0.002105  1
  Cd  Cd2  1  0.992686  0.002105  0.334122  1
  P  P3  1  0.492591  0.262352  0.737447  1
  P  P4  1  0.258672  0.760470  0.516600  1
  P  P5  1  0.744713  0.498295  0.250215  1
  P  P6  1  0.744713  0.250215  0.498295  1
  P  P7  1  0.492591  0.737447  0.262352  1
  P  P8  1  0.258672  0.516600  0.760470  1
  Br  Br9  1  0.008285  0.967753  0.967753  1
  N  N10  1  0.423865  0.710488  0.437886  1
  N  N11  1  0.639379  0.349485  0.349485  1
  N  N12  1  0.423865  0.437886  0.710488  1
  N  N13  1  0.718150  0.303565  0.716396  1
  N  N14  1  0.998938  0.563658  0.307814  1
  N  N15  1  0.280585  0.563001  0.003463  1
  N  N16  1  0.280585  0.003463  0.563001  1
  N  N17  1  0.998938  0.307814  0.563658  1
  N  N18  1  0.718150  0.716396  0.303565  1
  N  N19  1  0.570809  0.986341  0.284579  1
  N  N20  1  0.305993  0.754705  0.754705  1
  N  N21  1  0.570809  0.284579  0.986341  1
