# generated using pymatgen
data_Er2Fe7Ni5P7
_symmetry_space_group_name_H-M   'P 1'
_cell_length_a   8.98432544
_cell_length_b   9.01734911
_cell_length_c   3.64067600
_cell_angle_alpha   90.00000000
_cell_angle_beta   90.00000000
_cell_angle_gamma   119.84410690
_symmetry_Int_Tables_number   1
_chemical_formula_structural   Er2Fe7Ni5P7
_chemical_formula_sum   'Er2 Fe7 Ni5 P7'
_cell_volume   255.83331924
_cell_formula_units_Z   1
loop_
 _symmetry_equiv_pos_site_id
 _symmetry_equiv_pos_as_xyz
  1  'x, y, z'
loop_
 _atom_site_type_symbol
 _atom_site_label
 _atom_site_symmetry_multiplicity
 _atom_site_fract_x
 _atom_site_fract_y
 _atom_site_fract_z
 _atom_site_occupancy
  Er  Er0  1  0.001591  0.998634  0.000000  1
  Er  Er1  1  0.331916  0.667967  0.500000  1
  Fe  Fe2  1  0.823221  0.213570  0.000000  1
  Fe  Fe3  1  0.784190  0.609260  0.000000  1
  Fe  Fe4  1  0.394761  0.179777  0.000000  1
  Fe  Fe5  1  0.231775  0.946088  0.500000  1
  Fe  Fe6  1  0.886974  0.457733  0.500000  1
  Fe  Fe7  1  0.544708  0.429647  0.500000  1
  Fe  Fe8  1  0.572423  0.118857  0.500000  1
  Ni  Ni9  1  0.098275  0.703041  0.000000  1
  Ni  Ni10  1  0.292351  0.393620  0.000000  1
  Ni  Ni11  1  0.602082  0.898030  0.000000  1
  Ni  Ni12  1  0.054918  0.282434  0.500000  1
  Ni  Ni13  1  0.715720  0.771100  0.500000  1
  P  P14  1  0.071661  0.445512  0.000000  1
  P  P15  1  0.551723  0.625306  0.000000  1
  P  P16  1  0.366718  0.926385  0.000000  1
  P  P17  1  0.781983  0.049715  0.500000  1
  P  P18  1  0.955653  0.736491  0.500000  1
  P  P19  1  0.267988  0.211492  0.500000  1
  P  P20  1  0.669370  0.335338  0.000000  1
