# generated using pymatgen
data_Dy17Ho2MgIr12
_symmetry_space_group_name_H-M   'P 1'
_cell_length_a   10.86420100
_cell_length_b   10.86420100
_cell_length_c   6.32096400
_cell_angle_alpha   90.00000000
_cell_angle_beta   90.00000000
_cell_angle_gamma   90.00000000
_symmetry_Int_Tables_number   1
_chemical_formula_structural   Dy17Ho2MgIr12
_chemical_formula_sum   'Dy17 Ho2 Mg1 Ir12'
_cell_volume   746.06883824
_cell_formula_units_Z   1
loop_
 _symmetry_equiv_pos_site_id
 _symmetry_equiv_pos_as_xyz
  1  'x, y, z'
loop_
 _atom_site_type_symbol
 _atom_site_label
 _atom_site_symmetry_multiplicity
 _atom_site_fract_x
 _atom_site_fract_y
 _atom_site_fract_z
 _atom_site_occupancy
  Dy  Dy0  1  0.284587  0.085126  0.378940  1
  Dy  Dy1  1  0.290271  0.911857  0.879097  1
  Dy  Dy2  1  0.709729  0.088143  0.879097  1
  Dy  Dy3  1  0.715413  0.914874  0.378940  1
  Dy  Dy4  1  0.588793  0.791583  0.879189  1
  Dy  Dy5  1  0.588070  0.208195  0.377575  1
  Dy  Dy6  1  0.411930  0.791805  0.377575  1
  Dy  Dy7  1  0.411207  0.208417  0.879189  1
  Dy  Dy8  1  0.208195  0.411930  0.622425  1
  Dy  Dy9  1  0.208417  0.588793  0.120811  1
  Dy  Dy10  1  0.791583  0.411207  0.120811  1
  Dy  Dy11  1  0.791805  0.588070  0.622425  1
  Dy  Dy12  1  0.911857  0.709729  0.120903  1
  Dy  Dy13  1  0.914874  0.284587  0.621060  1
  Dy  Dy14  1  0.085126  0.715413  0.621060  1
  Dy  Dy15  1  0.088143  0.290271  0.120903  1
  Dy  Dy16  1  0.000000  0.000000  0.000000  1
  Ho  Ho17  1  0.500000  0.500000  0.000000  1
  Ho  Ho18  1  0.500000  0.500000  0.500000  1
  Mg  Mg19  1  0.000000  0.000000  0.500000  1
  Ir  Ir20  1  0.846270  0.154008  0.248349  1
  Ir  Ir21  1  0.845992  0.846270  0.751651  1
  Ir  Ir22  1  0.154008  0.153730  0.751651  1
  Ir  Ir23  1  0.153730  0.845992  0.248349  1
  Ir  Ir24  1  0.654171  0.346250  0.748595  1
  Ir  Ir25  1  0.653750  0.654171  0.251405  1
  Ir  Ir26  1  0.346250  0.345829  0.251405  1
  Ir  Ir27  1  0.345829  0.653750  0.748595  1
  Ir  Ir28  1  0.500000  0.000000  0.123353  1
  Ir  Ir29  1  0.500000  0.000000  0.620420  1
  Ir  Ir30  1  0.000000  0.500000  0.876647  1
  Ir  Ir31  1  0.000000  0.500000  0.379580  1
