# generated using pymatgen
data_Ba6FeNi2(OsO6)3
_symmetry_space_group_name_H-M   'P 1'
_cell_length_a   5.82581503
_cell_length_b   5.82672946
_cell_length_c   14.27349198
_cell_angle_alpha   89.98898924
_cell_angle_beta   89.99665281
_cell_angle_gamma   119.99880798
_symmetry_Int_Tables_number   1
_chemical_formula_structural   Ba6FeNi2(OsO6)3
_chemical_formula_sum   'Ba6 Fe1 Ni2 Os3 O18'
_cell_volume   419.61172427
_cell_formula_units_Z   1
loop_
 _symmetry_equiv_pos_site_id
 _symmetry_equiv_pos_as_xyz
  1  'x, y, z'
loop_
 _atom_site_type_symbol
 _atom_site_label
 _atom_site_symmetry_multiplicity
 _atom_site_fract_x
 _atom_site_fract_y
 _atom_site_fract_z
 _atom_site_occupancy
  Ba  Ba0  1  0.000016  0.000019  0.248922  1
  Ba  Ba1  1  0.999994  0.999945  0.751101  1
  Ba  Ba2  1  0.333309  0.666603  0.090899  1
  Ba  Ba3  1  0.666696  0.333379  0.909278  1
  Ba  Ba4  1  0.333327  0.666719  0.400856  1
  Ba  Ba5  1  0.666628  0.333209  0.593130  1
  Fe  Fe6  1  0.333316  0.666626  0.649962  1
  Ni  Ni7  1  0.000024  0.000053  0.000524  1
  Ni  Ni8  1  0.666731  0.333634  0.347839  1
  Os  Os9  1  0.000000  0.000029  0.498555  1
  Os  Os10  1  0.333375  0.666689  0.843083  1
  Os  Os11  1  0.666658  0.333342  0.158496  1
  O  O12  1  0.513986  0.485820  0.244933  1
  O  O13  1  0.513966  0.027954  0.244900  1
  O  O14  1  0.971860  0.485970  0.244944  1
  O  O15  1  0.030859  0.515336  0.752949  1
  O  O16  1  0.484695  0.969278  0.752911  1
  O  O17  1  0.484583  0.515398  0.752985  1
  O  O18  1  0.827405  0.172702  0.083346  1
  O  O19  1  0.827880  0.655682  0.083655  1
  O  O20  1  0.344993  0.172404  0.083433  1
  O  O21  1  0.656258  0.828199  0.917043  1
  O  O22  1  0.171649  0.343362  0.916905  1
  O  O23  1  0.171970  0.827997  0.917095  1
  O  O24  1  0.840205  0.159939  0.423093  1
  O  O25  1  0.840277  0.680624  0.422936  1
  O  O26  1  0.319620  0.159878  0.423051  1
  O  O27  1  0.675725  0.837599  0.581032  1
  O  O28  1  0.162061  0.324006  0.581145  1
  O  O29  1  0.161932  0.837606  0.580997  1
