# generated using pymatgen
data_Ba4Ho(US4)3
_symmetry_space_group_name_H-M   'P 1'
_cell_length_a   7.17750897
_cell_length_b   7.26919396
_cell_length_c   10.34510200
_cell_angle_alpha   90.23978687
_cell_angle_beta   90.29005203
_cell_angle_gamma   89.92332481
_symmetry_Int_Tables_number   1
_chemical_formula_structural   Ba4Ho(US4)3
_chemical_formula_sum   'Ba4 Ho1 U3 S12'
_cell_volume   539.74053272
_cell_formula_units_Z   1
loop_
 _symmetry_equiv_pos_site_id
 _symmetry_equiv_pos_as_xyz
  1  'x, y, z'
loop_
 _atom_site_type_symbol
 _atom_site_label
 _atom_site_symmetry_multiplicity
 _atom_site_fract_x
 _atom_site_fract_y
 _atom_site_fract_z
 _atom_site_occupancy
  Ba  Ba0  1  0.990512  0.053225  0.247203  1
  Ba  Ba1  1  0.486498  0.443468  0.754006  1
  Ba  Ba2  1  0.513502  0.556532  0.245994  1
  Ba  Ba3  1  0.009488  0.946775  0.752797  1
  Ho  Ho4  1  0.500000  0.000000  0.000000  1
  U  U5  1  0.000000  0.500000  0.000000  1
  U  U6  1  0.000000  0.500000  0.500000  1
  U  U7  1  0.500000  0.000000  0.500000  1
  S  S8  1  0.698397  0.301369  0.458199  1
  S  S9  1  0.195875  0.196841  0.541707  1
  S  S10  1  0.800341  0.793080  0.041582  1
  S  S11  1  0.292219  0.701164  0.959221  1
  S  S12  1  0.301603  0.698631  0.541801  1
  S  S13  1  0.804125  0.803159  0.458293  1
  S  S14  1  0.199659  0.206920  0.958418  1
  S  S15  1  0.707781  0.298836  0.040779  1
  S  S16  1  0.079849  0.486649  0.251214  1
  S  S17  1  0.576454  0.013039  0.746501  1
  S  S18  1  0.423546  0.986961  0.253499  1
  S  S19  1  0.920151  0.513351  0.748786  1
