# generated using pymatgen
data_Yb6CoIrN6
_symmetry_space_group_name_H-M   'P 1'
_cell_length_a   6.55357400
_cell_length_b   6.55357423
_cell_length_c   4.95208700
_cell_angle_alpha   90.00000000
_cell_angle_beta   90.00000000
_cell_angle_gamma   101.06198630
_symmetry_Int_Tables_number   1
_chemical_formula_structural   Yb6CoIrN6
_chemical_formula_sum   'Yb6 Co1 Ir1 N6'
_cell_volume   208.73711666
_cell_formula_units_Z   1
loop_
 _symmetry_equiv_pos_site_id
 _symmetry_equiv_pos_as_xyz
  1  'x, y, z'
loop_
 _atom_site_type_symbol
 _atom_site_label
 _atom_site_symmetry_multiplicity
 _atom_site_fract_x
 _atom_site_fract_y
 _atom_site_fract_z
 _atom_site_occupancy
  Yb  Yb0  1  0.655841  0.906472  0.750000  1
  Yb  Yb1  1  0.390292  0.609708  0.250000  1
  Yb  Yb2  1  0.902143  0.670969  0.250000  1
  Yb  Yb3  1  0.604711  0.395289  0.750000  1
  Yb  Yb4  1  0.329031  0.097857  0.250000  1
  Yb  Yb5  1  0.093528  0.344159  0.750000  1
  Co  Co6  1  0.192934  0.807066  0.750000  1
  Ir  Ir7  1  0.805756  0.194244  0.250000  1
  N  N8  1  0.669216  0.908117  0.250000  1
  N  N9  1  0.376080  0.623920  0.750000  1
  N  N10  1  0.615785  0.384215  0.250000  1
  N  N11  1  0.932764  0.659962  0.750000  1
  N  N12  1  0.340038  0.067236  0.750000  1
  N  N13  1  0.091883  0.330784  0.250000  1
