# generated using pymatgen
data_Tm9Sc(Zn2Sb)2
_symmetry_space_group_name_H-M   'P 1'
_cell_length_a   8.41581247
_cell_length_b   8.41581567
_cell_length_c   8.41581880
_cell_angle_alpha   123.75829797
_cell_angle_beta   123.75919463
_cell_angle_gamma   83.60443753
_symmetry_Int_Tables_number   1
_chemical_formula_structural   Tm9Sc(Zn2Sb)2
_chemical_formula_sum   'Tm9 Sc1 Zn4 Sb2'
_cell_volume   394.83565306
_cell_formula_units_Z   1
loop_
 _symmetry_equiv_pos_site_id
 _symmetry_equiv_pos_as_xyz
  1  'x, y, z'
loop_
 _atom_site_type_symbol
 _atom_site_label
 _atom_site_symmetry_multiplicity
 _atom_site_fract_x
 _atom_site_fract_y
 _atom_site_fract_z
 _atom_site_occupancy
  Tm  Tm0  1  0.000000  0.000000  0.000000  1
  Tm  Tm1  1  0.797687  0.300811  0.810770  1
  Tm  Tm2  1  0.202313  0.699189  0.189230  1
  Tm  Tm3  1  0.490039  0.986916  0.189228  1
  Tm  Tm4  1  0.300812  0.490034  0.503121  1
  Tm  Tm5  1  0.013088  0.202309  0.503122  1
  Tm  Tm6  1  0.509961  0.013084  0.810772  1
  Tm  Tm7  1  0.699188  0.509966  0.496879  1
  Tm  Tm8  1  0.986912  0.797691  0.496878  1
  Sc  Sc9  1  0.500000  0.500000  0.000000  1
  Zn  Zn10  1  0.139850  0.635243  0.775093  1
  Zn  Zn11  1  0.860150  0.364757  0.224907  1
  Zn  Zn12  1  0.635240  0.860154  0.495394  1
  Zn  Zn13  1  0.364760  0.139846  0.504606  1
  Sb  Sb14  1  0.253353  0.253353  0.000000  1
  Sb  Sb15  1  0.746647  0.746647  0.000000  1
