# generated using pymatgen
data_Mn2ZnGeRh4
_symmetry_space_group_name_H-M   'P 1'
_cell_length_a   7.43021820
_cell_length_b   7.43021856
_cell_length_c   7.43021983
_cell_angle_alpha   33.61424287
_cell_angle_beta   33.61423759
_cell_angle_gamma   33.61424974
_symmetry_Int_Tables_number   1
_chemical_formula_structural   Mn2ZnGeRh4
_chemical_formula_sum   'Mn2 Zn1 Ge1 Rh4'
_cell_volume   111.98978127
_cell_formula_units_Z   1
loop_
 _symmetry_equiv_pos_site_id
 _symmetry_equiv_pos_as_xyz
  1  'x, y, z'
loop_
 _atom_site_type_symbol
 _atom_site_label
 _atom_site_symmetry_multiplicity
 _atom_site_fract_x
 _atom_site_fract_y
 _atom_site_fract_z
 _atom_site_occupancy
  Mn  Mn0  1  0.252655  0.252655  0.252655  1
  Mn  Mn1  1  0.747345  0.747345  0.747345  1
  Zn  Zn2  1  0.000000  0.000000  0.000000  1
  Ge  Ge3  1  0.500000  0.500000  0.500000  1
  Rh  Rh4  1  0.377277  0.377277  0.377277  1
  Rh  Rh5  1  0.872997  0.872997  0.872997  1
  Rh  Rh6  1  0.622723  0.622723  0.622723  1
  Rh  Rh7  1  0.127003  0.127003  0.127003  1
