# generated using pymatgen
data_LaEu3(PRh)4
_symmetry_space_group_name_H-M   'P 1'
_cell_length_a   6.28630100
_cell_length_b   6.28630071
_cell_length_c   6.28630033
_cell_angle_alpha   89.90189459
_cell_angle_beta   89.90189566
_cell_angle_gamma   90.09809197
_symmetry_Int_Tables_number   1
_chemical_formula_structural   LaEu3(PRh)4
_chemical_formula_sum   'La1 Eu3 P4 Rh4'
_cell_volume   248.41827267
_cell_formula_units_Z   1
loop_
 _symmetry_equiv_pos_site_id
 _symmetry_equiv_pos_as_xyz
  1  'x, y, z'
loop_
 _atom_site_type_symbol
 _atom_site_label
 _atom_site_symmetry_multiplicity
 _atom_site_fract_x
 _atom_site_fract_y
 _atom_site_fract_z
 _atom_site_occupancy
  La  La0  1  0.393530  0.893530  0.606470  1
  Eu  Eu1  1  0.895122  0.602948  0.394294  1
  Eu  Eu2  1  0.605706  0.395122  0.897052  1
  Eu  Eu3  1  0.102948  0.105706  0.104878  1
  P  P4  1  0.674362  0.174362  0.325638  1
  P  P5  1  0.174277  0.327329  0.674504  1
  P  P6  1  0.325496  0.674277  0.172671  1
  P  P7  1  0.827329  0.825496  0.825723  1
  Rh  Rh8  1  0.084247  0.584247  0.915753  1
  Rh  Rh9  1  0.583809  0.916053  0.082879  1
  Rh  Rh10  1  0.917121  0.083809  0.583947  1
  Rh  Rh11  1  0.416053  0.417121  0.416191  1
