# generated using pymatgen
data_Er5Lu5Ru4
_symmetry_space_group_name_H-M   'P 1'
_cell_length_a   6.22889834
_cell_length_b   7.22813430
_cell_length_c   8.32070959
_cell_angle_alpha   96.97816405
_cell_angle_beta   111.89660548
_cell_angle_gamma   89.94118613
_symmetry_Int_Tables_number   1
_chemical_formula_structural   Er5Lu5Ru4
_chemical_formula_sum   'Er5 Lu5 Ru4'
_cell_volume   344.62591495
_cell_formula_units_Z   1
loop_
 _symmetry_equiv_pos_site_id
 _symmetry_equiv_pos_as_xyz
  1  'x, y, z'
loop_
 _atom_site_type_symbol
 _atom_site_label
 _atom_site_symmetry_multiplicity
 _atom_site_fract_x
 _atom_site_fract_y
 _atom_site_fract_z
 _atom_site_occupancy
  Er  Er0  1  0.524166  0.082760  0.813058  1
  Er  Er1  1  0.477689  0.916679  0.187361  1
  Er  Er2  1  0.709082  0.416519  0.186617  1
  Er  Er3  1  0.289273  0.583809  0.812709  1
  Er  Er4  1  0.294891  0.315234  0.434683  1
  Lu  Lu5  1  0.704491  0.684331  0.566065  1
  Lu  Lu6  1  0.860733  0.184007  0.565536  1
  Lu  Lu7  1  0.137983  0.815805  0.434591  1
  Lu  Lu8  1  0.080462  0.250111  0.999525  1
  Lu  Lu9  1  0.920164  0.749700  0.000163  1
  Ru  Ru10  1  0.321373  0.577797  0.220356  1
  Ru  Ru11  1  0.681481  0.423642  0.780988  1
  Ru  Ru12  1  0.099184  0.924174  0.777976  1
  Ru  Ru13  1  0.899029  0.075432  0.220373  1
