# generated using pymatgen
data_Hf3Zn2Pd3
_symmetry_space_group_name_H-M   'P 1'
_cell_length_a   3.44705100
_cell_length_b   3.44705100
_cell_length_c   11.70428700
_cell_angle_alpha   90.00000000
_cell_angle_beta   90.00000000
_cell_angle_gamma   90.00000000
_symmetry_Int_Tables_number   1
_chemical_formula_structural   Hf3Zn2Pd3
_chemical_formula_sum   'Hf3 Zn2 Pd3'
_cell_volume   139.07221780
_cell_formula_units_Z   1
loop_
 _symmetry_equiv_pos_site_id
 _symmetry_equiv_pos_as_xyz
  1  'x, y, z'
loop_
 _atom_site_type_symbol
 _atom_site_label
 _atom_site_symmetry_multiplicity
 _atom_site_fract_x
 _atom_site_fract_y
 _atom_site_fract_z
 _atom_site_occupancy
  Hf  Hf0  1  0.000000  0.000000  0.132930  1
  Hf  Hf1  1  0.500000  0.500000  0.507300  1
  Hf  Hf2  1  0.000000  0.000000  0.861692  1
  Zn  Zn3  1  0.500000  0.500000  0.999744  1
  Zn  Zn4  1  0.000000  0.000000  0.374448  1
  Pd  Pd5  1  0.500000  0.500000  0.258093  1
  Pd  Pd6  1  0.000000  0.000000  0.613055  1
  Pd  Pd7  1  0.500000  0.500000  0.752738  1
