# generated using pymatgen
data_Dy3Ho7(InBi2)2
_symmetry_space_group_name_H-M   'P 1'
_cell_length_a   9.06731828
_cell_length_b   9.07242616
_cell_length_c   6.49157400
_cell_angle_alpha   90.00000000
_cell_angle_beta   90.00000000
_cell_angle_gamma   119.78886363
_symmetry_Int_Tables_number   1
_chemical_formula_structural   Dy3Ho7(InBi2)2
_chemical_formula_sum   'Dy3 Ho7 In2 Bi4'
_cell_volume   463.45012510
_cell_formula_units_Z   1
loop_
 _symmetry_equiv_pos_site_id
 _symmetry_equiv_pos_as_xyz
  1  'x, y, z'
loop_
 _atom_site_type_symbol
 _atom_site_label
 _atom_site_symmetry_multiplicity
 _atom_site_fract_x
 _atom_site_fract_y
 _atom_site_fract_z
 _atom_site_occupancy
  Dy  Dy0  1  0.762075  0.762095  0.750000  1
  Dy  Dy1  1  0.235908  0.998453  0.750000  1
  Dy  Dy2  1  0.234110  0.234169  0.250000  1
  Ho  Ho3  1  0.668817  0.328803  0.003557  1
  Ho  Ho4  1  0.328887  0.668827  0.003571  1
  Ho  Ho5  1  0.328887  0.668827  0.496429  1
  Ho  Ho6  1  0.668817  0.328803  0.496443  1
  Ho  Ho7  1  0.998377  0.235972  0.750000  1
  Ho  Ho8  1  0.765131  0.008264  0.250000  1
  Ho  Ho9  1  0.008233  0.765063  0.250000  1
  In  In10  1  0.396063  0.001235  0.250000  1
  In  In11  1  0.001225  0.396054  0.250000  1
  Bi  Bi12  1  0.393585  0.393738  0.750000  1
  Bi  Bi13  1  0.603521  0.997095  0.750000  1
  Bi  Bi14  1  0.996951  0.603174  0.750000  1
  Bi  Bi15  1  0.609413  0.609428  0.250000  1
