# generated using pymatgen
data_Tb10Co2Br15
_symmetry_space_group_name_H-M   'P 1'
_cell_length_a   9.25113493
_cell_length_b   10.10536896
_cell_length_c   10.89212712
_cell_angle_alpha   92.19367591
_cell_angle_beta   114.20670639
_cell_angle_gamma   110.61503740
_symmetry_Int_Tables_number   1
_chemical_formula_structural   Tb10Co2Br15
_chemical_formula_sum   'Tb10 Co2 Br15'
_cell_volume   849.13166610
_cell_formula_units_Z   1
loop_
 _symmetry_equiv_pos_site_id
 _symmetry_equiv_pos_as_xyz
  1  'x, y, z'
loop_
 _atom_site_type_symbol
 _atom_site_label
 _atom_site_symmetry_multiplicity
 _atom_site_fract_x
 _atom_site_fract_y
 _atom_site_fract_z
 _atom_site_occupancy
  Tb  Tb0  1  0.798185  0.400534  0.270286  1
  Tb  Tb1  1  0.201815  0.599466  0.729714  1
  Tb  Tb2  1  0.668754  0.751374  0.822447  1
  Tb  Tb3  1  0.331246  0.248626  0.177553  1
  Tb  Tb4  1  0.527749  0.707272  0.100384  1
  Tb  Tb5  1  0.472251  0.292728  0.899616  1
  Tb  Tb6  1  0.592500  0.046416  0.335730  1
  Tb  Tb7  1  0.407500  0.953584  0.664270  1
  Tb  Tb8  1  0.730525  0.078108  0.049316  1
  Tb  Tb9  1  0.269475  0.921892  0.950684  1
  Co  Co10  1  0.467819  0.830084  0.882247  1
  Co  Co11  1  0.532181  0.169916  0.117753  1
  Br  Br12  1  0.000000  0.000000  0.000000  1
  Br  Br13  1  0.639436  0.885837  0.585142  1
  Br  Br14  1  0.360564  0.114163  0.414858  1
  Br  Br15  1  0.889161  0.306165  0.527577  1
  Br  Br16  1  0.110839  0.693835  0.472423  1
  Br  Br17  1  0.298364  0.764407  0.188605  1
  Br  Br18  1  0.701636  0.235593  0.811395  1
  Br  Br19  1  0.062841  0.341110  0.225417  1
  Br  Br20  1  0.166122  0.058889  0.696495  1
  Br  Br21  1  0.833878  0.941111  0.303505  1
  Br  Br22  1  0.243288  0.414143  0.946499  1
  Br  Br23  1  0.756712  0.585857  0.053501  1
  Br  Br24  1  0.408458  0.467134  0.669370  1
  Br  Br25  1  0.591542  0.532866  0.330630  1
  Br  Br26  1  0.937159  0.658890  0.774583  1
