# generated using pymatgen
data_SrCr4(TcS4)2
_symmetry_space_group_name_H-M   'P 1'
_cell_length_a   6.35119720
_cell_length_b   6.33120649
_cell_length_c   6.39216300
_cell_angle_alpha   88.86236375
_cell_angle_beta   89.30058265
_cell_angle_gamma   89.07969272
_symmetry_Int_Tables_number   1
_chemical_formula_structural   SrCr4(TcS4)2
_chemical_formula_sum   'Sr1 Cr4 Tc2 S8'
_cell_volume   256.93162652
_cell_formula_units_Z   1
loop_
 _symmetry_equiv_pos_site_id
 _symmetry_equiv_pos_as_xyz
  1  'x, y, z'
loop_
 _atom_site_type_symbol
 _atom_site_label
 _atom_site_symmetry_multiplicity
 _atom_site_fract_x
 _atom_site_fract_y
 _atom_site_fract_z
 _atom_site_occupancy
  Sr  Sr0  1  0.000000  0.000000  0.000000  1
  Cr  Cr1  1  0.417175  0.238603  0.561852  1
  Cr  Cr2  1  0.582825  0.761397  0.438148  1
  Cr  Cr3  1  0.239673  0.566059  0.418696  1
  Cr  Cr4  1  0.760327  0.433941  0.581304  1
  Tc  Tc5  1  0.565879  0.416846  0.232709  1
  Tc  Tc6  1  0.434121  0.583154  0.767291  1
  S  S7  1  0.242872  0.254270  0.257218  1
  S  S8  1  0.757128  0.745730  0.742782  1
  S  S9  1  0.385173  0.744246  0.131883  1
  S  S10  1  0.614827  0.255754  0.868117  1
  S  S11  1  0.733071  0.120432  0.393614  1
  S  S12  1  0.266929  0.879568  0.606386  1
  S  S13  1  0.120646  0.380726  0.724448  1
  S  S14  1  0.879354  0.619274  0.275552  1
