# generated using pymatgen
data_Zr3MnAl3Au2
_symmetry_space_group_name_H-M   'P 1'
_cell_length_a   7.40138200
_cell_length_b   7.40137991
_cell_length_c   3.39256000
_cell_angle_alpha   90.00000000
_cell_angle_beta   90.00000000
_cell_angle_gamma   120.00000040
_symmetry_Int_Tables_number   1
_chemical_formula_structural   Zr3MnAl3Au2
_chemical_formula_sum   'Zr3 Mn1 Al3 Au2'
_cell_volume   160.94729565
_cell_formula_units_Z   1
loop_
 _symmetry_equiv_pos_site_id
 _symmetry_equiv_pos_as_xyz
  1  'x, y, z'
loop_
 _atom_site_type_symbol
 _atom_site_label
 _atom_site_symmetry_multiplicity
 _atom_site_fract_x
 _atom_site_fract_y
 _atom_site_fract_z
 _atom_site_occupancy
  Zr  Zr0  1  0.413900  0.033228  0.500000  1
  Zr  Zr1  1  0.966772  0.380671  0.500000  1
  Zr  Zr2  1  0.619327  0.586100  0.500000  1
  Mn  Mn3  1  0.666666  0.333333  0.000000  1
  Al  Al4  1  0.722676  0.998504  0.000000  1
  Al  Al5  1  0.275828  0.277324  0.000000  1
  Al  Al6  1  0.001496  0.724173  0.000000  1
  Au  Au7  1  0.333333  0.666666  0.000000  1
  Au  Au8  1  0.000000  0.000000  0.500000  1
