# generated using pymatgen
data_Co2ReB2W
_symmetry_space_group_name_H-M   'P 1'
_cell_length_a   3.24778700
_cell_length_b   5.70830320
_cell_length_c   6.58011781
_cell_angle_alpha   89.25756657
_cell_angle_beta   90.00000000
_cell_angle_gamma   90.00000000
_symmetry_Int_Tables_number   1
_chemical_formula_structural   Co2ReB2W
_chemical_formula_sum   'Co4 Re2 B4 W2'
_cell_volume   121.98088487
_cell_formula_units_Z   2
loop_
 _symmetry_equiv_pos_site_id
 _symmetry_equiv_pos_as_xyz
  1  'x, y, z'
loop_
 _atom_site_type_symbol
 _atom_site_label
 _atom_site_symmetry_multiplicity
 _atom_site_fract_x
 _atom_site_fract_y
 _atom_site_fract_z
 _atom_site_occupancy
  Co  Co0  1  0.750000  0.853894  0.555847  1
  Co  Co1  1  0.250000  0.146106  0.444153  1
  Co  Co2  1  0.750000  0.355349  0.945134  1
  Co  Co3  1  0.250000  0.644651  0.054866  1
  Re  Re4  1  0.250000  0.030096  0.827955  1
  Re  Re5  1  0.750000  0.969904  0.172045  1
  B  B6  1  0.250000  0.267339  0.124311  1
  B  B7  1  0.750000  0.732661  0.875689  1
  B  B8  1  0.250000  0.773804  0.372328  1
  B  B9  1  0.750000  0.226196  0.627672  1
  W  W10  1  0.250000  0.528074  0.673149  1
  W  W11  1  0.750000  0.471926  0.326851  1
