# generated using pymatgen
data_Nd3Ho3Cr2(Co4P3)4
_symmetry_space_group_name_H-M   'P 1'
_cell_length_a   3.73002200
_cell_length_b   10.61232329
_cell_length_c   12.29562130
_cell_angle_alpha   89.97380813
_cell_angle_beta   90.00000000
_cell_angle_gamma   90.00000000
_symmetry_Int_Tables_number   1
_chemical_formula_structural   Nd3Ho3Cr2(Co4P3)4
_chemical_formula_sum   'Nd3 Ho3 Cr2 Co16 P12'
_cell_volume   486.71227400
_cell_formula_units_Z   1
loop_
 _symmetry_equiv_pos_site_id
 _symmetry_equiv_pos_as_xyz
  1  'x, y, z'
loop_
 _atom_site_type_symbol
 _atom_site_label
 _atom_site_symmetry_multiplicity
 _atom_site_fract_x
 _atom_site_fract_y
 _atom_site_fract_z
 _atom_site_occupancy
  Nd  Nd0  1  0.000000  0.500296  0.521494  1
  Nd  Nd1  1  0.500000  0.000052  0.477652  1
  Nd  Nd2  1  0.000000  0.318132  0.795467  1
  Ho  Ho3  1  0.500000  0.817963  0.204640  1
  Ho  Ho4  1  0.500000  0.181935  0.202742  1
  Ho  Ho5  1  0.000000  0.683209  0.796568  1
  Cr  Cr6  1  0.500000  0.501580  0.152780  1
  Cr  Cr7  1  0.000000  0.998041  0.848040  1
  Co  Co8  1  0.500000  0.503141  0.704308  1
  Co  Co9  1  0.000000  0.999401  0.294983  1
  Co  Co10  1  0.000000  0.502409  0.988499  1
  Co  Co11  1  0.500000  0.998040  0.014632  1
  Co  Co12  1  0.500000  0.333217  0.994866  1
  Co  Co13  1  0.500000  0.669259  0.993351  1
  Co  Co14  1  0.000000  0.165820  0.009026  1
  Co  Co15  1  0.000000  0.832099  0.008968  1
  Co  Co16  1  0.500000  0.295350  0.426498  1
  Co  Co17  1  0.500000  0.704973  0.429184  1
  Co  Co18  1  0.000000  0.203945  0.567570  1
  Co  Co19  1  0.000000  0.795573  0.570915  1
  Co  Co20  1  0.500000  0.878798  0.712207  1
  Co  Co21  1  0.500000  0.117638  0.710486  1
  Co  Co22  1  0.000000  0.620526  0.288774  1
  Co  Co23  1  0.000000  0.379801  0.286749  1
  P  P24  1  0.500000  0.503394  0.884732  1
  P  P25  1  0.000000  0.999052  0.118156  1
  P  P26  1  0.500000  0.499865  0.338177  1
  P  P27  1  0.000000  0.999484  0.661523  1
  P  P28  1  0.500000  0.307273  0.612917  1
  P  P29  1  0.500000  0.692270  0.617659  1
  P  P30  1  0.000000  0.191099  0.380232  1
  P  P31  1  0.000000  0.808493  0.382634  1
  P  P32  1  0.500000  0.847594  0.893643  1
  P  P33  1  0.500000  0.149281  0.895640  1
  P  P34  1  0.000000  0.653275  0.108182  1
  P  P35  1  0.000000  0.347721  0.106109  1
