# generated using pymatgen
data_AcAg3Pd2
_symmetry_space_group_name_H-M   'P 1'
_cell_length_a   5.59844539
_cell_length_b   5.59844697
_cell_length_c   5.59844723
_cell_angle_alpha   120.82962019
_cell_angle_beta   118.54826966
_cell_angle_gamma   90.55086382
_symmetry_Int_Tables_number   1
_chemical_formula_structural   AcAg3Pd2
_chemical_formula_sum   'Ac1 Ag3 Pd2'
_cell_volume   124.59202364
_cell_formula_units_Z   1
loop_
 _symmetry_equiv_pos_site_id
 _symmetry_equiv_pos_as_xyz
  1  'x, y, z'
loop_
 _atom_site_type_symbol
 _atom_site_label
 _atom_site_symmetry_multiplicity
 _atom_site_fract_x
 _atom_site_fract_y
 _atom_site_fract_z
 _atom_site_occupancy
  Ac  Ac0  1  0.006819  0.006819  0.000000  1
  Ag  Ag1  1  0.620995  0.372736  0.751740  1
  Ag  Ag2  1  0.620995  0.869254  0.248260  1
  Ag  Ag3  1  0.256635  0.756635  0.500000  1
  Pd  Pd4  1  0.621563  0.372278  0.249285  1
  Pd  Pd5  1  0.122992  0.372278  0.750715  1
