# generated using pymatgen
data_CaYb6Pr(Si3Pd)4
_symmetry_space_group_name_H-M   'P 1'
_cell_length_a   8.25994800
_cell_length_b   8.25994817
_cell_length_c   8.35384500
_cell_angle_alpha   90.00000000
_cell_angle_beta   90.00000000
_cell_angle_gamma   119.99999931
_symmetry_Int_Tables_number   1
_chemical_formula_structural   CaYb6Pr(Si3Pd)4
_chemical_formula_sum   'Ca1 Yb6 Pr1 Si12 Pd4'
_cell_volume   493.59605863
_cell_formula_units_Z   1
loop_
 _symmetry_equiv_pos_site_id
 _symmetry_equiv_pos_as_xyz
  1  'x, y, z'
loop_
 _atom_site_type_symbol
 _atom_site_label
 _atom_site_symmetry_multiplicity
 _atom_site_fract_x
 _atom_site_fract_y
 _atom_site_fract_z
 _atom_site_occupancy
  Ca  Ca0  1  0.000000  0.000000  0.750000  1
  Yb  Yb1  1  0.499335  0.500665  0.750000  1
  Yb  Yb2  1  0.500589  0.499411  0.250000  1
  Yb  Yb3  1  0.001331  0.500665  0.750000  1
  Yb  Yb4  1  0.998822  0.499411  0.250000  1
  Yb  Yb5  1  0.499335  0.998669  0.750000  1
  Yb  Yb6  1  0.500589  0.001178  0.250000  1
  Pr  Pr7  1  0.000000  0.000000  0.250000  1
  Si  Si8  1  0.834818  0.165182  0.998448  1
  Si  Si9  1  0.165147  0.834853  0.999534  1
  Si  Si10  1  0.330364  0.165182  0.998448  1
  Si  Si11  1  0.165147  0.834853  0.500466  1
  Si  Si12  1  0.669708  0.834853  0.999534  1
  Si  Si13  1  0.834818  0.165182  0.501552  1
  Si  Si14  1  0.834818  0.669636  0.998448  1
  Si  Si15  1  0.669708  0.834853  0.500466  1
  Si  Si16  1  0.165147  0.330292  0.999534  1
  Si  Si17  1  0.330364  0.165182  0.501552  1
  Si  Si18  1  0.165147  0.330292  0.500466  1
  Si  Si19  1  0.834818  0.669636  0.501552  1
  Pd  Pd20  1  0.666667  0.333333  0.995586  1
  Pd  Pd21  1  0.333333  0.666667  0.998610  1
  Pd  Pd22  1  0.333333  0.666667  0.501390  1
  Pd  Pd23  1  0.666667  0.333333  0.504414  1
