# generated using pymatgen
data_GdLuAs4O9
_symmetry_space_group_name_H-M   'P 1'
_cell_length_a   6.74074657
_cell_length_b   7.50237507
_cell_length_c   9.84010736
_cell_angle_alpha   94.04492075
_cell_angle_beta   103.79176326
_cell_angle_gamma   105.24967115
_symmetry_Int_Tables_number   1
_chemical_formula_structural   GdLuAs4O9
_chemical_formula_sum   'Gd2 Lu2 As8 O18'
_cell_volume   461.52716739
_cell_formula_units_Z   2
loop_
 _symmetry_equiv_pos_site_id
 _symmetry_equiv_pos_as_xyz
  1  'x, y, z'
loop_
 _atom_site_type_symbol
 _atom_site_label
 _atom_site_symmetry_multiplicity
 _atom_site_fract_x
 _atom_site_fract_y
 _atom_site_fract_z
 _atom_site_occupancy
  Gd  Gd0  1  0.241809  0.938191  0.614137  1
  Gd  Gd1  1  0.758191  0.061809  0.385863  1
  Lu  Lu2  1  0.718705  0.527030  0.409672  1
  Lu  Lu3  1  0.281295  0.472970  0.590328  1
  As  As4  1  0.682657  0.771902  0.080490  1
  As  As5  1  0.317343  0.228098  0.919510  1
  As  As6  1  0.171382  0.749992  0.913820  1
  As  As7  1  0.828618  0.250008  0.086180  1
  As  As8  1  0.741444  0.910670  0.710205  1
  As  As9  1  0.258556  0.089330  0.289795  1
  As  As10  1  0.809865  0.354631  0.700201  1
  As  As11  1  0.190135  0.645369  0.299799  1
  O  O12  1  0.718003  0.740173  0.259558  1
  O  O13  1  0.281997  0.259827  0.740442  1
  O  O14  1  0.316254  0.979899  0.870209  1
  O  O15  1  0.683746  0.020101  0.129791  1
  O  O16  1  0.607387  0.325972  0.985000  1
  O  O17  1  0.392613  0.674028  0.015000  1
  O  O18  1  0.129565  0.643208  0.740839  1
  O  O19  1  0.870435  0.356792  0.259161  1
  O  O20  1  0.844500  0.868633  0.561106  1
  O  O21  1  0.155500  0.131367  0.438894  1
  O  O22  1  0.480025  0.761598  0.666532  1
  O  O23  1  0.519975  0.238402  0.333468  1
  O  O24  1  0.375481  0.535137  0.385794  1
  O  O25  1  0.624519  0.464863  0.614206  1
  O  O26  1  0.084086  0.662241  0.452845  1
  O  O27  1  0.915914  0.337759  0.547155  1
  O  O28  1  0.373182  0.900693  0.359224  1
  O  O29  1  0.626818  0.099307  0.640776  1
