# generated using pymatgen
data_Tb3Mg2InGa2Ag
_symmetry_space_group_name_H-M   'P 1'
_cell_length_a   7.33254700
_cell_length_b   7.31218644
_cell_length_c   4.46307700
_cell_angle_alpha   90.00000000
_cell_angle_beta   90.00000000
_cell_angle_gamma   120.09214779
_symmetry_Int_Tables_number   1
_chemical_formula_structural   Tb3Mg2InGa2Ag
_chemical_formula_sum   'Tb3 Mg2 In1 Ga2 Ag1'
_cell_volume   207.04422098
_cell_formula_units_Z   1
loop_
 _symmetry_equiv_pos_site_id
 _symmetry_equiv_pos_as_xyz
  1  'x, y, z'
loop_
 _atom_site_type_symbol
 _atom_site_label
 _atom_site_symmetry_multiplicity
 _atom_site_fract_x
 _atom_site_fract_y
 _atom_site_fract_z
 _atom_site_occupancy
  Tb  Tb0  1  0.575602  0.000000  0.000000  1
  Tb  Tb1  1  0.999514  0.578467  0.000000  1
  Tb  Tb2  1  0.421048  0.421533  0.000000  1
  Mg  Mg3  1  0.999627  0.244306  0.500000  1
  Mg  Mg4  1  0.755321  0.755694  0.500000  1
  In  In5  1  0.248980  0.000000  0.500000  1
  Ga  Ga6  1  0.334612  0.663817  0.500000  1
  Ga  Ga7  1  0.670796  0.336183  0.500000  1
  Ag  Ag8  1  0.994501  0.000000  0.000000  1
