# generated using pymatgen
data_La15PrCd4Co3Os
_symmetry_space_group_name_H-M   'P 1'
_cell_length_a   10.06122093
_cell_length_b   9.99960495
_cell_length_c   9.96078500
_cell_angle_alpha   60.12834085
_cell_angle_beta   60.32967526
_cell_angle_gamma   60.02126573
_symmetry_Int_Tables_number   1
_chemical_formula_structural   La15PrCd4Co3Os
_chemical_formula_sum   'La15 Pr1 Cd4 Co3 Os1'
_cell_volume   711.17142013
_cell_formula_units_Z   1
loop_
 _symmetry_equiv_pos_site_id
 _symmetry_equiv_pos_as_xyz
  1  'x, y, z'
loop_
 _atom_site_type_symbol
 _atom_site_label
 _atom_site_symmetry_multiplicity
 _atom_site_fract_x
 _atom_site_fract_y
 _atom_site_fract_z
 _atom_site_occupancy
  La  La0  1  0.558402  0.940480  0.561724  1
  La  La1  1  0.558402  0.940480  0.939395  1
  La  La2  1  0.683162  0.693337  0.311750  1
  La  La3  1  0.159013  0.152885  0.534250  1
  La  La4  1  0.306063  0.691496  0.690664  1
  La  La5  1  0.159013  0.152885  0.153850  1
  La  La6  1  0.539208  0.154061  0.153365  1
  La  La7  1  0.306063  0.691496  0.311778  1
  La  La8  1  0.308293  0.313263  0.689222  1
  La  La9  1  0.684640  0.311529  0.693201  1
  La  La10  1  0.937010  0.557148  0.558446  1
  La  La11  1  0.558648  0.559816  0.940769  1
  La  La12  1  0.161183  0.535735  0.151541  1
  La  La13  1  0.684640  0.311529  0.310630  1
  La  La14  1  0.937010  0.557148  0.947395  1
  Pr  Pr15  1  0.934016  0.943665  0.561159  1
  Cd  Cd16  1  0.237961  0.920294  0.920872  1
  Cd  Cd17  1  0.921420  0.921861  0.919948  1
  Cd  Cd18  1  0.921420  0.921861  0.236768  1
  Cd  Cd19  1  0.921802  0.237010  0.920593  1
  Co  Co20  1  0.368400  0.355466  0.917186  1
  Co  Co21  1  0.366322  0.917721  0.357978  1
  Co  Co22  1  0.368400  0.355466  0.358946  1
  Os  Os23  1  0.919500  0.363366  0.358567  1
