# generated using pymatgen
data_YAl2GaAg
_symmetry_space_group_name_H-M   'P 1'
_cell_length_a   6.59030396
_cell_length_b   6.59030342
_cell_length_c   6.59030331
_cell_angle_alpha   143.52037491
_cell_angle_beta   143.52036652
_cell_angle_gamma   52.54511358
_symmetry_Int_Tables_number   1
_chemical_formula_structural   YAl2GaAg
_chemical_formula_sum   'Y1 Al2 Ga1 Ag1'
_cell_volume   100.57671526
_cell_formula_units_Z   1
loop_
 _symmetry_equiv_pos_site_id
 _symmetry_equiv_pos_as_xyz
  1  'x, y, z'
loop_
 _atom_site_type_symbol
 _atom_site_label
 _atom_site_symmetry_multiplicity
 _atom_site_fract_x
 _atom_site_fract_y
 _atom_site_fract_z
 _atom_site_occupancy
  Y  Y0  1  0.013167  0.013167  0.000000  1
  Al  Al1  1  0.747349  0.247349  0.500000  1
  Al  Al2  1  0.247349  0.747349  0.500000  1
  Ga  Ga3  1  0.605413  0.605413  0.000000  1
  Ag  Ag4  1  0.386722  0.386722  0.000000  1
