# generated using pymatgen
data_Er6Lu4CuSiPb6
_symmetry_space_group_name_H-M   'P 1'
_cell_length_a   9.12767600
_cell_length_b   9.12767575
_cell_length_c   6.59751500
_cell_angle_alpha   90.00000000
_cell_angle_beta   90.00000000
_cell_angle_gamma   120.00000092
_symmetry_Int_Tables_number   1
_chemical_formula_structural   Er6Lu4CuSiPb6
_chemical_formula_sum   'Er6 Lu4 Cu1 Si1 Pb6'
_cell_volume   476.02683235
_cell_formula_units_Z   1
loop_
 _symmetry_equiv_pos_site_id
 _symmetry_equiv_pos_as_xyz
  1  'x, y, z'
loop_
 _atom_site_type_symbol
 _atom_site_label
 _atom_site_symmetry_multiplicity
 _atom_site_fract_x
 _atom_site_fract_y
 _atom_site_fract_z
 _atom_site_occupancy
  Er  Er0  1  0.251065  0.000000  0.740007  1
  Er  Er1  1  0.748935  0.000000  0.259993  1
  Er  Er2  1  0.000000  0.251065  0.740007  1
  Er  Er3  1  0.000000  0.748935  0.259993  1
  Er  Er4  1  0.748935  0.748935  0.740007  1
  Er  Er5  1  0.251065  0.251065  0.259993  1
  Lu  Lu6  1  0.333333  0.666667  0.500000  1
  Lu  Lu7  1  0.666667  0.333333  0.500000  1
  Lu  Lu8  1  0.666667  0.333333  0.000000  1
  Lu  Lu9  1  0.333333  0.666667  0.000000  1
  Cu  Cu10  1  0.000000  0.000000  0.000000  1
  Si  Si11  1  0.000000  0.000000  0.500000  1
  Pb  Pb12  1  0.607362  0.000000  0.750682  1
  Pb  Pb13  1  0.392638  0.000000  0.249318  1
  Pb  Pb14  1  0.000000  0.607362  0.750682  1
  Pb  Pb15  1  0.000000  0.392638  0.249318  1
  Pb  Pb16  1  0.392638  0.392638  0.750682  1
  Pb  Pb17  1  0.607362  0.607362  0.249318  1
