# generated using pymatgen
data_Tb2Mn4Co4Ni4P7
_symmetry_space_group_name_H-M   'P 1'
_cell_length_a   9.07894948
_cell_length_b   9.08227194
_cell_length_c   3.65284400
_cell_angle_alpha   90.00000000
_cell_angle_beta   90.00000000
_cell_angle_gamma   119.89068988
_symmetry_Int_Tables_number   1
_chemical_formula_structural   Tb2Mn4Co4Ni4P7
_chemical_formula_sum   'Tb2 Mn4 Co4 Ni4 P7'
_cell_volume   261.13745797
_cell_formula_units_Z   1
loop_
 _symmetry_equiv_pos_site_id
 _symmetry_equiv_pos_as_xyz
  1  'x, y, z'
loop_
 _atom_site_type_symbol
 _atom_site_label
 _atom_site_symmetry_multiplicity
 _atom_site_fract_x
 _atom_site_fract_y
 _atom_site_fract_z
 _atom_site_occupancy
  Tb  Tb0  1  0.667859  0.335393  0.000000  1
  Tb  Tb1  1  0.332132  0.666194  0.500000  1
  Mn  Mn2  1  0.880069  0.154304  0.000000  1
  Mn  Mn3  1  0.096366  0.876547  0.500000  1
  Mn  Mn4  1  0.783970  0.901149  0.500000  1
  Mn  Mn5  1  0.122257  0.219474  0.500000  1
  Co  Co6  1  0.277607  0.120630  0.000000  1
  Co  Co7  1  0.842120  0.723579  0.000000  1
  Co  Co8  1  0.613380  0.564170  0.500000  1
  Co  Co9  1  0.951619  0.387748  0.500000  1
  Ni  Ni10  1  0.059950  0.628524  0.000000  1
  Ni  Ni11  1  0.565316  0.935736  0.000000  1
  Ni  Ni12  1  0.369313  0.432033  0.000000  1
  Ni  Ni13  1  0.438351  0.051751  0.500000  1
  P  P14  1  0.294588  0.888673  0.000000  1
  P  P15  1  0.590844  0.698621  0.000000  1
  P  P16  1  0.107415  0.407096  0.000000  1
  P  P17  1  0.402350  0.288714  0.500000  1
  P  P18  1  0.883728  0.597715  0.500000  1
  P  P19  1  0.718349  0.122383  0.500000  1
  P  P20  1  0.002418  0.999568  0.000000  1
