# generated using pymatgen
data_Zr6Si7Ni9Ir4Rh3
_symmetry_space_group_name_H-M   'P 1'
_cell_length_a   8.34812495
_cell_length_b   8.32760506
_cell_length_c   8.33493049
_cell_angle_alpha   60.06716643
_cell_angle_beta   60.00037352
_cell_angle_gamma   59.98638107
_symmetry_Int_Tables_number   1
_chemical_formula_structural   Zr6Si7Ni9Ir4Rh3
_chemical_formula_sum   'Zr6 Si7 Ni9 Ir4 Rh3'
_cell_volume   409.89486241
_cell_formula_units_Z   1
loop_
 _symmetry_equiv_pos_site_id
 _symmetry_equiv_pos_as_xyz
  1  'x, y, z'
loop_
 _atom_site_type_symbol
 _atom_site_label
 _atom_site_symmetry_multiplicity
 _atom_site_fract_x
 _atom_site_fract_y
 _atom_site_fract_z
 _atom_site_occupancy
  Zr  Zr0  1  0.796928  0.204178  0.796410  1
  Zr  Zr1  1  0.797023  0.796530  0.203590  1
  Zr  Zr2  1  0.207578  0.793664  0.794061  1
  Zr  Zr3  1  0.206197  0.202136  0.795427  1
  Zr  Zr4  1  0.797115  0.202962  0.202521  1
  Zr  Zr5  1  0.206333  0.795842  0.200970  1
  Si  Si6  1  0.993696  0.504568  0.992065  1
  Si  Si7  1  0.501539  0.507156  0.506813  1
  Si  Si8  1  0.505888  0.498771  0.991940  1
  Si  Si9  1  0.505666  0.992151  0.498934  1
  Si  Si10  1  0.987677  0.506469  0.506674  1
  Si  Si11  1  0.993624  0.992168  0.505286  1
  Si  Si12  1  0.505281  0.998365  0.998301  1
  Ni  Ni13  1  0.827743  0.831773  0.833004  1
  Ni  Ni14  1  0.849637  0.385659  0.386213  1
  Ni  Ni15  1  0.390180  0.381249  0.852877  1
  Ni  Ni16  1  0.390561  0.853641  0.381262  1
  Ni  Ni17  1  0.509040  0.828914  0.829277  1
  Ni  Ni18  1  0.619888  0.620050  0.618774  1
  Ni  Ni19  1  0.824718  0.831268  0.507295  1
  Ni  Ni20  1  0.501591  0.164053  0.164668  1
  Ni  Ni21  1  0.824355  0.508122  0.831205  1
  Ir  Ir22  1  0.160700  0.508144  0.162098  1
  Ir  Ir23  1  0.160995  0.161403  0.508927  1
  Ir  Ir24  1  0.141135  0.620944  0.619701  1
  Ir  Ir25  1  0.621435  0.145233  0.621906  1
  Rh  Rh26  1  0.162828  0.163787  0.164812  1
  Rh  Rh27  1  0.620655  0.621723  0.146782  1
  Rh  Rh28  1  0.389997  0.379075  0.378202  1
