# generated using pymatgen
data_YTiReB6
_symmetry_space_group_name_H-M   'P 1'
_cell_length_a   3.53810500
_cell_length_b   8.88459500
_cell_length_c   11.27719900
_cell_angle_alpha   90.00000000
_cell_angle_beta   90.00000000
_cell_angle_gamma   90.00000000
_symmetry_Int_Tables_number   1
_chemical_formula_structural   YTiReB6
_chemical_formula_sum   'Y4 Ti4 Re4 B24'
_cell_volume   354.49457792
_cell_formula_units_Z   4
loop_
 _symmetry_equiv_pos_site_id
 _symmetry_equiv_pos_as_xyz
  1  'x, y, z'
loop_
 _atom_site_type_symbol
 _atom_site_label
 _atom_site_symmetry_multiplicity
 _atom_site_fract_x
 _atom_site_fract_y
 _atom_site_fract_z
 _atom_site_occupancy
  Y  Y0  1  0.000000  0.319510  0.413826  1
  Y  Y1  1  0.000000  0.680490  0.586174  1
  Y  Y2  1  0.000000  0.819510  0.086174  1
  Y  Y3  1  0.000000  0.180490  0.913826  1
  Ti  Ti4  1  0.000000  0.945378  0.373937  1
  Ti  Ti5  1  0.000000  0.054622  0.626063  1
  Ti  Ti6  1  0.000000  0.445378  0.126063  1
  Ti  Ti7  1  0.000000  0.554622  0.873937  1
  Re  Re8  1  0.000000  0.642651  0.316243  1
  Re  Re9  1  0.000000  0.357349  0.683757  1
  Re  Re10  1  0.000000  0.142651  0.183757  1
  Re  Re11  1  0.000000  0.857349  0.816243  1
  B  B12  1  0.500000  0.554465  0.432898  1
  B  B13  1  0.500000  0.445535  0.567102  1
  B  B14  1  0.500000  0.054465  0.067102  1
  B  B15  1  0.500000  0.945535  0.932898  1
  B  B16  1  0.500000  0.756870  0.417991  1
  B  B17  1  0.500000  0.243130  0.582009  1
  B  B18  1  0.500000  0.256870  0.082009  1
  B  B19  1  0.500000  0.743130  0.917991  1
  B  B20  1  0.500000  0.796852  0.264763  1
  B  B21  1  0.500000  0.203148  0.735237  1
  B  B22  1  0.500000  0.296852  0.235237  1
  B  B23  1  0.500000  0.703148  0.764763  1
  B  B24  1  0.500000  0.627683  0.181293  1
  B  B25  1  0.500000  0.372317  0.818707  1
  B  B26  1  0.500000  0.127683  0.318707  1
  B  B27  1  0.500000  0.872317  0.681293  1
  B  B28  1  0.500000  0.980895  0.214580  1
  B  B29  1  0.500000  0.019105  0.785420  1
  B  B30  1  0.500000  0.480895  0.285420  1
  B  B31  1  0.500000  0.519105  0.714580  1
  B  B32  1  0.500000  0.596117  0.025749  1
  B  B33  1  0.500000  0.403883  0.974251  1
  B  B34  1  0.500000  0.096117  0.474251  1
  B  B35  1  0.500000  0.903883  0.525749  1
