# generated using pymatgen
data_RbPaI6
_symmetry_space_group_name_H-M   'P 1'
_cell_length_a   8.82707878
_cell_length_b   8.82707646
_cell_length_c   15.09877104
_cell_angle_alpha   83.90769751
_cell_angle_beta   83.90770646
_cell_angle_gamma   120.46244800
_symmetry_Int_Tables_number   1
_chemical_formula_structural   RbPaI6
_chemical_formula_sum   'Rb2 Pa2 I12'
_cell_volume   990.62143110
_cell_formula_units_Z   2
loop_
 _symmetry_equiv_pos_site_id
 _symmetry_equiv_pos_as_xyz
  1  'x, y, z'
loop_
 _atom_site_type_symbol
 _atom_site_label
 _atom_site_symmetry_multiplicity
 _atom_site_fract_x
 _atom_site_fract_y
 _atom_site_fract_z
 _atom_site_occupancy
  Rb  Rb0  1  0.170947  0.336507  0.995304  1
  Rb  Rb1  1  0.336507  0.170947  0.495304  1
  Pa  Pa2  1  0.666694  0.840902  0.499706  1
  Pa  Pa3  1  0.840902  0.666694  0.999706  1
  I  I4  1  0.620343  0.726773  0.883304  1
  I  I5  1  0.726773  0.620343  0.383304  1
  I  I6  1  0.873307  0.438321  0.878020  1
  I  I7  1  0.622741  0.064579  0.620639  1
  I  I8  1  0.438321  0.873307  0.378020  1
  I  I9  1  0.976928  0.172032  0.386567  1
  I  I10  1  0.172032  0.976928  0.886567  1
  I  I11  1  0.891566  0.790565  0.616651  1
  I  I12  1  0.064579  0.622741  0.120639  1
  I  I13  1  0.524174  0.343620  0.114408  1
  I  I14  1  0.343620  0.524174  0.614408  1
  I  I15  1  0.790565  0.891566  0.116651  1
