# generated using pymatgen
data_Sc3Al3Cu2Ge
_symmetry_space_group_name_H-M   'P 1'
_cell_length_a   6.67090300
_cell_length_b   6.67090321
_cell_length_c   4.02123800
_cell_angle_alpha   90.00000000
_cell_angle_beta   90.00000000
_cell_angle_gamma   119.99999398
_symmetry_Int_Tables_number   1
_chemical_formula_structural   Sc3Al3Cu2Ge
_chemical_formula_sum   'Sc3 Al3 Cu2 Ge1'
_cell_volume   154.97430641
_cell_formula_units_Z   1
loop_
 _symmetry_equiv_pos_site_id
 _symmetry_equiv_pos_as_xyz
  1  'x, y, z'
loop_
 _atom_site_type_symbol
 _atom_site_label
 _atom_site_symmetry_multiplicity
 _atom_site_fract_x
 _atom_site_fract_y
 _atom_site_fract_z
 _atom_site_occupancy
  Sc  Sc0  1  0.422541  0.005644  0.500000  1
  Sc  Sc1  1  0.994356  0.416899  0.500000  1
  Sc  Sc2  1  0.583101  0.577459  0.500000  1
  Al  Al3  1  0.766233  0.016208  0.000000  1
  Al  Al4  1  0.983792  0.750025  0.000000  1
  Al  Al5  1  0.249975  0.233767  0.000000  1
  Cu  Cu6  1  0.666667  0.333333  0.000000  1
  Cu  Cu7  1  0.000000  0.000000  0.500000  1
  Ge  Ge8  1  0.333333  0.666667  0.000000  1
