# generated using pymatgen
data_CeYHo3Ga2Ru3
_symmetry_space_group_name_H-M   'P 1'
_cell_length_a   8.37962032
_cell_length_b   8.29001166
_cell_length_c   8.26011400
_cell_angle_alpha   110.06974823
_cell_angle_beta   109.33756700
_cell_angle_gamma   110.15622658
_symmetry_Int_Tables_number   1
_chemical_formula_structural   CeYHo3Ga2Ru3
_chemical_formula_sum   'Ce2 Y2 Ho6 Ga4 Ru6'
_cell_volume   435.31532787
_cell_formula_units_Z   2
loop_
 _symmetry_equiv_pos_site_id
 _symmetry_equiv_pos_as_xyz
  1  'x, y, z'
loop_
 _atom_site_type_symbol
 _atom_site_label
 _atom_site_symmetry_multiplicity
 _atom_site_fract_x
 _atom_site_fract_y
 _atom_site_fract_z
 _atom_site_occupancy
  Ce  Ce0  1  0.944396  0.251357  0.196702  1
  Ce  Ce1  1  0.198941  0.943286  0.251410  1
  Y  Y2  1  0.500733  0.992662  0.724127  1
  Y  Y3  1  0.253115  0.191131  0.934972  1
  Ho  Ho4  1  0.777250  0.780801  0.773971  1
  Ho  Ho5  1  0.315473  0.564798  0.755048  1
  Ho  Ho6  1  0.750976  0.315032  0.566884  1
  Ho  Ho7  1  0.566680  0.748778  0.312342  1
  Ho  Ho8  1  0.725978  0.504090  0.999138  1
  Ho  Ho9  1  0.999611  0.724527  0.505665  1
  Ga  Ga10  1  0.418044  0.413351  0.410540  1
  Ga  Ga11  1  0.091703  0.491674  0.995313  1
  Ga  Ga12  1  0.998207  0.090446  0.501463  1
  Ga  Ga13  1  0.502473  0.009513  0.095928  1
  Ru  Ru14  1  0.863075  0.112286  0.738629  1
  Ru  Ru15  1  0.752669  0.896679  0.117298  1
  Ru  Ru16  1  0.122293  0.761528  0.901417  1
  Ru  Ru17  1  0.223535  0.594307  0.366137  1
  Ru  Ru18  1  0.362861  0.224696  0.599948  1
  Ru  Ru19  1  0.631984  0.389056  0.253065  1
