# generated using pymatgen
data_TbNd2Pa(InPd2)2
_symmetry_space_group_name_H-M   'P 1'
_cell_length_a   7.85791536
_cell_length_b   7.91819071
_cell_length_c   3.75887100
_cell_angle_alpha   90.00000000
_cell_angle_beta   90.00000000
_cell_angle_gamma   91.57560437
_symmetry_Int_Tables_number   1
_chemical_formula_structural   TbNd2Pa(InPd2)2
_chemical_formula_sum   'Tb1 Nd2 Pa1 In2 Pd4'
_cell_volume   233.79030257
_cell_formula_units_Z   1
loop_
 _symmetry_equiv_pos_site_id
 _symmetry_equiv_pos_as_xyz
  1  'x, y, z'
loop_
 _atom_site_type_symbol
 _atom_site_label
 _atom_site_symmetry_multiplicity
 _atom_site_fract_x
 _atom_site_fract_y
 _atom_site_fract_z
 _atom_site_occupancy
  Tb  Tb0  1  0.824328  0.673153  0.500000  1
  Nd  Nd1  1  0.171951  0.324018  0.500000  1
  Nd  Nd2  1  0.678442  0.176657  0.500000  1
  Pa  Pa3  1  0.330658  0.828434  0.500000  1
  In  In4  1  0.995918  0.992489  0.000000  1
  In  In5  1  0.499747  0.500949  0.000000  1
  Pd  Pd6  1  0.366001  0.108315  0.000000  1
  Pd  Pd7  1  0.877521  0.389000  0.000000  1
  Pd  Pd8  1  0.140144  0.645467  0.000000  1
  Pd  Pd9  1  0.615288  0.861517  0.000000  1
