# generated using pymatgen
data_YbPrCuPt3
_symmetry_space_group_name_H-M   'P 1'
_cell_length_a   5.55703205
_cell_length_b   5.55703199
_cell_length_c   5.30339767
_cell_angle_alpha   58.40495342
_cell_angle_beta   58.40495107
_cell_angle_gamma   60.00000838
_symmetry_Int_Tables_number   1
_chemical_formula_structural   YbPrCuPt3
_chemical_formula_sum   'Yb1 Pr1 Cu1 Pt3'
_cell_volume   112.93343751
_cell_formula_units_Z   1
loop_
 _symmetry_equiv_pos_site_id
 _symmetry_equiv_pos_as_xyz
  1  'x, y, z'
loop_
 _atom_site_type_symbol
 _atom_site_label
 _atom_site_symmetry_multiplicity
 _atom_site_fract_x
 _atom_site_fract_y
 _atom_site_fract_z
 _atom_site_occupancy
  Yb  Yb0  1  0.253426  0.253426  0.239723  1
  Pr  Pr1  1  0.001370  0.001370  0.995889  1
  Cu  Cu2  1  0.623114  0.623114  0.130656  1
  Pt  Pt3  1  0.623278  0.125532  0.627910  1
  Pt  Pt4  1  0.125532  0.623278  0.627910  1
  Pt  Pt5  1  0.623278  0.623278  0.627910  1
