# generated using pymatgen
data_HfPbBr6
_symmetry_space_group_name_H-M   'P 1'
_cell_length_a   7.97187001
_cell_length_b   7.97186956
_cell_length_c   7.97187146
_cell_angle_alpha   55.51594400
_cell_angle_beta   55.51593846
_cell_angle_gamma   55.51593820
_symmetry_Int_Tables_number   1
_chemical_formula_structural   HfPbBr6
_chemical_formula_sum   'Hf1 Pb1 Br6'
_cell_volume   320.93934169
_cell_formula_units_Z   1
loop_
 _symmetry_equiv_pos_site_id
 _symmetry_equiv_pos_as_xyz
  1  'x, y, z'
loop_
 _atom_site_type_symbol
 _atom_site_label
 _atom_site_symmetry_multiplicity
 _atom_site_fract_x
 _atom_site_fract_y
 _atom_site_fract_z
 _atom_site_occupancy
  Hf  Hf0  1  0.666874  0.666874  0.666874  1
  Pb  Pb1  1  0.333542  0.333542  0.333542  1
  Br  Br2  1  0.032335  0.457309  0.739079  1
  Br  Br3  1  0.306833  0.881140  0.582887  1
  Br  Br4  1  0.457309  0.739079  0.032335  1
  Br  Br5  1  0.582887  0.306833  0.881140  1
  Br  Br6  1  0.739079  0.032335  0.457309  1
  Br  Br7  1  0.881140  0.582887  0.306833  1
