# generated using pymatgen
data_U2FeSi2Ni
_symmetry_space_group_name_H-M   'P 1'
_cell_length_a   3.88593600
_cell_length_b   6.62146657
_cell_length_c   7.27566537
_cell_angle_alpha   91.17339271
_cell_angle_beta   90.00000000
_cell_angle_gamma   90.00000000
_symmetry_Int_Tables_number   1
_chemical_formula_structural   U2FeSi2Ni
_chemical_formula_sum   'U4 Fe2 Si4 Ni2'
_cell_volume   187.16794412
_cell_formula_units_Z   2
loop_
 _symmetry_equiv_pos_site_id
 _symmetry_equiv_pos_as_xyz
  1  'x, y, z'
loop_
 _atom_site_type_symbol
 _atom_site_label
 _atom_site_symmetry_multiplicity
 _atom_site_fract_x
 _atom_site_fract_y
 _atom_site_fract_z
 _atom_site_occupancy
  U  U0  1  0.250000  0.864449  0.508502  1
  U  U1  1  0.750000  0.135551  0.491498  1
  U  U2  1  0.750000  0.345716  0.991136  1
  U  U3  1  0.250000  0.654284  0.008864  1
  Fe  Fe4  1  0.750000  0.939144  0.124378  1
  Fe  Fe5  1  0.250000  0.060856  0.875622  1
  Si  Si6  1  0.250000  0.373141  0.695475  1
  Si  Si7  1  0.750000  0.626859  0.304525  1
  Si  Si8  1  0.750000  0.883581  0.804356  1
  Si  Si9  1  0.250000  0.116419  0.195644  1
  Ni  Ni10  1  0.250000  0.440088  0.370778  1
  Ni  Ni11  1  0.750000  0.559912  0.629222  1
