# generated using pymatgen
data_SmDy9(Cd2Pt)4
_symmetry_space_group_name_H-M   'P 1'
_cell_length_a   3.67592100
_cell_length_b   7.97708246
_cell_length_c   18.42012928
_cell_angle_alpha   89.87890118
_cell_angle_beta   90.00000000
_cell_angle_gamma   90.00000000
_symmetry_Int_Tables_number   1
_chemical_formula_structural   SmDy9(Cd2Pt)4
_chemical_formula_sum   'Sm1 Dy9 Cd8 Pt4'
_cell_volume   540.13454551
_cell_formula_units_Z   1
loop_
 _symmetry_equiv_pos_site_id
 _symmetry_equiv_pos_as_xyz
  1  'x, y, z'
loop_
 _atom_site_type_symbol
 _atom_site_label
 _atom_site_symmetry_multiplicity
 _atom_site_fract_x
 _atom_site_fract_y
 _atom_site_fract_z
 _atom_site_occupancy
  Sm  Sm0  1  0.000000  0.000000  0.000000  1
  Dy  Dy1  1  0.000000  0.114434  0.413921  1
  Dy  Dy2  1  0.000000  0.885566  0.586079  1
  Dy  Dy3  1  0.000000  0.385362  0.913930  1
  Dy  Dy4  1  0.000000  0.614638  0.086070  1
  Dy  Dy5  1  0.000000  0.243316  0.219447  1
  Dy  Dy6  1  0.000000  0.756684  0.780553  1
  Dy  Dy7  1  0.000000  0.256695  0.719383  1
  Dy  Dy8  1  0.000000  0.743305  0.280617  1
  Dy  Dy9  1  0.000000  0.500000  0.500000  1
  Cd  Cd10  1  0.500000  0.429083  0.353148  1
  Cd  Cd11  1  0.500000  0.570917  0.646852  1
  Cd  Cd12  1  0.500000  0.071285  0.852369  1
  Cd  Cd13  1  0.500000  0.928715  0.147631  1
  Cd  Cd14  1  0.500000  0.289011  0.066975  1
  Cd  Cd15  1  0.500000  0.710989  0.933025  1
  Cd  Cd16  1  0.500000  0.212872  0.566481  1
  Cd  Cd17  1  0.500000  0.787128  0.433519  1
  Pt  Pt18  1  0.500000  0.027878  0.303779  1
  Pt  Pt19  1  0.500000  0.972122  0.696221  1
  Pt  Pt20  1  0.500000  0.472368  0.803710  1
  Pt  Pt21  1  0.500000  0.527632  0.196290  1
