# generated using pymatgen
data_TmLu11In2Tc3
_symmetry_space_group_name_H-M   'P 1'
_cell_length_a   8.30644703
_cell_length_b   8.30644810
_cell_length_c   8.31263736
_cell_angle_alpha   108.79905903
_cell_angle_beta   108.79905523
_cell_angle_gamma   110.79463585
_symmetry_Int_Tables_number   1
_chemical_formula_structural   TmLu11In2Tc3
_chemical_formula_sum   'Tm1 Lu11 In2 Tc3'
_cell_volume   441.49640131
_cell_formula_units_Z   1
loop_
 _symmetry_equiv_pos_site_id
 _symmetry_equiv_pos_as_xyz
  1  'x, y, z'
loop_
 _atom_site_type_symbol
 _atom_site_label
 _atom_site_symmetry_multiplicity
 _atom_site_fract_x
 _atom_site_fract_y
 _atom_site_fract_z
 _atom_site_occupancy
  Tm  Tm0  1  0.305268  0.305268  0.610538  1
  Lu  Lu1  1  0.694166  0.694166  0.388331  1
  Lu  Lu2  1  0.694370  0.306059  0.000430  1
  Lu  Lu3  1  0.306059  0.694370  0.000430  1
  Lu  Lu4  1  0.189244  0.428289  0.238361  1
  Lu  Lu5  1  0.811252  0.572068  0.761340  1
  Lu  Lu6  1  0.189271  0.950087  0.761340  1
  Lu  Lu7  1  0.950087  0.189271  0.761340  1
  Lu  Lu8  1  0.810072  0.049118  0.238361  1
  Lu  Lu9  1  0.049118  0.810072  0.238361  1
  Lu  Lu10  1  0.428289  0.189244  0.238361  1
  Lu  Lu11  1  0.572068  0.811252  0.761340  1
  In  In12  1  0.000619  0.499637  0.500256  1
  In  In13  1  0.499637  0.000619  0.500256  1
  Tc  Tc14  1  0.370143  0.370143  0.000250  1
  Tc  Tc15  1  0.630108  0.630108  0.000250  1
  Tc  Tc16  1  0.000229  0.000229  0.000459  1
