# generated using pymatgen
data_Sm2PPd14
_symmetry_space_group_name_H-M   'P 1'
_cell_length_a   8.94987200
_cell_length_b   8.94987200
_cell_length_c   7.11504600
_cell_angle_alpha   90.00000000
_cell_angle_beta   90.00000000
_cell_angle_gamma   90.00000000
_symmetry_Int_Tables_number   1
_chemical_formula_structural   Sm2PPd14
_chemical_formula_sum   'Sm4 P2 Pd28'
_cell_volume   569.91667034
_cell_formula_units_Z   2
loop_
 _symmetry_equiv_pos_site_id
 _symmetry_equiv_pos_as_xyz
  1  'x, y, z'
loop_
 _atom_site_type_symbol
 _atom_site_label
 _atom_site_symmetry_multiplicity
 _atom_site_fract_x
 _atom_site_fract_y
 _atom_site_fract_z
 _atom_site_occupancy
  Sm  Sm0  1  0.500000  0.000000  0.934602  1
  Sm  Sm1  1  0.000000  0.500000  0.065398  1
  Sm  Sm2  1  0.000000  0.000000  0.500000  1
  Sm  Sm3  1  0.500000  0.500000  0.500000  1
  P  P4  1  0.500000  0.000000  0.449385  1
  P  P5  1  0.000000  0.500000  0.550615  1
  Pd  Pd6  1  0.336413  0.836413  0.613963  1
  Pd  Pd7  1  0.336413  0.163587  0.613963  1
  Pd  Pd8  1  0.663587  0.836413  0.613963  1
  Pd  Pd9  1  0.663587  0.163587  0.613963  1
  Pd  Pd10  1  0.163587  0.663587  0.386037  1
  Pd  Pd11  1  0.163587  0.336413  0.386037  1
  Pd  Pd12  1  0.836413  0.663587  0.386037  1
  Pd  Pd13  1  0.836413  0.336413  0.386037  1
  Pd  Pd14  1  0.500000  0.771756  0.258115  1
  Pd  Pd15  1  0.500000  0.228244  0.258115  1
  Pd  Pd16  1  0.271756  0.000000  0.258115  1
  Pd  Pd17  1  0.728244  0.000000  0.258115  1
  Pd  Pd18  1  0.000000  0.728244  0.741885  1
  Pd  Pd19  1  0.000000  0.271756  0.741885  1
  Pd  Pd20  1  0.228244  0.500000  0.741885  1
  Pd  Pd21  1  0.771756  0.500000  0.741885  1
  Pd  Pd22  1  0.500000  0.348729  0.854347  1
  Pd  Pd23  1  0.500000  0.651271  0.854347  1
  Pd  Pd24  1  0.848729  0.000000  0.854347  1
  Pd  Pd25  1  0.151271  0.000000  0.854347  1
  Pd  Pd26  1  0.000000  0.151271  0.145653  1
  Pd  Pd27  1  0.000000  0.848729  0.145653  1
  Pd  Pd28  1  0.651271  0.500000  0.145653  1
  Pd  Pd29  1  0.348729  0.500000  0.145653  1
  Pd  Pd30  1  0.250000  0.750000  0.000000  1
  Pd  Pd31  1  0.250000  0.250000  0.000000  1
  Pd  Pd32  1  0.750000  0.750000  0.000000  1
  Pd  Pd33  1  0.750000  0.250000  0.000000  1
