# generated using pymatgen
data_Tb3Dy3Zr4(Sn3O)2
_symmetry_space_group_name_H-M   'P 1'
_cell_length_a   8.78325900
_cell_length_b   8.78278358
_cell_length_c   6.04769900
_cell_angle_alpha   90.00000000
_cell_angle_beta   90.00000000
_cell_angle_gamma   119.99929149
_symmetry_Int_Tables_number   1
_chemical_formula_structural   Tb3Dy3Zr4(Sn3O)2
_chemical_formula_sum   'Tb3 Dy3 Zr4 Sn6 O2'
_cell_volume   404.02828546
_cell_formula_units_Z   1
loop_
 _symmetry_equiv_pos_site_id
 _symmetry_equiv_pos_as_xyz
  1  'x, y, z'
loop_
 _atom_site_type_symbol
 _atom_site_label
 _atom_site_symmetry_multiplicity
 _atom_site_fract_x
 _atom_site_fract_y
 _atom_site_fract_z
 _atom_site_occupancy
  Tb  Tb0  1  0.227222  0.000051  0.250000  1
  Tb  Tb1  1  0.772764  0.772726  0.250000  1
  Tb  Tb2  1  0.772823  0.000074  0.750000  1
  Dy  Dy3  1  0.000026  0.773178  0.750000  1
  Dy  Dy4  1  0.000050  0.226857  0.250000  1
  Dy  Dy5  1  0.226775  0.226791  0.750000  1
  Zr  Zr6  1  0.333289  0.666623  0.000023  1
  Zr  Zr7  1  0.333289  0.666623  0.499977  1
  Zr  Zr8  1  0.666655  0.333323  0.000023  1
  Zr  Zr9  1  0.666655  0.333323  0.499977  1
  Sn  Sn10  1  0.999957  0.593411  0.250000  1
  Sn  Sn11  1  0.000150  0.406358  0.750000  1
  Sn  Sn12  1  0.405996  0.406155  0.250000  1
  Sn  Sn13  1  0.593737  0.593547  0.750000  1
  Sn  Sn14  1  0.405896  0.000005  0.750000  1
  Sn  Sn15  1  0.593946  0.000179  0.250000  1
  O  O16  1  0.000386  0.000387  0.999561  1
  O  O17  1  0.000386  0.000387  0.500439  1
