# generated using pymatgen
data_Sc(TaSe2)4
_symmetry_space_group_name_H-M   'P 1'
_cell_length_a   6.96434900
_cell_length_b   6.96434962
_cell_length_c   13.64209400
_cell_angle_alpha   90.00000000
_cell_angle_beta   90.00000000
_cell_angle_gamma   120.00001132
_symmetry_Int_Tables_number   1
_chemical_formula_structural   Sc(TaSe2)4
_chemical_formula_sum   'Sc2 Ta8 Se16'
_cell_volume   573.02386717
_cell_formula_units_Z   2
loop_
 _symmetry_equiv_pos_site_id
 _symmetry_equiv_pos_as_xyz
  1  'x, y, z'
loop_
 _atom_site_type_symbol
 _atom_site_label
 _atom_site_symmetry_multiplicity
 _atom_site_fract_x
 _atom_site_fract_y
 _atom_site_fract_z
 _atom_site_occupancy
  Sc  Sc0  1  0.000000  0.000000  0.500000  1
  Sc  Sc1  1  0.000000  0.000000  0.000000  1
  Ta  Ta2  1  0.507772  0.492228  0.750000  1
  Ta  Ta3  1  0.015543  0.507772  0.250000  1
  Ta  Ta4  1  0.492228  0.984457  0.250000  1
  Ta  Ta5  1  0.507772  0.015543  0.750000  1
  Ta  Ta6  1  0.984457  0.492228  0.750000  1
  Ta  Ta7  1  0.492228  0.507772  0.250000  1
  Ta  Ta8  1  0.000000  0.000000  0.750000  1
  Ta  Ta9  1  0.000000  0.000000  0.250000  1
  Se  Se10  1  0.830454  0.169546  0.371765  1
  Se  Se11  1  0.830454  0.660908  0.371765  1
  Se  Se12  1  0.339092  0.169546  0.371765  1
  Se  Se13  1  0.660908  0.830454  0.871765  1
  Se  Se14  1  0.169546  0.339092  0.628235  1
  Se  Se15  1  0.169546  0.830454  0.871765  1
  Se  Se16  1  0.169546  0.339092  0.871765  1
  Se  Se17  1  0.830454  0.169546  0.128235  1
  Se  Se18  1  0.339092  0.169546  0.128235  1
  Se  Se19  1  0.660908  0.830454  0.628235  1
  Se  Se20  1  0.333333  0.666667  0.122512  1
  Se  Se21  1  0.666667  0.333333  0.622512  1
  Se  Se22  1  0.666667  0.333333  0.877488  1
  Se  Se23  1  0.333333  0.666667  0.377488  1
  Se  Se24  1  0.830454  0.660908  0.128235  1
  Se  Se25  1  0.169546  0.830454  0.628235  1
