# generated using pymatgen
data_Er3CoSn4Ru
_symmetry_space_group_name_H-M   'P 1'
_cell_length_a   7.41659200
_cell_length_b   7.41659193
_cell_length_c   4.15420300
_cell_angle_alpha   90.00000000
_cell_angle_beta   90.00000000
_cell_angle_gamma   120.00000031
_symmetry_Int_Tables_number   1
_chemical_formula_structural   Er3CoSn4Ru
_chemical_formula_sum   'Er3 Co1 Sn4 Ru1'
_cell_volume   197.89148974
_cell_formula_units_Z   1
loop_
 _symmetry_equiv_pos_site_id
 _symmetry_equiv_pos_as_xyz
  1  'x, y, z'
loop_
 _atom_site_type_symbol
 _atom_site_label
 _atom_site_symmetry_multiplicity
 _atom_site_fract_x
 _atom_site_fract_y
 _atom_site_fract_z
 _atom_site_occupancy
  Er  Er0  1  0.688051  0.935993  0.500000  1
  Er  Er1  1  0.247941  0.311949  0.500000  1
  Er  Er2  1  0.064007  0.752059  0.500000  1
  Co  Co3  1  0.000000  0.000000  0.000000  1
  Sn  Sn4  1  0.902124  0.304866  0.000000  1
  Sn  Sn5  1  0.402743  0.097876  0.000000  1
  Sn  Sn6  1  0.695134  0.597257  0.000000  1
  Sn  Sn7  1  0.333333  0.666667  0.000000  1
  Ru  Ru8  1  0.666667  0.333333  0.500000  1
