# generated using pymatgen
data_CeDy3Zn4(IrPt)2
_symmetry_space_group_name_H-M   'P 1'
_cell_length_a   4.06075100
_cell_length_b   7.00433730
_cell_length_c   8.24991030
_cell_angle_alpha   90.50569466
_cell_angle_beta   90.00000000
_cell_angle_gamma   90.00000000
_symmetry_Int_Tables_number   1
_chemical_formula_structural   CeDy3Zn4(IrPt)2
_chemical_formula_sum   'Ce1 Dy3 Zn4 Ir2 Pt2'
_cell_volume   234.64198415
_cell_formula_units_Z   1
loop_
 _symmetry_equiv_pos_site_id
 _symmetry_equiv_pos_as_xyz
  1  'x, y, z'
loop_
 _atom_site_type_symbol
 _atom_site_label
 _atom_site_symmetry_multiplicity
 _atom_site_fract_x
 _atom_site_fract_y
 _atom_site_fract_z
 _atom_site_occupancy
  Ce  Ce0  1  0.250000  0.535547  0.190827  1
  Dy  Dy1  1  0.750000  0.457798  0.813413  1
  Dy  Dy2  1  0.250000  0.038479  0.312386  1
  Dy  Dy3  1  0.750000  0.954196  0.682014  1
  Zn  Zn4  1  0.250000  0.639254  0.564706  1
  Zn  Zn5  1  0.250000  0.142115  0.935569  1
  Zn  Zn6  1  0.750000  0.357579  0.438114  1
  Zn  Zn7  1  0.750000  0.870528  0.065494  1
  Ir  Ir8  1  0.750000  0.742367  0.373674  1
  Ir  Ir9  1  0.750000  0.255359  0.123320  1
  Pt  Pt10  1  0.250000  0.756780  0.878754  1
  Pt  Pt11  1  0.250000  0.250000  0.621728  1
