# generated using pymatgen
data_Li2Tb3AgGe2Pb
_symmetry_space_group_name_H-M   'P 1'
_cell_length_a   7.20826576
_cell_length_b   7.20826679
_cell_length_c   4.39004800
_cell_angle_alpha   90.00000000
_cell_angle_beta   90.00000000
_cell_angle_gamma   119.57420828
_symmetry_Int_Tables_number   1
_chemical_formula_structural   Li2Tb3AgGe2Pb
_chemical_formula_sum   'Li2 Tb3 Ag1 Ge2 Pb1'
_cell_volume   198.38506087
_cell_formula_units_Z   1
loop_
 _symmetry_equiv_pos_site_id
 _symmetry_equiv_pos_as_xyz
  1  'x, y, z'
loop_
 _atom_site_type_symbol
 _atom_site_label
 _atom_site_symmetry_multiplicity
 _atom_site_fract_x
 _atom_site_fract_y
 _atom_site_fract_z
 _atom_site_occupancy
  Li  Li0  1  0.242914  0.997035  0.500000  1
  Li  Li1  1  0.997035  0.242914  0.500000  1
  Tb  Tb2  1  0.447283  0.447283  0.000000  1
  Tb  Tb3  1  0.559240  0.997540  0.000000  1
  Tb  Tb4  1  0.997540  0.559240  0.000000  1
  Ag  Ag5  1  0.746306  0.746306  0.500000  1
  Ge  Ge6  1  0.668055  0.328742  0.500000  1
  Ge  Ge7  1  0.328742  0.668055  0.500000  1
  Pb  Pb8  1  0.012885  0.012885  0.000000  1
