# generated using pymatgen
data_Lu2Al9OsPt2
_symmetry_space_group_name_H-M   'P 1'
_cell_length_a   7.56805495
_cell_length_b   7.56805484
_cell_length_c   9.40059000
_cell_angle_alpha   90.00000000
_cell_angle_beta   90.00000000
_cell_angle_gamma   119.43967930
_symmetry_Int_Tables_number   1
_chemical_formula_structural   Lu2Al9OsPt2
_chemical_formula_sum   'Lu4 Al18 Os2 Pt4'
_cell_volume   468.89845476
_cell_formula_units_Z   2
loop_
 _symmetry_equiv_pos_site_id
 _symmetry_equiv_pos_as_xyz
  1  'x, y, z'
loop_
 _atom_site_type_symbol
 _atom_site_label
 _atom_site_symmetry_multiplicity
 _atom_site_fract_x
 _atom_site_fract_y
 _atom_site_fract_z
 _atom_site_occupancy
  Lu  Lu0  1  0.994575  0.672087  0.250000  1
  Lu  Lu1  1  0.005425  0.327913  0.750000  1
  Lu  Lu2  1  0.672087  0.994575  0.250000  1
  Lu  Lu3  1  0.327913  0.005425  0.750000  1
  Al  Al4  1  0.124551  0.124551  0.250000  1
  Al  Al5  1  0.875449  0.875449  0.750000  1
  Al  Al6  1  0.999577  0.330671  0.076790  1
  Al  Al7  1  0.000423  0.669329  0.923210  1
  Al  Al8  1  0.000423  0.669329  0.576790  1
  Al  Al9  1  0.330671  0.999577  0.423210  1
  Al  Al10  1  0.999577  0.330671  0.423210  1
  Al  Al11  1  0.669329  0.000423  0.576790  1
  Al  Al12  1  0.669329  0.000423  0.923210  1
  Al  Al13  1  0.330671  0.999577  0.076790  1
  Al  Al14  1  0.328307  0.328307  0.557586  1
  Al  Al15  1  0.671693  0.671693  0.442414  1
  Al  Al16  1  0.671693  0.671693  0.057586  1
  Al  Al17  1  0.328307  0.328307  0.942414  1
  Al  Al18  1  0.340504  0.547097  0.250000  1
  Al  Al19  1  0.659496  0.452903  0.750000  1
  Al  Al20  1  0.547097  0.340504  0.250000  1
  Al  Al21  1  0.452903  0.659496  0.750000  1
  Os  Os22  1  0.000000  0.000000  0.000000  1
  Os  Os23  1  0.000000  0.000000  0.500000  1
  Pt  Pt24  1  0.672735  0.327265  0.000000  1
  Pt  Pt25  1  0.327265  0.672735  0.000000  1
  Pt  Pt26  1  0.327265  0.672735  0.500000  1
  Pt  Pt27  1  0.672735  0.327265  0.500000  1
