# generated using pymatgen
data_Y4Al18(IrPt)3
_symmetry_space_group_name_H-M   'P 1'
_cell_length_a   7.59745576
_cell_length_b   7.59745642
_cell_length_c   9.45833109
_cell_angle_alpha   89.99195968
_cell_angle_beta   89.99196269
_cell_angle_gamma   119.63303326
_symmetry_Int_Tables_number   1
_chemical_formula_structural   Y4Al18(IrPt)3
_chemical_formula_sum   'Y4 Al18 Ir3 Pt3'
_cell_volume   474.54304371
_cell_formula_units_Z   1
loop_
 _symmetry_equiv_pos_site_id
 _symmetry_equiv_pos_as_xyz
  1  'x, y, z'
loop_
 _atom_site_type_symbol
 _atom_site_label
 _atom_site_symmetry_multiplicity
 _atom_site_fract_x
 _atom_site_fract_y
 _atom_site_fract_z
 _atom_site_occupancy
  Y  Y0  1  0.995423  0.670619  0.250439  1
  Y  Y1  1  0.005064  0.329778  0.749599  1
  Y  Y2  1  0.670222  0.994936  0.250401  1
  Y  Y3  1  0.329381  0.004577  0.749561  1
  Al  Al4  1  0.126979  0.127651  0.250565  1
  Al  Al5  1  0.872349  0.873021  0.749435  1
  Al  Al6  1  0.000001  0.331497  0.076229  1
  Al  Al7  1  0.999707  0.668842  0.923251  1
  Al  Al8  1  0.996951  0.664974  0.574927  1
  Al  Al9  1  0.335026  0.003049  0.425073  1
  Al  Al10  1  0.996697  0.331250  0.425118  1
  Al  Al11  1  0.668750  0.003303  0.574882  1
  Al  Al12  1  0.668503  0.999999  0.923771  1
  Al  Al13  1  0.331158  0.000293  0.076749  1
  Al  Al14  1  0.332800  0.329632  0.553132  1
  Al  Al15  1  0.670368  0.667200  0.446868  1
  Al  Al16  1  0.669490  0.669434  0.055601  1
  Al  Al17  1  0.330566  0.330510  0.944399  1
  Al  Al18  1  0.340043  0.545597  0.250530  1
  Al  Al19  1  0.659530  0.452565  0.747469  1
  Al  Al20  1  0.547435  0.340470  0.252531  1
  Al  Al21  1  0.454403  0.659957  0.749470  1
  Ir  Ir22  1  0.671951  0.328049  0.500000  1
  Ir  Ir23  1  0.999842  0.000158  0.000000  1
  Ir  Ir24  1  0.000264  0.999736  0.500000  1
  Pt  Pt25  1  0.671933  0.328067  0.000000  1
  Pt  Pt26  1  0.327550  0.672450  0.000000  1
  Pt  Pt27  1  0.327614  0.672386  0.500000  1
