# generated using pymatgen
data_TmScCo12SiP6
_symmetry_space_group_name_H-M   'P 1'
_cell_length_a   8.97372600
_cell_length_b   8.97372627
_cell_length_c   3.55346500
_cell_angle_alpha   90.00000000
_cell_angle_beta   90.00000000
_cell_angle_gamma   119.99999899
_symmetry_Int_Tables_number   1
_chemical_formula_structural   TmScCo12SiP6
_chemical_formula_sum   'Tm1 Sc1 Co12 Si1 P6'
_cell_volume   247.81540573
_cell_formula_units_Z   1
loop_
 _symmetry_equiv_pos_site_id
 _symmetry_equiv_pos_as_xyz
  1  'x, y, z'
loop_
 _atom_site_type_symbol
 _atom_site_label
 _atom_site_symmetry_multiplicity
 _atom_site_fract_x
 _atom_site_fract_y
 _atom_site_fract_z
 _atom_site_occupancy
  Tm  Tm0  1  0.000000  0.000000  0.500000  1
  Sc  Sc1  1  0.666667  0.333333  0.000000  1
  Co  Co2  1  0.768598  0.726512  0.000000  1
  Co  Co3  1  0.273488  0.042085  0.000000  1
  Co  Co4  1  0.957915  0.231402  0.000000  1
  Co  Co5  1  0.718060  0.105717  0.500000  1
  Co  Co6  1  0.894283  0.612342  0.500000  1
  Co  Co7  1  0.387658  0.281940  0.500000  1
  Co  Co8  1  0.492687  0.949530  0.000000  1
  Co  Co9  1  0.050470  0.543158  0.000000  1
  Co  Co10  1  0.456842  0.507313  0.000000  1
  Co  Co11  1  0.567579  0.768571  0.500000  1
  Co  Co12  1  0.231429  0.799009  0.500000  1
  Co  Co13  1  0.200991  0.432421  0.500000  1
  Si  Si14  1  0.333333  0.666667  0.000000  1
  P  P15  1  0.449960  0.074048  0.500000  1
  P  P16  1  0.925952  0.375912  0.500000  1
  P  P17  1  0.624088  0.550040  0.500000  1
  P  P18  1  0.739976  0.959291  0.000000  1
  P  P19  1  0.040709  0.780684  0.000000  1
  P  P20  1  0.219316  0.260024  0.000000  1
