# generated using pymatgen
data_Tb4CuPt2Rh
_symmetry_space_group_name_H-M   'P 1'
_cell_length_a   4.46246200
_cell_length_b   5.60666152
_cell_length_c   7.08125936
_cell_angle_alpha   89.86799608
_cell_angle_beta   90.00000000
_cell_angle_gamma   90.00000000
_symmetry_Int_Tables_number   1
_chemical_formula_structural   Tb4CuPt2Rh
_chemical_formula_sum   'Tb4 Cu1 Pt2 Rh1'
_cell_volume   177.16919752
_cell_formula_units_Z   1
loop_
 _symmetry_equiv_pos_site_id
 _symmetry_equiv_pos_as_xyz
  1  'x, y, z'
loop_
 _atom_site_type_symbol
 _atom_site_label
 _atom_site_symmetry_multiplicity
 _atom_site_fract_x
 _atom_site_fract_y
 _atom_site_fract_z
 _atom_site_occupancy
  Tb  Tb0  1  0.000000  0.640305  0.314556  1
  Tb  Tb1  1  0.000000  0.858859  0.822231  1
  Tb  Tb2  1  0.500000  0.364114  0.690135  1
  Tb  Tb3  1  0.500000  0.141653  0.172808  1
  Cu  Cu4  1  0.000000  0.138362  0.463351  1
  Pt  Pt5  1  0.500000  0.867703  0.535442  1
  Pt  Pt6  1  0.500000  0.652947  0.047567  1
  Rh  Rh7  1  0.000000  0.336057  0.953909  1
