# generated using pymatgen
data_DyErCo3Si4Rh3
_symmetry_space_group_name_H-M   'P 1'
_cell_length_a   6.44211708
_cell_length_b   6.51694810
_cell_length_c   6.44435128
_cell_angle_alpha   131.34211952
_cell_angle_beta   113.98944077
_cell_angle_gamma   85.76582609
_symmetry_Int_Tables_number   1
_chemical_formula_structural   DyErCo3Si4Rh3
_chemical_formula_sum   'Dy1 Er1 Co3 Si4 Rh3'
_cell_volume   177.94415644
_cell_formula_units_Z   1
loop_
 _symmetry_equiv_pos_site_id
 _symmetry_equiv_pos_as_xyz
  1  'x, y, z'
loop_
 _atom_site_type_symbol
 _atom_site_label
 _atom_site_symmetry_multiplicity
 _atom_site_fract_x
 _atom_site_fract_y
 _atom_site_fract_z
 _atom_site_occupancy
  Dy  Dy0  1  0.753828  0.036538  0.286304  1
  Er  Er1  1  0.249705  0.962309  0.716094  1
  Co  Co2  1  0.218095  0.500902  0.718207  1
  Co  Co3  1  0.780575  0.500751  0.280571  1
  Co  Co4  1  0.717973  0.000022  0.718740  1
  Si  Si5  1  0.576991  0.378007  0.810140  1
  Si  Si6  1  0.922941  0.723608  0.788315  1
  Si  Si7  1  0.431723  0.621128  0.198339  1
  Si  Si8  1  0.065220  0.276276  0.198932  1
  Rh  Rh9  1  0.500421  0.510502  0.508994  1
  Rh  Rh10  1  0.999734  0.489944  0.991603  1
  Rh  Rh11  1  0.282796  0.000013  0.283761  1
