# generated using pymatgen
data_Ho7Er3Ir5Au
_symmetry_space_group_name_H-M   'P 1'
_cell_length_a   10.98435709
_cell_length_b   10.94134600
_cell_length_c   6.31071602
_cell_angle_alpha   90.00000000
_cell_angle_beta   89.85105214
_cell_angle_gamma   90.00000000
_symmetry_Int_Tables_number   1
_chemical_formula_structural   Ho7Er3Ir5Au
_chemical_formula_sum   'Ho14 Er6 Ir10 Au2'
_cell_volume   758.44233198
_cell_formula_units_Z   2
loop_
 _symmetry_equiv_pos_site_id
 _symmetry_equiv_pos_as_xyz
  1  'x, y, z'
loop_
 _atom_site_type_symbol
 _atom_site_label
 _atom_site_symmetry_multiplicity
 _atom_site_fract_x
 _atom_site_fract_y
 _atom_site_fract_z
 _atom_site_occupancy
  Ho  Ho0  1  0.291992  0.088242  0.372323  1
  Ho  Ho1  1  0.291992  0.911758  0.872323  1
  Ho  Ho2  1  0.699019  0.091710  0.866376  1
  Ho  Ho3  1  0.699019  0.908290  0.366376  1
  Ho  Ho4  1  0.578609  0.789258  0.877126  1
  Ho  Ho5  1  0.578609  0.210742  0.377126  1
  Ho  Ho6  1  0.409156  0.790522  0.376750  1
  Ho  Ho7  1  0.409156  0.209478  0.876750  1
  Ho  Ho8  1  0.209570  0.411548  0.621812  1
  Ho  Ho9  1  0.209570  0.588452  0.121812  1
  Ho  Ho10  1  0.789441  0.419254  0.123032  1
  Ho  Ho11  1  0.789441  0.580746  0.623032  1
  Ho  Ho12  1  0.917010  0.705309  0.137683  1
  Ho  Ho13  1  0.917010  0.294691  0.637683  1
  Er  Er14  1  0.095487  0.703539  0.623698  1
  Er  Er15  1  0.095487  0.296461  0.123698  1
  Er  Er16  1  0.008944  0.998447  0.500014  1
  Er  Er17  1  0.008944  0.001553  0.000014  1
  Er  Er18  1  0.499686  0.498945  0.000606  1
  Er  Er19  1  0.499686  0.501055  0.500606  1
  Ir  Ir20  1  0.153203  0.153677  0.750561  1
  Ir  Ir21  1  0.153203  0.846323  0.250561  1
  Ir  Ir22  1  0.655209  0.346047  0.748736  1
  Ir  Ir23  1  0.655209  0.653953  0.248736  1
  Ir  Ir24  1  0.346982  0.346276  0.251359  1
  Ir  Ir25  1  0.346982  0.653724  0.751359  1
  Ir  Ir26  1  0.500169  0.999692  0.122018  1
  Ir  Ir27  1  0.500169  0.000308  0.622018  1
  Ir  Ir28  1  0.999862  0.500677  0.877909  1
  Ir  Ir29  1  0.999862  0.499323  0.377909  1
  Au  Au30  1  0.845660  0.154443  0.249997  1
  Au  Au31  1  0.845660  0.845557  0.749997  1
