# generated using pymatgen
data_Cs2Sn3Bi7Te12
_symmetry_space_group_name_H-M   'P 1'
_cell_length_a   24.38683168
_cell_length_b   24.38683152
_cell_length_c   6.87225365
_cell_angle_alpha   109.98763948
_cell_angle_beta   109.98763886
_cell_angle_gamma   13.90747250
_symmetry_Int_Tables_number   1
_chemical_formula_structural   Cs2Sn3Bi7Te12
_chemical_formula_sum   'Cs2 Sn3 Bi7 Te12'
_cell_volume   922.26260067
_cell_formula_units_Z   1
loop_
 _symmetry_equiv_pos_site_id
 _symmetry_equiv_pos_as_xyz
  1  'x, y, z'
loop_
 _atom_site_type_symbol
 _atom_site_label
 _atom_site_symmetry_multiplicity
 _atom_site_fract_x
 _atom_site_fract_y
 _atom_site_fract_z
 _atom_site_occupancy
  Cs  Cs0  1  0.063399  0.063399  0.970363  1
  Cs  Cs1  1  0.715243  0.715243  0.874969  1
  Sn  Sn2  1  0.960298  0.960298  0.168002  1
  Sn  Sn3  1  0.458913  0.458913  0.663721  1
  Sn  Sn4  1  0.529368  0.529368  0.384650  1
  Bi  Bi5  1  0.247750  0.247750  0.450730  1
  Bi  Bi6  1  0.317252  0.317252  0.185473  1
  Bi  Bi7  1  0.751501  0.751501  0.462748  1
  Bi  Bi8  1  0.819483  0.819483  0.669017  1
  Bi  Bi9  1  0.386267  0.386267  0.368965  1
  Bi  Bi10  1  0.177126  0.177126  0.249343  1
  Bi  Bi11  1  0.603615  0.603615  0.559266  1
  Te  Te12  1  0.107501  0.107501  0.593115  1
  Te  Te13  1  0.610381  0.610381  0.145985  1
  Te  Te14  1  0.889083  0.889083  0.408937  1
  Te  Te15  1  0.393490  0.393490  0.952933  1
  Te  Te16  1  0.457851  0.457851  0.155119  1
  Te  Te17  1  0.952890  0.952890  0.640156  1
  Te  Te18  1  0.521753  0.521753  0.805674  1
  Te  Te19  1  0.025494  0.025494  0.361096  1
  Te  Te20  1  0.323192  0.323192  0.677873  1
  Te  Te21  1  0.812089  0.812089  0.180197  1
  Te  Te22  1  0.171188  0.171188  0.801498  1
  Te  Te23  1  0.672958  0.672958  0.270172  1
