# generated using pymatgen
data_Li8La8ZnPt7
_symmetry_space_group_name_H-M   'P 1'
_cell_length_a   4.17495300
_cell_length_b   7.47703414
_cell_length_c   16.98747200
_cell_angle_alpha   89.78602063
_cell_angle_beta   90.00000000
_cell_angle_gamma   90.00000000
_symmetry_Int_Tables_number   1
_chemical_formula_structural   Li8La8ZnPt7
_chemical_formula_sum   'Li8 La8 Zn1 Pt7'
_cell_volume   530.28174869
_cell_formula_units_Z   1
loop_
 _symmetry_equiv_pos_site_id
 _symmetry_equiv_pos_as_xyz
  1  'x, y, z'
loop_
 _atom_site_type_symbol
 _atom_site_label
 _atom_site_symmetry_multiplicity
 _atom_site_fract_x
 _atom_site_fract_y
 _atom_site_fract_z
 _atom_site_occupancy
  Li  Li0  1  0.250000  0.640926  0.350008  1
  Li  Li1  1  0.750000  0.365957  0.655018  1
  Li  Li2  1  0.750000  0.858444  0.854531  1
  Li  Li3  1  0.250000  0.138958  0.147895  1
  Li  Li4  1  0.250000  0.493034  0.057805  1
  Li  Li5  1  0.750000  0.508754  0.941961  1
  Li  Li6  1  0.750000  0.997743  0.559586  1
  Li  Li7  1  0.250000  0.991014  0.437091  1
  La  La8  1  0.250000  0.539750  0.784725  1
  La  La9  1  0.750000  0.461224  0.212220  1
  La  La10  1  0.750000  0.959518  0.284537  1
  La  La11  1  0.250000  0.031786  0.723989  1
  La  La12  1  0.250000  0.668407  0.559602  1
  La  La13  1  0.750000  0.345763  0.430191  1
  La  La14  1  0.750000  0.838067  0.059906  1
  La  La15  1  0.250000  0.165086  0.940352  1
  Zn  Zn16  1  0.250000  0.237576  0.563989  1
  Pt  Pt17  1  0.250000  0.758075  0.187240  1
  Pt  Pt18  1  0.750000  0.244209  0.812380  1
  Pt  Pt19  1  0.750000  0.744749  0.688277  1
  Pt  Pt20  1  0.250000  0.255982  0.311947  1
  Pt  Pt21  1  0.250000  0.749952  0.937250  1
  Pt  Pt22  1  0.750000  0.251665  0.061926  1
  Pt  Pt23  1  0.750000  0.753362  0.437574  1
