# generated using pymatgen
data_YHoCl6
_symmetry_space_group_name_H-M   'P 1'
_cell_length_a   6.96707034
_cell_length_b   6.96707057
_cell_length_c   7.05330702
_cell_angle_alpha   80.26670927
_cell_angle_beta   80.26670195
_cell_angle_gamma   119.83794067
_symmetry_Int_Tables_number   1
_chemical_formula_structural   YHoCl6
_chemical_formula_sum   'Y1 Ho1 Cl6'
_cell_volume   279.57857945
_cell_formula_units_Z   1
loop_
 _symmetry_equiv_pos_site_id
 _symmetry_equiv_pos_as_xyz
  1  'x, y, z'
loop_
 _atom_site_type_symbol
 _atom_site_label
 _atom_site_symmetry_multiplicity
 _atom_site_fract_x
 _atom_site_fract_y
 _atom_site_fract_z
 _atom_site_occupancy
  Y  Y0  1  0.833440  0.166560  0.000000  1
  Ho  Ho1  1  0.166542  0.833458  0.000000  1
  Cl  Cl2  1  0.950562  0.577695  0.776388  1
  Cl  Cl3  1  0.422305  0.049438  0.223612  1
  Cl  Cl4  1  0.802601  0.801199  0.228325  1
  Cl  Cl5  1  0.198801  0.197399  0.771675  1
  Cl  Cl6  1  0.574909  0.949160  0.776362  1
  Cl  Cl7  1  0.050840  0.425091  0.223638  1
