# generated using pymatgen
data_NdBi3Te10
_symmetry_space_group_name_H-M   'P 1'
_cell_length_a   24.16619190
_cell_length_b   24.16619079
_cell_length_c   3.18549600
_cell_angle_alpha   90.00000000
_cell_angle_beta   90.00000000
_cell_angle_gamma   166.48307792
_symmetry_Int_Tables_number   1
_chemical_formula_structural   NdBi3Te10
_chemical_formula_sum   'Nd1 Bi3 Te10'
_cell_volume   434.82315316
_cell_formula_units_Z   1
loop_
 _symmetry_equiv_pos_site_id
 _symmetry_equiv_pos_as_xyz
  1  'x, y, z'
loop_
 _atom_site_type_symbol
 _atom_site_label
 _atom_site_symmetry_multiplicity
 _atom_site_fract_x
 _atom_site_fract_y
 _atom_site_fract_z
 _atom_site_occupancy
  Nd  Nd0  1  0.103177  0.896823  0.750000  1
  Bi  Bi1  1  0.684274  0.315726  0.250000  1
  Bi  Bi2  1  0.319546  0.680454  0.750000  1
  Bi  Bi3  1  0.885973  0.114027  0.250000  1
  Te  Te4  1  0.620815  0.379185  0.250000  1
  Te  Te5  1  0.384639  0.615361  0.750000  1
  Te  Te6  1  0.821087  0.178913  0.250000  1
  Te  Te7  1  0.176028  0.823972  0.750000  1
  Te  Te8  1  0.954152  0.045848  0.750000  1
  Te  Te9  1  0.044800  0.955200  0.250000  1
  Te  Te10  1  0.545654  0.454346  0.750000  1
  Te  Te11  1  0.457919  0.542081  0.250000  1
  Te  Te12  1  0.749034  0.250966  0.750000  1
  Te  Te13  1  0.252901  0.747099  0.250000  1
