# generated using pymatgen
data_NaTh(PPt)2
_symmetry_space_group_name_H-M   'P 1'
_cell_length_a   4.14244909
_cell_length_b   4.14252029
_cell_length_c   8.28880714
_cell_angle_alpha   90.00344431
_cell_angle_beta   89.99632652
_cell_angle_gamma   119.99718262
_symmetry_Int_Tables_number   1
_chemical_formula_structural   NaTh(PPt)2
_chemical_formula_sum   'Na1 Th1 P2 Pt2'
_cell_volume   123.18471359
_cell_formula_units_Z   1
loop_
 _symmetry_equiv_pos_site_id
 _symmetry_equiv_pos_as_xyz
  1  'x, y, z'
loop_
 _atom_site_type_symbol
 _atom_site_label
 _atom_site_symmetry_multiplicity
 _atom_site_fract_x
 _atom_site_fract_y
 _atom_site_fract_z
 _atom_site_occupancy
  Na  Na0  1  0.000000  0.000000  0.500001  1
  Th  Th1  1  0.000000  0.000000  0.999999  1
  P  P2  1  0.333449  0.666539  0.768844  1
  P  P3  1  0.666551  0.333461  0.231156  1
  Pt  Pt4  1  0.666650  0.333347  0.753030  1
  Pt  Pt5  1  0.333350  0.666653  0.246970  1
