# generated using pymatgen
data_Ba8AlV3O16
_symmetry_space_group_name_H-M   'P 1'
_cell_length_a   7.75594604
_cell_length_b   6.18899874
_cell_length_c   11.85210108
_cell_angle_alpha   62.47810291
_cell_angle_beta   90.57721598
_cell_angle_gamma   89.77405857
_symmetry_Int_Tables_number   1
_chemical_formula_structural   Ba8AlV3O16
_chemical_formula_sum   'Ba8 Al1 V3 O16'
_cell_volume   504.48765768
_cell_formula_units_Z   1
loop_
 _symmetry_equiv_pos_site_id
 _symmetry_equiv_pos_as_xyz
  1  'x, y, z'
loop_
 _atom_site_type_symbol
 _atom_site_label
 _atom_site_symmetry_multiplicity
 _atom_site_fract_x
 _atom_site_fract_y
 _atom_site_fract_z
 _atom_site_occupancy
  Ba  Ba0  1  0.512736  0.035560  0.194276  1
  Ba  Ba1  1  0.993261  0.977405  0.300747  1
  Ba  Ba2  1  0.508806  0.986643  0.801468  1
  Ba  Ba3  1  0.987292  0.030232  0.696811  1
  Ba  Ba4  1  0.160154  0.317175  0.913726  1
  Ba  Ba5  1  0.659569  0.678749  0.589353  1
  Ba  Ba6  1  0.839304  0.692279  0.062705  1
  Ba  Ba7  1  0.341935  0.306576  0.436028  1
  Al  Al8  1  0.722571  0.336824  0.921609  1
  V  V9  1  0.218404  0.664785  0.579683  1
  V  V10  1  0.278873  0.655762  0.082398  1
  V  V11  1  0.777877  0.344375  0.414520  1
  O  O12  1  0.762471  0.656651  0.827016  1
  O  O13  1  0.254910  0.334841  0.673955  1
  O  O14  1  0.234454  0.347473  0.175669  1
  O  O15  1  0.741486  0.667828  0.313545  1
  O  O16  1  0.831172  0.151079  0.862471  1
  O  O17  1  0.324877  0.856353  0.638862  1
  O  O18  1  0.179408  0.838977  0.139672  1
  O  O19  1  0.671341  0.133135  0.369957  1
  O  O20  1  0.819340  0.250380  0.076433  1
  O  O21  1  0.321736  0.752695  0.426400  1
  O  O22  1  0.191859  0.750715  0.929076  1
  O  O23  1  0.673834  0.263194  0.569175  1
  O  O24  1  0.006808  0.283232  0.420057  1
  O  O25  1  0.498350  0.700215  0.076707  1
  O  O26  1  0.990129  0.719254  0.574441  1
  O  O27  1  0.497044  0.267615  0.933241  1
