# generated using pymatgen
data_CaSmMnFeO6
_symmetry_space_group_name_H-M   'P 1'
_cell_length_a   5.38151221
_cell_length_b   5.52883300
_cell_length_c   7.67317059
_cell_angle_alpha   90.00017082
_cell_angle_beta   90.07438628
_cell_angle_gamma   90.00008423
_symmetry_Int_Tables_number   1
_chemical_formula_structural   CaSmMnFeO6
_chemical_formula_sum   'Ca2 Sm2 Mn2 Fe2 O12'
_cell_volume   228.30335284
_cell_formula_units_Z   2
loop_
 _symmetry_equiv_pos_site_id
 _symmetry_equiv_pos_as_xyz
  1  'x, y, z'
loop_
 _atom_site_type_symbol
 _atom_site_label
 _atom_site_symmetry_multiplicity
 _atom_site_fract_x
 _atom_site_fract_y
 _atom_site_fract_z
 _atom_site_occupancy
  Ca  Ca0  1  0.509393  0.547660  0.249753  1
  Ca  Ca1  1  0.009393  0.952338  0.749755  1
  Sm  Sm2  1  0.986698  0.054365  0.249545  1
  Sm  Sm3  1  0.486697  0.445635  0.749543  1
  Mn  Mn4  1  0.999625  0.502428  0.499757  1
  Mn  Mn5  1  0.499631  0.997561  0.999755  1
  Fe  Fe6  1  0.999406  0.505157  0.000099  1
  Fe  Fe7  1  0.499405  0.994849  0.500096  1
  O  O8  1  0.791542  0.799815  0.044421  1
  O  O9  1  0.713436  0.294961  0.456488  1
  O  O10  1  0.203993  0.214963  0.544745  1
  O  O11  1  0.302494  0.708515  0.955110  1
  O  O12  1  0.213435  0.205041  0.956486  1
  O  O13  1  0.291543  0.700187  0.544422  1
  O  O14  1  0.802494  0.791487  0.455112  1
  O  O15  1  0.703994  0.285037  0.044743  1
  O  O16  1  0.412393  0.978037  0.245447  1
  O  O17  1  0.081018  0.476717  0.254638  1
  O  O18  1  0.581019  0.023282  0.754635  1
  O  O19  1  0.912392  0.521963  0.745451  1
