# generated using pymatgen
data_La8Tm12Si15Pb
_symmetry_space_group_name_H-M   'P 1'
_cell_length_a   7.85425339
_cell_length_b   7.83348093
_cell_length_c   14.23427600
_cell_angle_alpha   89.96854155
_cell_angle_beta   89.56115075
_cell_angle_gamma   89.81270310
_symmetry_Int_Tables_number   1
_chemical_formula_structural   La8Tm12Si15Pb
_chemical_formula_sum   'La8 Tm12 Si15 Pb1'
_cell_volume   875.74962824
_cell_formula_units_Z   1
loop_
 _symmetry_equiv_pos_site_id
 _symmetry_equiv_pos_as_xyz
  1  'x, y, z'
loop_
 _atom_site_type_symbol
 _atom_site_label
 _atom_site_symmetry_multiplicity
 _atom_site_fract_x
 _atom_site_fract_y
 _atom_site_fract_z
 _atom_site_occupancy
  La  La0  1  0.352841  0.001453  0.457365  1
  La  La1  1  0.504581  0.843211  0.714124  1
  La  La2  1  0.503384  0.150271  0.212048  1
  La  La3  1  0.848178  0.497210  0.286102  1
  La  La4  1  0.148463  0.511111  0.791159  1
  La  La5  1  0.653411  0.996148  0.965003  1
  La  La6  1  0.992062  0.359337  0.531617  1
  La  La7  1  0.997512  0.650440  0.038785  1
  Tm  Tm8  1  0.323193  0.322727  0.000934  1
  Tm  Tm9  1  0.176584  0.820976  0.249092  1
  Tm  Tm10  1  0.814141  0.174688  0.752747  1
  Tm  Tm11  1  0.673098  0.677868  0.498339  1
  Tm  Tm12  1  0.147575  0.997246  0.879456  1
  Tm  Tm13  1  0.504294  0.645549  0.124953  1
  Tm  Tm14  1  0.506645  0.358667  0.624101  1
  Tm  Tm15  1  0.649664  0.506589  0.878483  1
  Tm  Tm16  1  0.351852  0.497086  0.375396  1
  Tm  Tm17  1  0.852344  0.005423  0.373277  1
  Tm  Tm18  1  0.996605  0.145742  0.126265  1
  Tm  Tm19  1  0.991162  0.838269  0.622973  1
  Si  Si20  1  0.358880  0.708290  0.938793  1
  Si  Si21  1  0.638652  0.293108  0.433184  1
  Si  Si22  1  0.710977  0.357993  0.064664  1
  Si  Si23  1  0.294048  0.642914  0.564207  1
  Si  Si24  1  0.791174  0.857730  0.186454  1
  Si  Si25  1  0.141709  0.209551  0.312438  1
  Si  Si26  1  0.860566  0.795448  0.816912  1
  Si  Si27  1  0.290748  0.941335  0.064125  1
  Si  Si28  1  0.558458  0.790418  0.311457  1
  Si  Si29  1  0.453503  0.212498  0.818864  1
  Si  Si30  1  0.791903  0.551401  0.687488  1
  Si  Si31  1  0.209876  0.441589  0.187594  1
  Si  Si32  1  0.707730  0.055111  0.562934  1
  Si  Si33  1  0.944143  0.291765  0.938569  1
  Si  Si34  1  0.056701  0.713039  0.434307  1
  Pb  Pb35  1  0.203345  0.137798  0.675793  1
