# generated using pymatgen
data_Eu2Y18Si15Pd
_symmetry_space_group_name_H-M   'P 1'
_cell_length_a   7.43539853
_cell_length_b   7.77904340
_cell_length_c   14.71042900
_cell_angle_alpha   89.72779583
_cell_angle_beta   89.97843143
_cell_angle_gamma   89.87457513
_symmetry_Int_Tables_number   1
_chemical_formula_structural   Eu2Y18Si15Pd
_chemical_formula_sum   'Eu2 Y18 Si15 Pd1'
_cell_volume   850.84374946
_cell_formula_units_Z   1
loop_
 _symmetry_equiv_pos_site_id
 _symmetry_equiv_pos_as_xyz
  1  'x, y, z'
loop_
 _atom_site_type_symbol
 _atom_site_label
 _atom_site_symmetry_multiplicity
 _atom_site_fract_x
 _atom_site_fract_y
 _atom_site_fract_z
 _atom_site_occupancy
  Eu  Eu0  1  0.522551  0.571972  0.341032  1
  Eu  Eu1  1  0.023219  0.428478  0.658054  1
  Y  Y2  1  0.812240  0.575415  0.874033  1
  Y  Y3  1  0.314950  0.424800  0.126791  1
  Y  Y4  1  0.183836  0.926675  0.372731  1
  Y  Y5  1  0.683073  0.070965  0.626958  1
  Y  Y6  1  0.182976  0.927910  0.628373  1
  Y  Y7  1  0.683129  0.070206  0.371739  1
  Y  Y8  1  0.816043  0.572044  0.126542  1
  Y  Y9  1  0.317919  0.427616  0.872828  1
  Y  Y10  1  0.644740  0.231336  0.000032  1
  Y  Y11  1  0.155990  0.760273  0.000272  1
  Y  Y12  1  0.350430  0.269694  0.500112  1
  Y  Y13  1  0.850642  0.729026  0.499570  1
  Y  Y14  1  0.474425  0.933154  0.844092  1
  Y  Y15  1  0.973480  0.067121  0.153483  1
  Y  Y16  1  0.472414  0.934308  0.154573  1
  Y  Y17  1  0.971498  0.066677  0.848092  1
  Y  Y18  1  0.527307  0.567222  0.654429  1
  Y  Y19  1  0.028079  0.433133  0.345882  1
  Si  Si20  1  0.018604  0.351980  0.999398  1
  Si  Si21  1  0.477236  0.859300  0.501642  1
  Si  Si22  1  0.978194  0.139802  0.498412  1
  Si  Si23  1  0.647436  0.276129  0.791216  1
  Si  Si24  1  0.149026  0.722582  0.208580  1
  Si  Si25  1  0.351559  0.215999  0.287946  1
  Si  Si26  1  0.850872  0.784016  0.712788  1
  Si  Si27  1  0.360260  0.220118  0.710560  1
  Si  Si28  1  0.859517  0.779832  0.289115  1
  Si  Si29  1  0.645628  0.270284  0.206413  1
  Si  Si30  1  0.147518  0.727496  0.793292  1
  Si  Si31  1  0.773023  0.880263  0.000315  1
  Si  Si32  1  0.258914  0.125526  0.999913  1
  Si  Si33  1  0.237361  0.631460  0.501259  1
  Si  Si34  1  0.736226  0.368604  0.498799  1
  Pd  Pd35  1  0.519685  0.658584  0.000734  1
