# generated using pymatgen
data_Gd6Zn21Pd2S
_symmetry_space_group_name_H-M   'P 1'
_cell_length_a   9.03029572
_cell_length_b   8.98733561
_cell_length_c   9.03029700
_cell_angle_alpha   60.15724640
_cell_angle_beta   59.75246780
_cell_angle_gamma   60.15724585
_symmetry_Int_Tables_number   1
_chemical_formula_structural   Gd6Zn21Pd2S
_chemical_formula_sum   'Gd6 Zn21 Pd2 S1'
_cell_volume   518.47193749
_cell_formula_units_Z   1
loop_
 _symmetry_equiv_pos_site_id
 _symmetry_equiv_pos_as_xyz
  1  'x, y, z'
loop_
 _atom_site_type_symbol
 _atom_site_label
 _atom_site_symmetry_multiplicity
 _atom_site_fract_x
 _atom_site_fract_y
 _atom_site_fract_z
 _atom_site_occupancy
  Gd  Gd0  1  0.712363  0.286008  0.287637  1
  Gd  Gd1  1  0.713288  0.286712  0.713288  1
  Gd  Gd2  1  0.712363  0.713992  0.287637  1
  Gd  Gd3  1  0.287637  0.713992  0.712363  1
  Gd  Gd4  1  0.286712  0.713288  0.286712  1
  Gd  Gd5  1  0.287637  0.286008  0.712363  1
  Zn  Zn6  1  0.632354  0.121142  0.125364  1
  Zn  Zn7  1  0.122328  0.634360  0.122328  1
  Zn  Zn8  1  0.125364  0.121142  0.632354  1
  Zn  Zn9  1  0.122328  0.120984  0.122328  1
  Zn  Zn10  1  0.367646  0.878858  0.874636  1
  Zn  Zn11  1  0.877672  0.365640  0.877672  1
  Zn  Zn12  1  0.874636  0.878858  0.367646  1
  Zn  Zn13  1  0.877672  0.879016  0.877672  1
  Zn  Zn14  1  0.500000  0.000000  0.000000  1
  Zn  Zn15  1  0.500000  0.500000  0.000000  1
  Zn  Zn16  1  0.000000  0.500000  0.500000  1
  Zn  Zn17  1  0.000000  0.500000  0.000000  1
  Zn  Zn18  1  0.000000  0.000000  0.500000  1
  Zn  Zn19  1  0.013610  0.329371  0.327646  1
  Zn  Zn20  1  0.326841  0.017674  0.326841  1
  Zn  Zn21  1  0.327646  0.329371  0.013610  1
  Zn  Zn22  1  0.326841  0.328641  0.326841  1
  Zn  Zn23  1  0.986390  0.670629  0.672354  1
  Zn  Zn24  1  0.673159  0.982326  0.673159  1
  Zn  Zn25  1  0.672354  0.670629  0.986390  1
  Zn  Zn26  1  0.673159  0.671359  0.673159  1
  Pd  Pd27  1  0.500000  0.000000  0.500000  1
  Pd  Pd28  1  0.000000  0.000000  0.000000  1
  S  S29  1  0.500000  0.500000  0.500000  1
