# generated using pymatgen
data_Ba(Al2Au)2
_symmetry_space_group_name_H-M   'P 1'
_cell_length_a   17.96426000
_cell_length_b   4.39068100
_cell_length_c   7.56011500
_cell_angle_alpha   90.00000000
_cell_angle_beta   90.00000000
_cell_angle_gamma   90.00000000
_symmetry_Int_Tables_number   1
_chemical_formula_structural   Ba(Al2Au)2
_chemical_formula_sum   'Ba4 Al16 Au8'
_cell_volume   596.30660373
_cell_formula_units_Z   4
loop_
 _symmetry_equiv_pos_site_id
 _symmetry_equiv_pos_as_xyz
  1  'x, y, z'
loop_
 _atom_site_type_symbol
 _atom_site_label
 _atom_site_symmetry_multiplicity
 _atom_site_fract_x
 _atom_site_fract_y
 _atom_site_fract_z
 _atom_site_occupancy
  Ba  Ba0  1  0.113538  0.750000  0.503950  1
  Ba  Ba1  1  0.386462  0.250001  0.003950  1
  Ba  Ba2  1  0.613538  0.750000  0.996050  1
  Ba  Ba3  1  0.886462  0.250001  0.496051  1
  Al  Al4  1  0.198448  0.250001  0.207239  1
  Al  Al5  1  0.301552  0.750000  0.707238  1
  Al  Al6  1  0.698447  0.250001  0.292762  1
  Al  Al7  1  0.801553  0.750000  0.792762  1
  Al  Al8  1  0.404749  0.250001  0.488877  1
  Al  Al9  1  0.095251  0.750000  0.988876  1
  Al  Al10  1  0.904749  0.250001  0.011123  1
  Al  Al11  1  0.595251  0.750000  0.511124  1
  Al  Al12  1  0.043487  0.250001  0.192838  1
  Al  Al13  1  0.456513  0.750000  0.692839  1
  Al  Al14  1  0.543487  0.250001  0.307161  1
  Al  Al15  1  0.956513  0.750000  0.807161  1
  Al  Al16  1  0.191848  0.250001  0.828411  1
  Al  Al17  1  0.308152  0.750000  0.328411  1
  Al  Al18  1  0.691847  0.250001  0.671589  1
  Al  Al19  1  0.808153  0.750000  0.171588  1
  Au  Au20  1  0.264573  0.250001  0.521958  1
  Au  Au21  1  0.235427  0.750000  0.021959  1
  Au  Au22  1  0.764573  0.250001  0.978042  1
  Au  Au23  1  0.735427  0.750000  0.478042  1
  Au  Au24  1  0.038669  0.250001  0.824970  1
  Au  Au25  1  0.461331  0.750000  0.324971  1
  Au  Au26  1  0.538669  0.250001  0.675031  1
  Au  Au27  1  0.961332  0.750000  0.175030  1
