# generated using pymatgen
data_Ta8ReB8W3
_symmetry_space_group_name_H-M   'P 1'
_cell_length_a   3.28628100
_cell_length_b   6.10669684
_cell_length_c   12.21319400
_cell_angle_alpha   89.89565241
_cell_angle_beta   90.00000000
_cell_angle_gamma   90.00000000
_symmetry_Int_Tables_number   1
_chemical_formula_structural   Ta8ReB8W3
_chemical_formula_sum   'Ta8 Re1 B8 W3'
_cell_volume   245.09790063
_cell_formula_units_Z   1
loop_
 _symmetry_equiv_pos_site_id
 _symmetry_equiv_pos_as_xyz
  1  'x, y, z'
loop_
 _atom_site_type_symbol
 _atom_site_label
 _atom_site_symmetry_multiplicity
 _atom_site_fract_x
 _atom_site_fract_y
 _atom_site_fract_z
 _atom_site_occupancy
  Ta  Ta0  1  0.500000  0.823788  0.088042  1
  Ta  Ta1  1  0.500000  0.823311  0.588819  1
  Ta  Ta2  1  0.500000  0.176212  0.911958  1
  Ta  Ta3  1  0.500000  0.176689  0.411181  1
  Ta  Ta4  1  0.500000  0.676055  0.838478  1
  Ta  Ta5  1  0.500000  0.676901  0.338296  1
  Ta  Ta6  1  0.500000  0.323945  0.161522  1
  Ta  Ta7  1  0.500000  0.323099  0.661704  1
  Re  Re8  1  0.000000  0.500000  0.000000  1
  B  B9  1  0.000000  0.388789  0.806346  1
  B  B10  1  0.000000  0.388632  0.304704  1
  B  B11  1  0.000000  0.611211  0.193654  1
  B  B12  1  0.000000  0.611368  0.695296  1
  B  B13  1  0.000000  0.111417  0.055564  1
  B  B14  1  0.000000  0.111149  0.555299  1
  B  B15  1  0.000000  0.888583  0.944436  1
  B  B16  1  0.000000  0.888851  0.444701  1
  W  W17  1  0.000000  0.500000  0.500000  1
  W  W18  1  0.000000  0.999360  0.750848  1
  W  W19  1  0.000000  0.000640  0.249152  1
