# generated using pymatgen
data_La3Pr5(DySi4)2
_symmetry_space_group_name_H-M   'P 1'
_cell_length_a   7.86241573
_cell_length_b   7.86831173
_cell_length_c   15.40799200
_cell_angle_alpha   90.00000000
_cell_angle_beta   90.00000000
_cell_angle_gamma   90.11156319
_symmetry_Int_Tables_number   1
_chemical_formula_structural   La3Pr5(DySi4)2
_chemical_formula_sum   'La6 Pr10 Dy4 Si16'
_cell_volume   953.19725292
_cell_formula_units_Z   2
loop_
 _symmetry_equiv_pos_site_id
 _symmetry_equiv_pos_as_xyz
  1  'x, y, z'
loop_
 _atom_site_type_symbol
 _atom_site_label
 _atom_site_symmetry_multiplicity
 _atom_site_fract_x
 _atom_site_fract_y
 _atom_site_fract_z
 _atom_site_occupancy
  La  La0  1  0.377981  0.013936  0.445535  1
  La  La1  1  0.486268  0.878003  0.695474  1
  La  La2  1  0.513732  0.121997  0.195474  1
  La  La3  1  0.878132  0.486130  0.304604  1
  La  La4  1  0.121868  0.513870  0.804604  1
  La  La5  1  0.622019  0.986064  0.945535  1
  Pr  Pr6  1  0.012860  0.379007  0.554931  1
  Pr  Pr7  1  0.987140  0.620993  0.054931  1
  Pr  Pr8  1  0.124996  0.976232  0.878966  1
  Pr  Pr9  1  0.523958  0.625426  0.128690  1
  Pr  Pr10  1  0.476042  0.374574  0.628690  1
  Pr  Pr11  1  0.625520  0.524230  0.871230  1
  Pr  Pr12  1  0.374480  0.475770  0.371230  1
  Pr  Pr13  1  0.875004  0.023768  0.378966  1
  Pr  Pr14  1  0.976135  0.125016  0.120992  1
  Pr  Pr15  1  0.023865  0.874984  0.620992  1
  Dy  Dy16  1  0.309633  0.310117  0.000083  1
  Dy  Dy17  1  0.190020  0.809641  0.250037  1
  Dy  Dy18  1  0.809980  0.190359  0.750037  1
  Dy  Dy19  1  0.690367  0.689883  0.500083  1
  Si  Si20  1  0.187457  0.172261  0.708518  1
  Si  Si21  1  0.327006  0.687580  0.959298  1
  Si  Si22  1  0.672994  0.312420  0.459298  1
  Si  Si23  1  0.688451  0.328793  0.041161  1
  Si  Si24  1  0.311549  0.671207  0.541161  1
  Si  Si25  1  0.812543  0.827739  0.208518  1
  Si  Si26  1  0.171642  0.187766  0.290612  1
  Si  Si27  1  0.828358  0.812234  0.790612  1
  Si  Si28  1  0.285678  0.919572  0.063786  1
  Si  Si29  1  0.579697  0.786165  0.313495  1
  Si  Si30  1  0.420303  0.213835  0.813495  1
  Si  Si31  1  0.786480  0.578840  0.685961  1
  Si  Si32  1  0.213520  0.421160  0.185961  1
  Si  Si33  1  0.714322  0.080428  0.563786  1
  Si  Si34  1  0.920624  0.287134  0.936625  1
  Si  Si35  1  0.079376  0.712866  0.436625  1
