# generated using pymatgen
data_Sm3Y3(Si3Ru)8
_symmetry_space_group_name_H-M   'P 1'
_cell_length_a   8.17833332
_cell_length_b   8.18102145
_cell_length_c   10.14758811
_cell_angle_alpha   90.03478247
_cell_angle_beta   113.76393620
_cell_angle_gamma   90.00000085
_symmetry_Int_Tables_number   1
_chemical_formula_structural   Sm3Y3(Si3Ru)8
_chemical_formula_sum   'Sm3 Y3 Si24 Ru8'
_cell_volume   621.38030960
_cell_formula_units_Z   1
loop_
 _symmetry_equiv_pos_site_id
 _symmetry_equiv_pos_as_xyz
  1  'x, y, z'
loop_
 _atom_site_type_symbol
 _atom_site_label
 _atom_site_symmetry_multiplicity
 _atom_site_fract_x
 _atom_site_fract_y
 _atom_site_fract_z
 _atom_site_occupancy
  Sm  Sm0  1  0.497098  0.250000  0.500000  1
  Sm  Sm1  1  0.997048  0.250000  0.500000  1
  Sm  Sm2  1  0.002856  0.750000  0.500000  1
  Y  Y3  1  0.999998  0.999896  0.000000  1
  Y  Y4  1  0.499998  0.500104  0.000000  1
  Y  Y5  1  0.502878  0.750000  0.500000  1
  Si  Si6  1  0.666906  0.166776  0.999918  1
  Si  Si7  1  0.166987  0.333225  0.000082  1
  Si  Si8  1  0.832972  0.666734  0.999849  1
  Si  Si9  1  0.333122  0.833267  0.000151  1
  Si  Si10  1  0.388634  0.005260  0.233485  1
  Si  Si11  1  0.888453  0.494298  0.233631  1
  Si  Si12  1  0.345023  0.506109  0.233694  1
  Si  Si13  1  0.845053  0.994333  0.233611  1
  Si  Si14  1  0.611967  0.228258  0.233547  1
  Si  Si15  1  0.111909  0.271720  0.233590  1
  Si  Si16  1  0.122121  0.728159  0.233662  1
  Si  Si17  1  0.621262  0.771951  0.233514  1
  Si  Si18  1  0.704256  0.999143  0.410147  1
  Si  Si19  1  0.205826  0.500766  0.410189  1
  Si  Si20  1  0.295637  0.999234  0.589811  1
  Si  Si21  1  0.794110  0.500857  0.589853  1
  Si  Si22  1  0.378319  0.228280  0.766410  1
  Si  Si23  1  0.878419  0.271742  0.766453  1
  Si  Si24  1  0.887749  0.728048  0.766486  1
  Si  Si25  1  0.388458  0.771840  0.766338  1
  Si  Si26  1  0.154822  0.005702  0.766368  1
  Si  Si27  1  0.655149  0.494740  0.766514  1
  Si  Si28  1  0.111441  0.505668  0.766388  1
  Si  Si29  1  0.611327  0.993892  0.766305  1
  Ru  Ru30  1  0.373389  0.126703  0.999765  1
  Ru  Ru31  1  0.873624  0.373297  0.000235  1
  Ru  Ru32  1  0.126656  0.626580  0.000142  1
  Ru  Ru33  1  0.626514  0.873420  0.999858  1
  Ru  Ru34  1  0.169115  0.999335  0.336595  1
  Ru  Ru35  1  0.667495  0.500902  0.336612  1
  Ru  Ru36  1  0.830884  0.999098  0.663388  1
  Ru  Ru37  1  0.332521  0.500665  0.663405  1
