# generated using pymatgen
data_Tb17(ErRu4)3
_symmetry_space_group_name_H-M   'P 1'
_cell_length_a   6.39139700
_cell_length_b   10.85327100
_cell_length_c   10.85327100
_cell_angle_alpha   90.00000000
_cell_angle_beta   90.00000000
_cell_angle_gamma   90.00000000
_symmetry_Int_Tables_number   1
_chemical_formula_structural   Tb17(ErRu4)3
_chemical_formula_sum   'Tb17 Er3 Ru12'
_cell_volume   752.86496755
_cell_formula_units_Z   1
loop_
 _symmetry_equiv_pos_site_id
 _symmetry_equiv_pos_as_xyz
  1  'x, y, z'
loop_
 _atom_site_type_symbol
 _atom_site_label
 _atom_site_symmetry_multiplicity
 _atom_site_fract_x
 _atom_site_fract_y
 _atom_site_fract_z
 _atom_site_occupancy
  Tb  Tb0  1  0.377526  0.837059  0.542513  1
  Tb  Tb1  1  0.877839  0.664137  0.540809  1
  Tb  Tb2  1  0.877839  0.835863  0.959191  1
  Tb  Tb3  1  0.377526  0.662941  0.957487  1
  Tb  Tb4  1  0.877374  0.541498  0.835847  1
  Tb  Tb5  1  0.377311  0.958690  0.837154  1
  Tb  Tb6  1  0.377311  0.541310  0.662846  1
  Tb  Tb7  1  0.877374  0.958502  0.664153  1
  Tb  Tb8  1  0.622689  0.162846  0.458691  1
  Tb  Tb9  1  0.122626  0.335847  0.458503  1
  Tb  Tb10  1  0.122626  0.164153  0.041498  1
  Tb  Tb11  1  0.622689  0.337154  0.041310  1
  Tb  Tb12  1  0.122161  0.459192  0.164137  1
  Tb  Tb13  1  0.622474  0.042513  0.162941  1
  Tb  Tb14  1  0.622474  0.457488  0.337059  1
  Tb  Tb15  1  0.122161  0.040809  0.335863  1
  Tb  Tb16  1  0.500000  0.750000  0.250000  1
  Er  Er17  1  0.000000  0.750000  0.250000  1
  Er  Er18  1  0.000000  0.250000  0.750000  1
  Er  Er19  1  0.500000  0.250000  0.750000  1
  Ru  Ru20  1  0.250255  0.902449  0.096908  1
  Ru  Ru21  1  0.749745  0.596908  0.097551  1
  Ru  Ru22  1  0.749745  0.903092  0.402449  1
  Ru  Ru23  1  0.250255  0.597551  0.403092  1
  Ru  Ru24  1  0.750765  0.097283  0.902020  1
  Ru  Ru25  1  0.249235  0.402020  0.902717  1
  Ru  Ru26  1  0.249235  0.097980  0.597283  1
  Ru  Ru27  1  0.750765  0.402717  0.597980  1
  Ru  Ru28  1  0.122770  0.750000  0.750000  1
  Ru  Ru29  1  0.622402  0.750000  0.750000  1
  Ru  Ru30  1  0.877230  0.250000  0.250000  1
  Ru  Ru31  1  0.377598  0.250000  0.250000  1
