# generated using pymatgen
data_MnGa6Rh
_symmetry_space_group_name_H-M   'P 1'
_cell_length_a   6.45097405
_cell_length_b   6.45097405
_cell_length_c   6.67520100
_cell_angle_alpha   90.00000000
_cell_angle_beta   90.00000000
_cell_angle_gamma   90.36681588
_symmetry_Int_Tables_number   1
_chemical_formula_structural   MnGa6Rh
_chemical_formula_sum   'Mn2 Ga12 Rh2'
_cell_volume   277.78323865
_cell_formula_units_Z   2
loop_
 _symmetry_equiv_pos_site_id
 _symmetry_equiv_pos_as_xyz
  1  'x, y, z'
loop_
 _atom_site_type_symbol
 _atom_site_label
 _atom_site_symmetry_multiplicity
 _atom_site_fract_x
 _atom_site_fract_y
 _atom_site_fract_z
 _atom_site_occupancy
  Mn  Mn0  1  0.159693  0.840307  0.500000  1
  Mn  Mn1  1  0.840307  0.159693  0.500000  1
  Ga  Ga2  1  0.000000  0.500000  0.500000  1
  Ga  Ga3  1  0.500000  0.000000  0.000000  1
  Ga  Ga4  1  0.500000  0.000000  0.500000  1
  Ga  Ga5  1  0.000000  0.500000  0.000000  1
  Ga  Ga6  1  0.343384  0.656616  0.247473  1
  Ga  Ga7  1  0.656616  0.343384  0.247473  1
  Ga  Ga8  1  0.152476  0.152476  0.725691  1
  Ga  Ga9  1  0.847524  0.847524  0.725691  1
  Ga  Ga10  1  0.656616  0.343384  0.752527  1
  Ga  Ga11  1  0.343384  0.656616  0.752527  1
  Ga  Ga12  1  0.847524  0.847524  0.274309  1
  Ga  Ga13  1  0.152476  0.152476  0.274309  1
  Rh  Rh14  1  0.341820  0.341820  0.000000  1
  Rh  Rh15  1  0.658180  0.658180  0.000000  1
