# generated using pymatgen
data_LiLu3ZnIn3Rh
_symmetry_space_group_name_H-M   'P 1'
_cell_length_a   7.88333100
_cell_length_b   7.88333033
_cell_length_c   3.54215000
_cell_angle_alpha   90.00000000
_cell_angle_beta   90.00000000
_cell_angle_gamma   119.99999024
_symmetry_Int_Tables_number   1
_chemical_formula_structural   LiLu3ZnIn3Rh
_chemical_formula_sum   'Li1 Lu3 Zn1 In3 Rh1'
_cell_volume   190.64135199
_cell_formula_units_Z   1
loop_
 _symmetry_equiv_pos_site_id
 _symmetry_equiv_pos_as_xyz
  1  'x, y, z'
loop_
 _atom_site_type_symbol
 _atom_site_label
 _atom_site_symmetry_multiplicity
 _atom_site_fract_x
 _atom_site_fract_y
 _atom_site_fract_z
 _atom_site_occupancy
  Li  Li0  1  0.000000  0.000000  0.500000  1
  Lu  Lu1  1  0.027353  0.609822  0.500000  1
  Lu  Lu2  1  0.390178  0.417532  0.500000  1
  Lu  Lu3  1  0.582468  0.972647  0.500000  1
  Zn  Zn4  1  0.666667  0.333333  0.000000  1
  In  In5  1  0.270644  0.011171  0.000000  1
  In  In6  1  0.740526  0.729356  0.000000  1
  In  In7  1  0.988829  0.259474  0.000000  1
  Rh  Rh8  1  0.333333  0.666667  0.000000  1
