# generated using pymatgen
data_Mn24Re5
_symmetry_space_group_name_H-M   'P 1'
_cell_length_a   7.56192043
_cell_length_b   7.56192130
_cell_length_c   7.56192000
_cell_angle_alpha   109.47121715
_cell_angle_beta   109.47121949
_cell_angle_gamma   109.47122322
_symmetry_Int_Tables_number   1
_chemical_formula_structural   Mn24Re5
_chemical_formula_sum   'Mn24 Re5'
_cell_volume   332.86984590
_cell_formula_units_Z   1
loop_
 _symmetry_equiv_pos_site_id
 _symmetry_equiv_pos_as_xyz
  1  'x, y, z'
loop_
 _atom_site_type_symbol
 _atom_site_label
 _atom_site_symmetry_multiplicity
 _atom_site_fract_x
 _atom_site_fract_y
 _atom_site_fract_z
 _atom_site_occupancy
  Mn  Mn0  1  0.389156  0.676447  0.000000  1
  Mn  Mn1  1  0.712709  0.323553  0.323553  1
  Mn  Mn2  1  0.389156  0.000000  0.676447  1
  Mn  Mn3  1  0.676447  0.389156  0.000000  1
  Mn  Mn4  1  0.000000  0.389156  0.676447  1
  Mn  Mn5  1  0.323553  0.712709  0.323553  1
  Mn  Mn6  1  0.323553  0.323553  0.712709  1
  Mn  Mn7  1  0.000000  0.676447  0.389156  1
  Mn  Mn8  1  0.676447  0.000000  0.389156  1
  Mn  Mn9  1  0.610844  0.610844  0.287291  1
  Mn  Mn10  1  0.287291  0.610844  0.610844  1
  Mn  Mn11  1  0.610844  0.287291  0.610844  1
  Mn  Mn12  1  0.374230  0.194307  0.000000  1
  Mn  Mn13  1  0.179923  0.805693  0.805693  1
  Mn  Mn14  1  0.374230  0.000000  0.194307  1
  Mn  Mn15  1  0.194307  0.374230  0.000000  1
  Mn  Mn16  1  0.000000  0.374230  0.194307  1
  Mn  Mn17  1  0.805693  0.179923  0.805693  1
  Mn  Mn18  1  0.805693  0.805693  0.179923  1
  Mn  Mn19  1  0.000000  0.194307  0.374230  1
  Mn  Mn20  1  0.194307  0.000000  0.374230  1
  Mn  Mn21  1  0.625770  0.625770  0.820077  1
  Mn  Mn22  1  0.820077  0.625770  0.625770  1
  Mn  Mn23  1  0.625770  0.820077  0.625770  1
  Re  Re24  1  0.000000  0.000000  0.000000  1
  Re  Re25  1  0.633090  0.000000  0.000000  1
  Re  Re26  1  0.000000  0.633090  0.000000  1
  Re  Re27  1  0.000000  0.000000  0.633090  1
  Re  Re28  1  0.366910  0.366910  0.366910  1
