# generated using pymatgen
data_YHf3Ge6Ir7
_symmetry_space_group_name_H-M   'P 1'
_cell_length_a   7.16637010
_cell_length_b   7.12201568
_cell_length_c   7.16637123
_cell_angle_alpha   109.34589891
_cell_angle_beta   109.59625970
_cell_angle_gamma   109.34588440
_symmetry_Int_Tables_number   1
_chemical_formula_structural   YHf3Ge6Ir7
_chemical_formula_sum   'Y1 Hf3 Ge6 Ir7'
_cell_volume   281.99990416
_cell_formula_units_Z   1
loop_
 _symmetry_equiv_pos_site_id
 _symmetry_equiv_pos_as_xyz
  1  'x, y, z'
loop_
 _atom_site_type_symbol
 _atom_site_label
 _atom_site_symmetry_multiplicity
 _atom_site_fract_x
 _atom_site_fract_y
 _atom_site_fract_z
 _atom_site_occupancy
  Y  Y0  1  0.000000  0.500000  0.000000  1
  Hf  Hf1  1  0.500000  0.500000  0.500000  1
  Hf  Hf2  1  0.000000  0.000000  0.500000  1
  Hf  Hf3  1  0.500000  0.000000  0.000000  1
  Ge  Ge4  1  0.684706  0.998971  0.684706  1
  Ge  Ge5  1  0.315294  0.001029  0.315294  1
  Ge  Ge6  1  0.000000  0.314265  0.315294  1
  Ge  Ge7  1  0.000000  0.685735  0.684706  1
  Ge  Ge8  1  0.684706  0.685735  0.000000  1
  Ge  Ge9  1  0.315294  0.314265  0.000000  1
  Ir  Ir10  1  0.254004  0.500000  0.745996  1
  Ir  Ir11  1  0.254004  0.754004  0.508009  1
  Ir  Ir12  1  0.491991  0.245996  0.745996  1
  Ir  Ir13  1  0.508009  0.754004  0.254004  1
  Ir  Ir14  1  0.745996  0.500000  0.254004  1
  Ir  Ir15  1  0.000000  0.000000  0.000000  1
  Ir  Ir16  1  0.745996  0.245996  0.491991  1
