# generated using pymatgen
data_Tb4ErP12Ru18Pt
_symmetry_space_group_name_H-M   'P 1'
_cell_length_a   12.58908423
_cell_length_b   12.58962857
_cell_length_c   3.98919100
_cell_angle_alpha   90.00000000
_cell_angle_beta   90.00000000
_cell_angle_gamma   120.54325235
_symmetry_Int_Tables_number   1
_chemical_formula_structural   Tb4ErP12Ru18Pt
_chemical_formula_sum   'Tb4 Er1 P12 Ru18 Pt1'
_cell_volume   544.52646501
_cell_formula_units_Z   1
loop_
 _symmetry_equiv_pos_site_id
 _symmetry_equiv_pos_as_xyz
  1  'x, y, z'
loop_
 _atom_site_type_symbol
 _atom_site_label
 _atom_site_symmetry_multiplicity
 _atom_site_fract_x
 _atom_site_fract_y
 _atom_site_fract_z
 _atom_site_occupancy
  Tb  Tb0  1  0.182707  0.182691  0.500000  1
  Tb  Tb1  1  0.815563  0.998268  0.500000  1
  Tb  Tb2  1  0.998240  0.815531  0.500000  1
  Tb  Tb3  1  0.329800  0.668730  0.000000  1
  Er  Er4  1  0.668652  0.329607  0.000000  1
  P  P5  1  0.811626  0.811542  0.000000  1
  P  P6  1  0.184247  0.002004  0.000000  1
  P  P7  1  0.001866  0.184176  0.000000  1
  P  P8  1  0.172740  0.479704  0.500000  1
  P  P9  1  0.519182  0.701301  0.500000  1
  P  P10  1  0.305772  0.832407  0.500000  1
  P  P11  1  0.701117  0.518595  0.500000  1
  P  P12  1  0.832059  0.305900  0.500000  1
  P  P13  1  0.480259  0.173235  0.500000  1
  P  P14  1  0.364350  0.364411  0.000000  1
  P  P15  1  0.626654  0.000158  0.000000  1
  P  P16  1  0.000291  0.626754  0.000000  1
  Ru  Ru17  1  0.446256  0.002436  0.000000  1
  Ru  Ru18  1  0.002456  0.446261  0.000000  1
  Ru  Ru19  1  0.709646  0.709538  0.500000  1
  Ru  Ru20  1  0.283476  0.002813  0.500000  1
  Ru  Ru21  1  0.002549  0.283320  0.500000  1
  Ru  Ru22  1  0.186536  0.379186  0.000000  1
  Ru  Ru23  1  0.620439  0.805994  0.000000  1
  Ru  Ru24  1  0.190113  0.817133  0.000000  1
  Ru  Ru25  1  0.805814  0.619968  0.000000  1
  Ru  Ru26  1  0.816819  0.190268  0.000000  1
  Ru  Ru27  1  0.379652  0.186826  0.000000  1
  Ru  Ru28  1  0.367673  0.494996  0.500000  1
  Ru  Ru29  1  0.508181  0.878552  0.500000  1
  Ru  Ru30  1  0.128285  0.636339  0.500000  1
  Ru  Ru31  1  0.877760  0.507409  0.500000  1
  Ru  Ru32  1  0.636383  0.129103  0.500000  1
  Ru  Ru33  1  0.495725  0.367681  0.500000  1
  Ru  Ru34  1  0.997121  0.997132  0.000000  1
  Pt  Pt35  1  0.549995  0.550033  0.000000  1
