# generated using pymatgen
data_CeWF7
_symmetry_space_group_name_H-M   'P 1'
_cell_length_a   5.89676300
_cell_length_b   6.26979113
_cell_length_c   8.56117631
_cell_angle_alpha   102.20780182
_cell_angle_beta   90.00000000
_cell_angle_gamma   90.00000000
_symmetry_Int_Tables_number   1
_chemical_formula_structural   CeWF7
_chemical_formula_sum   'Ce2 W2 F14'
_cell_volume   309.36187738
_cell_formula_units_Z   2
loop_
 _symmetry_equiv_pos_site_id
 _symmetry_equiv_pos_as_xyz
  1  'x, y, z'
loop_
 _atom_site_type_symbol
 _atom_site_label
 _atom_site_symmetry_multiplicity
 _atom_site_fract_x
 _atom_site_fract_y
 _atom_site_fract_z
 _atom_site_occupancy
  Ce  Ce0  1  0.702965  0.656530  0.688033  1
  Ce  Ce1  1  0.202965  0.343470  0.311967  1
  W  W2  1  0.710794  0.813030  0.224415  1
  W  W3  1  0.210794  0.186970  0.775585  1
  F  F4  1  0.885857  0.447231  0.476699  1
  F  F5  1  0.385857  0.552769  0.523301  1
  F  F6  1  0.418622  0.934460  0.769609  1
  F  F7  1  0.918622  0.065540  0.230391  1
  F  F8  1  0.943781  0.968339  0.760922  1
  F  F9  1  0.443781  0.031661  0.239078  1
  F  F10  1  0.004736  0.443262  0.788060  1
  F  F11  1  0.504736  0.556738  0.211940  1
  F  F12  1  0.704696  0.760736  0.986433  1
  F  F13  1  0.204696  0.239264  0.013567  1
  F  F14  1  0.710141  0.862527  0.462444  1
  F  F15  1  0.210141  0.137473  0.537556  1
  F  F16  1  0.494767  0.382993  0.784862  1
  F  F17  1  0.994767  0.617007  0.215138  1
