# generated using pymatgen
data_Tb17Th3(Ir2Ru)4
_symmetry_space_group_name_H-M   'P 1'
_cell_length_a   10.96198072
_cell_length_b   10.91765165
_cell_length_c   6.45487959
_cell_angle_alpha   90.05731764
_cell_angle_beta   89.71655561
_cell_angle_gamma   90.02546223
_symmetry_Int_Tables_number   1
_chemical_formula_structural   Tb17Th3(Ir2Ru)4
_chemical_formula_sum   'Tb17 Th3 Ir8 Ru4'
_cell_volume   772.50418129
_cell_formula_units_Z   1
loop_
 _symmetry_equiv_pos_site_id
 _symmetry_equiv_pos_as_xyz
  1  'x, y, z'
loop_
 _atom_site_type_symbol
 _atom_site_label
 _atom_site_symmetry_multiplicity
 _atom_site_fract_x
 _atom_site_fract_y
 _atom_site_fract_z
 _atom_site_occupancy
  Tb  Tb0  1  0.706519  0.909180  0.378732  1
  Tb  Tb1  1  0.591139  0.787394  0.880139  1
  Tb  Tb2  1  0.591593  0.209906  0.380157  1
  Tb  Tb3  1  0.415594  0.787252  0.379366  1
  Tb  Tb4  1  0.410259  0.214414  0.878467  1
  Tb  Tb5  1  0.205354  0.414663  0.619355  1
  Tb  Tb6  1  0.205371  0.586736  0.120533  1
  Tb  Tb7  1  0.793966  0.414658  0.118662  1
  Tb  Tb8  1  0.795081  0.586227  0.618980  1
  Tb  Tb9  1  0.913174  0.705996  0.118299  1
  Tb  Tb10  1  0.914858  0.294582  0.615941  1
  Tb  Tb11  1  0.084825  0.705232  0.618170  1
  Tb  Tb12  1  0.084596  0.295491  0.115425  1
  Tb  Tb13  1  0.996010  0.998767  0.502452  1
  Tb  Tb14  1  0.000524  0.000037  0.003420  1
  Tb  Tb15  1  0.499831  0.499972  0.008822  1
  Tb  Tb16  1  0.501818  0.499043  0.508322  1
  Th  Th17  1  0.294946  0.090389  0.378782  1
  Th  Th18  1  0.294185  0.908770  0.878081  1
  Th  Th19  1  0.705123  0.088164  0.881285  1
  Ir  Ir20  1  0.843989  0.151847  0.243009  1
  Ir  Ir21  1  0.842629  0.851069  0.754503  1
  Ir  Ir22  1  0.156924  0.148824  0.743675  1
  Ir  Ir23  1  0.158386  0.851522  0.248552  1
  Ir  Ir24  1  0.653987  0.344877  0.753903  1
  Ir  Ir25  1  0.653441  0.650957  0.251119  1
  Ir  Ir26  1  0.346125  0.346346  0.255459  1
  Ir  Ir27  1  0.347416  0.654210  0.753102  1
  Ru  Ru28  1  0.495217  0.002143  0.119570  1
  Ru  Ru29  1  0.497870  0.000295  0.626455  1
  Ru  Ru30  1  0.999618  0.500245  0.873889  1
  Ru  Ru31  1  0.999631  0.500790  0.373375  1
