# generated using pymatgen
data_Hf8Ti11Nb(SiGe)8
_symmetry_space_group_name_H-M   'P 1'
_cell_length_a   6.70566214
_cell_length_b   6.81209083
_cell_length_c   13.03856000
_cell_angle_alpha   90.00000000
_cell_angle_beta   90.00000000
_cell_angle_gamma   90.01675853
_symmetry_Int_Tables_number   1
_chemical_formula_structural   Hf8Ti11Nb(SiGe)8
_chemical_formula_sum   'Hf8 Ti11 Nb1 Si8 Ge8'
_cell_volume   595.59591362
_cell_formula_units_Z   1
loop_
 _symmetry_equiv_pos_site_id
 _symmetry_equiv_pos_as_xyz
  1  'x, y, z'
loop_
 _atom_site_type_symbol
 _atom_site_label
 _atom_site_symmetry_multiplicity
 _atom_site_fract_x
 _atom_site_fract_y
 _atom_site_fract_z
 _atom_site_occupancy
  Hf  Hf0  1  0.490929  0.675518  0.598045  1
  Hf  Hf1  1  0.991626  0.823597  0.901953  1
  Hf  Hf2  1  0.509773  0.323205  0.098353  1
  Hf  Hf3  1  0.009134  0.175155  0.401447  1
  Hf  Hf4  1  0.509773  0.323205  0.401647  1
  Hf  Hf5  1  0.009134  0.175155  0.098553  1
  Hf  Hf6  1  0.490929  0.675518  0.901955  1
  Hf  Hf7  1  0.991626  0.823597  0.598047  1
  Ti  Ti8  1  0.655610  0.168029  0.629042  1
  Ti  Ti9  1  0.155710  0.332737  0.871630  1
  Ti  Ti10  1  0.343822  0.832607  0.127407  1
  Ti  Ti11  1  0.842980  0.668727  0.372447  1
  Ti  Ti12  1  0.343822  0.832607  0.372593  1
  Ti  Ti13  1  0.842980  0.668727  0.127553  1
  Ti  Ti14  1  0.655610  0.168029  0.870958  1
  Ti  Ti15  1  0.155710  0.332737  0.628370  1
  Ti  Ti16  1  0.828917  0.495444  0.750000  1
  Ti  Ti17  1  0.329106  0.003606  0.750000  1
  Ti  Ti18  1  0.171219  0.505468  0.250000  1
  Nb  Nb19  1  0.671345  0.996212  0.250000  1
  Si  Si20  1  0.454337  0.383308  0.750000  1
  Si  Si21  1  0.955255  0.116542  0.750000  1
  Si  Si22  1  0.543596  0.615261  0.250000  1
  Si  Si23  1  0.047653  0.881256  0.250000  1
  Si  Si24  1  0.695468  0.862120  0.750000  1
  Si  Si25  1  0.195014  0.637299  0.750000  1
  Si  Si26  1  0.300866  0.139377  0.250000  1
  Si  Si27  1  0.807047  0.367072  0.250000  1
  Ge  Ge28  1  0.683869  0.959318  0.462713  1
  Ge  Ge29  1  0.183569  0.539882  0.039827  1
  Ge  Ge30  1  0.316421  0.040764  0.959821  1
  Ge  Ge31  1  0.816645  0.458979  0.540059  1
  Ge  Ge32  1  0.316421  0.040764  0.540179  1
  Ge  Ge33  1  0.816645  0.458979  0.959941  1
  Ge  Ge34  1  0.683869  0.959318  0.037287  1
  Ge  Ge35  1  0.183569  0.539882  0.460173  1
