# generated using pymatgen
data_Er4Hf3O12
_symmetry_space_group_name_H-M   'P 1'
_cell_length_a   6.32148949
_cell_length_b   6.40916292
_cell_length_c   12.72758344
_cell_angle_alpha   99.27488729
_cell_angle_beta   99.36255295
_cell_angle_gamma   99.25974619
_symmetry_Int_Tables_number   1
_chemical_formula_structural   Er4Hf3O12
_chemical_formula_sum   'Er8 Hf6 O24'
_cell_volume   492.78379163
_cell_formula_units_Z   2
loop_
 _symmetry_equiv_pos_site_id
 _symmetry_equiv_pos_as_xyz
  1  'x, y, z'
loop_
 _atom_site_type_symbol
 _atom_site_label
 _atom_site_symmetry_multiplicity
 _atom_site_fract_x
 _atom_site_fract_y
 _atom_site_fract_z
 _atom_site_occupancy
  Er  Er0  1  0.297294  0.610182  0.817605  1
  Er  Er1  1  0.387134  0.865474  0.597347  1
  Er  Er2  1  0.860122  0.693521  0.947204  1
  Er  Er3  1  0.309206  0.611993  0.318233  1
  Er  Er4  1  0.140940  0.306741  0.052734  1
  Er  Er5  1  0.703124  0.388947  0.181838  1
  Er  Er6  1  0.689562  0.389628  0.682239  1
  Er  Er7  1  0.611459  0.135295  0.403984  1
  Hf  Hf8  1  0.007896  0.006867  0.253764  1
  Hf  Hf9  1  0.393786  0.855140  0.091966  1
  Hf  Hf10  1  0.992300  0.993577  0.746380  1
  Hf  Hf11  1  0.852590  0.671511  0.447268  1
  Hf  Hf12  1  0.146680  0.327567  0.552816  1
  Hf  Hf13  1  0.607786  0.143821  0.906082  1
  O  O14  1  0.317319  0.964313  0.795878  1
  O  O15  1  0.078573  0.919903  0.095700  1
  O  O16  1  0.319001  0.947637  0.289554  1
  O  O17  1  0.028967  0.888020  0.588865  1
  O  O18  1  0.566619  0.831693  0.961748  1
  O  O19  1  0.590256  0.817959  0.462321  1
  O  O20  1  0.186839  0.593093  0.969629  1
  O  O21  1  0.926568  0.682872  0.777996  1
  O  O22  1  0.427698  0.586247  0.158079  1
  O  O23  1  0.172021  0.575585  0.465426  1
  O  O24  1  0.923800  0.697722  0.293488  1
  O  O25  1  0.572237  0.414684  0.842002  1
  O  O26  1  0.407136  0.567123  0.657105  1
  O  O27  1  0.072228  0.317255  0.221348  1
  O  O28  1  0.813247  0.405232  0.029370  1
  O  O29  1  0.593339  0.432713  0.342824  1
  O  O30  1  0.077901  0.302285  0.707150  1
  O  O31  1  0.827766  0.424673  0.535533  1
  O  O32  1  0.433072  0.167393  0.036594  1
  O  O33  1  0.409501  0.181655  0.538441  1
  O  O34  1  0.923571  0.077311  0.905077  1
  O  O35  1  0.682238  0.033710  0.202259  1
  O  O36  1  0.969564  0.115021  0.410535  1
  O  O37  1  0.680662  0.055638  0.713618  1
