# generated using pymatgen
data_La2Si7(PdPt3)3
_symmetry_space_group_name_H-M   'P 1'
_cell_length_a   9.94013200
_cell_length_b   9.94012992
_cell_length_c   4.00379300
_cell_angle_alpha   90.00000000
_cell_angle_beta   90.00000000
_cell_angle_gamma   120.00000028
_symmetry_Int_Tables_number   1
_chemical_formula_structural   La2Si7(PdPt3)3
_chemical_formula_sum   'La2 Si7 Pd3 Pt9'
_cell_volume   342.59929005
_cell_formula_units_Z   1
loop_
 _symmetry_equiv_pos_site_id
 _symmetry_equiv_pos_as_xyz
  1  'x, y, z'
loop_
 _atom_site_type_symbol
 _atom_site_label
 _atom_site_symmetry_multiplicity
 _atom_site_fract_x
 _atom_site_fract_y
 _atom_site_fract_z
 _atom_site_occupancy
  La  La0  1  0.000000  0.000000  0.000000  1
  La  La1  1  0.333333  0.666667  0.500000  1
  Si  Si2  1  0.269582  0.225952  0.500000  1
  Si  Si3  1  0.774048  0.043632  0.500000  1
  Si  Si4  1  0.956368  0.730418  0.500000  1
  Si  Si5  1  0.554734  0.628523  0.000000  1
  Si  Si6  1  0.371477  0.926210  0.000000  1
  Si  Si7  1  0.073790  0.445266  0.000000  1
  Si  Si8  1  0.666667  0.333333  0.000000  1
  Pd  Pd9  1  0.879139  0.454295  0.500000  1
  Pd  Pd10  1  0.575157  0.120861  0.500000  1
  Pd  Pd11  1  0.545705  0.424843  0.500000  1
  Pt  Pt12  1  0.225773  0.947677  0.500000  1
  Pt  Pt13  1  0.052323  0.278097  0.500000  1
  Pt  Pt14  1  0.721903  0.774227  0.500000  1
  Pt  Pt15  1  0.298376  0.405247  0.000000  1
  Pt  Pt16  1  0.594753  0.893129  0.000000  1
  Pt  Pt17  1  0.106871  0.701624  0.000000  1
  Pt  Pt18  1  0.391446  0.177203  0.000000  1
  Pt  Pt19  1  0.822797  0.214243  0.000000  1
  Pt  Pt20  1  0.785757  0.608554  0.000000  1
