# generated using pymatgen
data_Sm3Dy3Co16(ReP6)2
_symmetry_space_group_name_H-M   'P 1'
_cell_length_a   3.75182400
_cell_length_b   10.57226000
_cell_length_c   12.30932100
_cell_angle_alpha   90.00225909
_cell_angle_beta   90.00000000
_cell_angle_gamma   90.00000000
_symmetry_Int_Tables_number   1
_chemical_formula_structural   Sm3Dy3Co16(ReP6)2
_chemical_formula_sum   'Sm3 Dy3 Co16 Re2 P12'
_cell_volume   488.25240296
_cell_formula_units_Z   1
loop_
 _symmetry_equiv_pos_site_id
 _symmetry_equiv_pos_as_xyz
  1  'x, y, z'
loop_
 _atom_site_type_symbol
 _atom_site_label
 _atom_site_symmetry_multiplicity
 _atom_site_fract_x
 _atom_site_fract_y
 _atom_site_fract_z
 _atom_site_occupancy
  Sm  Sm0  1  0.000000  0.500175  0.523434  1
  Sm  Sm1  1  0.500000  0.999956  0.476155  1
  Sm  Sm2  1  0.000000  0.318054  0.794424  1
  Dy  Dy3  1  0.500000  0.817736  0.205502  1
  Dy  Dy4  1  0.500000  0.182148  0.205349  1
  Dy  Dy5  1  0.000000  0.682628  0.794663  1
  Co  Co6  1  0.500000  0.501731  0.703626  1
  Co  Co7  1  0.000000  0.999936  0.295831  1
  Co  Co8  1  0.000000  0.500812  0.988711  1
  Co  Co9  1  0.500000  0.999320  0.012496  1
  Co  Co10  1  0.500000  0.332461  0.991464  1
  Co  Co11  1  0.500000  0.668260  0.990368  1
  Co  Co12  1  0.000000  0.166919  0.010586  1
  Co  Co13  1  0.000000  0.832277  0.010194  1
  Co  Co14  1  0.500000  0.296230  0.429390  1
  Co  Co15  1  0.500000  0.703772  0.429954  1
  Co  Co16  1  0.000000  0.203508  0.568745  1
  Co  Co17  1  0.000000  0.796393  0.569911  1
  Co  Co18  1  0.500000  0.879057  0.710292  1
  Co  Co19  1  0.500000  0.118923  0.709544  1
  Co  Co20  1  0.000000  0.620481  0.289793  1
  Co  Co21  1  0.000000  0.379569  0.289515  1
  Re  Re22  1  0.500000  0.500480  0.155233  1
  Re  Re23  1  0.000000  0.999197  0.845087  1
  P  P24  1  0.500000  0.501585  0.882171  1
  P  P25  1  0.000000  0.999720  0.119039  1
  P  P26  1  0.500000  0.499977  0.346295  1
  P  P27  1  0.000000  0.000230  0.653562  1
  P  P28  1  0.500000  0.309182  0.614736  1
  P  P29  1  0.500000  0.690595  0.616629  1
  P  P30  1  0.000000  0.190085  0.382773  1
  P  P31  1  0.000000  0.809754  0.383066  1
  P  P32  1  0.500000  0.845882  0.893115  1
  P  P33  1  0.500000  0.152696  0.894156  1
  P  P34  1  0.000000  0.654473  0.107296  1
  P  P35  1  0.000000  0.345796  0.106895  1
