# generated using pymatgen
data_Dy2TiCrO8
_symmetry_space_group_name_H-M   'P 1'
_cell_length_a   6.03006305
_cell_length_b   6.03006218
_cell_length_c   6.03006331
_cell_angle_alpha   106.11591333
_cell_angle_beta   106.11591024
_cell_angle_gamma   116.41292184
_symmetry_Int_Tables_number   1
_chemical_formula_structural   Dy2TiCrO8
_chemical_formula_sum   'Dy2 Ti1 Cr1 O8'
_cell_volume   166.90893362
_cell_formula_units_Z   1
loop_
 _symmetry_equiv_pos_site_id
 _symmetry_equiv_pos_as_xyz
  1  'x, y, z'
loop_
 _atom_site_type_symbol
 _atom_site_label
 _atom_site_symmetry_multiplicity
 _atom_site_fract_x
 _atom_site_fract_y
 _atom_site_fract_z
 _atom_site_occupancy
  Dy  Dy0  1  0.750000  0.250000  0.500000  1
  Dy  Dy1  1  0.500000  0.500000  0.000000  1
  Ti  Ti2  1  0.250000  0.750000  0.500000  1
  Cr  Cr3  1  0.000000  0.000000  0.000000  1
  O  O4  1  0.838504  0.018547  0.180043  1
  O  O5  1  0.868365  0.556416  0.311950  1
  O  O6  1  0.244466  0.556416  0.688050  1
  O  O7  1  0.838504  0.658461  0.819957  1
  O  O8  1  0.341539  0.161496  0.180043  1
  O  O9  1  0.443584  0.755534  0.311950  1
  O  O10  1  0.443584  0.131635  0.688050  1
  O  O11  1  0.981453  0.161496  0.819957  1
