# generated using pymatgen
data_Sm2Y3Sc(Si3Ru)8
_symmetry_space_group_name_H-M   'P 1'
_cell_length_a   10.09569147
_cell_length_b   10.09569142
_cell_length_c   8.14030223
_cell_angle_alpha   90.00899230
_cell_angle_beta   90.00899610
_cell_angle_gamma   132.46550788
_symmetry_Int_Tables_number   1
_chemical_formula_structural   Sm2Y3Sc(Si3Ru)8
_chemical_formula_sum   'Sm2 Y3 Sc1 Si24 Ru8'
_cell_volume   612.04442215
_cell_formula_units_Z   1
loop_
 _symmetry_equiv_pos_site_id
 _symmetry_equiv_pos_as_xyz
  1  'x, y, z'
loop_
 _atom_site_type_symbol
 _atom_site_label
 _atom_site_symmetry_multiplicity
 _atom_site_fract_x
 _atom_site_fract_y
 _atom_site_fract_z
 _atom_site_occupancy
  Sm  Sm0  1  0.002591  0.502354  0.249550  1
  Sm  Sm1  1  0.497646  0.997409  0.750450  1
  Y  Y2  1  0.499997  0.500003  0.500000  1
  Y  Y3  1  0.997417  0.497665  0.750478  1
  Y  Y4  1  0.502335  0.002583  0.249522  1
  Sc  Sc5  1  0.999998  0.000002  0.000000  1
  Si  Si6  1  0.294378  0.705622  0.000000  1
  Si  Si7  1  0.795198  0.204802  0.500000  1
  Si  Si8  1  0.705604  0.294396  0.000000  1
  Si  Si9  1  0.204833  0.795167  0.500000  1
  Si  Si10  1  0.833663  0.833702  0.330877  1
  Si  Si11  1  0.166298  0.166337  0.669123  1
  Si  Si12  1  0.669656  0.669607  0.834517  1
  Si  Si13  1  0.330393  0.330344  0.165483  1
  Si  Si14  1  0.620648  0.386413  0.227568  1
  Si  Si15  1  0.613587  0.379352  0.772432  1
  Si  Si16  1  0.110320  0.878635  0.730389  1
  Si  Si17  1  0.121365  0.889680  0.269611  1
  Si  Si18  1  0.378658  0.613064  0.772393  1
  Si  Si19  1  0.386936  0.621342  0.227607  1
  Si  Si20  1  0.889235  0.120755  0.269658  1
  Si  Si21  1  0.879245  0.110765  0.730342  1
  Si  Si22  1  0.845556  0.614250  0.004142  1
  Si  Si23  1  0.385750  0.154444  0.995858  1
  Si  Si24  1  0.888311  0.655083  0.505307  1
  Si  Si25  1  0.344917  0.111689  0.494693  1
  Si  Si26  1  0.154329  0.385742  0.995306  1
  Si  Si27  1  0.614258  0.845671  0.004694  1
  Si  Si28  1  0.111687  0.344796  0.495293  1
  Si  Si29  1  0.655204  0.888313  0.504707  1
  Ru  Ru30  1  0.167205  0.832795  0.000000  1
  Ru  Ru31  1  0.668714  0.331286  0.500000  1
  Ru  Ru32  1  0.832758  0.167242  0.000000  1
  Ru  Ru33  1  0.331316  0.668684  0.500000  1
  Ru  Ru34  1  0.625939  0.626214  0.126745  1
  Ru  Ru35  1  0.373786  0.374061  0.873255  1
  Ru  Ru36  1  0.873852  0.873582  0.627513  1
  Ru  Ru37  1  0.126418  0.126148  0.372487  1
