# generated using pymatgen
data_Cs10Mn5CuS14
_symmetry_space_group_name_H-M   'P 1'
_cell_length_a   10.66668561
_cell_length_b   10.66668401
_cell_length_c   9.03559800
_cell_angle_alpha   79.04947516
_cell_angle_beta   79.04947135
_cell_angle_gamma   74.64364050
_symmetry_Int_Tables_number   1
_chemical_formula_structural   Cs10Mn5CuS14
_chemical_formula_sum   'Cs10 Mn5 Cu1 S14'
_cell_volume   962.65100539
_cell_formula_units_Z   1
loop_
 _symmetry_equiv_pos_site_id
 _symmetry_equiv_pos_as_xyz
  1  'x, y, z'
loop_
 _atom_site_type_symbol
 _atom_site_label
 _atom_site_symmetry_multiplicity
 _atom_site_fract_x
 _atom_site_fract_y
 _atom_site_fract_z
 _atom_site_occupancy
  Cs  Cs0  1  0.025907  0.430720  0.738111  1
  Cs  Cs1  1  0.430711  0.025891  0.738181  1
  Cs  Cs2  1  0.965112  0.568441  0.260609  1
  Cs  Cs3  1  0.568380  0.965134  0.260550  1
  Cs  Cs4  1  0.297184  0.707403  0.994081  1
  Cs  Cs5  1  0.707394  0.297170  0.994118  1
  Cs  Cs6  1  0.846644  0.151781  0.499924  1
  Cs  Cs7  1  0.151821  0.846663  0.499892  1
  Cs  Cs8  1  0.425334  0.425332  0.703549  1
  Cs  Cs9  1  0.573290  0.573295  0.299522  1
  Mn  Mn10  1  0.798846  0.798833  0.816022  1
  Mn  Mn11  1  0.064677  0.064701  0.058227  1
  Mn  Mn12  1  0.932618  0.932644  0.937901  1
  Mn  Mn13  1  0.334719  0.334709  0.330153  1
  Mn  Mn14  1  0.665675  0.665624  0.669016  1
  Cu  Cu15  1  0.206281  0.206307  0.191249  1
  S  S16  1  0.998738  0.263121  0.122012  1
  S  S17  1  0.263096  0.998791  0.121959  1
  S  S18  1  0.004473  0.726273  0.876826  1
  S  S19  1  0.725924  0.004169  0.877845  1
  S  S20  1  0.209726  0.209747  0.443798  1
  S  S21  1  0.802140  0.801003  0.569779  1
  S  S22  1  0.063678  0.063800  0.816316  1
  S  S23  1  0.937129  0.937086  0.182388  1
  S  S24  1  0.343743  0.343730  0.088825  1
  S  S25  1  0.665247  0.666243  0.920952  1
  S  S26  1  0.259305  0.528355  0.393006  1
  S  S27  1  0.528378  0.259285  0.393001  1
  S  S28  1  0.738128  0.465655  0.601072  1
  S  S29  1  0.465702  0.738093  0.601111  1
