# generated using pymatgen
data_Hf16Nb3Ni4Pd
_symmetry_space_group_name_H-M   'P 1'
_cell_length_a   8.73108863
_cell_length_b   8.73108756
_cell_length_c   8.73108854
_cell_angle_alpha   60.36044644
_cell_angle_beta   60.36045054
_cell_angle_gamma   60.36044913
_symmetry_Int_Tables_number   1
_chemical_formula_structural   Hf16Nb3Ni4Pd
_chemical_formula_sum   'Hf16 Nb3 Ni4 Pd1'
_cell_volume   474.47877969
_cell_formula_units_Z   1
loop_
 _symmetry_equiv_pos_site_id
 _symmetry_equiv_pos_as_xyz
  1  'x, y, z'
loop_
 _atom_site_type_symbol
 _atom_site_label
 _atom_site_symmetry_multiplicity
 _atom_site_fract_x
 _atom_site_fract_y
 _atom_site_fract_z
 _atom_site_occupancy
  Hf  Hf0  1  0.697950  0.100558  0.100558  1
  Hf  Hf1  1  0.100558  0.697950  0.100558  1
  Hf  Hf2  1  0.100558  0.100558  0.697950  1
  Hf  Hf3  1  0.102094  0.102094  0.102094  1
  Hf  Hf4  1  0.315853  0.315853  0.686418  1
  Hf  Hf5  1  0.685621  0.685621  0.315116  1
  Hf  Hf6  1  0.315853  0.686418  0.315853  1
  Hf  Hf7  1  0.685621  0.315116  0.685621  1
  Hf  Hf8  1  0.686418  0.315853  0.315853  1
  Hf  Hf9  1  0.315116  0.685621  0.685621  1
  Hf  Hf10  1  0.950809  0.950809  0.547845  1
  Hf  Hf11  1  0.554260  0.554260  0.945161  1
  Hf  Hf12  1  0.950809  0.547845  0.950809  1
  Hf  Hf13  1  0.554260  0.945161  0.554260  1
  Hf  Hf14  1  0.547845  0.950809  0.950809  1
  Hf  Hf15  1  0.945161  0.554260  0.554260  1
  Nb  Nb16  1  0.995592  0.333602  0.333602  1
  Nb  Nb17  1  0.333602  0.995592  0.333602  1
  Nb  Nb18  1  0.333602  0.333602  0.995592  1
  Ni  Ni19  1  0.324609  0.889571  0.889571  1
  Ni  Ni20  1  0.889571  0.324609  0.889571  1
  Ni  Ni21  1  0.889571  0.889571  0.324609  1
  Ni  Ni22  1  0.891377  0.891377  0.891377  1
  Pd  Pd23  1  0.333290  0.333290  0.333290  1
