# generated using pymatgen
data_ErTa4NbC5
_symmetry_space_group_name_H-M   'P 1'
_cell_length_a   5.56669286
_cell_length_b   5.57153640
_cell_length_c   5.54360173
_cell_angle_alpha   81.10278907
_cell_angle_beta   80.92410563
_cell_angle_gamma   120.43435023
_symmetry_Int_Tables_number   1
_chemical_formula_structural   ErTa4NbC5
_chemical_formula_sum   'Er1 Ta4 Nb1 C5'
_cell_volume   140.72294842
_cell_formula_units_Z   1
loop_
 _symmetry_equiv_pos_site_id
 _symmetry_equiv_pos_as_xyz
  1  'x, y, z'
loop_
 _atom_site_type_symbol
 _atom_site_label
 _atom_site_symmetry_multiplicity
 _atom_site_fract_x
 _atom_site_fract_y
 _atom_site_fract_z
 _atom_site_occupancy
  Er  Er0  1  0.750724  0.751675  0.749843  1
  Ta  Ta1  1  0.258004  0.258112  0.260467  1
  Ta  Ta2  1  0.087450  0.443410  0.743106  1
  Ta  Ta3  1  0.558973  0.908958  0.253891  1
  Ta  Ta4  1  0.908062  0.558140  0.254405  1
  Nb  Nb5  1  0.442881  0.088002  0.743890  1
  C  C6  1  0.492367  0.495568  0.494110  1
  C  C7  1  0.664504  0.320654  0.011414  1
  C  C8  1  0.317323  0.659032  0.011289  1
  C  C9  1  0.840345  0.181625  0.488684  1
  C  C10  1  0.179365  0.834823  0.488902  1
