# generated using pymatgen
data_Ta4Si3Ni4P
_symmetry_space_group_name_H-M   'P 1'
_cell_length_a   3.66192200
_cell_length_b   6.20560041
_cell_length_c   7.06561930
_cell_angle_alpha   89.50720619
_cell_angle_beta   90.00000000
_cell_angle_gamma   90.00000000
_symmetry_Int_Tables_number   1
_chemical_formula_structural   Ta4Si3Ni4P
_chemical_formula_sum   'Ta4 Si3 Ni4 P1'
_cell_volume   160.55619481
_cell_formula_units_Z   1
loop_
 _symmetry_equiv_pos_site_id
 _symmetry_equiv_pos_as_xyz
  1  'x, y, z'
loop_
 _atom_site_type_symbol
 _atom_site_label
 _atom_site_symmetry_multiplicity
 _atom_site_fract_x
 _atom_site_fract_y
 _atom_site_fract_z
 _atom_site_occupancy
  Ta  Ta0  1  0.250000  0.517777  0.172029  1
  Ta  Ta1  1  0.750000  0.486246  0.825301  1
  Ta  Ta2  1  0.750000  0.982569  0.675970  1
  Ta  Ta3  1  0.250000  0.017070  0.327399  1
  Si  Si4  1  0.750000  0.217274  0.115942  1
  Si  Si5  1  0.750000  0.713731  0.385006  1
  Si  Si6  1  0.250000  0.286419  0.615149  1
  Ni  Ni7  1  0.250000  0.662407  0.575897  1
  Ni  Ni8  1  0.750000  0.339283  0.427136  1
  Ni  Ni9  1  0.750000  0.842149  0.068379  1
  Ni  Ni10  1  0.250000  0.152255  0.928951  1
  P  P11  1  0.250000  0.782820  0.882840  1
