# generated using pymatgen
data_TbSm7(Tm3Si4)4
_symmetry_space_group_name_H-M   'P 1'
_cell_length_a   7.67385802
_cell_length_b   7.67576581
_cell_length_c   14.13999400
_cell_angle_alpha   90.06084318
_cell_angle_beta   89.99563218
_cell_angle_gamma   89.95393372
_symmetry_Int_Tables_number   1
_chemical_formula_structural   TbSm7(Tm3Si4)4
_chemical_formula_sum   'Tb1 Sm7 Tm12 Si16'
_cell_volume   832.88360694
_cell_formula_units_Z   1
loop_
 _symmetry_equiv_pos_site_id
 _symmetry_equiv_pos_as_xyz
  1  'x, y, z'
loop_
 _atom_site_type_symbol
 _atom_site_label
 _atom_site_symmetry_multiplicity
 _atom_site_fract_x
 _atom_site_fract_y
 _atom_site_fract_z
 _atom_site_occupancy
  Tb  Tb0  1  0.006357  0.358304  0.041362  1
  Sm  Sm1  1  0.642240  0.993191  0.459047  1
  Sm  Sm2  1  0.357605  0.007074  0.958643  1
  Sm  Sm3  1  0.993298  0.642248  0.541120  1
  Sm  Sm4  1  0.493238  0.857645  0.209153  1
  Sm  Sm5  1  0.506533  0.142154  0.708724  1
  Sm  Sm6  1  0.857542  0.493174  0.790926  1
  Sm  Sm7  1  0.142082  0.506615  0.291344  1
  Tm  Tm8  1  0.492393  0.360260  0.123937  1
  Tm  Tm9  1  0.992807  0.140093  0.625832  1
  Tm  Tm10  1  0.860211  0.007550  0.874522  1
  Tm  Tm11  1  0.139804  0.993035  0.374297  1
  Tm  Tm12  1  0.507015  0.639974  0.624256  1
  Tm  Tm13  1  0.359700  0.492712  0.876035  1
  Tm  Tm14  1  0.640182  0.506908  0.375887  1
  Tm  Tm15  1  0.007118  0.860390  0.125524  1
  Tm  Tm16  1  0.317761  0.318013  0.500094  1
  Tm  Tm17  1  0.182038  0.817994  0.749893  1
  Tm  Tm18  1  0.818207  0.182457  0.249659  1
  Tm  Tm19  1  0.682973  0.681484  0.000250  1
  Si  Si20  1  0.291080  0.938600  0.561897  1
  Si  Si21  1  0.709665  0.061941  0.062107  1
  Si  Si22  1  0.938630  0.290995  0.438131  1
  Si  Si23  1  0.438867  0.209056  0.312133  1
  Si  Si24  1  0.561342  0.791068  0.811834  1
  Si  Si25  1  0.209026  0.438571  0.687907  1
  Si  Si26  1  0.791609  0.560426  0.187392  1
  Si  Si27  1  0.060931  0.707794  0.938662  1
  Si  Si28  1  0.796419  0.848051  0.687110  1
  Si  Si29  1  0.202349  0.152825  0.186382  1
  Si  Si30  1  0.848056  0.796530  0.312999  1
  Si  Si31  1  0.347991  0.703549  0.437379  1
  Si  Si32  1  0.653078  0.296662  0.937346  1
  Si  Si33  1  0.703573  0.347908  0.562750  1
  Si  Si34  1  0.296308  0.651088  0.062661  1
  Si  Si35  1  0.151970  0.203661  0.812810  1
