# generated using pymatgen
data_Li3Pr3ZnSn4
_symmetry_space_group_name_H-M   'P 1'
_cell_length_a   8.81955104
_cell_length_b   8.90951534
_cell_length_c   8.90951428
_cell_angle_alpha   149.28186105
_cell_angle_beta   131.41390371
_cell_angle_gamma   58.68430739
_symmetry_Int_Tables_number   1
_chemical_formula_structural   Li3Pr3ZnSn4
_chemical_formula_sum   'Li3 Pr3 Zn1 Sn4'
_cell_volume   265.99879969
_cell_formula_units_Z   1
loop_
 _symmetry_equiv_pos_site_id
 _symmetry_equiv_pos_as_xyz
  1  'x, y, z'
loop_
 _atom_site_type_symbol
 _atom_site_label
 _atom_site_symmetry_multiplicity
 _atom_site_fract_x
 _atom_site_fract_y
 _atom_site_fract_z
 _atom_site_occupancy
  Li  Li0  1  0.483190  0.670027  0.813162  1
  Li  Li1  1  0.859780  0.673076  0.186705  1
  Li  Li2  1  0.145475  0.330314  0.815160  1
  Pr  Pr3  1  0.495294  0.999584  0.495710  1
  Pr  Pr4  1  0.135570  0.127682  0.007889  1
  Pr  Pr5  1  0.865802  0.871204  0.994597  1
  Zn  Zn6  1  0.521463  0.326907  0.194556  1
  Sn  Sn7  1  0.193632  0.499450  0.694182  1
  Sn  Sn8  1  0.801074  0.501105  0.299969  1
  Sn  Sn9  1  0.711784  0.215091  0.496693  1
  Sn  Sn10  1  0.286935  0.785560  0.501375  1
