# generated using pymatgen
data_Gd2LuIn3(TeO6)3
_symmetry_space_group_name_H-M   'P 1'
_cell_length_a   9.07863954
_cell_length_b   9.07863978
_cell_length_c   5.12826724
_cell_angle_alpha   89.83346855
_cell_angle_beta   90.16652663
_cell_angle_gamma   119.99241030
_symmetry_Int_Tables_number   1
_chemical_formula_structural   Gd2LuIn3(TeO6)3
_chemical_formula_sum   'Gd2 Lu1 In3 Te3 O18'
_cell_volume   366.07797596
_cell_formula_units_Z   1
loop_
 _symmetry_equiv_pos_site_id
 _symmetry_equiv_pos_as_xyz
  1  'x, y, z'
loop_
 _atom_site_type_symbol
 _atom_site_label
 _atom_site_symmetry_multiplicity
 _atom_site_fract_x
 _atom_site_fract_y
 _atom_site_fract_z
 _atom_site_occupancy
  Gd  Gd0  1  0.620193  0.001734  0.000546  1
  Gd  Gd1  1  0.001734  0.620193  0.999454  1
  Lu  Lu2  1  0.375080  0.375080  0.000000  1
  In  In3  1  0.288363  0.999792  0.501654  1
  In  In4  1  0.999792  0.288363  0.498346  1
  In  In5  1  0.712150  0.712150  0.500000  1
  Te  Te6  1  0.002729  0.002729  0.000000  1
  Te  Te7  1  0.334137  0.663192  0.502234  1
  Te  Te8  1  0.663192  0.334137  0.497766  1
  O  O9  1  0.089777  0.886152  0.785812  1
  O  O10  1  0.120020  0.209386  0.789672  1
  O  O11  1  0.798364  0.914399  0.785163  1
  O  O12  1  0.209386  0.120020  0.210328  1
  O  O13  1  0.914399  0.798364  0.214837  1
  O  O14  1  0.886152  0.089777  0.214188  1
  O  O15  1  0.458273  0.586643  0.723923  1
  O  O16  1  0.402191  0.862045  0.721672  1
  O  O17  1  0.130175  0.534675  0.709913  1
  O  O18  1  0.862045  0.402191  0.278328  1
  O  O19  1  0.534675  0.130175  0.290087  1
  O  O20  1  0.586643  0.458273  0.276077  1
  O  O21  1  0.230179  0.765447  0.285792  1
  O  O22  1  0.237799  0.460604  0.278681  1
  O  O23  1  0.541687  0.774812  0.293768  1
  O  O24  1  0.460604  0.237799  0.721319  1
  O  O25  1  0.774812  0.541687  0.706232  1
  O  O26  1  0.765447  0.230179  0.714208  1
