# generated using pymatgen
data_La3In2Sn2Te
_symmetry_space_group_name_H-M   'P 1'
_cell_length_a   8.77719601
_cell_length_b   8.77719543
_cell_length_c   8.77719600
_cell_angle_alpha   119.96737700
_cell_angle_beta   119.96736730
_cell_angle_gamma   90.05651945
_symmetry_Int_Tables_number   1
_chemical_formula_structural   La3In2Sn2Te
_chemical_formula_sum   'La6 In4 Sn4 Te2'
_cell_volume   478.37257568
_cell_formula_units_Z   2
loop_
 _symmetry_equiv_pos_site_id
 _symmetry_equiv_pos_as_xyz
  1  'x, y, z'
loop_
 _atom_site_type_symbol
 _atom_site_label
 _atom_site_symmetry_multiplicity
 _atom_site_fract_x
 _atom_site_fract_y
 _atom_site_fract_z
 _atom_site_occupancy
  La  La0  1  0.757433  0.757433  0.000000  1
  La  La1  1  0.257433  0.257433  0.000000  1
  La  La2  1  0.337658  0.837658  0.176886  1
  La  La3  1  0.660771  0.160771  0.823114  1
  La  La4  1  0.837658  0.660771  0.500000  1
  La  La5  1  0.160771  0.337658  0.500000  1
  In  In6  1  0.042531  0.542531  0.220236  1
  In  In7  1  0.322295  0.822295  0.779764  1
  In  In8  1  0.542531  0.322295  0.500000  1
  In  In9  1  0.822295  0.042531  0.500000  1
  Sn  Sn10  1  0.959134  0.459134  0.795799  1
  Sn  Sn11  1  0.663335  0.163335  0.204201  1
  Sn  Sn12  1  0.459134  0.663335  0.500000  1
  Sn  Sn13  1  0.163335  0.959134  0.500000  1
  Te  Te14  1  0.006842  0.006842  0.000000  1
  Te  Te15  1  0.506842  0.506842  0.000000  1
