# generated using pymatgen
data_TbHoTh2(ReB6)2
_symmetry_space_group_name_H-M   'P 1'
_cell_length_a   3.77531700
_cell_length_b   9.27855460
_cell_length_c   11.70359975
_cell_angle_alpha   90.04112801
_cell_angle_beta   90.00000000
_cell_angle_gamma   90.00000000
_symmetry_Int_Tables_number   1
_chemical_formula_structural   TbHoTh2(ReB6)2
_chemical_formula_sum   'Tb2 Ho2 Th4 Re4 B24'
_cell_volume   409.97096532
_cell_formula_units_Z   2
loop_
 _symmetry_equiv_pos_site_id
 _symmetry_equiv_pos_as_xyz
  1  'x, y, z'
loop_
 _atom_site_type_symbol
 _atom_site_label
 _atom_site_symmetry_multiplicity
 _atom_site_fract_x
 _atom_site_fract_y
 _atom_site_fract_z
 _atom_site_occupancy
  Tb  Tb0  1  0.000000  0.944863  0.372535  1
  Tb  Tb1  1  0.000000  0.055137  0.627465  1
  Ho  Ho2  1  0.000000  0.444839  0.127136  1
  Ho  Ho3  1  0.000000  0.555161  0.872864  1
  Th  Th4  1  0.000000  0.322944  0.414120  1
  Th  Th5  1  0.000000  0.677056  0.585880  1
  Th  Th6  1  0.000000  0.822437  0.085815  1
  Th  Th7  1  0.000000  0.177563  0.914185  1
  Re  Re8  1  0.000000  0.638584  0.319717  1
  Re  Re9  1  0.000000  0.361416  0.680283  1
  Re  Re10  1  0.000000  0.139837  0.179557  1
  Re  Re11  1  0.000000  0.860163  0.820443  1
  B  B12  1  0.500000  0.555933  0.429573  1
  B  B13  1  0.500000  0.444067  0.570427  1
  B  B14  1  0.500000  0.056460  0.069966  1
  B  B15  1  0.500000  0.943540  0.930034  1
  B  B16  1  0.500000  0.748625  0.416919  1
  B  B17  1  0.500000  0.251375  0.583081  1
  B  B18  1  0.500000  0.249915  0.082760  1
  B  B19  1  0.500000  0.750085  0.917240  1
  B  B20  1  0.500000  0.790252  0.266545  1
  B  B21  1  0.500000  0.209748  0.733455  1
  B  B22  1  0.500000  0.291552  0.232893  1
  B  B23  1  0.500000  0.708448  0.767107  1
  B  B24  1  0.500000  0.630444  0.185959  1
  B  B25  1  0.500000  0.369556  0.814041  1
  B  B26  1  0.500000  0.131742  0.313246  1
  B  B27  1  0.500000  0.868258  0.686754  1
  B  B28  1  0.500000  0.986137  0.213535  1
  B  B29  1  0.500000  0.013863  0.786465  1
  B  B30  1  0.500000  0.485274  0.285616  1
  B  B31  1  0.500000  0.514726  0.714384  1
  B  B32  1  0.500000  0.602883  0.028332  1
  B  B33  1  0.500000  0.397117  0.971668  1
  B  B34  1  0.500000  0.105196  0.471145  1
  B  B35  1  0.500000  0.894804  0.528855  1
