# generated using pymatgen
data_PaNi3P2
_symmetry_space_group_name_H-M   'P 1'
_cell_length_a   3.82464600
_cell_length_b   10.47386200
_cell_length_c   12.41554100
_cell_angle_alpha   90.00000000
_cell_angle_beta   90.00000000
_cell_angle_gamma   90.00000000
_symmetry_Int_Tables_number   1
_chemical_formula_structural   PaNi3P2
_chemical_formula_sum   'Pa6 Ni18 P12'
_cell_volume   497.35185263
_cell_formula_units_Z   6
loop_
 _symmetry_equiv_pos_site_id
 _symmetry_equiv_pos_as_xyz
  1  'x, y, z'
loop_
 _atom_site_type_symbol
 _atom_site_label
 _atom_site_symmetry_multiplicity
 _atom_site_fract_x
 _atom_site_fract_y
 _atom_site_fract_z
 _atom_site_occupancy
  Pa  Pa0  1  0.751631  0.000000  0.479581  1
  Pa  Pa1  1  0.251631  0.500000  0.520419  1
  Pa  Pa2  1  0.251953  0.686342  0.794695  1
  Pa  Pa3  1  0.251953  0.313658  0.794695  1
  Pa  Pa4  1  0.751953  0.813658  0.205305  1
  Pa  Pa5  1  0.751953  0.186342  0.205305  1
  Ni  Ni6  1  0.751729  0.000000  0.021844  1
  Ni  Ni7  1  0.251729  0.500000  0.978156  1
  Ni  Ni8  1  0.251947  0.197636  0.570632  1
  Ni  Ni9  1  0.251947  0.802364  0.570632  1
  Ni  Ni10  1  0.751947  0.302364  0.429368  1
  Ni  Ni11  1  0.751947  0.697636  0.429368  1
  Ni  Ni12  1  0.251981  0.621108  0.292207  1
  Ni  Ni13  1  0.251981  0.378892  0.292207  1
  Ni  Ni14  1  0.751981  0.878892  0.707793  1
  Ni  Ni15  1  0.751981  0.121108  0.707793  1
  Ni  Ni16  1  0.251848  0.169915  0.003332  1
  Ni  Ni17  1  0.251848  0.830085  0.003332  1
  Ni  Ni18  1  0.751848  0.330085  0.996668  1
  Ni  Ni19  1  0.751848  0.669915  0.996668  1
  Ni  Ni20  1  0.250527  0.000000  0.843214  1
  Ni  Ni21  1  0.750527  0.500000  0.156786  1
  Ni  Ni22  1  0.252454  0.000000  0.301636  1
  Ni  Ni23  1  0.752454  0.500000  0.698364  1
  P  P24  1  0.251671  0.189138  0.386977  1
  P  P25  1  0.251671  0.810862  0.386977  1
  P  P26  1  0.751671  0.310862  0.613023  1
  P  P27  1  0.751671  0.689138  0.613023  1
  P  P28  1  0.251943  0.000000  0.122480  1
  P  P29  1  0.751943  0.500000  0.877520  1
  P  P30  1  0.252010  0.647809  0.106155  1
  P  P31  1  0.252010  0.352191  0.106155  1
  P  P32  1  0.752010  0.852191  0.893845  1
  P  P33  1  0.752010  0.147809  0.893845  1
  P  P34  1  0.251698  0.000000  0.660293  1
  P  P35  1  0.751698  0.500000  0.339707  1
