# generated using pymatgen
data_Nb2FeSeBr7
_symmetry_space_group_name_H-M   'P 1'
_cell_length_a   7.19741300
_cell_length_b   7.28492823
_cell_length_c   6.94894852
_cell_angle_alpha   89.57007672
_cell_angle_beta   90.00000000
_cell_angle_gamma   119.60340069
_symmetry_Int_Tables_number   1
_chemical_formula_structural   Nb2FeSeBr7
_chemical_formula_sum   'Nb2 Fe1 Se1 Br7'
_cell_volume   316.77947350
_cell_formula_units_Z   1
loop_
 _symmetry_equiv_pos_site_id
 _symmetry_equiv_pos_as_xyz
  1  'x, y, z'
loop_
 _atom_site_type_symbol
 _atom_site_label
 _atom_site_symmetry_multiplicity
 _atom_site_fract_x
 _atom_site_fract_y
 _atom_site_fract_z
 _atom_site_occupancy
  Nb  Nb0  1  0.136520  0.856943  0.223124  1
  Nb  Nb1  1  0.720424  0.856943  0.223124  1
  Fe  Fe2  1  0.124101  0.248204  0.222945  1
  Se  Se3  1  0.999271  0.998542  0.486802  1
  Br  Br4  1  0.339649  0.679298  0.015091  1
  Br  Br5  1  0.503902  0.007803  0.426060  1
  Br  Br6  1  0.006789  0.507884  0.420343  1
  Br  Br7  1  0.501095  0.507884  0.420343  1
  Br  Br8  1  0.331033  0.166757  0.985712  1
  Br  Br9  1  0.835723  0.166757  0.985712  1
  Br  Br10  1  0.834827  0.669653  0.975648  1
