# generated using pymatgen
data_Hf2Ta3Si4
_symmetry_space_group_name_H-M   'P 1'
_cell_length_a   6.65993500
_cell_length_b   6.84077400
_cell_length_c   13.06812600
_cell_angle_alpha   90.00000000
_cell_angle_beta   90.00000000
_cell_angle_gamma   90.00000000
_symmetry_Int_Tables_number   1
_chemical_formula_structural   Hf2Ta3Si4
_chemical_formula_sum   'Hf8 Ta12 Si16'
_cell_volume   595.37219241
_cell_formula_units_Z   4
loop_
 _symmetry_equiv_pos_site_id
 _symmetry_equiv_pos_as_xyz
  1  'x, y, z'
loop_
 _atom_site_type_symbol
 _atom_site_label
 _atom_site_symmetry_multiplicity
 _atom_site_fract_x
 _atom_site_fract_y
 _atom_site_fract_z
 _atom_site_occupancy
  Hf  Hf0  1  0.494484  0.672921  0.593136  1
  Hf  Hf1  1  0.994484  0.827079  0.906864  1
  Hf  Hf2  1  0.505516  0.327079  0.093136  1
  Hf  Hf3  1  0.005516  0.172921  0.406864  1
  Hf  Hf4  1  0.505516  0.327079  0.406864  1
  Hf  Hf5  1  0.005516  0.172921  0.093136  1
  Hf  Hf6  1  0.494484  0.672921  0.906864  1
  Hf  Hf7  1  0.994484  0.827079  0.593136  1
  Ta  Ta8  1  0.661497  0.170624  0.623579  1
  Ta  Ta9  1  0.161497  0.329376  0.876421  1
  Ta  Ta10  1  0.338503  0.829376  0.123579  1
  Ta  Ta11  1  0.838503  0.670624  0.376421  1
  Ta  Ta12  1  0.338503  0.829376  0.376421  1
  Ta  Ta13  1  0.838503  0.670624  0.123579  1
  Ta  Ta14  1  0.661497  0.170624  0.876421  1
  Ta  Ta15  1  0.161497  0.329376  0.623579  1
  Ta  Ta16  1  0.836625  0.497311  0.750000  1
  Ta  Ta17  1  0.336625  0.002689  0.750000  1
  Ta  Ta18  1  0.163375  0.502689  0.250000  1
  Ta  Ta19  1  0.663375  0.997311  0.250000  1
  Si  Si20  1  0.673229  0.963429  0.461202  1
  Si  Si21  1  0.173229  0.536571  0.038798  1
  Si  Si22  1  0.326771  0.036571  0.961202  1
  Si  Si23  1  0.826771  0.463429  0.538798  1
  Si  Si24  1  0.326771  0.036571  0.538798  1
  Si  Si25  1  0.826771  0.463429  0.961202  1
  Si  Si26  1  0.673229  0.963429  0.038798  1
  Si  Si27  1  0.173229  0.536571  0.461202  1
  Si  Si28  1  0.460569  0.388441  0.750000  1
  Si  Si29  1  0.960569  0.111559  0.750000  1
  Si  Si30  1  0.539431  0.611559  0.250000  1
  Si  Si31  1  0.039431  0.888441  0.250000  1
  Si  Si32  1  0.701811  0.859783  0.750000  1
  Si  Si33  1  0.201811  0.640217  0.750000  1
  Si  Si34  1  0.298189  0.140217  0.250000  1
  Si  Si35  1  0.798189  0.359783  0.250000  1
