# generated using pymatgen
data_Er3Lu3Ni2
_symmetry_space_group_name_H-M   'P 1'
_cell_length_a   6.23881108
_cell_length_b   6.71011300
_cell_length_c   9.37878807
_cell_angle_alpha   90.00000000
_cell_angle_beta   89.28997298
_cell_angle_gamma   90.00000000
_symmetry_Int_Tables_number   1
_chemical_formula_structural   Er3Lu3Ni2
_chemical_formula_sum   'Er6 Lu6 Ni4'
_cell_volume   392.59525167
_cell_formula_units_Z   2
loop_
 _symmetry_equiv_pos_site_id
 _symmetry_equiv_pos_as_xyz
  1  'x, y, z'
loop_
 _atom_site_type_symbol
 _atom_site_label
 _atom_site_symmetry_multiplicity
 _atom_site_fract_x
 _atom_site_fract_y
 _atom_site_fract_z
 _atom_site_occupancy
  Er  Er0  1  0.318627  0.678680  0.434351  1
  Er  Er1  1  0.181373  0.178680  0.065649  1
  Er  Er2  1  0.864869  0.531634  0.249218  1
  Er  Er3  1  0.635131  0.031634  0.250782  1
  Er  Er4  1  0.133919  0.468618  0.750316  1
  Er  Er5  1  0.366081  0.968618  0.749684  1
  Lu  Lu6  1  0.320114  0.679778  0.063764  1
  Lu  Lu7  1  0.179886  0.179778  0.436236  1
  Lu  Lu8  1  0.680293  0.321585  0.566638  1
  Lu  Lu9  1  0.819707  0.821585  0.933362  1
  Lu  Lu10  1  0.681150  0.319732  0.934703  1
  Lu  Lu11  1  0.818850  0.819732  0.565297  1
  Ni  Ni12  1  0.050906  0.894631  0.253216  1
  Ni  Ni13  1  0.449094  0.394631  0.246784  1
  Ni  Ni14  1  0.946503  0.105341  0.745577  1
  Ni  Ni15  1  0.553497  0.605341  0.754423  1
