# generated using pymatgen
data_Pr6GaGeBr6
_symmetry_space_group_name_H-M   'P 1'
_cell_length_a   10.55170923
_cell_length_b   10.55181920
_cell_length_c   10.58798299
_cell_angle_alpha   109.47774504
_cell_angle_beta   109.47742457
_cell_angle_gamma   109.32115348
_symmetry_Int_Tables_number   1
_chemical_formula_structural   Pr6GaGeBr6
_chemical_formula_sum   'Pr12 Ga2 Ge2 Br12'
_cell_volume   909.02247030
_cell_formula_units_Z   2
loop_
 _symmetry_equiv_pos_site_id
 _symmetry_equiv_pos_as_xyz
  1  'x, y, z'
loop_
 _atom_site_type_symbol
 _atom_site_label
 _atom_site_symmetry_multiplicity
 _atom_site_fract_x
 _atom_site_fract_y
 _atom_site_fract_z
 _atom_site_occupancy
  Pr  Pr0  1  0.482082  0.490554  0.241778  1
  Pr  Pr1  1  0.748769  0.240290  0.258220  1
  Pr  Pr2  1  0.748875  0.009347  0.489507  1
  Pr  Pr3  1  0.240635  0.480173  0.489507  1
  Pr  Pr4  1  0.259706  0.751233  0.241776  1
  Pr  Pr5  1  0.019831  0.259373  0.010494  1
  Pr  Pr6  1  0.009445  0.017925  0.258224  1
  Pr  Pr7  1  0.490657  0.751126  0.010502  1
  Pr  Pr8  1  0.490151  0.240145  0.480300  1
  Pr  Pr9  1  0.009233  0.490769  0.749998  1
  Pr  Pr10  1  0.259857  0.009848  0.019697  1
  Pr  Pr11  1  0.240764  0.259221  0.749992  1
  Ga  Ga12  1  0.999866  0.249878  0.499749  1
  Ga  Ga13  1  0.250128  0.500119  0.000245  1
  Ge  Ge14  1  0.249973  0.250018  0.250002  1
  Ge  Ge15  1  0.500022  0.999973  0.250002  1
  Br  Br16  1  0.250233  0.753704  0.746418  1
  Br  Br17  1  0.507290  0.503813  0.753587  1
  Br  Br18  1  0.993137  0.746535  0.996422  1
  Br  Br19  1  0.746295  0.249774  0.753581  1
  Br  Br20  1  0.996189  0.992717  0.746422  1
  Br  Br21  1  0.250110  0.996715  0.503573  1
  Br  Br22  1  0.753466  0.506861  0.503577  1
  Br  Br23  1  0.503281  0.249886  0.996421  1
  Br  Br24  1  0.753456  0.746552  0.250004  1
  Br  Br25  1  0.746339  0.996345  0.992687  1
  Br  Br26  1  0.996549  0.503450  0.249997  1
  Br  Br27  1  0.503658  0.753658  0.507315  1
