# generated using pymatgen
data_Dy3Tm9Tc3Ni
_symmetry_space_group_name_H-M   'P 1'
_cell_length_a   6.20457870
_cell_length_b   7.24029467
_cell_length_c   9.06082200
_cell_angle_alpha   90.00000000
_cell_angle_beta   90.00000000
_cell_angle_gamma   89.83954415
_symmetry_Int_Tables_number   1
_chemical_formula_structural   Dy3Tm9Tc3Ni
_chemical_formula_sum   'Dy3 Tm9 Tc3 Ni1'
_cell_volume   407.03751191
_cell_formula_units_Z   1
loop_
 _symmetry_equiv_pos_site_id
 _symmetry_equiv_pos_as_xyz
  1  'x, y, z'
loop_
 _atom_site_type_symbol
 _atom_site_label
 _atom_site_symmetry_multiplicity
 _atom_site_fract_x
 _atom_site_fract_y
 _atom_site_fract_z
 _atom_site_occupancy
  Dy  Dy0  1  0.627026  0.040043  0.250000  1
  Dy  Dy1  1  0.361434  0.958458  0.750000  1
  Dy  Dy2  1  0.125974  0.455890  0.750000  1
  Tm  Tm3  1  0.876504  0.539849  0.250000  1
  Tm  Tm4  1  0.170038  0.178551  0.066974  1
  Tm  Tm5  1  0.835050  0.822229  0.938175  1
  Tm  Tm6  1  0.665489  0.324754  0.939456  1
  Tm  Tm7  1  0.835050  0.822229  0.561825  1
  Tm  Tm8  1  0.335926  0.676792  0.062723  1
  Tm  Tm9  1  0.170038  0.178551  0.433026  1
  Tm  Tm10  1  0.335926  0.676792  0.437277  1
  Tm  Tm11  1  0.665489  0.324754  0.560544  1
  Tc  Tc12  1  0.462854  0.387058  0.250000  1
  Tc  Tc13  1  0.541771  0.613361  0.750000  1
  Tc  Tc14  1  0.041092  0.888331  0.250000  1
  Ni  Ni15  1  0.950339  0.112363  0.750000  1
