# generated using pymatgen
data_Ca2Tm2Sb6Rh7
_symmetry_space_group_name_H-M   'P 1'
_cell_length_a   7.58005064
_cell_length_b   7.62999539
_cell_length_c   7.58004986
_cell_angle_alpha   109.41516315
_cell_angle_beta   109.31721336
_cell_angle_gamma   109.41516354
_symmetry_Int_Tables_number   1
_chemical_formula_structural   Ca2Tm2Sb6Rh7
_chemical_formula_sum   'Ca2 Tm2 Sb6 Rh7'
_cell_volume   338.58244321
_cell_formula_units_Z   1
loop_
 _symmetry_equiv_pos_site_id
 _symmetry_equiv_pos_as_xyz
  1  'x, y, z'
loop_
 _atom_site_type_symbol
 _atom_site_label
 _atom_site_symmetry_multiplicity
 _atom_site_fract_x
 _atom_site_fract_y
 _atom_site_fract_z
 _atom_site_occupancy
  Ca  Ca0  1  0.500000  0.000000  0.000000  1
  Ca  Ca1  1  0.000000  0.000000  0.500000  1
  Tm  Tm2  1  0.000000  0.500000  0.000000  1
  Tm  Tm3  1  0.500000  0.500000  0.500000  1
  Sb  Sb4  1  0.318369  0.000000  0.318369  1
  Sb  Sb5  1  0.001690  0.683565  0.681875  1
  Sb  Sb6  1  0.681875  0.683565  0.001690  1
  Sb  Sb7  1  0.681631  0.000000  0.681631  1
  Sb  Sb8  1  0.998310  0.316435  0.318125  1
  Sb  Sb9  1  0.318125  0.316435  0.998310  1
  Rh  Rh10  1  0.250000  0.500000  0.750000  1
  Rh  Rh11  1  0.506880  0.257307  0.750427  1
  Rh  Rh12  1  0.750427  0.257307  0.506880  1
  Rh  Rh13  1  0.493120  0.742693  0.249573  1
  Rh  Rh14  1  0.000000  0.000000  0.000000  1
  Rh  Rh15  1  0.249573  0.742693  0.493120  1
  Rh  Rh16  1  0.750000  0.500000  0.250000  1
