# generated using pymatgen
data_RhS8Cl3
_symmetry_space_group_name_H-M   'P 1'
_cell_length_a   8.54894260
_cell_length_b   9.62287317
_cell_length_c   9.74853331
_cell_angle_alpha   104.45111719
_cell_angle_beta   114.30094459
_cell_angle_gamma   99.61084890
_symmetry_Int_Tables_number   1
_chemical_formula_structural   RhS8Cl3
_chemical_formula_sum   'Rh2 S16 Cl6'
_cell_volume   673.93857455
_cell_formula_units_Z   2
loop_
 _symmetry_equiv_pos_site_id
 _symmetry_equiv_pos_as_xyz
  1  'x, y, z'
loop_
 _atom_site_type_symbol
 _atom_site_label
 _atom_site_symmetry_multiplicity
 _atom_site_fract_x
 _atom_site_fract_y
 _atom_site_fract_z
 _atom_site_occupancy
  Rh  Rh0  1  0.838600  0.076184  0.881152  1
  Rh  Rh1  1  0.161400  0.923816  0.118848  1
  S  S2  1  0.858041  0.566832  0.890022  1
  S  S3  1  0.141959  0.433168  0.109978  1
  S  S4  1  0.708954  0.389363  0.688146  1
  S  S5  1  0.291046  0.610637  0.311854  1
  S  S6  1  0.775113  0.178733  0.676424  1
  S  S7  1  0.224887  0.821267  0.323576  1
  S  S8  1  0.941601  0.171010  0.569900  1
  S  S9  1  0.058399  0.828990  0.430100  1
  S  S10  1  0.935349  0.283732  0.125174  1
  S  S11  1  0.064651  0.716268  0.874826  1
  S  S12  1  0.698861  0.350633  0.076010  1
  S  S13  1  0.301139  0.649367  0.923990  1
  S  S14  1  0.742913  0.499849  0.286419  1
  S  S15  1  0.257087  0.500151  0.713581  1
  S  S16  1  0.793839  0.714533  0.274843  1
  S  S17  1  0.206161  0.285467  0.725157  1
  Cl  Cl18  1  0.534068  0.047379  0.805391  1
  Cl  Cl19  1  0.465932  0.952621  0.194609  1
  Cl  Cl20  1  0.853850  0.921530  0.042856  1
  Cl  Cl21  1  0.146150  0.078470  0.957144  1
  Cl  Cl22  1  0.748079  0.857228  0.658898  1
  Cl  Cl23  1  0.251921  0.142772  0.341102  1
