# generated using pymatgen
data_Th3TiGa2Ir3
_symmetry_space_group_name_H-M   'P 1'
_cell_length_a   7.32228877
_cell_length_b   7.32228824
_cell_length_c   4.16646100
_cell_angle_alpha   90.00000000
_cell_angle_beta   90.00000000
_cell_angle_gamma   121.69156210
_symmetry_Int_Tables_number   1
_chemical_formula_structural   Th3TiGa2Ir3
_chemical_formula_sum   'Th3 Ti1 Ga2 Ir3'
_cell_volume   190.07878230
_cell_formula_units_Z   1
loop_
 _symmetry_equiv_pos_site_id
 _symmetry_equiv_pos_as_xyz
  1  'x, y, z'
loop_
 _atom_site_type_symbol
 _atom_site_label
 _atom_site_symmetry_multiplicity
 _atom_site_fract_x
 _atom_site_fract_y
 _atom_site_fract_z
 _atom_site_occupancy
  Th  Th0  1  0.405135  0.405135  0.500000  1
  Th  Th1  1  0.583266  0.008388  0.500000  1
  Th  Th2  1  0.008388  0.583266  0.500000  1
  Ti  Ti3  1  0.765158  0.765158  0.000000  1
  Ga  Ga4  1  0.234194  0.997357  0.000000  1
  Ga  Ga5  1  0.997357  0.234194  0.000000  1
  Ir  Ir6  1  0.676793  0.357207  0.000000  1
  Ir  Ir7  1  0.357207  0.676793  0.000000  1
  Ir  Ir8  1  0.972503  0.972503  0.500000  1
