# generated using pymatgen
data_Nd3TmIn4
_symmetry_space_group_name_H-M   'P 1'
_cell_length_a   6.69610741
_cell_length_b   6.69610585
_cell_length_c   10.18320900
_cell_angle_alpha   90.00000000
_cell_angle_beta   90.00000000
_cell_angle_gamma   98.16097667
_symmetry_Int_Tables_number   1
_chemical_formula_structural   Nd3TmIn4
_chemical_formula_sum   'Nd6 Tm2 In8'
_cell_volume   451.96928358
_cell_formula_units_Z   2
loop_
 _symmetry_equiv_pos_site_id
 _symmetry_equiv_pos_as_xyz
  1  'x, y, z'
loop_
 _atom_site_type_symbol
 _atom_site_label
 _atom_site_symmetry_multiplicity
 _atom_site_fract_x
 _atom_site_fract_y
 _atom_site_fract_z
 _atom_site_occupancy
  Nd  Nd0  1  0.525716  0.525716  0.250000  1
  Nd  Nd1  1  0.474284  0.474284  0.750000  1
  Nd  Nd2  1  0.244559  0.755441  0.500000  1
  Nd  Nd3  1  0.244559  0.755441  0.000000  1
  Nd  Nd4  1  0.755441  0.244559  0.500000  1
  Nd  Nd5  1  0.755441  0.244559  0.000000  1
  Tm  Tm6  1  0.986551  0.986551  0.250000  1
  Tm  Tm7  1  0.013449  0.013449  0.750000  1
  In  In8  1  0.250396  0.250396  0.016536  1
  In  In9  1  0.749604  0.749604  0.983464  1
  In  In10  1  0.250396  0.250396  0.483464  1
  In  In11  1  0.749604  0.749604  0.516536  1
  In  In12  1  0.485903  0.017811  0.250000  1
  In  In13  1  0.982189  0.514097  0.750000  1
  In  In14  1  0.514097  0.982189  0.750000  1
  In  In15  1  0.017811  0.485903  0.250000  1
