# generated using pymatgen
data_Y4Co4HgBr
_symmetry_space_group_name_H-M   'P 1'
_cell_length_a   3.90585000
_cell_length_b   3.90584922
_cell_length_c   16.46058900
_cell_angle_alpha   90.00000000
_cell_angle_beta   90.00000000
_cell_angle_gamma   119.99998967
_symmetry_Int_Tables_number   1
_chemical_formula_structural   Y4Co4HgBr
_chemical_formula_sum   'Y4 Co4 Hg1 Br1'
_cell_volume   217.47386992
_cell_formula_units_Z   1
loop_
 _symmetry_equiv_pos_site_id
 _symmetry_equiv_pos_as_xyz
  1  'x, y, z'
loop_
 _atom_site_type_symbol
 _atom_site_label
 _atom_site_symmetry_multiplicity
 _atom_site_fract_x
 _atom_site_fract_y
 _atom_site_fract_z
 _atom_site_occupancy
  Y  Y0  1  0.000000  0.000000  0.113889  1
  Y  Y1  1  0.000000  0.000000  0.893652  1
  Y  Y2  1  0.000000  0.000000  0.606348  1
  Y  Y3  1  0.000000  0.000000  0.386111  1
  Co  Co4  1  0.333333  0.666667  0.500611  1
  Co  Co5  1  0.666667  0.333333  0.499032  1
  Co  Co6  1  0.666667  0.333333  0.000968  1
  Co  Co7  1  0.333333  0.666667  0.999389  1
  Hg  Hg8  1  0.333333  0.666667  0.250000  1
  Br  Br9  1  0.666667  0.333333  0.750000  1
