# generated using pymatgen
data_Y12Tc3As
_symmetry_space_group_name_H-M   'P 1'
_cell_length_a   6.33946915
_cell_length_b   7.55090546
_cell_length_c   9.22300300
_cell_angle_alpha   90.00000000
_cell_angle_beta   90.00000000
_cell_angle_gamma   90.19986663
_symmetry_Int_Tables_number   1
_chemical_formula_structural   Y12Tc3As
_chemical_formula_sum   'Y12 Tc3 As1'
_cell_volume   441.49077443
_cell_formula_units_Z   1
loop_
 _symmetry_equiv_pos_site_id
 _symmetry_equiv_pos_as_xyz
  1  'x, y, z'
loop_
 _atom_site_type_symbol
 _atom_site_label
 _atom_site_symmetry_multiplicity
 _atom_site_fract_x
 _atom_site_fract_y
 _atom_site_fract_z
 _atom_site_occupancy
  Y  Y0  1  0.625358  0.045508  0.250000  1
  Y  Y1  1  0.366658  0.958267  0.750000  1
  Y  Y2  1  0.121172  0.465186  0.750000  1
  Y  Y3  1  0.865946  0.529471  0.250000  1
  Y  Y4  1  0.158472  0.189062  0.060827  1
  Y  Y5  1  0.832894  0.824739  0.934400  1
  Y  Y6  1  0.664499  0.321087  0.934795  1
  Y  Y7  1  0.832894  0.824739  0.565600  1
  Y  Y8  1  0.348491  0.665740  0.059826  1
  Y  Y9  1  0.158472  0.189062  0.439173  1
  Y  Y10  1  0.348491  0.665740  0.440174  1
  Y  Y11  1  0.664499  0.321087  0.565205  1
  Tc  Tc12  1  0.449914  0.380975  0.250000  1
  Tc  Tc13  1  0.536378  0.619421  0.750000  1
  Tc  Tc14  1  0.963142  0.118127  0.750000  1
  As  As15  1  0.062720  0.881787  0.250000  1
