# generated using pymatgen
data_Li4LaDy3Si8
_symmetry_space_group_name_H-M   'P 1'
_cell_length_a   3.83739600
_cell_length_b   7.66960426
_cell_length_c   10.29967558
_cell_angle_alpha   89.73562952
_cell_angle_beta   90.00000000
_cell_angle_gamma   90.00000000
_symmetry_Int_Tables_number   1
_chemical_formula_structural   Li4LaDy3Si8
_chemical_formula_sum   'Li4 La1 Dy3 Si8'
_cell_volume   303.12970461
_cell_formula_units_Z   1
loop_
 _symmetry_equiv_pos_site_id
 _symmetry_equiv_pos_as_xyz
  1  'x, y, z'
loop_
 _atom_site_type_symbol
 _atom_site_label
 _atom_site_symmetry_multiplicity
 _atom_site_fract_x
 _atom_site_fract_y
 _atom_site_fract_z
 _atom_site_occupancy
  Li  Li0  1  0.250000  0.995188  0.392741  1
  Li  Li1  1  0.750000  0.011336  0.610034  1
  Li  Li2  1  0.250000  0.488547  0.106661  1
  Li  Li3  1  0.750000  0.509583  0.893950  1
  La  La4  1  0.750000  0.359087  0.362732  1
  Dy  Dy5  1  0.250000  0.132766  0.863401  1
  Dy  Dy6  1  0.750000  0.863137  0.134128  1
  Dy  Dy7  1  0.250000  0.637113  0.636769  1
  Si  Si8  1  0.750000  0.260417  0.062107  1
  Si  Si9  1  0.250000  0.731481  0.931010  1
  Si  Si10  1  0.750000  0.776654  0.431102  1
  Si  Si11  1  0.250000  0.232647  0.576612  1
  Si  Si12  1  0.750000  0.840246  0.819445  1
  Si  Si13  1  0.250000  0.152929  0.173211  1
  Si  Si14  1  0.750000  0.341261  0.685983  1
  Si  Si15  1  0.250000  0.667611  0.320114  1
