# generated using pymatgen
data_Dy17Er3(Ir5Pt)2
_symmetry_space_group_name_H-M   'P 1'
_cell_length_a   10.92362367
_cell_length_b   10.92686501
_cell_length_c   6.33457701
_cell_angle_alpha   89.99665396
_cell_angle_beta   89.95576817
_cell_angle_gamma   90.00107372
_symmetry_Int_Tables_number   1
_chemical_formula_structural   Dy17Er3(Ir5Pt)2
_chemical_formula_sum   'Dy17 Er3 Ir10 Pt2'
_cell_volume   756.10097392
_cell_formula_units_Z   1
loop_
 _symmetry_equiv_pos_site_id
 _symmetry_equiv_pos_as_xyz
  1  'x, y, z'
loop_
 _atom_site_type_symbol
 _atom_site_label
 _atom_site_symmetry_multiplicity
 _atom_site_fract_x
 _atom_site_fract_y
 _atom_site_fract_z
 _atom_site_occupancy
  Dy  Dy0  1  0.291143  0.088161  0.375830  1
  Dy  Dy1  1  0.291057  0.911958  0.875955  1
  Dy  Dy2  1  0.705746  0.089691  0.874080  1
  Dy  Dy3  1  0.705704  0.910212  0.374018  1
  Dy  Dy4  1  0.584661  0.790612  0.878044  1
  Dy  Dy5  1  0.584618  0.209363  0.378112  1
  Dy  Dy6  1  0.411221  0.791074  0.377195  1
  Dy  Dy7  1  0.411135  0.208958  0.877125  1
  Dy  Dy8  1  0.209213  0.411759  0.622509  1
  Dy  Dy9  1  0.209176  0.588244  0.122587  1
  Dy  Dy10  1  0.790575  0.414640  0.122936  1
  Dy  Dy11  1  0.790557  0.585374  0.622848  1
  Dy  Dy12  1  0.913537  0.707394  0.126645  1
  Dy  Dy13  1  0.913505  0.292724  0.626731  1
  Dy  Dy14  1  0.091090  0.707082  0.622868  1
  Dy  Dy15  1  0.091078  0.292766  0.122764  1
  Dy  Dy16  1  0.002790  0.999668  0.499986  1
  Er  Er17  1  0.002848  0.000328  0.999989  1
  Er  Er18  1  0.499901  0.499653  0.999894  1
  Er  Er19  1  0.499902  0.500372  0.499935  1
  Ir  Ir20  1  0.152632  0.153542  0.750541  1
  Ir  Ir21  1  0.152685  0.846461  0.249686  1
  Ir  Ir22  1  0.654328  0.346284  0.749646  1
  Ir  Ir23  1  0.654296  0.653707  0.249613  1
  Ir  Ir24  1  0.347073  0.346738  0.250221  1
  Ir  Ir25  1  0.347069  0.653265  0.750240  1
  Ir  Ir26  1  0.500818  0.999818  0.122808  1
  Ir  Ir27  1  0.500821  0.000193  0.622763  1
  Ir  Ir28  1  0.999533  0.500103  0.877454  1
  Ir  Ir29  1  0.999539  0.499886  0.377417  1
  Pt  Pt30  1  0.845853  0.153286  0.249341  1
  Pt  Pt31  1  0.845896  0.846684  0.750216  1
