# generated using pymatgen
data_Ce3Ni2Ge6S
_symmetry_space_group_name_H-M   'P 1'
_cell_length_a   13.54901674
_cell_length_b   13.54901617
_cell_length_c   4.13526700
_cell_angle_alpha   90.00000000
_cell_angle_beta   90.00000000
_cell_angle_gamma   162.37370239
_symmetry_Int_Tables_number   1
_chemical_formula_structural   Ce3Ni2Ge6S
_chemical_formula_sum   'Ce3 Ni2 Ge6 S1'
_cell_volume   229.87170377
_cell_formula_units_Z   1
loop_
 _symmetry_equiv_pos_site_id
 _symmetry_equiv_pos_as_xyz
  1  'x, y, z'
loop_
 _atom_site_type_symbol
 _atom_site_label
 _atom_site_symmetry_multiplicity
 _atom_site_fract_x
 _atom_site_fract_y
 _atom_site_fract_z
 _atom_site_occupancy
  Ce  Ce0  1  0.686914  0.313086  0.500000  1
  Ce  Ce1  1  0.313086  0.686914  0.500000  1
  Ce  Ce2  1  0.000000  0.000000  0.000000  1
  Ni  Ni3  1  0.865824  0.134176  0.000000  1
  Ni  Ni4  1  0.134176  0.865824  0.000000  1
  Ge  Ge5  1  0.591111  0.408889  0.000000  1
  Ge  Ge6  1  0.408889  0.591111  0.000000  1
  Ge  Ge7  1  0.777037  0.222963  0.000000  1
  Ge  Ge8  1  0.222963  0.777037  0.000000  1
  Ge  Ge9  1  0.907492  0.092508  0.500000  1
  Ge  Ge10  1  0.092508  0.907492  0.500000  1
  S  S11  1  0.500000  0.500000  0.500000  1
