# generated using pymatgen
data_ThZr8(In2Rh)7
_symmetry_space_group_name_H-M   'P 1'
_cell_length_a   9.71299712
_cell_length_b   9.71299717
_cell_length_c   9.71299700
_cell_angle_alpha   59.99999718
_cell_angle_beta   59.99999701
_cell_angle_gamma   60.00000211
_symmetry_Int_Tables_number   1
_chemical_formula_structural   ThZr8(In2Rh)7
_chemical_formula_sum   'Th1 Zr8 In14 Rh7'
_cell_volume   647.95488287
_cell_formula_units_Z   1
loop_
 _symmetry_equiv_pos_site_id
 _symmetry_equiv_pos_as_xyz
  1  'x, y, z'
loop_
 _atom_site_type_symbol
 _atom_site_label
 _atom_site_symmetry_multiplicity
 _atom_site_fract_x
 _atom_site_fract_y
 _atom_site_fract_z
 _atom_site_occupancy
  Th  Th0  1  0.500000  0.500000  0.500000  1
  Zr  Zr1  1  0.123541  0.629376  0.123541  1
  Zr  Zr2  1  0.370624  0.876459  0.876459  1
  Zr  Zr3  1  0.876459  0.876459  0.876459  1
  Zr  Zr4  1  0.629376  0.123541  0.123541  1
  Zr  Zr5  1  0.876459  0.876459  0.370624  1
  Zr  Zr6  1  0.123541  0.123541  0.123541  1
  Zr  Zr7  1  0.876459  0.370624  0.876459  1
  Zr  Zr8  1  0.123541  0.123541  0.629376  1
  In  In9  1  0.500000  0.849243  0.150757  1
  In  In10  1  0.500000  0.849243  0.500000  1
  In  In11  1  0.500000  0.150757  0.500000  1
  In  In12  1  0.500000  0.500000  0.849243  1
  In  In13  1  0.150757  0.500000  0.500000  1
  In  In14  1  0.849243  0.150757  0.500000  1
  In  In15  1  0.150757  0.849243  0.500000  1
  In  In16  1  0.500000  0.150757  0.849243  1
  In  In17  1  0.150757  0.500000  0.849243  1
  In  In18  1  0.500000  0.500000  0.150757  1
  In  In19  1  0.849243  0.500000  0.500000  1
  In  In20  1  0.849243  0.500000  0.150757  1
  In  In21  1  0.250000  0.250000  0.250000  1
  In  In22  1  0.750000  0.750000  0.750000  1
  Rh  Rh23  1  0.777699  0.777699  0.222301  1
  Rh  Rh24  1  0.000000  0.000000  0.000000  1
  Rh  Rh25  1  0.222301  0.777699  0.222301  1
  Rh  Rh26  1  0.222301  0.777699  0.777699  1
  Rh  Rh27  1  0.222301  0.222301  0.777699  1
  Rh  Rh28  1  0.777699  0.222301  0.777699  1
  Rh  Rh29  1  0.777699  0.222301  0.222301  1
