# generated using pymatgen
data_Cs2MgV2Zn(PO3)12
_symmetry_space_group_name_H-M   'P 1'
_cell_length_a   6.43974117
_cell_length_b   15.98059344
_cell_length_c   8.57664500
_cell_angle_alpha   80.03133690
_cell_angle_beta   103.81831740
_cell_angle_gamma   88.95732819
_symmetry_Int_Tables_number   1
_chemical_formula_structural   Cs2MgV2Zn(PO3)12
_chemical_formula_sum   'Cs2 Mg1 V2 Zn1 P12 O36'
_cell_volume   842.50769616
_cell_formula_units_Z   1
loop_
 _symmetry_equiv_pos_site_id
 _symmetry_equiv_pos_as_xyz
  1  'x, y, z'
loop_
 _atom_site_type_symbol
 _atom_site_label
 _atom_site_symmetry_multiplicity
 _atom_site_fract_x
 _atom_site_fract_y
 _atom_site_fract_z
 _atom_site_occupancy
  Cs  Cs0  1  0.071317  0.474413  0.487375  1
  Cs  Cs1  1  0.571909  0.974607  0.988123  1
  Mg  Mg2  1  0.615966  0.388719  0.835670  1
  V  V3  1  0.390992  0.611666  0.167606  1
  V  V4  1  0.890880  0.111801  0.667765  1
  Zn  Zn5  1  0.117386  0.888611  0.337497  1
  P  P6  1  0.897557  0.205171  0.981102  1
  P  P7  1  0.396045  0.704363  0.481044  1
  P  P8  1  0.008219  0.092691  0.315435  1
  P  P9  1  0.508463  0.592470  0.815965  1
  P  P10  1  0.600082  0.295967  0.517031  1
  P  P11  1  0.100458  0.796180  0.017097  1
  P  P12  1  0.488479  0.407682  0.181325  1
  P  P13  1  0.989565  0.907764  0.682245  1
  P  P14  1  0.143452  0.357248  0.923861  1
  P  P15  1  0.643404  0.857145  0.423315  1
  P  P16  1  0.356585  0.142287  0.570660  1
  P  P17  1  0.856922  0.642406  0.070534  1
  O  O18  1  0.925208  0.174809  0.175203  1
  O  O19  1  0.424834  0.674159  0.675057  1
  O  O20  1  0.576970  0.326443  0.325045  1
  O  O21  1  0.077253  0.826000  0.824788  1
  O  O22  1  0.696187  0.260412  0.918396  1
  O  O23  1  0.191783  0.758106  0.418127  1
  O  O24  1  0.871195  0.091996  0.436142  1
  O  O25  1  0.370925  0.592266  0.936226  1
  O  O26  1  0.800472  0.237106  0.576824  1
  O  O27  1  0.300671  0.737300  0.078170  1
  O  O28  1  0.635360  0.413714  0.070185  1
  O  O29  1  0.140051  0.915113  0.573502  1
  O  O30  1  0.299098  0.363884  0.818926  1
  O  O31  1  0.796779  0.862668  0.316270  1
  O  O32  1  0.569862  0.093328  0.640524  1
  O  O33  1  0.070031  0.593181  0.139798  1
  O  O34  1  0.205408  0.133139  0.681331  1
  O  O35  1  0.705650  0.632992  0.181091  1
  O  O36  1  0.934396  0.407828  0.857445  1
  O  O37  1  0.436407  0.909578  0.357185  1
  O  O38  1  0.917600  0.128037  0.903191  1
  O  O39  1  0.418753  0.627254  0.403614  1
  O  O40  1  0.020271  0.016716  0.238302  1
  O  O41  1  0.521889  0.515923  0.741281  1
  O  O42  1  0.580480  0.371060  0.594648  1
  O  O43  1  0.079996  0.872363  0.091823  1
  O  O44  1  0.455292  0.484081  0.258110  1
  O  O45  1  0.952561  0.983897  0.758578  1
  O  O46  1  0.109303  0.256898  0.978549  1
  O  O47  1  0.605354  0.757376  0.478061  1
  O  O48  1  0.249335  0.116530  0.398343  1
  O  O49  1  0.749155  0.616987  0.898022  1
  O  O50  1  0.389046  0.241694  0.517905  1
  O  O51  1  0.889585  0.741811  0.018382  1
  O  O52  1  0.253384  0.380186  0.101882  1
  O  O53  1  0.756376  0.879380  0.600820  1
