# generated using pymatgen
data_Hf4Zr6GaSn6Ge
_symmetry_space_group_name_H-M   'P 1'
_cell_length_a   8.70011200
_cell_length_b   8.70011386
_cell_length_c   5.88976200
_cell_angle_alpha   90.00000000
_cell_angle_beta   90.00000000
_cell_angle_gamma   120.00000814
_symmetry_Int_Tables_number   1
_chemical_formula_structural   Hf4Zr6GaSn6Ge
_chemical_formula_sum   'Hf4 Zr6 Ga1 Sn6 Ge1'
_cell_volume   386.08072631
_cell_formula_units_Z   1
loop_
 _symmetry_equiv_pos_site_id
 _symmetry_equiv_pos_as_xyz
  1  'x, y, z'
loop_
 _atom_site_type_symbol
 _atom_site_label
 _atom_site_symmetry_multiplicity
 _atom_site_fract_x
 _atom_site_fract_y
 _atom_site_fract_z
 _atom_site_occupancy
  Hf  Hf0  1  0.666667  0.333333  0.000000  1
  Hf  Hf1  1  0.333333  0.666667  0.000000  1
  Hf  Hf2  1  0.333333  0.666667  0.500000  1
  Hf  Hf3  1  0.666667  0.333333  0.500000  1
  Zr  Zr4  1  0.734353  0.734353  0.750985  1
  Zr  Zr5  1  0.265647  0.000000  0.750985  1
  Zr  Zr6  1  0.000000  0.265647  0.750985  1
  Zr  Zr7  1  0.265647  0.265647  0.249015  1
  Zr  Zr8  1  0.734353  0.000000  0.249015  1
  Zr  Zr9  1  0.000000  0.734353  0.249015  1
  Ga  Ga10  1  0.000000  0.000000  0.500000  1
  Sn  Sn11  1  0.390913  0.390913  0.748766  1
  Sn  Sn12  1  0.609087  0.000000  0.748766  1
  Sn  Sn13  1  0.000000  0.609087  0.748766  1
  Sn  Sn14  1  0.609087  0.609087  0.251234  1
  Sn  Sn15  1  0.390913  0.000000  0.251234  1
  Sn  Sn16  1  0.000000  0.390913  0.251234  1
  Ge  Ge17  1  0.000000  0.000000  0.000000  1
