# generated using pymatgen
data_Dy7Ho3(CoSb2)2
_symmetry_space_group_name_H-M   'P 1'
_cell_length_a   7.88893211
_cell_length_b   8.75842612
_cell_length_c   12.19643900
_cell_angle_alpha   90.00000000
_cell_angle_beta   90.00000000
_cell_angle_gamma   90.01898895
_symmetry_Int_Tables_number   1
_chemical_formula_structural   Dy7Ho3(CoSb2)2
_chemical_formula_sum   'Dy14 Ho6 Co4 Sb8'
_cell_volume   842.70838201
_cell_formula_units_Z   2
loop_
 _symmetry_equiv_pos_site_id
 _symmetry_equiv_pos_as_xyz
  1  'x, y, z'
loop_
 _atom_site_type_symbol
 _atom_site_label
 _atom_site_symmetry_multiplicity
 _atom_site_fract_x
 _atom_site_fract_y
 _atom_site_fract_z
 _atom_site_occupancy
  Dy  Dy0  1  0.155080  0.749904  0.203194  1
  Dy  Dy1  1  0.344920  0.750096  0.703194  1
  Dy  Dy2  1  0.845062  0.250035  0.796830  1
  Dy  Dy3  1  0.654938  0.249965  0.296830  1
  Dy  Dy4  1  0.453308  0.749920  0.998217  1
  Dy  Dy5  1  0.046692  0.750080  0.498217  1
  Dy  Dy6  1  0.546104  0.250139  0.001778  1
  Dy  Dy7  1  0.953896  0.249861  0.501778  1
  Dy  Dy8  1  0.620854  0.750206  0.307062  1
  Dy  Dy9  1  0.879146  0.749794  0.807062  1
  Dy  Dy10  1  0.378765  0.249881  0.692974  1
  Dy  Dy11  1  0.121235  0.250119  0.192974  1
  Dy  Dy12  1  0.821458  0.964252  0.065117  1
  Dy  Dy13  1  0.678542  0.535748  0.565117  1
  Ho  Ho14  1  0.822247  0.535814  0.065075  1
  Ho  Ho15  1  0.677753  0.964186  0.565075  1
  Ho  Ho16  1  0.177849  0.035957  0.934810  1
  Ho  Ho17  1  0.322151  0.464043  0.434810  1
  Ho  Ho18  1  0.177740  0.464030  0.934841  1
  Ho  Ho19  1  0.322260  0.035970  0.434841  1
  Co  Co20  1  0.433530  0.750266  0.490729  1
  Co  Co21  1  0.066470  0.749734  0.990729  1
  Co  Co22  1  0.565758  0.249826  0.509157  1
  Co  Co23  1  0.934242  0.250174  0.009157  1
  Sb  Sb24  1  0.928545  0.508755  0.326880  1
  Sb  Sb25  1  0.571455  0.991245  0.826880  1
  Sb  Sb26  1  0.071309  0.008763  0.673152  1
  Sb  Sb27  1  0.428691  0.491237  0.173152  1
  Sb  Sb28  1  0.071748  0.491157  0.673185  1
  Sb  Sb29  1  0.428252  0.008843  0.173185  1
  Sb  Sb30  1  0.928757  0.991262  0.326997  1
  Sb  Sb31  1  0.571243  0.508738  0.826997  1
