# generated using pymatgen
data_Er5Tm3Tc3B24Ru
_symmetry_space_group_name_H-M   'P 1'
_cell_length_a   3.64582000
_cell_length_b   9.10581213
_cell_length_c   11.48274000
_cell_angle_alpha   89.92509283
_cell_angle_beta   90.00000000
_cell_angle_gamma   90.00000000
_symmetry_Int_Tables_number   1
_chemical_formula_structural   Er5Tm3Tc3B24Ru
_chemical_formula_sum   'Er5 Tm3 Tc3 B24 Ru1'
_cell_volume   381.20542204
_cell_formula_units_Z   1
loop_
 _symmetry_equiv_pos_site_id
 _symmetry_equiv_pos_as_xyz
  1  'x, y, z'
loop_
 _atom_site_type_symbol
 _atom_site_label
 _atom_site_symmetry_multiplicity
 _atom_site_fract_x
 _atom_site_fract_y
 _atom_site_fract_z
 _atom_site_occupancy
  Er  Er0  1  0.000000  0.323377  0.413952  1
  Er  Er1  1  0.000000  0.675252  0.584076  1
  Er  Er2  1  0.000000  0.822719  0.087323  1
  Er  Er3  1  0.000000  0.178319  0.914442  1
  Er  Er4  1  0.000000  0.942773  0.370518  1
  Tm  Tm5  1  0.000000  0.057649  0.630517  1
  Tm  Tm6  1  0.000000  0.443182  0.129807  1
  Tm  Tm7  1  0.000000  0.557701  0.869439  1
  Tc  Tc8  1  0.000000  0.638265  0.320315  1
  Tc  Tc9  1  0.000000  0.361510  0.680179  1
  Tc  Tc10  1  0.000000  0.138360  0.178395  1
  B  B11  1  0.500000  0.552912  0.433080  1
  B  B12  1  0.500000  0.446706  0.566581  1
  B  B13  1  0.500000  0.052998  0.066498  1
  B  B14  1  0.500000  0.946128  0.933045  1
  B  B15  1  0.500000  0.748967  0.419141  1
  B  B16  1  0.500000  0.250148  0.581044  1
  B  B17  1  0.500000  0.249943  0.080812  1
  B  B18  1  0.500000  0.750890  0.918799  1
  B  B19  1  0.500000  0.792103  0.265270  1
  B  B20  1  0.500000  0.207827  0.735452  1
  B  B21  1  0.500000  0.292353  0.234815  1
  B  B22  1  0.500000  0.708723  0.765001  1
  B  B23  1  0.500000  0.630791  0.184974  1
  B  B24  1  0.500000  0.369327  0.815506  1
  B  B25  1  0.500000  0.130480  0.314561  1
  B  B26  1  0.500000  0.869059  0.685207  1
  B  B27  1  0.500000  0.981320  0.211788  1
  B  B28  1  0.500000  0.017299  0.788216  1
  B  B29  1  0.500000  0.481478  0.287771  1
  B  B30  1  0.500000  0.518430  0.711841  1
  B  B31  1  0.500000  0.601684  0.027872  1
  B  B32  1  0.500000  0.400057  0.971817  1
  B  B33  1  0.500000  0.101157  0.472412  1
  B  B34  1  0.500000  0.898654  0.528835  1
  Ru  Ru35  1  0.000000  0.861460  0.820704  1
