# generated using pymatgen
data_SmPu3(B6Ru)2
_symmetry_space_group_name_H-M   'P 1'
_cell_length_a   3.61342900
_cell_length_b   9.38771091
_cell_length_c   11.46619366
_cell_angle_alpha   90.10394726
_cell_angle_beta   90.00000000
_cell_angle_gamma   90.00000000
_symmetry_Int_Tables_number   1
_chemical_formula_structural   SmPu3(B6Ru)2
_chemical_formula_sum   'Sm2 Pu6 B24 Ru4'
_cell_volume   388.95359580
_cell_formula_units_Z   2
loop_
 _symmetry_equiv_pos_site_id
 _symmetry_equiv_pos_as_xyz
  1  'x, y, z'
loop_
 _atom_site_type_symbol
 _atom_site_label
 _atom_site_symmetry_multiplicity
 _atom_site_fract_x
 _atom_site_fract_y
 _atom_site_fract_z
 _atom_site_occupancy
  Sm  Sm0  1  0.000000  0.337700  0.407215  1
  Sm  Sm1  1  0.000000  0.662300  0.592785  1
  Pu  Pu2  1  0.000000  0.837502  0.092671  1
  Pu  Pu3  1  0.000000  0.162498  0.907329  1
  Pu  Pu4  1  0.000000  0.955256  0.390851  1
  Pu  Pu5  1  0.000000  0.044744  0.609149  1
  Pu  Pu6  1  0.000000  0.456159  0.107511  1
  Pu  Pu7  1  0.000000  0.543841  0.892489  1
  B  B8  1  0.500000  0.554617  0.429479  1
  B  B9  1  0.500000  0.445383  0.570521  1
  B  B10  1  0.500000  0.052454  0.068481  1
  B  B11  1  0.500000  0.947546  0.931519  1
  B  B12  1  0.500000  0.745553  0.422085  1
  B  B13  1  0.500000  0.254447  0.577915  1
  B  B14  1  0.500000  0.242847  0.076224  1
  B  B15  1  0.500000  0.757153  0.923776  1
  B  B16  1  0.500000  0.803685  0.273298  1
  B  B17  1  0.500000  0.196315  0.726702  1
  B  B18  1  0.500000  0.302771  0.224940  1
  B  B19  1  0.500000  0.697229  0.775060  1
  B  B20  1  0.500000  0.646473  0.188025  1
  B  B21  1  0.500000  0.353527  0.811975  1
  B  B22  1  0.500000  0.144305  0.310932  1
  B  B23  1  0.500000  0.855695  0.689068  1
  B  B24  1  0.500000  0.990321  0.218108  1
  B  B25  1  0.500000  0.009679  0.781892  1
  B  B26  1  0.500000  0.491283  0.279478  1
  B  B27  1  0.500000  0.508717  0.720522  1
  B  B28  1  0.500000  0.645095  0.040094  1
  B  B29  1  0.500000  0.354905  0.959906  1
  B  B30  1  0.500000  0.141311  0.460401  1
  B  B31  1  0.500000  0.858689  0.539599  1
  Ru  Ru32  1  0.000000  0.647004  0.318855  1
  Ru  Ru33  1  0.000000  0.352996  0.681145  1
  Ru  Ru34  1  0.000000  0.145783  0.178661  1
  Ru  Ru35  1  0.000000  0.854217  0.821339  1
