# generated using pymatgen
data_LaNd5Al23VOs8
_symmetry_space_group_name_H-M   'P 1'
_cell_length_a   8.92470800
_cell_length_b   8.92799085
_cell_length_c   9.69198041
_cell_angle_alpha   89.97098676
_cell_angle_beta   90.00000000
_cell_angle_gamma   119.98783721
_symmetry_Int_Tables_number   1
_chemical_formula_structural   LaNd5Al23VOs8
_chemical_formula_sum   'La1 Nd5 Al23 V1 Os8'
_cell_volume   668.87359532
_cell_formula_units_Z   1
loop_
 _symmetry_equiv_pos_site_id
 _symmetry_equiv_pos_as_xyz
  1  'x, y, z'
loop_
 _atom_site_type_symbol
 _atom_site_label
 _atom_site_symmetry_multiplicity
 _atom_site_fract_x
 _atom_site_fract_y
 _atom_site_fract_z
 _atom_site_occupancy
  La  La0  1  0.193905  0.387811  0.247499  1
  Nd  Nd1  1  0.808530  0.617060  0.750337  1
  Nd  Nd2  1  0.615430  0.808336  0.247491  1
  Nd  Nd3  1  0.383251  0.191299  0.751163  1
  Nd  Nd4  1  0.192904  0.808336  0.247491  1
  Nd  Nd5  1  0.808048  0.191299  0.751163  1
  Al  Al6  1  0.666524  0.333048  0.982762  1
  Al  Al7  1  0.666277  0.332553  0.517709  1
  Al  Al8  1  0.333886  0.667774  0.487939  1
  Al  Al9  1  0.162640  0.325279  0.574737  1
  Al  Al10  1  0.836530  0.673061  0.426353  1
  Al  Al11  1  0.674439  0.837505  0.573472  1
  Al  Al12  1  0.835635  0.671271  0.075636  1
  Al  Al13  1  0.327135  0.162660  0.427006  1
  Al  Al14  1  0.160722  0.321445  0.925466  1
  Al  Al15  1  0.163066  0.837505  0.573472  1
  Al  Al16  1  0.328898  0.163545  0.075412  1
  Al  Al17  1  0.835525  0.162660  0.427006  1
  Al  Al18  1  0.677817  0.839055  0.927548  1
  Al  Al19  1  0.834646  0.163545  0.075412  1
  Al  Al20  1  0.161237  0.839055  0.927548  1
  Al  Al21  1  0.562653  0.125308  0.252408  1
  Al  Al22  1  0.440037  0.880076  0.749934  1
  Al  Al23  1  0.873451  0.438017  0.252297  1
  Al  Al24  1  0.119769  0.559894  0.749901  1
  Al  Al25  1  0.564565  0.438017  0.252297  1
  Al  Al26  1  0.440123  0.559894  0.749901  1
  Al  Al27  1  0.000107  0.000214  0.250851  1
  Al  Al28  1  0.999906  0.999811  0.750537  1
  V  V29  1  0.333235  0.666470  0.977099  1
  Os  Os30  1  0.493635  0.987271  0.005599  1
  Os  Os31  1  0.012271  0.506117  0.004838  1
  Os  Os32  1  0.498873  0.997745  0.501416  1
  Os  Os33  1  0.493846  0.506117  0.004838  1
  Os  Os34  1  0.001799  0.501010  0.502101  1
  Os  Os35  1  0.499211  0.501010  0.502101  1
  Os  Os36  1  0.999687  0.999374  0.001872  1
  Os  Os37  1  0.999779  0.999557  0.499389  1
