# generated using pymatgen
data_SbBr10Cl
_symmetry_space_group_name_H-M   'P 1'
_cell_length_a   7.56935114
_cell_length_b   9.01352443
_cell_length_c   10.39429926
_cell_angle_alpha   100.50863724
_cell_angle_beta   91.73058223
_cell_angle_gamma   115.29025902
_symmetry_Int_Tables_number   1
_chemical_formula_structural   SbBr10Cl
_chemical_formula_sum   'Sb1 Br10 Cl1'
_cell_volume   625.76290376
_cell_formula_units_Z   1
loop_
 _symmetry_equiv_pos_site_id
 _symmetry_equiv_pos_as_xyz
  1  'x, y, z'
loop_
 _atom_site_type_symbol
 _atom_site_label
 _atom_site_symmetry_multiplicity
 _atom_site_fract_x
 _atom_site_fract_y
 _atom_site_fract_z
 _atom_site_occupancy
  Sb  Sb0  1  0.982426  0.497513  0.527080  1
  Br  Br1  1  0.008077  0.008479  0.047580  1
  Br  Br2  1  0.705862  0.807132  0.908841  1
  Br  Br3  1  0.330162  0.231268  0.226985  1
  Br  Br4  1  0.691722  0.246963  0.575858  1
  Br  Br5  1  0.233197  0.706224  0.261472  1
  Br  Br6  1  0.461594  0.752042  0.088411  1
  Br  Br7  1  0.552646  0.281414  0.017338  1
  Br  Br8  1  0.837016  0.709056  0.558414  1
  Br  Br9  1  0.145059  0.187142  0.414779  1
  Br  Br10  1  0.881297  0.484749  0.134966  1
  Cl  Cl11  1  0.170941  0.588019  0.738273  1
