# generated using pymatgen
data_La3Nd5(GeI6)2
_symmetry_space_group_name_H-M   'P 1'
_cell_length_a   4.40518000
_cell_length_b   14.58016113
_cell_length_c   15.39887200
_cell_angle_alpha   89.91478425
_cell_angle_beta   90.00000000
_cell_angle_gamma   90.00000000
_symmetry_Int_Tables_number   1
_chemical_formula_structural   La3Nd5(GeI6)2
_chemical_formula_sum   'La3 Nd5 Ge2 I12'
_cell_volume   989.04126316
_cell_formula_units_Z   1
loop_
 _symmetry_equiv_pos_site_id
 _symmetry_equiv_pos_as_xyz
  1  'x, y, z'
loop_
 _atom_site_type_symbol
 _atom_site_label
 _atom_site_symmetry_multiplicity
 _atom_site_fract_x
 _atom_site_fract_y
 _atom_site_fract_z
 _atom_site_occupancy
  La  La0  1  0.500000  0.882238  0.657481  1
  La  La1  1  0.500000  0.618000  0.157949  1
  La  La2  1  0.500000  0.382104  0.842021  1
  Nd  Nd3  1  0.500000  0.115882  0.344969  1
  Nd  Nd4  1  0.000000  0.113384  0.574189  1
  Nd  Nd5  1  0.000000  0.888169  0.423617  1
  Nd  Nd6  1  0.000000  0.612522  0.924624  1
  Nd  Nd7  1  0.000000  0.386432  0.076029  1
  Ge  Ge8  1  0.500000  0.000247  0.499658  1
  Ge  Ge9  1  0.500000  0.499844  0.000232  1
  I  I10  1  0.500000  0.245085  0.162291  1
  I  I11  1  0.500000  0.754270  0.839012  1
  I  I12  1  0.500000  0.745987  0.339247  1
  I  I13  1  0.500000  0.254262  0.660501  1
  I  I14  1  0.000000  0.257125  0.414167  1
  I  I15  1  0.000000  0.740023  0.582750  1
  I  I16  1  0.000000  0.760295  0.082885  1
  I  I17  1  0.000000  0.239904  0.917092  1
  I  I18  1  0.000000  0.999537  0.241715  1
  I  I19  1  0.000000  0.004493  0.759559  1
  I  I20  1  0.000000  0.495576  0.260080  1
  I  I21  1  0.000000  0.504624  0.739934  1
