# generated using pymatgen
data_Hf2Ta2TiTc2
_symmetry_space_group_name_H-M   'P 1'
_cell_length_a   7.19966488
_cell_length_b   7.19966421
_cell_length_c   7.19966485
_cell_angle_alpha   37.59037710
_cell_angle_beta   37.59038524
_cell_angle_gamma   37.59037972
_symmetry_Int_Tables_number   1
_chemical_formula_structural   Hf2Ta2TiTc2
_chemical_formula_sum   'Hf2 Ta2 Ti1 Tc2'
_cell_volume   124.56409701
_cell_formula_units_Z   1
loop_
 _symmetry_equiv_pos_site_id
 _symmetry_equiv_pos_as_xyz
  1  'x, y, z'
loop_
 _atom_site_type_symbol
 _atom_site_label
 _atom_site_symmetry_multiplicity
 _atom_site_fract_x
 _atom_site_fract_y
 _atom_site_fract_z
 _atom_site_occupancy
  Hf  Hf0  1  0.192285  0.192285  0.192285  1
  Hf  Hf1  1  0.767214  0.767214  0.767214  1
  Ta  Ta2  1  0.342881  0.342881  0.342881  1
  Ta  Ta3  1  0.614355  0.614355  0.614355  1
  Ti  Ti4  1  0.925325  0.925325  0.925325  1
  Tc  Tc5  1  0.050765  0.050765  0.050765  1
  Tc  Tc6  1  0.482173  0.482173  0.482173  1
