# generated using pymatgen
data_U8Ta4Nb7Si16Ru
_symmetry_space_group_name_H-M   'P 1'
_cell_length_a   7.01007452
_cell_length_b   7.01943576
_cell_length_c   12.94856413
_cell_angle_alpha   89.93213106
_cell_angle_beta   90.05560378
_cell_angle_gamma   90.02188350
_symmetry_Int_Tables_number   1
_chemical_formula_structural   U8Ta4Nb7Si16Ru
_chemical_formula_sum   'U8 Ta4 Nb7 Si16 Ru1'
_cell_volume   637.15619524
_cell_formula_units_Z   1
loop_
 _symmetry_equiv_pos_site_id
 _symmetry_equiv_pos_as_xyz
  1  'x, y, z'
loop_
 _atom_site_type_symbol
 _atom_site_label
 _atom_site_symmetry_multiplicity
 _atom_site_fract_x
 _atom_site_fract_y
 _atom_site_fract_z
 _atom_site_occupancy
  U  U0  1  0.996658  0.335021  0.221296  1
  U  U1  1  0.007880  0.671443  0.717065  1
  U  U2  1  0.166337  0.498482  0.469036  1
  U  U3  1  0.503556  0.831464  0.033908  1
  U  U4  1  0.830451  0.505847  0.969472  1
  U  U5  1  0.495992  0.165707  0.528982  1
  U  U6  1  0.328842  0.993043  0.779533  1
  U  U7  1  0.670044  0.004045  0.279323  1
  Ta  Ta8  1  0.167713  0.166606  0.001269  1
  Ta  Ta9  1  0.830451  0.832911  0.499904  1
  Ta  Ta10  1  0.329128  0.665452  0.249648  1
  Ta  Ta11  1  0.668286  0.331112  0.749410  1
  Nb  Nb12  1  0.843541  0.001932  0.873899  1
  Nb  Nb13  1  0.496137  0.658237  0.623393  1
  Nb  Nb14  1  0.344211  0.499030  0.876119  1
  Nb  Nb15  1  0.495641  0.338588  0.125278  1
  Nb  Nb16  1  0.658730  0.498109  0.375540  1
  Nb  Nb17  1  0.998029  0.157929  0.627181  1
  Nb  Nb18  1  0.996578  0.839841  0.122999  1
  Si  Si19  1  0.291865  0.035142  0.188776  1
  Si  Si20  1  0.701891  0.960223  0.683843  1
  Si  Si21  1  0.459511  0.796637  0.432315  1
  Si  Si22  1  0.202541  0.537553  0.065206  1
  Si  Si23  1  0.538432  0.201061  0.934603  1
  Si  Si24  1  0.794715  0.460791  0.565370  1
  Si  Si25  1  0.040043  0.298830  0.816069  1
  Si  Si26  1  0.965732  0.716679  0.316396  1
  Si  Si27  1  0.370131  0.291363  0.317077  1
  Si  Si28  1  0.629648  0.706456  0.815282  1
  Si  Si29  1  0.202881  0.872843  0.561683  1
  Si  Si30  1  0.129314  0.793689  0.934157  1
  Si  Si31  1  0.793810  0.130629  0.066809  1
  Si  Si32  1  0.880197  0.199832  0.433881  1
  Si  Si33  1  0.294174  0.369509  0.683440  1
  Si  Si34  1  0.705566  0.624930  0.184932  1
  Ru  Ru35  1  0.171344  0.009033  0.376907  1
