# generated using pymatgen
data_Ce8Co11As16Rh
_symmetry_space_group_name_H-M   'P 1'
_cell_length_a   4.21764000
_cell_length_b   9.98108637
_cell_length_c   14.90656575
_cell_angle_alpha   90.11787161
_cell_angle_beta   90.00000000
_cell_angle_gamma   90.00000000
_symmetry_Int_Tables_number   1
_chemical_formula_structural   Ce8Co11As16Rh
_chemical_formula_sum   'Ce8 Co11 As16 Rh1'
_cell_volume   627.51484203
_cell_formula_units_Z   1
loop_
 _symmetry_equiv_pos_site_id
 _symmetry_equiv_pos_as_xyz
  1  'x, y, z'
loop_
 _atom_site_type_symbol
 _atom_site_label
 _atom_site_symmetry_multiplicity
 _atom_site_fract_x
 _atom_site_fract_y
 _atom_site_fract_z
 _atom_site_occupancy
  Ce  Ce0  1  0.250000  0.576775  0.745249  1
  Ce  Ce1  1  0.250000  0.919521  0.250338  1
  Ce  Ce2  1  0.750000  0.420485  0.253017  1
  Ce  Ce3  1  0.750000  0.081767  0.748846  1
  Ce  Ce4  1  0.250000  0.748361  0.500730  1
  Ce  Ce5  1  0.250000  0.748971  0.001287  1
  Ce  Ce6  1  0.750000  0.252042  0.499216  1
  Ce  Ce7  1  0.750000  0.253498  0.001189  1
  Co  Co8  1  0.250000  0.279212  0.816698  1
  Co  Co9  1  0.250000  0.223102  0.318735  1
  Co  Co10  1  0.750000  0.721847  0.183279  1
  Co  Co11  1  0.750000  0.775502  0.679615  1
  Co  Co12  1  0.250000  0.049882  0.589052  1
  Co  Co13  1  0.250000  0.450316  0.089417  1
  Co  Co14  1  0.750000  0.950061  0.410685  1
  Co  Co15  1  0.750000  0.547944  0.910931  1
  Co  Co16  1  0.250000  0.465219  0.557226  1
  Co  Co17  1  0.250000  0.036721  0.059097  1
  Co  Co18  1  0.750000  0.534818  0.441983  1
  As  As19  1  0.250000  0.449439  0.931165  1
  As  As20  1  0.250000  0.051683  0.431895  1
  As  As21  1  0.750000  0.551699  0.069179  1
  As  As22  1  0.750000  0.948069  0.568137  1
  As  As23  1  0.250000  0.267170  0.649784  1
  As  As24  1  0.250000  0.234490  0.152000  1
  As  As25  1  0.750000  0.732867  0.349607  1
  As  As26  1  0.750000  0.757918  0.844086  1
  As  As27  1  0.250000  0.878078  0.700222  1
  As  As28  1  0.250000  0.620619  0.201045  1
  As  As29  1  0.750000  0.121608  0.300423  1
  As  As30  1  0.750000  0.378886  0.798780  1
  As  As31  1  0.250000  0.076969  0.899883  1
  As  As32  1  0.250000  0.432075  0.400947  1
  As  As33  1  0.750000  0.933230  0.106114  1
  As  As34  1  0.750000  0.567715  0.598006  1
  Rh  Rh35  1  0.750000  0.961439  0.942134  1
