# generated using pymatgen
data_Sr6HoLu(BO3)6
_symmetry_space_group_name_H-M   'P 1'
_cell_length_a   7.84154872
_cell_length_b   7.84154879
_cell_length_c   7.84154889
_cell_angle_alpha   105.08095087
_cell_angle_beta   105.08095357
_cell_angle_gamma   105.08094688
_symmetry_Int_Tables_number   1
_chemical_formula_structural   Sr6HoLu(BO3)6
_chemical_formula_sum   'Sr6 Ho1 Lu1 B6 O18'
_cell_volume   420.81757343
_cell_formula_units_Z   1
loop_
 _symmetry_equiv_pos_site_id
 _symmetry_equiv_pos_as_xyz
  1  'x, y, z'
loop_
 _atom_site_type_symbol
 _atom_site_label
 _atom_site_symmetry_multiplicity
 _atom_site_fract_x
 _atom_site_fract_y
 _atom_site_fract_z
 _atom_site_occupancy
  Sr  Sr0  1  0.648147  0.264058  0.155390  1
  Sr  Sr1  1  0.155390  0.648147  0.264058  1
  Sr  Sr2  1  0.735941  0.844611  0.351853  1
  Sr  Sr3  1  0.264059  0.155389  0.648147  1
  Sr  Sr4  1  0.844611  0.351853  0.735942  1
  Sr  Sr5  1  0.351853  0.735942  0.844610  1
  Ho  Ho6  1  0.000000  0.000000  0.000000  1
  Lu  Lu7  1  0.500000  0.500000  0.500000  1
  B  B8  1  0.293039  0.378966  0.038245  1
  B  B9  1  0.378965  0.038245  0.293039  1
  B  B10  1  0.038245  0.293039  0.378965  1
  B  B11  1  0.961755  0.706962  0.621035  1
  B  B12  1  0.621035  0.961756  0.706961  1
  B  B13  1  0.706962  0.621035  0.961756  1
  O  O14  1  0.733209  0.813484  0.019879  1
  O  O15  1  0.811292  0.548188  0.072790  1
  O  O16  1  0.980121  0.266791  0.186514  1
  O  O17  1  0.451811  0.927210  0.188707  1
  O  O18  1  0.433543  0.497497  0.211332  1
  O  O19  1  0.186515  0.980121  0.266790  1
  O  O20  1  0.497496  0.211332  0.433543  1
  O  O21  1  0.927210  0.188707  0.451812  1
  O  O22  1  0.211332  0.433543  0.497497  1
  O  O23  1  0.788668  0.566457  0.502504  1
  O  O24  1  0.072790  0.811292  0.548188  1
  O  O25  1  0.502504  0.788668  0.566457  1
  O  O26  1  0.813484  0.019878  0.733209  1
  O  O27  1  0.566457  0.502504  0.788669  1
  O  O28  1  0.548188  0.072790  0.811293  1
  O  O29  1  0.019878  0.733208  0.813485  1
  O  O30  1  0.188707  0.451811  0.927210  1
  O  O31  1  0.266791  0.186515  0.980121  1
