# generated using pymatgen
data_HoTh2In3Ru2Rh
_symmetry_space_group_name_H-M   'P 1'
_cell_length_a   7.32780100
_cell_length_b   7.70469928
_cell_length_c   4.03375300
_cell_angle_alpha   90.00000000
_cell_angle_beta   90.00000000
_cell_angle_gamma   118.39458541
_symmetry_Int_Tables_number   1
_chemical_formula_structural   HoTh2In3Ru2Rh
_chemical_formula_sum   'Ho1 Th2 In3 Ru2 Rh1'
_cell_volume   200.34109892
_cell_formula_units_Z   1
loop_
 _symmetry_equiv_pos_site_id
 _symmetry_equiv_pos_as_xyz
  1  'x, y, z'
loop_
 _atom_site_type_symbol
 _atom_site_label
 _atom_site_symmetry_multiplicity
 _atom_site_fract_x
 _atom_site_fract_y
 _atom_site_fract_z
 _atom_site_occupancy
  Ho  Ho0  1  0.405580  0.000000  0.500000  1
  Th  Th1  1  0.998873  0.417651  0.500000  1
  Th  Th2  1  0.581222  0.582349  0.500000  1
  In  In3  1  0.252035  0.236302  0.000000  1
  In  In4  1  0.015734  0.763698  0.000000  1
  In  In5  1  0.730985  0.000000  0.000000  1
  Ru  Ru6  1  0.330958  0.637641  0.000000  1
  Ru  Ru7  1  0.693318  0.362359  0.000000  1
  Rh  Rh8  1  0.991296  0.000000  0.500000  1
