# generated using pymatgen
data_CuRu4PtO12
_symmetry_space_group_name_H-M   'P 1'
_cell_length_a   4.55596240
_cell_length_b   4.55596240
_cell_length_c   9.37496500
_cell_angle_alpha   90.00000000
_cell_angle_beta   90.00000000
_cell_angle_gamma   90.33439629
_symmetry_Int_Tables_number   1
_chemical_formula_structural   CuRu4PtO12
_chemical_formula_sum   'Cu1 Ru4 Pt1 O12'
_cell_volume   194.59089723
_cell_formula_units_Z   1
loop_
 _symmetry_equiv_pos_site_id
 _symmetry_equiv_pos_as_xyz
  1  'x, y, z'
loop_
 _atom_site_type_symbol
 _atom_site_label
 _atom_site_symmetry_multiplicity
 _atom_site_fract_x
 _atom_site_fract_y
 _atom_site_fract_z
 _atom_site_occupancy
  Cu  Cu0  1  0.500000  0.500000  0.500000  1
  Ru  Ru1  1  0.500000  0.500000  0.830203  1
  Ru  Ru2  1  0.000000  0.000000  0.336614  1
  Ru  Ru3  1  0.500000  0.500000  0.169797  1
  Ru  Ru4  1  0.000000  0.000000  0.663386  1
  Pt  Pt5  1  0.000000  0.000000  0.000000  1
  O  O6  1  0.704868  0.704868  0.676312  1
  O  O7  1  0.295132  0.295132  0.676312  1
  O  O8  1  0.704868  0.704868  0.323688  1
  O  O9  1  0.196502  0.803498  0.169467  1
  O  O10  1  0.803498  0.196502  0.169467  1
  O  O11  1  0.803498  0.196502  0.830533  1
  O  O12  1  0.312744  0.312744  0.000000  1
  O  O13  1  0.194156  0.805844  0.500000  1
  O  O14  1  0.805844  0.194156  0.500000  1
  O  O15  1  0.687256  0.687256  0.000000  1
  O  O16  1  0.295132  0.295132  0.323688  1
  O  O17  1  0.196502  0.803498  0.830533  1
