# generated using pymatgen
data_Nd8Y9Sc3Si15Os
_symmetry_space_group_name_H-M   'P 1'
_cell_length_a   7.38718004
_cell_length_b   7.83203910
_cell_length_c   14.66663800
_cell_angle_alpha   90.00000000
_cell_angle_beta   90.00000000
_cell_angle_gamma   90.13885646
_symmetry_Int_Tables_number   1
_chemical_formula_structural   Nd8Y9Sc3Si15Os
_chemical_formula_sum   'Nd8 Y9 Sc3 Si15 Os1'
_cell_volume   848.56053215
_cell_formula_units_Z   1
loop_
 _symmetry_equiv_pos_site_id
 _symmetry_equiv_pos_as_xyz
  1  'x, y, z'
loop_
 _atom_site_type_symbol
 _atom_site_label
 _atom_site_symmetry_multiplicity
 _atom_site_fract_x
 _atom_site_fract_y
 _atom_site_fract_z
 _atom_site_occupancy
  Nd  Nd0  1  0.017432  0.183789  0.098120  1
  Nd  Nd1  1  0.983639  0.827803  0.903719  1
  Nd  Nd2  1  0.483771  0.680624  0.904660  1
  Nd  Nd3  1  0.983639  0.827803  0.596281  1
  Nd  Nd4  1  0.516681  0.320003  0.097676  1
  Nd  Nd5  1  0.017432  0.183789  0.401880  1
  Nd  Nd6  1  0.516681  0.320003  0.402324  1
  Nd  Nd7  1  0.483771  0.680624  0.595340  1
  Y  Y8  1  0.152119  0.513182  0.750000  1
  Y  Y9  1  0.314180  0.172672  0.627210  1
  Y  Y10  1  0.677794  0.824118  0.372849  1
  Y  Y11  1  0.176629  0.679446  0.373175  1
  Y  Y12  1  0.677794  0.824118  0.127151  1
  Y  Y13  1  0.830454  0.312520  0.626756  1
  Y  Y14  1  0.314180  0.172672  0.872790  1
  Y  Y15  1  0.830454  0.312520  0.873244  1
  Y  Y16  1  0.176629  0.679446  0.126825  1
  Sc  Sc17  1  0.841094  0.483678  0.250000  1
  Sc  Sc18  1  0.342232  0.018024  0.250000  1
  Sc  Sc19  1  0.670185  0.987886  0.750000  1
  Si  Si20  1  0.979121  0.902108  0.250000  1
  Si  Si21  1  0.479418  0.599087  0.250000  1
  Si  Si22  1  0.526188  0.397604  0.750000  1
  Si  Si23  1  0.284832  0.872148  0.750000  1
  Si  Si24  1  0.717634  0.131490  0.250000  1
  Si  Si25  1  0.219828  0.369731  0.250000  1
  Si  Si26  1  0.766854  0.627220  0.750000  1
  Si  Si27  1  0.151945  0.471976  0.536608  1
  Si  Si28  1  0.850902  0.531501  0.460030  1
  Si  Si29  1  0.350849  0.969481  0.458810  1
  Si  Si30  1  0.850902  0.531501  0.039970  1
  Si  Si31  1  0.646399  0.030051  0.537829  1
  Si  Si32  1  0.151945  0.471976  0.963392  1
  Si  Si33  1  0.646399  0.030051  0.962171  1
  Si  Si34  1  0.350849  0.969481  0.041190  1
  Os  Os35  1  0.019146  0.089873  0.750000  1
