# generated using pymatgen
data_Ca12YbDy(InN4)2
_symmetry_space_group_name_H-M   'P 1'
_cell_length_a   3.57183600
_cell_length_b   12.05772700
_cell_length_c   11.60829700
_cell_angle_alpha   89.99775654
_cell_angle_beta   90.00000000
_cell_angle_gamma   90.00000000
_symmetry_Int_Tables_number   1
_chemical_formula_structural   Ca12YbDy(InN4)2
_chemical_formula_sum   'Ca12 Yb1 Dy1 In2 N8'
_cell_volume   499.94872803
_cell_formula_units_Z   1
loop_
 _symmetry_equiv_pos_site_id
 _symmetry_equiv_pos_as_xyz
  1  'x, y, z'
loop_
 _atom_site_type_symbol
 _atom_site_label
 _atom_site_symmetry_multiplicity
 _atom_site_fract_x
 _atom_site_fract_y
 _atom_site_fract_z
 _atom_site_occupancy
  Ca  Ca0  1  0.499071  0.670272  0.236714  1
  Ca  Ca1  1  0.499071  0.329728  0.763286  1
  Ca  Ca2  1  0.500920  0.170498  0.264615  1
  Ca  Ca3  1  0.500920  0.829502  0.735385  1
  Ca  Ca4  1  0.000677  0.929666  0.265662  1
  Ca  Ca5  1  0.000677  0.070334  0.734338  1
  Ca  Ca6  1  0.999415  0.426871  0.239058  1
  Ca  Ca7  1  0.999415  0.573129  0.760942  1
  Ca  Ca8  1  0.001472  0.765245  0.478792  1
  Ca  Ca9  1  0.001472  0.234755  0.521208  1
  Ca  Ca10  1  0.998506  0.260648  0.022254  1
  Ca  Ca11  1  0.998506  0.739352  0.977746  1
  Yb  Yb12  1  0.501145  0.000000  0.500000  1
  Dy  Dy13  1  0.499065  0.500000  0.000000  1
  In  In14  1  0.509390  0.500000  0.500000  1
  In  In15  1  0.490335  0.000000  0.000000  1
  N  N16  1  0.998608  0.593517  0.119442  1
  N  N17  1  0.998608  0.406483  0.880558  1
  N  N18  1  0.001263  0.100816  0.371968  1
  N  N19  1  0.001263  0.899184  0.628032  1
  N  N20  1  0.501092  0.830904  0.356792  1
  N  N21  1  0.501092  0.169096  0.643208  1
  N  N22  1  0.499007  0.338883  0.135783  1
  N  N23  1  0.499007  0.661117  0.864217  1
