# generated using pymatgen
data_K3SrTbUTe6
_symmetry_space_group_name_H-M   'P 1'
_cell_length_a   8.02323280
_cell_length_b   8.02323160
_cell_length_c   8.67986396
_cell_angle_alpha   81.01723020
_cell_angle_beta   81.01723360
_cell_angle_gamma   120.13708202
_symmetry_Int_Tables_number   1
_chemical_formula_structural   K3SrTbUTe6
_chemical_formula_sum   'K3 Sr1 Tb1 U1 Te6'
_cell_volume   458.94747110
_cell_formula_units_Z   1
loop_
 _symmetry_equiv_pos_site_id
 _symmetry_equiv_pos_as_xyz
  1  'x, y, z'
loop_
 _atom_site_type_symbol
 _atom_site_label
 _atom_site_symmetry_multiplicity
 _atom_site_fract_x
 _atom_site_fract_y
 _atom_site_fract_z
 _atom_site_occupancy
  K  K0  1  0.340356  0.659644  0.500000  1
  K  K1  1  0.659391  0.340609  0.500000  1
  K  K2  1  0.000325  0.999675  0.500000  1
  Sr  Sr3  1  0.500277  0.499723  0.000000  1
  Tb  Tb4  1  0.167137  0.832863  0.000000  1
  U  U5  1  0.832310  0.167690  0.000000  1
  Te  Te6  1  0.781889  0.784875  0.210045  1
  Te  Te7  1  0.431319  0.075590  0.212658  1
  Te  Te8  1  0.072228  0.424766  0.212150  1
  Te  Te9  1  0.575234  0.927772  0.787850  1
  Te  Te10  1  0.924410  0.568681  0.787342  1
  Te  Te11  1  0.215125  0.218111  0.789955  1
