# generated using pymatgen
data_Yb7Ho(Sc3Pb4)4
_symmetry_space_group_name_H-M   'P 1'
_cell_length_a   7.75391425
_cell_length_b   15.29362199
_cell_length_c   8.23193721
_cell_angle_alpha   89.98802824
_cell_angle_beta   90.37989401
_cell_angle_gamma   90.04281085
_symmetry_Int_Tables_number   1
_chemical_formula_structural   Yb7Ho(Sc3Pb4)4
_chemical_formula_sum   'Yb7 Ho1 Sc12 Pb16'
_cell_volume   976.16609237
_cell_formula_units_Z   1
loop_
 _symmetry_equiv_pos_site_id
 _symmetry_equiv_pos_as_xyz
  1  'x, y, z'
loop_
 _atom_site_type_symbol
 _atom_site_label
 _atom_site_symmetry_multiplicity
 _atom_site_fract_x
 _atom_site_fract_y
 _atom_site_fract_z
 _atom_site_occupancy
  Yb  Yb0  1  0.487003  0.591187  0.683313  1
  Yb  Yb1  1  0.986483  0.908693  0.818559  1
  Yb  Yb2  1  0.511119  0.089886  0.317206  1
  Yb  Yb3  1  0.012474  0.409489  0.183168  1
  Yb  Yb4  1  0.510799  0.411096  0.315299  1
  Yb  Yb5  1  0.011398  0.090203  0.182558  1
  Yb  Yb6  1  0.488036  0.907622  0.681735  1
  Ho  Ho7  1  0.988173  0.593457  0.814387  1
  Sc  Sc8  1  0.662602  0.625443  0.149827  1
  Sc  Sc9  1  0.166853  0.872843  0.348573  1
  Sc  Sc10  1  0.336085  0.125225  0.848133  1
  Sc  Sc11  1  0.837121  0.373971  0.651254  1
  Sc  Sc12  1  0.338188  0.375244  0.850198  1
  Sc  Sc13  1  0.835677  0.125600  0.651047  1
  Sc  Sc14  1  0.664268  0.873797  0.153196  1
  Sc  Sc15  1  0.164658  0.626362  0.349198  1
  Sc  Sc16  1  0.827632  0.749344  0.499902  1
  Sc  Sc17  1  0.326896  0.749823  0.999702  1
  Sc  Sc18  1  0.171344  0.249857  0.500894  1
  Sc  Sc19  1  0.673785  0.250147  0.000101  1
  Pb  Pb20  1  0.690588  0.456187  0.952634  1
  Pb  Pb21  1  0.183086  0.044576  0.543695  1
  Pb  Pb22  1  0.316960  0.954152  0.043568  1
  Pb  Pb23  1  0.815982  0.545960  0.458705  1
  Pb  Pb24  1  0.311091  0.546521  0.043422  1
  Pb  Pb25  1  0.817659  0.954068  0.456528  1
  Pb  Pb26  1  0.682842  0.044853  0.954740  1
  Pb  Pb27  1  0.183050  0.456293  0.546746  1
  Pb  Pb28  1  0.472476  0.748466  0.364598  1
  Pb  Pb29  1  0.970609  0.749848  0.131664  1
  Pb  Pb30  1  0.528737  0.250627  0.635270  1
  Pb  Pb31  1  0.030732  0.249446  0.867555  1
  Pb  Pb32  1  0.685205  0.748690  0.848016  1
  Pb  Pb33  1  0.182087  0.750531  0.655382  1
  Pb  Pb34  1  0.315366  0.250439  0.152206  1
  Pb  Pb35  1  0.812934  0.250053  0.347022  1
