# generated using pymatgen
data_Yb4Pr9Y7Sn16
_symmetry_space_group_name_H-M   'P 1'
_cell_length_a   8.02922109
_cell_length_b   8.43921230
_cell_length_c   15.87688958
_cell_angle_alpha   90.09755798
_cell_angle_beta   90.04995686
_cell_angle_gamma   90.06410950
_symmetry_Int_Tables_number   1
_chemical_formula_structural   Yb4Pr9Y7Sn16
_chemical_formula_sum   'Yb4 Pr9 Y7 Sn16'
_cell_volume   1075.82017997
_cell_formula_units_Z   1
loop_
 _symmetry_equiv_pos_site_id
 _symmetry_equiv_pos_as_xyz
  1  'x, y, z'
loop_
 _atom_site_type_symbol
 _atom_site_label
 _atom_site_symmetry_multiplicity
 _atom_site_fract_x
 _atom_site_fract_y
 _atom_site_fract_z
 _atom_site_occupancy
  Yb  Yb0  1  0.834759  0.504572  0.749599  1
  Yb  Yb1  1  0.333918  0.996140  0.750142  1
  Yb  Yb2  1  0.166550  0.495344  0.249485  1
  Yb  Yb3  1  0.666730  0.004518  0.250361  1
  Pr  Pr4  1  0.166008  0.328389  0.623378  1
  Pr  Pr5  1  0.507294  0.680674  0.596483  1
  Pr  Pr6  1  0.006276  0.818995  0.904293  1
  Pr  Pr7  1  0.492820  0.318469  0.096162  1
  Pr  Pr8  1  0.992365  0.182169  0.403022  1
  Pr  Pr9  1  0.493575  0.320318  0.403577  1
  Pr  Pr10  1  0.993297  0.180885  0.096097  1
  Pr  Pr11  1  0.507132  0.681544  0.904364  1
  Pr  Pr12  1  0.006988  0.818223  0.596366  1
  Y  Y13  1  0.667388  0.170283  0.624956  1
  Y  Y14  1  0.167091  0.329302  0.876553  1
  Y  Y15  1  0.333215  0.829530  0.124211  1
  Y  Y16  1  0.833751  0.670630  0.374940  1
  Y  Y17  1  0.333055  0.829785  0.374407  1
  Y  Y18  1  0.832303  0.670528  0.124023  1
  Y  Y19  1  0.666344  0.170112  0.876516  1
  Sn  Sn20  1  0.675280  0.961217  0.461563  1
  Sn  Sn21  1  0.173778  0.538327  0.038647  1
  Sn  Sn22  1  0.325342  0.038169  0.961905  1
  Sn  Sn23  1  0.818590  0.461729  0.536657  1
  Sn  Sn24  1  0.331126  0.034638  0.537081  1
  Sn  Sn25  1  0.826701  0.462049  0.961372  1
  Sn  Sn26  1  0.673999  0.961492  0.038559  1
  Sn  Sn27  1  0.174029  0.541923  0.459109  1
  Sn  Sn28  1  0.470306  0.383098  0.752928  1
  Sn  Sn29  1  0.965884  0.114529  0.752132  1
  Sn  Sn30  1  0.532202  0.619010  0.249602  1
  Sn  Sn31  1  0.032084  0.881739  0.249377  1
  Sn  Sn32  1  0.705910  0.864445  0.750755  1
  Sn  Sn33  1  0.207906  0.637239  0.751804  1
  Sn  Sn34  1  0.292980  0.134407  0.249820  1
  Sn  Sn35  1  0.793025  0.365582  0.249747  1
