# generated using pymatgen
data_SrBi2Pb(BrO2)2
_symmetry_space_group_name_H-M   'P 1'
_cell_length_a   7.25345526
_cell_length_b   7.25345608
_cell_length_c   5.71576000
_cell_angle_alpha   90.00000000
_cell_angle_beta   90.00000000
_cell_angle_gamma   132.75025658
_symmetry_Int_Tables_number   1
_chemical_formula_structural   SrBi2Pb(BrO2)2
_chemical_formula_sum   'Sr1 Bi2 Pb1 Br2 O4'
_cell_volume   220.82536153
_cell_formula_units_Z   1
loop_
 _symmetry_equiv_pos_site_id
 _symmetry_equiv_pos_as_xyz
  1  'x, y, z'
loop_
 _atom_site_type_symbol
 _atom_site_label
 _atom_site_symmetry_multiplicity
 _atom_site_fract_x
 _atom_site_fract_y
 _atom_site_fract_z
 _atom_site_occupancy
  Sr  Sr0  1  0.894994  0.105006  0.250000  1
  Bi  Bi1  1  0.577763  0.422238  0.250000  1
  Bi  Bi2  1  0.417131  0.582870  0.750000  1
  Pb  Pb3  1  0.095637  0.904363  0.750000  1
  Br  Br4  1  0.254147  0.745854  0.250000  1
  Br  Br5  1  0.764964  0.235037  0.750000  1
  O  O6  1  0.263434  0.265751  0.998285  1
  O  O7  1  0.734249  0.736566  0.998285  1
  O  O8  1  0.263434  0.265751  0.501715  1
  O  O9  1  0.734249  0.736566  0.501715  1
