# generated using pymatgen
data_Cs2TbCl5
_symmetry_space_group_name_H-M   'P 1'
_cell_length_a   7.61774400
_cell_length_b   9.83812600
_cell_length_c   15.57771200
_cell_angle_alpha   90.00000000
_cell_angle_beta   90.00000000
_cell_angle_gamma   90.00000000
_symmetry_Int_Tables_number   1
_chemical_formula_structural   Cs2TbCl5
_chemical_formula_sum   'Cs8 Tb4 Cl20'
_cell_volume   1167.46111568
_cell_formula_units_Z   4
loop_
 _symmetry_equiv_pos_site_id
 _symmetry_equiv_pos_as_xyz
  1  'x, y, z'
loop_
 _atom_site_type_symbol
 _atom_site_label
 _atom_site_symmetry_multiplicity
 _atom_site_fract_x
 _atom_site_fract_y
 _atom_site_fract_z
 _atom_site_occupancy
  Cs  Cs0  1  0.250000  0.664072  0.916987  1
  Cs  Cs1  1  0.750000  0.335928  0.083013  1
  Cs  Cs2  1  0.750000  0.835928  0.416987  1
  Cs  Cs3  1  0.250000  0.164072  0.583013  1
  Cs  Cs4  1  0.250000  0.975730  0.212316  1
  Cs  Cs5  1  0.750000  0.024270  0.787684  1
  Cs  Cs6  1  0.750000  0.524270  0.712316  1
  Cs  Cs7  1  0.250000  0.475730  0.287684  1
  Tb  Tb8  1  0.250000  0.676669  0.564551  1
  Tb  Tb9  1  0.750000  0.323331  0.435449  1
  Tb  Tb10  1  0.750000  0.823331  0.064551  1
  Tb  Tb11  1  0.250000  0.176669  0.935449  1
  Cl  Cl12  1  0.250000  0.520538  0.700367  1
  Cl  Cl13  1  0.750000  0.479462  0.299633  1
  Cl  Cl14  1  0.750000  0.979462  0.200367  1
  Cl  Cl15  1  0.250000  0.020538  0.799633  1
  Cl  Cl16  1  0.502410  0.831725  0.617514  1
  Cl  Cl17  1  0.497590  0.168275  0.382486  1
  Cl  Cl18  1  0.497590  0.668275  0.117514  1
  Cl  Cl19  1  0.002410  0.168275  0.382486  1
  Cl  Cl20  1  0.502410  0.331725  0.882486  1
  Cl  Cl21  1  0.997590  0.831725  0.617514  1
  Cl  Cl22  1  0.997590  0.331725  0.882486  1
  Cl  Cl23  1  0.002410  0.668275  0.117514  1
  Cl  Cl24  1  0.250000  0.785630  0.407690  1
  Cl  Cl25  1  0.750000  0.214370  0.592310  1
  Cl  Cl26  1  0.750000  0.714370  0.907690  1
  Cl  Cl27  1  0.250000  0.285630  0.092310  1
  Cl  Cl28  1  0.000000  0.500000  0.500000  1
  Cl  Cl29  1  0.000000  0.000000  0.000000  1
  Cl  Cl30  1  0.500000  0.500000  0.500000  1
  Cl  Cl31  1  0.500000  0.000000  0.000000  1
