# generated using pymatgen
data_Zr5Ta3P4
_symmetry_space_group_name_H-M   'P 1'
_cell_length_a   3.58777400
_cell_length_b   6.96658797
_cell_length_c   8.46876769
_cell_angle_alpha   89.79020030
_cell_angle_beta   90.00000000
_cell_angle_gamma   90.00000000
_symmetry_Int_Tables_number   1
_chemical_formula_structural   Zr5Ta3P4
_chemical_formula_sum   'Zr5 Ta3 P4'
_cell_volume   211.67156081
_cell_formula_units_Z   1
loop_
 _symmetry_equiv_pos_site_id
 _symmetry_equiv_pos_as_xyz
  1  'x, y, z'
loop_
 _atom_site_type_symbol
 _atom_site_label
 _atom_site_symmetry_multiplicity
 _atom_site_fract_x
 _atom_site_fract_y
 _atom_site_fract_z
 _atom_site_occupancy
  Zr  Zr0  1  0.250000  0.140796  0.060916  1
  Zr  Zr1  1  0.250000  0.533245  0.828561  1
  Zr  Zr2  1  0.750000  0.967012  0.333609  1
  Zr  Zr3  1  0.250000  0.030238  0.666984  1
  Zr  Zr4  1  0.750000  0.474485  0.174610  1
  Ta  Ta5  1  0.750000  0.852795  0.937840  1
  Ta  Ta6  1  0.250000  0.641573  0.440832  1
  Ta  Ta7  1  0.750000  0.363237  0.560302  1
  P  P8  1  0.750000  0.736008  0.642255  1
  P  P9  1  0.250000  0.761722  0.141631  1
  P  P10  1  0.750000  0.233542  0.849215  1
  P  P11  1  0.250000  0.265347  0.363247  1
