# generated using pymatgen
data_YbTh3(Nb3Ge4)2
_symmetry_space_group_name_H-M   'P 1'
_cell_length_a   7.16011500
_cell_length_b   7.29457215
_cell_length_c   13.78336528
_cell_angle_alpha   89.97709491
_cell_angle_beta   90.00000000
_cell_angle_gamma   90.00000000
_symmetry_Int_Tables_number   1
_chemical_formula_structural   YbTh3(Nb3Ge4)2
_chemical_formula_sum   'Yb2 Th6 Nb12 Ge16'
_cell_volume   719.90477227
_cell_formula_units_Z   2
loop_
 _symmetry_equiv_pos_site_id
 _symmetry_equiv_pos_as_xyz
  1  'x, y, z'
loop_
 _atom_site_type_symbol
 _atom_site_label
 _atom_site_symmetry_multiplicity
 _atom_site_fract_x
 _atom_site_fract_y
 _atom_site_fract_z
 _atom_site_occupancy
  Yb  Yb0  1  0.494719  0.327325  0.096399  1
  Yb  Yb1  1  0.994719  0.172675  0.403601  1
  Th  Th2  1  0.505448  0.671570  0.592575  1
  Th  Th3  1  0.005448  0.828430  0.907425  1
  Th  Th4  1  0.505336  0.670896  0.907402  1
  Th  Th5  1  0.005336  0.829104  0.592598  1
  Th  Th6  1  0.497278  0.328006  0.405211  1
  Th  Th7  1  0.997278  0.171994  0.094789  1
  Nb  Nb8  1  0.666820  0.007877  0.749483  1
  Nb  Nb9  1  0.166820  0.492123  0.750517  1
  Nb  Nb10  1  0.334543  0.988563  0.251939  1
  Nb  Nb11  1  0.834543  0.511437  0.248061  1
  Nb  Nb12  1  0.836847  0.333379  0.626492  1
  Nb  Nb13  1  0.336847  0.166621  0.873508  1
  Nb  Nb14  1  0.157649  0.671428  0.126273  1
  Nb  Nb15  1  0.657649  0.828572  0.373727  1
  Nb  Nb16  1  0.163948  0.667597  0.373416  1
  Nb  Nb17  1  0.663948  0.832403  0.126584  1
  Nb  Nb18  1  0.839561  0.332854  0.873827  1
  Nb  Nb19  1  0.339561  0.167146  0.626173  1
  Ge  Ge20  1  0.809087  0.629337  0.749855  1
  Ge  Ge21  1  0.309087  0.870663  0.750145  1
  Ge  Ge22  1  0.192823  0.367432  0.251206  1
  Ge  Ge23  1  0.692823  0.132568  0.248794  1
  Ge  Ge24  1  0.537800  0.367376  0.750315  1
  Ge  Ge25  1  0.037800  0.132624  0.749685  1
  Ge  Ge26  1  0.461379  0.628970  0.247353  1
  Ge  Ge27  1  0.961379  0.871030  0.252647  1
  Ge  Ge28  1  0.671670  0.047444  0.543204  1
  Ge  Ge29  1  0.171670  0.452556  0.956796  1
  Ge  Ge30  1  0.334267  0.959802  0.046934  1
  Ge  Ge31  1  0.834267  0.540198  0.453066  1
  Ge  Ge32  1  0.323509  0.958777  0.453289  1
  Ge  Ge33  1  0.823509  0.541223  0.046711  1
  Ge  Ge34  1  0.667316  0.049414  0.956427  1
  Ge  Ge35  1  0.167316  0.450586  0.543573  1
