# generated using pymatgen
data_Sc12ReSi12Ru2Au
_symmetry_space_group_name_H-M   'P 1'
_cell_length_a   4.03472400
_cell_length_b   10.35546645
_cell_length_c   11.72249602
_cell_angle_alpha   89.96423083
_cell_angle_beta   90.00000000
_cell_angle_gamma   90.00000000
_symmetry_Int_Tables_number   1
_chemical_formula_structural   Sc12ReSi12Ru2Au
_chemical_formula_sum   'Sc12 Re1 Si12 Ru2 Au1'
_cell_volume   489.78277476
_cell_formula_units_Z   1
loop_
 _symmetry_equiv_pos_site_id
 _symmetry_equiv_pos_as_xyz
  1  'x, y, z'
loop_
 _atom_site_type_symbol
 _atom_site_label
 _atom_site_symmetry_multiplicity
 _atom_site_fract_x
 _atom_site_fract_y
 _atom_site_fract_z
 _atom_site_occupancy
  Sc  Sc0  1  0.250000  0.878985  0.020951  1
  Sc  Sc1  1  0.250000  0.628200  0.513742  1
  Sc  Sc2  1  0.750000  0.124317  0.981088  1
  Sc  Sc3  1  0.750000  0.377240  0.475611  1
  Sc  Sc4  1  0.250000  0.922108  0.602820  1
  Sc  Sc5  1  0.250000  0.578627  0.105740  1
  Sc  Sc6  1  0.750000  0.078773  0.396738  1
  Sc  Sc7  1  0.750000  0.421315  0.897867  1
  Sc  Sc8  1  0.250000  0.664869  0.801228  1
  Sc  Sc9  1  0.250000  0.844177  0.297647  1
  Sc  Sc10  1  0.750000  0.336002  0.202909  1
  Sc  Sc11  1  0.750000  0.153979  0.701959  1
  Re  Re12  1  0.750000  0.607214  0.324489  1
  Si  Si13  1  0.250000  0.012176  0.821871  1
  Si  Si14  1  0.250000  0.480369  0.322177  1
  Si  Si15  1  0.750000  0.986191  0.177453  1
  Si  Si16  1  0.750000  0.527870  0.673956  1
  Si  Si17  1  0.250000  0.245431  0.849234  1
  Si  Si18  1  0.250000  0.245133  0.341936  1
  Si  Si19  1  0.750000  0.749244  0.157630  1
  Si  Si20  1  0.750000  0.756167  0.658380  1
  Si  Si21  1  0.250000  0.182788  0.541056  1
  Si  Si22  1  0.250000  0.307191  0.047538  1
  Si  Si23  1  0.750000  0.807931  0.453757  1
  Si  Si24  1  0.750000  0.696811  0.956226  1
  Ru  Ru25  1  0.250000  0.109653  0.176490  1
  Ru  Ru26  1  0.750000  0.890274  0.823647  1
  Au  Au27  1  0.250000  0.386966  0.675861  1
