# generated using pymatgen
data_Gd4Y4Re3B24Rh
_symmetry_space_group_name_H-M   'P 1'
_cell_length_a   3.70130400
_cell_length_b   9.21312808
_cell_length_c   11.60875003
_cell_angle_alpha   89.82510658
_cell_angle_beta   90.00000000
_cell_angle_gamma   90.00000000
_symmetry_Int_Tables_number   1
_chemical_formula_structural   Gd4Y4Re3B24Rh
_chemical_formula_sum   'Gd4 Y4 Re3 B24 Rh1'
_cell_volume   395.86335558
_cell_formula_units_Z   1
loop_
 _symmetry_equiv_pos_site_id
 _symmetry_equiv_pos_as_xyz
  1  'x, y, z'
loop_
 _atom_site_type_symbol
 _atom_site_label
 _atom_site_symmetry_multiplicity
 _atom_site_fract_x
 _atom_site_fract_y
 _atom_site_fract_z
 _atom_site_occupancy
  Gd  Gd0  1  0.000000  0.818973  0.084452  1
  Gd  Gd1  1  0.000000  0.177407  0.909317  1
  Gd  Gd2  1  0.000000  0.327244  0.418421  1
  Gd  Gd3  1  0.000000  0.677394  0.587177  1
  Y  Y4  1  0.000000  0.443093  0.129988  1
  Y  Y5  1  0.000000  0.555865  0.871298  1
  Y  Y6  1  0.000000  0.941408  0.371062  1
  Y  Y7  1  0.000000  0.056948  0.628154  1
  Re  Re8  1  0.000000  0.862330  0.821984  1
  Re  Re9  1  0.000000  0.638454  0.319878  1
  Re  Re10  1  0.000000  0.361732  0.679336  1
  B  B11  1  0.500000  0.054064  0.066796  1
  B  B12  1  0.500000  0.946260  0.932710  1
  B  B13  1  0.500000  0.553958  0.432962  1
  B  B14  1  0.500000  0.447295  0.567971  1
  B  B15  1  0.500000  0.248384  0.080143  1
  B  B16  1  0.500000  0.751118  0.918609  1
  B  B17  1  0.500000  0.748714  0.418201  1
  B  B18  1  0.500000  0.252603  0.581515  1
  B  B19  1  0.500000  0.290302  0.234841  1
  B  B20  1  0.500000  0.708999  0.766058  1
  B  B21  1  0.500000  0.791030  0.264870  1
  B  B22  1  0.500000  0.208710  0.733962  1
  B  B23  1  0.500000  0.131813  0.315695  1
  B  B24  1  0.500000  0.869347  0.686188  1
  B  B25  1  0.500000  0.630718  0.185360  1
  B  B26  1  0.500000  0.368359  0.814230  1
  B  B27  1  0.500000  0.483386  0.288232  1
  B  B28  1  0.500000  0.517182  0.712980  1
  B  B29  1  0.500000  0.983623  0.211997  1
  B  B30  1  0.500000  0.017647  0.787541  1
  B  B31  1  0.500000  0.104226  0.470329  1
  B  B32  1  0.500000  0.897275  0.527913  1
  B  B33  1  0.500000  0.601465  0.029029  1
  B  B34  1  0.500000  0.394768  0.971862  1
  Rh  Rh35  1  0.000000  0.137903  0.178939  1
