# generated using pymatgen
data_Zr6Be16Pt7
_symmetry_space_group_name_H-M   'P 1'
_cell_length_a   8.09446224
_cell_length_b   8.09446129
_cell_length_c   8.09446100
_cell_angle_alpha   59.99999710
_cell_angle_beta   60.00000098
_cell_angle_gamma   60.00000385
_symmetry_Int_Tables_number   1
_chemical_formula_structural   Zr6Be16Pt7
_chemical_formula_sum   'Zr6 Be16 Pt7'
_cell_volume   375.01522136
_cell_formula_units_Z   1
loop_
 _symmetry_equiv_pos_site_id
 _symmetry_equiv_pos_as_xyz
  1  'x, y, z'
loop_
 _atom_site_type_symbol
 _atom_site_label
 _atom_site_symmetry_multiplicity
 _atom_site_fract_x
 _atom_site_fract_y
 _atom_site_fract_z
 _atom_site_occupancy
  Zr  Zr0  1  0.710671  0.710671  0.289329  1
  Zr  Zr1  1  0.289329  0.710671  0.289329  1
  Zr  Zr2  1  0.710671  0.289329  0.289329  1
  Zr  Zr3  1  0.289329  0.289329  0.710671  1
  Zr  Zr4  1  0.710671  0.289329  0.710671  1
  Zr  Zr5  1  0.289329  0.710671  0.710671  1
  Be  Be6  1  0.872835  0.872835  0.381493  1
  Be  Be7  1  0.872835  0.381493  0.872835  1
  Be  Be8  1  0.381493  0.872835  0.872835  1
  Be  Be9  1  0.872835  0.872835  0.872835  1
  Be  Be10  1  0.127165  0.127165  0.618507  1
  Be  Be11  1  0.127165  0.618507  0.127165  1
  Be  Be12  1  0.618507  0.127165  0.127165  1
  Be  Be13  1  0.127165  0.127165  0.127165  1
  Be  Be14  1  0.674015  0.674015  0.977955  1
  Be  Be15  1  0.674015  0.977955  0.674015  1
  Be  Be16  1  0.977955  0.674015  0.674015  1
  Be  Be17  1  0.674015  0.674015  0.674015  1
  Be  Be18  1  0.325985  0.325985  0.022045  1
  Be  Be19  1  0.325985  0.022045  0.325985  1
  Be  Be20  1  0.022045  0.325985  0.325985  1
  Be  Be21  1  0.325985  0.325985  0.325985  1
  Pt  Pt22  1  0.000000  0.000000  0.000000  1
  Pt  Pt23  1  0.000000  0.000000  0.500000  1
  Pt  Pt24  1  0.500000  0.000000  0.500000  1
  Pt  Pt25  1  0.000000  0.500000  0.500000  1
  Pt  Pt26  1  0.500000  0.500000  0.000000  1
  Pt  Pt27  1  0.000000  0.500000  0.000000  1
  Pt  Pt28  1  0.500000  0.000000  0.000000  1
