# generated using pymatgen
data_Y13Lu7Si15Au
_symmetry_space_group_name_H-M   'P 1'
_cell_length_a   7.39960687
_cell_length_b   7.65302160
_cell_length_c   14.50895193
_cell_angle_alpha   90.16767753
_cell_angle_beta   90.39843255
_cell_angle_gamma   90.24599597
_symmetry_Int_Tables_number   1
_chemical_formula_structural   Y13Lu7Si15Au
_chemical_formula_sum   'Y13 Lu7 Si15 Au1'
_cell_volume   821.60150486
_cell_formula_units_Z   1
loop_
 _symmetry_equiv_pos_site_id
 _symmetry_equiv_pos_as_xyz
  1  'x, y, z'
loop_
 _atom_site_type_symbol
 _atom_site_label
 _atom_site_symmetry_multiplicity
 _atom_site_fract_x
 _atom_site_fract_y
 _atom_site_fract_z
 _atom_site_occupancy
  Y  Y0  1  0.176728  0.321504  0.623174  1
  Y  Y1  1  0.524186  0.676959  0.600386  1
  Y  Y2  1  0.026597  0.818001  0.902139  1
  Y  Y3  1  0.472541  0.320150  0.097996  1
  Y  Y4  1  0.977961  0.180979  0.399759  1
  Y  Y5  1  0.474079  0.324912  0.400285  1
  Y  Y6  1  0.972968  0.181589  0.098092  1
  Y  Y7  1  0.527910  0.680748  0.901301  1
  Y  Y8  1  0.022614  0.820095  0.600326  1
  Y  Y9  1  0.850512  0.506163  0.750203  1
  Y  Y10  1  0.349288  0.990644  0.748683  1
  Y  Y11  1  0.151046  0.491373  0.250112  1
  Y  Y12  1  0.652691  0.008794  0.250740  1
  Lu  Lu13  1  0.680764  0.173279  0.623844  1
  Lu  Lu14  1  0.181485  0.322545  0.877325  1
  Lu  Lu15  1  0.319507  0.820589  0.121997  1
  Lu  Lu16  1  0.824292  0.678861  0.376531  1
  Lu  Lu17  1  0.320208  0.825747  0.376351  1
  Lu  Lu18  1  0.817944  0.677553  0.122274  1
  Lu  Lu19  1  0.679859  0.178305  0.877661  1
  Si  Si20  1  0.147187  0.530778  0.039811  1
  Si  Si21  1  0.351262  0.031824  0.960560  1
  Si  Si22  1  0.844822  0.469387  0.539745  1
  Si  Si23  1  0.343138  0.028768  0.540975  1
  Si  Si24  1  0.852717  0.468664  0.960032  1
  Si  Si25  1  0.646544  0.968358  0.039139  1
  Si  Si26  1  0.148950  0.534968  0.459855  1
  Si  Si27  1  0.478077  0.388746  0.751989  1
  Si  Si28  1  0.974289  0.108399  0.753650  1
  Si  Si29  1  0.525073  0.613375  0.247773  1
  Si  Si30  1  0.026920  0.889150  0.246701  1
  Si  Si31  1  0.732152  0.872375  0.752920  1
  Si  Si32  1  0.231958  0.625988  0.752561  1
  Si  Si33  1  0.270413  0.125070  0.246578  1
  Si  Si34  1  0.767409  0.377317  0.248676  1
  Au  Au35  1  0.655909  0.968045  0.459856  1
