# generated using pymatgen
data_TbPrMn(Si3Pd10)2
_symmetry_space_group_name_H-M   'P 1'
_cell_length_a   8.69255299
_cell_length_b   8.69255212
_cell_length_c   8.69255400
_cell_angle_alpha   60.00000046
_cell_angle_beta   60.00000377
_cell_angle_gamma   59.99999920
_symmetry_Int_Tables_number   1
_chemical_formula_structural   TbPrMn(Si3Pd10)2
_chemical_formula_sum   'Tb1 Pr1 Mn1 Si6 Pd20'
_cell_volume   464.43726722
_cell_formula_units_Z   1
loop_
 _symmetry_equiv_pos_site_id
 _symmetry_equiv_pos_as_xyz
  1  'x, y, z'
loop_
 _atom_site_type_symbol
 _atom_site_label
 _atom_site_symmetry_multiplicity
 _atom_site_fract_x
 _atom_site_fract_y
 _atom_site_fract_z
 _atom_site_occupancy
  Tb  Tb0  1  0.250000  0.250000  0.250000  1
  Pr  Pr1  1  0.750000  0.750000  0.750000  1
  Mn  Mn2  1  0.000000  0.000000  0.000000  1
  Si  Si3  1  0.733950  0.266050  0.266050  1
  Si  Si4  1  0.266050  0.733950  0.733950  1
  Si  Si5  1  0.266050  0.733950  0.266050  1
  Si  Si6  1  0.733950  0.266050  0.733950  1
  Si  Si7  1  0.266050  0.266050  0.733950  1
  Si  Si8  1  0.733950  0.733950  0.266050  1
  Pd  Pd9  1  0.382848  0.382848  0.382848  1
  Pd  Pd10  1  0.613794  0.613794  0.613794  1
  Pd  Pd11  1  0.382848  0.382848  0.851457  1
  Pd  Pd12  1  0.382848  0.851457  0.382848  1
  Pd  Pd13  1  0.613794  0.613794  0.158619  1
  Pd  Pd14  1  0.613794  0.158619  0.613794  1
  Pd  Pd15  1  0.851457  0.382848  0.382848  1
  Pd  Pd16  1  0.158619  0.613794  0.613794  1
  Pd  Pd17  1  0.341697  0.001054  0.001054  1
  Pd  Pd18  1  0.656195  0.001054  0.001054  1
  Pd  Pd19  1  0.001054  0.341697  0.656195  1
  Pd  Pd20  1  0.001054  0.656195  0.341697  1
  Pd  Pd21  1  0.001054  0.341697  0.001054  1
  Pd  Pd22  1  0.656195  0.001054  0.341697  1
  Pd  Pd23  1  0.001054  0.656195  0.001054  1
  Pd  Pd24  1  0.341697  0.001054  0.656195  1
  Pd  Pd25  1  0.001054  0.001054  0.341697  1
  Pd  Pd26  1  0.001054  0.001054  0.656195  1
  Pd  Pd27  1  0.656195  0.341697  0.001054  1
  Pd  Pd28  1  0.341697  0.656195  0.001054  1
