# generated using pymatgen
data_NaHo2Ga8Ag3
_symmetry_space_group_name_H-M   'P 1'
_cell_length_a   4.35904560
_cell_length_b   8.35620042
_cell_length_c   8.35620068
_cell_angle_alpha   70.89611400
_cell_angle_beta   74.88085435
_cell_angle_gamma   74.88085883
_symmetry_Int_Tables_number   1
_chemical_formula_structural   NaHo2Ga8Ag3
_chemical_formula_sum   'Na1 Ho2 Ga8 Ag3'
_cell_volume   272.47190086
_cell_formula_units_Z   1
loop_
 _symmetry_equiv_pos_site_id
 _symmetry_equiv_pos_as_xyz
  1  'x, y, z'
loop_
 _atom_site_type_symbol
 _atom_site_label
 _atom_site_symmetry_multiplicity
 _atom_site_fract_x
 _atom_site_fract_y
 _atom_site_fract_z
 _atom_site_occupancy
  Na  Na0  1  0.500000  0.500000  0.500000  1
  Ho  Ho1  1  0.204901  0.795099  0.795099  1
  Ho  Ho2  1  0.795099  0.204901  0.204901  1
  Ga  Ga3  1  0.357020  0.362190  0.923769  1
  Ga  Ga4  1  0.642980  0.637810  0.076231  1
  Ga  Ga5  1  0.357020  0.923769  0.362190  1
  Ga  Ga6  1  0.642980  0.076231  0.637810  1
  Ga  Ga7  1  0.159338  0.473681  0.207643  1
  Ga  Ga8  1  0.840662  0.526319  0.792357  1
  Ga  Ga9  1  0.159338  0.207643  0.473681  1
  Ga  Ga10  1  0.840662  0.792357  0.526319  1
  Ag  Ag11  1  0.500000  0.000000  0.000000  1
  Ag  Ag12  1  0.000000  0.810972  0.189028  1
  Ag  Ag13  1  0.000000  0.189028  0.810972  1
