# generated using pymatgen
data_Tb3Cr2P6Rh7
_symmetry_space_group_name_H-M   'P 1'
_cell_length_a   3.89871500
_cell_length_b   11.24882900
_cell_length_c   12.73330400
_cell_angle_alpha   90.00000000
_cell_angle_beta   90.00000000
_cell_angle_gamma   90.00000000
_symmetry_Int_Tables_number   1
_chemical_formula_structural   Tb3Cr2P6Rh7
_chemical_formula_sum   'Tb6 Cr4 P12 Rh14'
_cell_volume   558.43150461
_cell_formula_units_Z   2
loop_
 _symmetry_equiv_pos_site_id
 _symmetry_equiv_pos_as_xyz
  1  'x, y, z'
loop_
 _atom_site_type_symbol
 _atom_site_label
 _atom_site_symmetry_multiplicity
 _atom_site_fract_x
 _atom_site_fract_y
 _atom_site_fract_z
 _atom_site_occupancy
  Tb  Tb0  1  0.000000  0.500000  0.519997  1
  Tb  Tb1  1  0.500000  0.000000  0.480003  1
  Tb  Tb2  1  0.500000  0.817326  0.201387  1
  Tb  Tb3  1  0.500000  0.182674  0.201387  1
  Tb  Tb4  1  0.000000  0.682674  0.798613  1
  Tb  Tb5  1  0.000000  0.317326  0.798613  1
  Cr  Cr6  1  0.500000  0.500000  0.161812  1
  Cr  Cr7  1  0.000000  0.000000  0.838188  1
  Cr  Cr8  1  0.000000  0.500000  0.988202  1
  Cr  Cr9  1  0.500000  0.000000  0.011798  1
  P  P10  1  0.500000  0.500000  0.880908  1
  P  P11  1  0.000000  0.000000  0.119092  1
  P  P12  1  0.500000  0.500000  0.345515  1
  P  P13  1  0.000000  0.000000  0.654485  1
  P  P14  1  0.500000  0.313075  0.618851  1
  P  P15  1  0.500000  0.686925  0.618851  1
  P  P16  1  0.000000  0.186925  0.381149  1
  P  P17  1  0.000000  0.813075  0.381149  1
  P  P18  1  0.500000  0.850882  0.893430  1
  P  P19  1  0.500000  0.149118  0.893430  1
  P  P20  1  0.000000  0.649118  0.106570  1
  P  P21  1  0.000000  0.350882  0.106570  1
  Rh  Rh22  1  0.500000  0.500000  0.698055  1
  Rh  Rh23  1  0.000000  0.000000  0.301945  1
  Rh  Rh24  1  0.500000  0.334701  0.992800  1
  Rh  Rh25  1  0.500000  0.665299  0.992800  1
  Rh  Rh26  1  0.000000  0.165299  0.007200  1
  Rh  Rh27  1  0.000000  0.834701  0.007200  1
  Rh  Rh28  1  0.500000  0.293609  0.430481  1
  Rh  Rh29  1  0.500000  0.706391  0.430481  1
  Rh  Rh30  1  0.000000  0.206391  0.569519  1
  Rh  Rh31  1  0.000000  0.793609  0.569519  1
  Rh  Rh32  1  0.500000  0.875547  0.711384  1
  Rh  Rh33  1  0.500000  0.124453  0.711384  1
  Rh  Rh34  1  0.000000  0.624453  0.288616  1
  Rh  Rh35  1  0.000000  0.375547  0.288616  1
