# generated using pymatgen
data_Tb3YAl18Ir5Au
_symmetry_space_group_name_H-M   'P 1'
_cell_length_a   7.59080103
_cell_length_b   7.59085854
_cell_length_c   9.48329924
_cell_angle_alpha   89.96711800
_cell_angle_beta   89.96946158
_cell_angle_gamma   119.57976148
_symmetry_Int_Tables_number   1
_chemical_formula_structural   Tb3YAl18Ir5Au
_chemical_formula_sum   'Tb3 Y1 Al18 Ir5 Au1'
_cell_volume   475.21688407
_cell_formula_units_Z   1
loop_
 _symmetry_equiv_pos_site_id
 _symmetry_equiv_pos_as_xyz
  1  'x, y, z'
loop_
 _atom_site_type_symbol
 _atom_site_label
 _atom_site_symmetry_multiplicity
 _atom_site_fract_x
 _atom_site_fract_y
 _atom_site_fract_z
 _atom_site_occupancy
  Tb  Tb0  1  0.995709  0.673145  0.251071  1
  Tb  Tb1  1  0.004310  0.326855  0.748923  1
  Tb  Tb2  1  0.673135  0.995701  0.251073  1
  Y  Y3  1  0.326853  0.004312  0.748907  1
  Al  Al4  1  0.135119  0.135110  0.256359  1
  Al  Al5  1  0.864926  0.864923  0.743640  1
  Al  Al6  1  0.001528  0.344244  0.079039  1
  Al  Al7  1  0.998504  0.655794  0.920964  1
  Al  Al8  1  0.000195  0.664728  0.573417  1
  Al  Al9  1  0.335318  0.999842  0.426623  1
  Al  Al10  1  0.999846  0.335319  0.426593  1
  Al  Al11  1  0.664654  0.000158  0.573409  1
  Al  Al12  1  0.655726  0.998476  0.920957  1
  Al  Al13  1  0.344238  0.001521  0.079023  1
  Al  Al14  1  0.333250  0.333214  0.551989  1
  Al  Al15  1  0.666748  0.666746  0.448024  1
  Al  Al16  1  0.657974  0.657971  0.058447  1
  Al  Al17  1  0.342028  0.342001  0.941545  1
  Al  Al18  1  0.339136  0.549633  0.251312  1
  Al  Al19  1  0.660858  0.450324  0.748687  1
  Al  Al20  1  0.549626  0.339133  0.251311  1
  Al  Al21  1  0.450334  0.660865  0.748689  1
  Ir  Ir22  1  0.671686  0.328281  0.999978  1
  Ir  Ir23  1  0.328299  0.671716  0.999985  1
  Ir  Ir24  1  0.328314  0.671691  0.500012  1
  Ir  Ir25  1  0.671679  0.328303  0.500017  1
  Ir  Ir26  1  0.000004  0.999997  0.500011  1
  Au  Au27  1  0.000004  0.999998  0.999995  1
