# generated using pymatgen
data_Mo2IrOsRh4
_symmetry_space_group_name_H-M   'P 1'
_cell_length_a   5.52449585
_cell_length_b   5.53694600
_cell_length_c   4.40270000
_cell_angle_alpha   90.00000000
_cell_angle_beta   90.00000000
_cell_angle_gamma   120.43035804
_symmetry_Int_Tables_number   1
_chemical_formula_structural   Mo2IrOsRh4
_chemical_formula_sum   'Mo2 Ir1 Os1 Rh4'
_cell_volume   116.12157917
_cell_formula_units_Z   1
loop_
 _symmetry_equiv_pos_site_id
 _symmetry_equiv_pos_as_xyz
  1  'x, y, z'
loop_
 _atom_site_type_symbol
 _atom_site_label
 _atom_site_symmetry_multiplicity
 _atom_site_fract_x
 _atom_site_fract_y
 _atom_site_fract_z
 _atom_site_occupancy
  Mo  Mo0  1  0.331230  0.667165  0.250000  1
  Mo  Mo1  1  0.669134  0.332967  0.750000  1
  Ir  Ir2  1  0.165910  0.332623  0.750000  1
  Os  Os3  1  0.833811  0.166647  0.250000  1
  Rh  Rh4  1  0.831868  0.666916  0.250000  1
  Rh  Rh5  1  0.168686  0.833194  0.750000  1
  Rh  Rh6  1  0.667039  0.833743  0.750000  1
  Rh  Rh7  1  0.332320  0.166748  0.250000  1
