# generated using pymatgen
data_PrSmMn2Co10P7
_symmetry_space_group_name_H-M   'P 1'
_cell_length_a   9.13653208
_cell_length_b   9.12485926
_cell_length_c   3.64594600
_cell_angle_alpha   90.00000000
_cell_angle_beta   90.00000000
_cell_angle_gamma   120.11833111
_symmetry_Int_Tables_number   1
_chemical_formula_structural   PrSmMn2Co10P7
_chemical_formula_sum   'Pr1 Sm1 Mn2 Co10 P7'
_cell_volume   262.92346119
_cell_formula_units_Z   1
loop_
 _symmetry_equiv_pos_site_id
 _symmetry_equiv_pos_as_xyz
  1  'x, y, z'
loop_
 _atom_site_type_symbol
 _atom_site_label
 _atom_site_symmetry_multiplicity
 _atom_site_fract_x
 _atom_site_fract_y
 _atom_site_fract_z
 _atom_site_occupancy
  Pr  Pr0  1  0.334813  0.668582  0.500000  1
  Sm  Sm1  1  0.666357  0.333733  0.000000  1
  Mn  Mn2  1  0.899401  0.117735  0.000000  1
  Mn  Mn3  1  0.882752  0.780591  0.000000  1
  Co  Co4  1  0.427068  0.060343  0.500000  1
  Co  Co5  1  0.939745  0.369059  0.500000  1
  Co  Co6  1  0.630630  0.570463  0.500000  1
  Co  Co7  1  0.155445  0.272003  0.500000  1
  Co  Co8  1  0.728462  0.884471  0.500000  1
  Co  Co9  1  0.118269  0.845864  0.500000  1
  Co  Co10  1  0.384995  0.430633  0.000000  1
  Co  Co11  1  0.566677  0.953683  0.000000  1
  Co  Co12  1  0.048448  0.615435  0.000000  1
  Co  Co13  1  0.216352  0.094084  0.000000  1
  P  P14  1  0.110563  0.401506  0.000000  1
  P  P15  1  0.602779  0.710032  0.000000  1
  P  P16  1  0.289021  0.892903  0.000000  1
  P  P17  1  0.001337  0.999719  0.500000  1
  P  P18  1  0.407478  0.298896  0.500000  1
  P  P19  1  0.698216  0.108972  0.500000  1
  P  P20  1  0.891188  0.591293  0.500000  1
