# generated using pymatgen
data_Ca3YNi2(RuO6)2
_symmetry_space_group_name_H-M   'P 1'
_cell_length_a   5.39411557
_cell_length_b   5.62968582
_cell_length_c   7.70171373
_cell_angle_alpha   89.85852629
_cell_angle_beta   90.28843824
_cell_angle_gamma   90.13523754
_symmetry_Int_Tables_number   1
_chemical_formula_structural   Ca3YNi2(RuO6)2
_chemical_formula_sum   'Ca3 Y1 Ni2 Ru2 O12'
_cell_volume   233.87497481
_cell_formula_units_Z   1
loop_
 _symmetry_equiv_pos_site_id
 _symmetry_equiv_pos_as_xyz
  1  'x, y, z'
loop_
 _atom_site_type_symbol
 _atom_site_label
 _atom_site_symmetry_multiplicity
 _atom_site_fract_x
 _atom_site_fract_y
 _atom_site_fract_z
 _atom_site_occupancy
  Ca  Ca0  1  0.516106  0.561508  0.248345  1
  Ca  Ca1  1  0.013839  0.941391  0.748331  1
  Ca  Ca2  1  0.482462  0.437348  0.752077  1
  Y  Y3  1  0.982679  0.069436  0.251931  1
  Ni  Ni4  1  0.500050  0.999010  0.000216  1
  Ni  Ni5  1  0.999630  0.504328  0.500328  1
  Ru  Ru6  1  0.497426  0.998248  0.501678  1
  Ru  Ru7  1  0.002610  0.502328  0.998126  1
  O  O8  1  0.695640  0.282545  0.441234  1
  O  O9  1  0.817676  0.796018  0.057478  1
  O  O10  1  0.314060  0.709287  0.552232  1
  O  O11  1  0.185372  0.207148  0.952474  1
  O  O12  1  0.200619  0.191560  0.542206  1
  O  O13  1  0.296397  0.692104  0.951894  1
  O  O14  1  0.800297  0.811290  0.446311  1
  O  O15  1  0.711412  0.300566  0.054830  1
  O  O16  1  0.098746  0.465099  0.244835  1
  O  O17  1  0.390411  0.968922  0.255436  1
  O  O18  1  0.593944  0.030544  0.742570  1
  O  O19  1  0.900627  0.531319  0.757471  1
