# generated using pymatgen
data_Cs2U(SeF)2
_symmetry_space_group_name_H-M   'P 1'
_cell_length_a   8.06952200
_cell_length_b   8.33517900
_cell_length_c   15.08185400
_cell_angle_alpha   90.00000000
_cell_angle_beta   90.00000000
_cell_angle_gamma   90.00000000
_symmetry_Int_Tables_number   1
_chemical_formula_structural   Cs2U(SeF)2
_chemical_formula_sum   'Cs8 U4 Se8 F8'
_cell_volume   1014.41922927
_cell_formula_units_Z   4
loop_
 _symmetry_equiv_pos_site_id
 _symmetry_equiv_pos_as_xyz
  1  'x, y, z'
loop_
 _atom_site_type_symbol
 _atom_site_label
 _atom_site_symmetry_multiplicity
 _atom_site_fract_x
 _atom_site_fract_y
 _atom_site_fract_z
 _atom_site_occupancy
  Cs  Cs0  1  0.260308  0.951760  0.099345  1
  Cs  Cs1  1  0.239692  0.548240  0.599345  1
  Cs  Cs2  1  0.239692  0.451760  0.900655  1
  Cs  Cs3  1  0.260308  0.048240  0.400655  1
  Cs  Cs4  1  0.739685  0.048242  0.900656  1
  Cs  Cs5  1  0.760315  0.451758  0.400656  1
  Cs  Cs6  1  0.760315  0.548242  0.099344  1
  Cs  Cs7  1  0.739685  0.951758  0.599344  1
  U  U8  1  0.267764  0.500000  0.250000  1
  U  U9  1  0.232236  0.000000  0.750000  1
  U  U10  1  0.732241  0.500000  0.750000  1
  U  U11  1  0.767759  0.000000  0.250000  1
  Se  Se12  1  0.016053  0.748552  0.279863  1
  Se  Se13  1  0.483947  0.751448  0.779863  1
  Se  Se14  1  0.483947  0.248552  0.720137  1
  Se  Se15  1  0.016053  0.251448  0.220137  1
  Se  Se16  1  0.983932  0.251465  0.720138  1
  Se  Se17  1  0.516068  0.248535  0.220138  1
  Se  Se18  1  0.516068  0.751465  0.279862  1
  Se  Se19  1  0.983932  0.748535  0.779862  1
  F  F20  1  0.269894  0.562113  0.111062  1
  F  F21  1  0.230106  0.937887  0.611062  1
  F  F22  1  0.230106  0.062113  0.888938  1
  F  F23  1  0.269894  0.437887  0.388938  1
  F  F24  1  0.730109  0.437886  0.888928  1
  F  F25  1  0.769891  0.062114  0.388928  1
  F  F26  1  0.769891  0.937886  0.111072  1
  F  F27  1  0.730109  0.562114  0.611072  1
