# generated using pymatgen
data_Tb20Si15Te
_symmetry_space_group_name_H-M   'P 1'
_cell_length_a   7.59730246
_cell_length_b   7.72058438
_cell_length_c   14.78110593
_cell_angle_alpha   89.92447966
_cell_angle_beta   94.44806821
_cell_angle_gamma   90.06325705
_symmetry_Int_Tables_number   1
_chemical_formula_structural   Tb20Si15Te
_chemical_formula_sum   'Tb20 Si15 Te1'
_cell_volume   864.38231199
_cell_formula_units_Z   1
loop_
 _symmetry_equiv_pos_site_id
 _symmetry_equiv_pos_as_xyz
  1  'x, y, z'
loop_
 _atom_site_type_symbol
 _atom_site_label
 _atom_site_symmetry_multiplicity
 _atom_site_fract_x
 _atom_site_fract_y
 _atom_site_fract_z
 _atom_site_occupancy
  Tb  Tb0  1  0.633282  0.178069  0.626376  1
  Tb  Tb1  1  0.175428  0.322426  0.879255  1
  Tb  Tb2  1  0.323148  0.822579  0.121506  1
  Tb  Tb3  1  0.864480  0.650408  0.378961  1
  Tb  Tb4  1  0.348283  0.830590  0.379290  1
  Tb  Tb5  1  0.823551  0.678250  0.120975  1
  Tb  Tb6  1  0.675852  0.177840  0.878306  1
  Tb  Tb7  1  0.139081  0.334577  0.619201  1
  Tb  Tb8  1  0.488934  0.675158  0.603472  1
  Tb  Tb9  1  0.029481  0.813525  0.896773  1
  Tb  Tb10  1  0.471006  0.314213  0.101070  1
  Tb  Tb11  1  0.021348  0.185597  0.394523  1
  Tb  Tb12  1  0.505673  0.326175  0.397607  1
  Tb  Tb13  1  0.970760  0.186350  0.100976  1
  Tb  Tb14  1  0.529125  0.687651  0.898375  1
  Tb  Tb15  1  0.003053  0.813921  0.606406  1
  Tb  Tb16  1  0.830412  0.508124  0.746781  1
  Tb  Tb17  1  0.331326  0.993973  0.745762  1
  Tb  Tb18  1  0.172072  0.492427  0.250917  1
  Tb  Tb19  1  0.666964  0.004953  0.246341  1
  Si  Si20  1  0.140709  0.528408  0.042038  1
  Si  Si21  1  0.356886  0.028157  0.957799  1
  Si  Si22  1  0.789742  0.470226  0.544349  1
  Si  Si23  1  0.287702  0.032313  0.543156  1
  Si  Si24  1  0.856675  0.473341  0.957376  1
  Si  Si25  1  0.640239  0.973491  0.042127  1
  Si  Si26  1  0.209478  0.528655  0.455525  1
  Si  Si27  1  0.453767  0.395013  0.754514  1
  Si  Si28  1  0.955554  0.107682  0.752114  1
  Si  Si29  1  0.545516  0.608149  0.248406  1
  Si  Si30  1  0.041737  0.892474  0.248828  1
  Si  Si31  1  0.716281  0.873828  0.752217  1
  Si  Si32  1  0.217287  0.627193  0.753460  1
  Si  Si33  1  0.286178  0.127852  0.247771  1
  Si  Si34  1  0.785627  0.368620  0.246987  1
  Te  Te35  1  0.713362  0.967793  0.460462  1
