# generated using pymatgen
data_Zn22CuRh3
_symmetry_space_group_name_H-M   'P 1'
_cell_length_a   7.87843794
_cell_length_b   7.91310718
_cell_length_c   7.87843854
_cell_angle_alpha   109.56038925
_cell_angle_beta   109.38191007
_cell_angle_gamma   109.56038090
_symmetry_Int_Tables_number   1
_chemical_formula_structural   Zn22CuRh3
_chemical_formula_sum   'Zn22 Cu1 Rh3'
_cell_volume   377.68204385
_cell_formula_units_Z   1
loop_
 _symmetry_equiv_pos_site_id
 _symmetry_equiv_pos_as_xyz
  1  'x, y, z'
loop_
 _atom_site_type_symbol
 _atom_site_label
 _atom_site_symmetry_multiplicity
 _atom_site_fract_x
 _atom_site_fract_y
 _atom_site_fract_z
 _atom_site_occupancy
  Zn  Zn0  1  0.000000  0.791003  0.000000  1
  Zn  Zn1  1  0.784565  0.999423  0.000000  1
  Zn  Zn2  1  0.000000  0.999423  0.784565  1
  Zn  Zn3  1  0.215435  0.214857  0.215435  1
  Zn  Zn4  1  0.347746  0.617025  0.347746  1
  Zn  Zn5  1  0.266883  0.000722  0.649140  1
  Zn  Zn6  1  0.649140  0.000722  0.266883  1
  Zn  Zn7  1  0.263692  0.646822  0.000000  1
  Zn  Zn8  1  0.733117  0.733839  0.382257  1
  Zn  Zn9  1  0.382257  0.733839  0.733117  1
  Zn  Zn10  1  0.000000  0.646822  0.263692  1
  Zn  Zn11  1  0.000000  0.269279  0.652254  1
  Zn  Zn12  1  0.652254  0.269279  0.000000  1
  Zn  Zn13  1  0.350860  0.351582  0.617743  1
  Zn  Zn14  1  0.617743  0.351582  0.350860  1
  Zn  Zn15  1  0.736308  0.383130  0.736308  1
  Zn  Zn16  1  0.355455  0.355798  0.000000  1
  Zn  Zn17  1  0.000000  0.640255  0.645869  1
  Zn  Zn18  1  0.000000  0.355798  0.355455  1
  Zn  Zn19  1  0.354131  0.994386  0.354131  1
  Zn  Zn20  1  0.644545  0.000344  0.644545  1
  Zn  Zn21  1  0.645869  0.640255  0.000000  1
  Cu  Cu22  1  0.000000  0.346673  0.000000  1
  Rh  Rh23  1  0.346478  0.001207  0.000000  1
  Rh  Rh24  1  0.000000  0.001207  0.346478  1
  Rh  Rh25  1  0.653522  0.654729  0.653522  1
