# generated using pymatgen
data_Lu5Tl4
_symmetry_space_group_name_H-M   'P 1'
_cell_length_a   9.07999800
_cell_length_b   9.07999806
_cell_length_c   6.59232100
_cell_angle_alpha   90.00000000
_cell_angle_beta   90.00000000
_cell_angle_gamma   119.99999979
_symmetry_Int_Tables_number   1
_chemical_formula_structural   Lu5Tl4
_chemical_formula_sum   'Lu10 Tl8'
_cell_volume   470.69597799
_cell_formula_units_Z   2
loop_
 _symmetry_equiv_pos_site_id
 _symmetry_equiv_pos_as_xyz
  1  'x, y, z'
loop_
 _atom_site_type_symbol
 _atom_site_label
 _atom_site_symmetry_multiplicity
 _atom_site_fract_x
 _atom_site_fract_y
 _atom_site_fract_z
 _atom_site_occupancy
  Lu  Lu0  1  0.333333  0.666667  0.500000  1
  Lu  Lu1  1  0.666667  0.333333  0.500000  1
  Lu  Lu2  1  0.666667  0.333333  0.000000  1
  Lu  Lu3  1  0.333333  0.666667  0.000000  1
  Lu  Lu4  1  0.289149  0.000000  0.750000  1
  Lu  Lu5  1  0.710851  0.000000  0.250000  1
  Lu  Lu6  1  0.000000  0.289149  0.750000  1
  Lu  Lu7  1  0.000000  0.710851  0.250000  1
  Lu  Lu8  1  0.710851  0.710851  0.750000  1
  Lu  Lu9  1  0.289149  0.289149  0.250000  1
  Tl  Tl10  1  0.000000  0.000000  0.500000  1
  Tl  Tl11  1  0.000000  0.000000  0.000000  1
  Tl  Tl12  1  0.626818  0.000000  0.750000  1
  Tl  Tl13  1  0.373182  0.000000  0.250000  1
  Tl  Tl14  1  0.000000  0.626818  0.750000  1
  Tl  Tl15  1  0.000000  0.373182  0.250000  1
  Tl  Tl16  1  0.373182  0.373182  0.750000  1
  Tl  Tl17  1  0.626818  0.626818  0.250000  1
