# generated using pymatgen
data_Lu5Ga2SnO
_symmetry_space_group_name_H-M   'P 1'
_cell_length_a   8.61904536
_cell_length_b   8.61904628
_cell_length_c   8.61904600
_cell_angle_alpha   127.57332849
_cell_angle_beta   127.57332483
_cell_angle_gamma   77.31724278
_symmetry_Int_Tables_number   1
_chemical_formula_structural   Lu5Ga2SnO
_chemical_formula_sum   'Lu10 Ga4 Sn2 O2'
_cell_volume   390.21731480
_cell_formula_units_Z   2
loop_
 _symmetry_equiv_pos_site_id
 _symmetry_equiv_pos_as_xyz
  1  'x, y, z'
loop_
 _atom_site_type_symbol
 _atom_site_label
 _atom_site_symmetry_multiplicity
 _atom_site_fract_x
 _atom_site_fract_y
 _atom_site_fract_z
 _atom_site_occupancy
  Lu  Lu0  1  0.493952  0.301659  0.500000  1
  Lu  Lu1  1  0.801659  0.993952  0.500000  1
  Lu  Lu2  1  0.993952  0.493952  0.192294  1
  Lu  Lu3  1  0.301659  0.801659  0.807706  1
  Lu  Lu4  1  0.508299  0.700746  0.500000  1
  Lu  Lu5  1  0.200746  0.008299  0.500000  1
  Lu  Lu6  1  0.008299  0.508299  0.807553  1
  Lu  Lu7  1  0.700746  0.200746  0.192447  1
  Lu  Lu8  1  0.501206  0.501206  0.000000  1
  Lu  Lu9  1  0.001206  0.001206  0.000000  1
  Ga  Ga10  1  0.132836  0.369524  0.500000  1
  Ga  Ga11  1  0.869524  0.632836  0.500000  1
  Ga  Ga12  1  0.632836  0.132836  0.763311  1
  Ga  Ga13  1  0.369524  0.869524  0.236689  1
  Sn  Sn14  1  0.752071  0.752071  0.000000  1
  Sn  Sn15  1  0.252071  0.252071  0.000000  1
  O  O16  1  0.751126  0.251126  0.500000  1
  O  O17  1  0.251126  0.751126  0.500000  1
