# generated using pymatgen
data_Tb2YV(Co4P3)2
_symmetry_space_group_name_H-M   'P 1'
_cell_length_a   3.69902000
_cell_length_b   10.56952100
_cell_length_c   12.25303400
_cell_angle_alpha   90.00000000
_cell_angle_beta   90.00000000
_cell_angle_gamma   90.00000000
_symmetry_Int_Tables_number   1
_chemical_formula_structural   Tb2YV(Co4P3)2
_chemical_formula_sum   'Tb4 Y2 V2 Co16 P12'
_cell_volume   479.05527213
_cell_formula_units_Z   2
loop_
 _symmetry_equiv_pos_site_id
 _symmetry_equiv_pos_as_xyz
  1  'x, y, z'
loop_
 _atom_site_type_symbol
 _atom_site_label
 _atom_site_symmetry_multiplicity
 _atom_site_fract_x
 _atom_site_fract_y
 _atom_site_fract_z
 _atom_site_occupancy
  Tb  Tb0  1  0.000000  0.500000  0.523246  1
  Tb  Tb1  1  0.500000  0.000000  0.476847  1
  Tb  Tb2  1  0.500000  0.818633  0.204549  1
  Tb  Tb3  1  0.500000  0.181367  0.204549  1
  Y  Y4  1  0.000000  0.681322  0.795613  1
  Y  Y5  1  0.000000  0.318678  0.795613  1
  V  V6  1  0.500000  0.500000  0.153903  1
  V  V7  1  0.000000  0.000000  0.845880  1
  Co  Co8  1  0.500000  0.500000  0.702211  1
  Co  Co9  1  0.000000  0.000000  0.297897  1
  Co  Co10  1  0.000000  0.500000  0.986910  1
  Co  Co11  1  0.500000  0.000000  0.012781  1
  Co  Co12  1  0.500000  0.332558  0.992940  1
  Co  Co13  1  0.500000  0.667442  0.992940  1
  Co  Co14  1  0.000000  0.167579  0.006712  1
  Co  Co15  1  0.000000  0.832421  0.006712  1
  Co  Co16  1  0.500000  0.295959  0.431261  1
  Co  Co17  1  0.500000  0.704041  0.431261  1
  Co  Co18  1  0.000000  0.204137  0.569098  1
  Co  Co19  1  0.000000  0.795863  0.569098  1
  Co  Co20  1  0.500000  0.878980  0.707898  1
  Co  Co21  1  0.500000  0.121020  0.707898  1
  Co  Co22  1  0.000000  0.620885  0.292182  1
  Co  Co23  1  0.000000  0.379115  0.292182  1
  P  P24  1  0.500000  0.500000  0.882294  1
  P  P25  1  0.000000  0.000000  0.117235  1
  P  P26  1  0.500000  0.500000  0.346299  1
  P  P27  1  0.000000  0.000000  0.653506  1
  P  P28  1  0.500000  0.310787  0.615904  1
  P  P29  1  0.500000  0.689213  0.615904  1
  P  P30  1  0.000000  0.189473  0.384537  1
  P  P31  1  0.000000  0.810527  0.384537  1
  P  P32  1  0.500000  0.846120  0.892171  1
  P  P33  1  0.500000  0.153880  0.892171  1
  P  P34  1  0.000000  0.653707  0.107630  1
  P  P35  1  0.000000  0.346293  0.107630  1
