# generated using pymatgen
data_HoZn5Au3
_symmetry_space_group_name_H-M   'P 1'
_cell_length_a   4.29030900
_cell_length_b   11.73510000
_cell_length_c   12.90428500
_cell_angle_alpha   90.00000000
_cell_angle_beta   90.00000000
_cell_angle_gamma   90.00000000
_symmetry_Int_Tables_number   1
_chemical_formula_structural   HoZn5Au3
_chemical_formula_sum   'Ho4 Zn20 Au12'
_cell_volume   649.69468416
_cell_formula_units_Z   4
loop_
 _symmetry_equiv_pos_site_id
 _symmetry_equiv_pos_as_xyz
  1  'x, y, z'
loop_
 _atom_site_type_symbol
 _atom_site_label
 _atom_site_symmetry_multiplicity
 _atom_site_fract_x
 _atom_site_fract_y
 _atom_site_fract_z
 _atom_site_occupancy
  Ho  Ho0  1  0.250000  0.880599  0.296100  1
  Ho  Ho1  1  0.750000  0.119401  0.703900  1
  Ho  Ho2  1  0.750000  0.380599  0.203900  1
  Ho  Ho3  1  0.250000  0.619401  0.796100  1
  Zn  Zn4  1  0.250000  0.418681  0.986693  1
  Zn  Zn5  1  0.750000  0.581319  0.013307  1
  Zn  Zn6  1  0.750000  0.918681  0.513307  1
  Zn  Zn7  1  0.250000  0.081319  0.486693  1
  Zn  Zn8  1  0.250000  0.607960  0.340672  1
  Zn  Zn9  1  0.750000  0.392040  0.659328  1
  Zn  Zn10  1  0.750000  0.107960  0.159328  1
  Zn  Zn11  1  0.250000  0.892040  0.840672  1
  Zn  Zn12  1  0.250000  0.002553  0.064723  1
  Zn  Zn13  1  0.750000  0.997447  0.935277  1
  Zn  Zn14  1  0.750000  0.502553  0.435277  1
  Zn  Zn15  1  0.250000  0.497447  0.564723  1
  Zn  Zn16  1  0.250000  0.767023  0.040959  1
  Zn  Zn17  1  0.750000  0.232977  0.959041  1
  Zn  Zn18  1  0.750000  0.267023  0.459041  1
  Zn  Zn19  1  0.250000  0.732977  0.540959  1
  Zn  Zn20  1  0.250000  0.180274  0.289983  1
  Zn  Zn21  1  0.750000  0.819726  0.710017  1
  Zn  Zn22  1  0.750000  0.680274  0.210017  1
  Zn  Zn23  1  0.250000  0.319726  0.789983  1
  Au  Au24  1  0.250000  0.566002  0.139347  1
  Au  Au25  1  0.750000  0.433998  0.860653  1
  Au  Au26  1  0.750000  0.066002  0.360653  1
  Au  Au27  1  0.250000  0.933998  0.639347  1
  Au  Au28  1  0.250000  0.230590  0.091685  1
  Au  Au29  1  0.750000  0.769410  0.908315  1
  Au  Au30  1  0.750000  0.730590  0.408315  1
  Au  Au31  1  0.250000  0.269410  0.591685  1
  Au  Au32  1  0.250000  0.381767  0.373222  1
  Au  Au33  1  0.750000  0.618233  0.626778  1
  Au  Au34  1  0.750000  0.881767  0.126778  1
  Au  Au35  1  0.250000  0.118233  0.873222  1
