# generated using pymatgen
data_TbNiB4Os3
_symmetry_space_group_name_H-M   'P 1'
_cell_length_a   7.54153823
_cell_length_b   7.26143903
_cell_length_c   3.99956900
_cell_angle_alpha   90.00000000
_cell_angle_beta   90.00000000
_cell_angle_gamma   87.56634633
_symmetry_Int_Tables_number   1
_chemical_formula_structural   TbNiB4Os3
_chemical_formula_sum   'Tb2 Ni2 B8 Os6'
_cell_volume   218.82852957
_cell_formula_units_Z   2
loop_
 _symmetry_equiv_pos_site_id
 _symmetry_equiv_pos_as_xyz
  1  'x, y, z'
loop_
 _atom_site_type_symbol
 _atom_site_label
 _atom_site_symmetry_multiplicity
 _atom_site_fract_x
 _atom_site_fract_y
 _atom_site_fract_z
 _atom_site_occupancy
  Tb  Tb0  1  0.000000  0.000000  0.017904  1
  Tb  Tb1  1  0.500000  0.500000  0.605135  1
  Ni  Ni2  1  0.136941  0.384151  0.879510  1
  Ni  Ni3  1  0.863059  0.615849  0.879510  1
  B  B4  1  0.673110  0.780537  0.105883  1
  B  B5  1  0.326890  0.219463  0.105883  1
  B  B6  1  0.278701  0.836303  0.603107  1
  B  B7  1  0.721299  0.163697  0.603107  1
  B  B8  1  0.843553  0.691491  0.381821  1
  B  B9  1  0.156447  0.308509  0.381821  1
  B  B10  1  0.203442  0.670537  0.881268  1
  B  B11  1  0.796558  0.329463  0.881268  1
  Os  Os12  1  0.880266  0.367905  0.374320  1
  Os  Os13  1  0.119734  0.632095  0.374320  1
  Os  Os14  1  0.346737  0.115546  0.607126  1
  Os  Os15  1  0.653263  0.884454  0.607126  1
  Os  Os16  1  0.603796  0.150983  0.105448  1
  Os  Os17  1  0.396204  0.849017  0.105448  1
