# generated using pymatgen
data_CaHo4HfH18
_symmetry_space_group_name_H-M   'P 1'
_cell_length_a   6.26120333
_cell_length_b   6.25964379
_cell_length_c   6.52132500
_cell_angle_alpha   89.84816652
_cell_angle_beta   89.90653245
_cell_angle_gamma   119.73686726
_symmetry_Int_Tables_number   1
_chemical_formula_structural   CaHo4HfH18
_chemical_formula_sum   'Ca1 Ho4 Hf1 H18'
_cell_volume   221.92964356
_cell_formula_units_Z   1
loop_
 _symmetry_equiv_pos_site_id
 _symmetry_equiv_pos_as_xyz
  1  'x, y, z'
loop_
 _atom_site_type_symbol
 _atom_site_label
 _atom_site_symmetry_multiplicity
 _atom_site_fract_x
 _atom_site_fract_y
 _atom_site_fract_z
 _atom_site_occupancy
  Ca  Ca0  1  0.333233  0.003007  0.750788  1
  Ho  Ho1  1  0.004835  0.331893  0.751454  1
  Ho  Ho2  1  0.331694  0.329003  0.254479  1
  Ho  Ho3  1  0.667381  0.998739  0.247387  1
  Ho  Ho4  1  0.998792  0.670571  0.249418  1
  Hf  Hf5  1  0.680697  0.680898  0.753207  1
  H  H6  1  0.285271  0.300742  0.586539  1
  H  H7  1  0.721336  0.978955  0.593972  1
  H  H8  1  0.969434  0.698943  0.595968  1
  H  H9  1  0.695047  0.692076  0.081404  1
  H  H10  1  0.309584  0.003820  0.095749  1
  H  H11  1  0.000973  0.304021  0.091084  1
  H  H12  1  0.377753  0.397220  0.903934  1
  H  H13  1  0.654672  0.976733  0.903664  1
  H  H14  1  0.972340  0.633577  0.907145  1
  H  H15  1  0.641581  0.639227  0.426355  1
  H  H16  1  0.357393  0.999657  0.405161  1
  H  H17  1  0.987620  0.353410  0.410734  1
  H  H18  1  0.979580  0.982739  0.825015  1
  H  H19  1  0.999148  0.000115  0.309070  1
  H  H20  1  0.358589  0.665758  0.697714  1
  H  H21  1  0.674397  0.360479  0.705505  1
  H  H22  1  0.667121  0.333430  0.203249  1
  H  H23  1  0.331533  0.664988  0.207021  1
