# generated using pymatgen
data_Yb5Eu(SbI3)2
_symmetry_space_group_name_H-M   'P 1'
_cell_length_a   11.18309417
_cell_length_b   11.21932557
_cell_length_c   11.21932400
_cell_angle_alpha   109.42552022
_cell_angle_beta   109.31355783
_cell_angle_gamma   109.80641360
_symmetry_Int_Tables_number   1
_chemical_formula_structural   Yb5Eu(SbI3)2
_chemical_formula_sum   'Yb10 Eu2 Sb4 I12'
_cell_volume   1081.82823169
_cell_formula_units_Z   2
loop_
 _symmetry_equiv_pos_site_id
 _symmetry_equiv_pos_as_xyz
  1  'x, y, z'
loop_
 _atom_site_type_symbol
 _atom_site_label
 _atom_site_symmetry_multiplicity
 _atom_site_fract_x
 _atom_site_fract_y
 _atom_site_fract_z
 _atom_site_occupancy
  Yb  Yb0  1  0.481871  0.493089  0.242329  1
  Yb  Yb1  1  0.749827  0.241291  0.259292  1
  Yb  Yb2  1  0.750173  0.009466  0.491465  1
  Yb  Yb3  1  0.241202  0.482787  0.491091  1
  Yb  Yb4  1  0.258798  0.749890  0.241584  1
  Yb  Yb5  1  0.018129  0.260459  0.011219  1
  Yb  Yb6  1  0.007900  0.018921  0.258657  1
  Yb  Yb7  1  0.492100  0.750757  0.011022  1
  Yb  Yb8  1  0.491615  0.241338  0.480495  1
  Yb  Yb9  1  0.008385  0.488879  0.749723  1
  Eu  Eu10  1  0.255575  0.005622  0.013466  1
  Eu  Eu11  1  0.244425  0.257892  0.750047  1
  Sb  Sb12  1  0.250165  0.252439  0.252075  1
  Sb  Sb13  1  0.501857  0.999645  0.252041  1
  Sb  Sb14  1  0.998143  0.250184  0.497788  1
  Sb  Sb15  1  0.249835  0.501910  0.002275  1
  I  I16  1  0.251282  0.742831  0.746841  1
  I  I17  1  0.505124  0.508158  0.747289  1
  I  I18  1  0.994876  0.742164  0.003034  1
  I  I19  1  0.750294  0.249267  0.747842  1
  I  I20  1  0.985720  0.996453  0.747442  1
  I  I21  1  0.248718  0.995558  0.491549  1
  I  I22  1  0.749706  0.497548  0.498972  1
  I  I23  1  0.514280  0.261722  0.010733  1
  I  I24  1  0.748835  0.752373  0.250618  1
  I  I25  1  0.751165  0.001783  0.003538  1
  I  I26  1  0.001611  0.498553  0.250630  1
  I  I27  1  0.498389  0.749018  0.496942  1
