# generated using pymatgen
data_Ho2Mn3Fe7P6
_symmetry_space_group_name_H-M   'P 1'
_cell_length_a   3.63843300
_cell_length_b   10.25903700
_cell_length_c   12.13506200
_cell_angle_alpha   90.00000000
_cell_angle_beta   90.00000000
_cell_angle_gamma   90.00000000
_symmetry_Int_Tables_number   1
_chemical_formula_structural   Ho2Mn3Fe7P6
_chemical_formula_sum   'Ho4 Mn6 Fe14 P12'
_cell_volume   452.96326002
_cell_formula_units_Z   2
loop_
 _symmetry_equiv_pos_site_id
 _symmetry_equiv_pos_as_xyz
  1  'x, y, z'
loop_
 _atom_site_type_symbol
 _atom_site_label
 _atom_site_symmetry_multiplicity
 _atom_site_fract_x
 _atom_site_fract_y
 _atom_site_fract_z
 _atom_site_occupancy
  Ho  Ho0  1  0.250000  0.580046  0.710326  1
  Ho  Ho1  1  0.250000  0.919954  0.210326  1
  Ho  Ho2  1  0.750000  0.419627  0.289662  1
  Ho  Ho3  1  0.750000  0.080373  0.789662  1
  Mn  Mn4  1  0.250000  0.705234  0.991343  1
  Mn  Mn5  1  0.250000  0.794766  0.491343  1
  Mn  Mn6  1  0.750000  0.293336  0.006777  1
  Mn  Mn7  1  0.750000  0.206664  0.506777  1
  Mn  Mn8  1  0.250000  0.407634  0.490553  1
  Mn  Mn9  1  0.250000  0.092366  0.990553  1
  Fe  Fe10  1  0.750000  0.589380  0.511023  1
  Fe  Fe11  1  0.750000  0.910620  0.011023  1
  Fe  Fe12  1  0.250000  0.219717  0.170798  1
  Fe  Fe13  1  0.250000  0.280283  0.670798  1
  Fe  Fe14  1  0.750000  0.778519  0.828539  1
  Fe  Fe15  1  0.750000  0.721481  0.328539  1
  Fe  Fe16  1  0.250000  0.876822  0.695209  1
  Fe  Fe17  1  0.250000  0.623178  0.195209  1
  Fe  Fe18  1  0.750000  0.122451  0.304144  1
  Fe  Fe19  1  0.750000  0.377549  0.804144  1
  Fe  Fe20  1  0.250000  0.462718  0.936375  1
  Fe  Fe21  1  0.250000  0.037282  0.436375  1
  Fe  Fe22  1  0.750000  0.537415  0.064541  1
  Fe  Fe23  1  0.750000  0.962585  0.564541  1
  P  P24  1  0.250000  0.423027  0.113280  1
  P  P25  1  0.250000  0.076973  0.613280  1
  P  P26  1  0.750000  0.575744  0.886880  1
  P  P27  1  0.750000  0.924256  0.386880  1
  P  P28  1  0.250000  0.269698  0.859908  1
  P  P29  1  0.250000  0.230302  0.359908  1
  P  P30  1  0.750000  0.731692  0.139819  1
  P  P31  1  0.750000  0.768308  0.639819  1
  P  P32  1  0.250000  0.603725  0.381174  1
  P  P33  1  0.250000  0.896275  0.881174  1
  P  P34  1  0.750000  0.396454  0.619648  1
  P  P35  1  0.750000  0.103546  0.119648  1
