# generated using pymatgen
data_Tb3Yb(SiPd)4
_symmetry_space_group_name_H-M   'P 1'
_cell_length_a   4.33677700
_cell_length_b   7.44403308
_cell_length_c   21.21383322
_cell_angle_alpha   89.98338801
_cell_angle_beta   90.00000000
_cell_angle_gamma   90.00000000
_symmetry_Int_Tables_number   1
_chemical_formula_structural   Tb3Yb(SiPd)4
_chemical_formula_sum   'Tb9 Yb3 Si12 Pd12'
_cell_volume   684.84851324
_cell_formula_units_Z   3
loop_
 _symmetry_equiv_pos_site_id
 _symmetry_equiv_pos_as_xyz
  1  'x, y, z'
loop_
 _atom_site_type_symbol
 _atom_site_label
 _atom_site_symmetry_multiplicity
 _atom_site_fract_x
 _atom_site_fract_y
 _atom_site_fract_z
 _atom_site_occupancy
  Tb  Tb0  1  0.250000  0.797229  0.832396  1
  Tb  Tb1  1  0.250000  0.797873  0.166269  1
  Tb  Tb2  1  0.750000  0.204479  0.833418  1
  Tb  Tb3  1  0.750000  0.296598  0.333600  1
  Tb  Tb4  1  0.250000  0.703771  0.665776  1
  Tb  Tb5  1  0.250000  0.708620  0.001172  1
  Tb  Tb6  1  0.750000  0.291370  0.999968  1
  Tb  Tb7  1  0.750000  0.207201  0.499237  1
  Tb  Tb8  1  0.250000  0.793789  0.500166  1
  Yb  Yb9  1  0.250000  0.703657  0.332146  1
  Yb  Yb10  1  0.750000  0.294932  0.667615  1
  Yb  Yb11  1  0.750000  0.203238  0.167727  1
  Si  Si12  1  0.250000  0.088323  0.065899  1
  Si  Si13  1  0.750000  0.910530  0.928623  1
  Si  Si14  1  0.750000  0.586796  0.434141  1
  Si  Si15  1  0.250000  0.412779  0.566088  1
  Si  Si16  1  0.250000  0.086532  0.274576  1
  Si  Si17  1  0.750000  0.911425  0.727741  1
  Si  Si18  1  0.750000  0.587055  0.225629  1
  Si  Si19  1  0.250000  0.414664  0.774168  1
  Si  Si20  1  0.250000  0.089504  0.395017  1
  Si  Si21  1  0.750000  0.910782  0.605742  1
  Si  Si22  1  0.750000  0.588953  0.105062  1
  Si  Si23  1  0.250000  0.410976  0.895390  1
  Pd  Pd24  1  0.250000  0.415243  0.236866  1
  Pd  Pd25  1  0.750000  0.582976  0.763772  1
  Pd  Pd26  1  0.750000  0.915311  0.263174  1
  Pd  Pd27  1  0.250000  0.085535  0.736758  1
  Pd  Pd28  1  0.250000  0.417733  0.436698  1
  Pd  Pd29  1  0.750000  0.582693  0.563270  1
  Pd  Pd30  1  0.750000  0.916795  0.063706  1
  Pd  Pd31  1  0.250000  0.083348  0.937982  1
  Pd  Pd32  1  0.250000  0.418241  0.094013  1
  Pd  Pd33  1  0.750000  0.580897  0.906010  1
  Pd  Pd34  1  0.750000  0.916898  0.406609  1
  Pd  Pd35  1  0.250000  0.083254  0.593577  1
