# generated using pymatgen
data_Li3Er4GaPt4
_symmetry_space_group_name_H-M   'P 1'
_cell_length_a   4.04417800
_cell_length_b   6.95962987
_cell_length_c   8.30655041
_cell_angle_alpha   89.19877332
_cell_angle_beta   90.00000000
_cell_angle_gamma   90.00000000
_symmetry_Int_Tables_number   1
_chemical_formula_structural   Li3Er4GaPt4
_chemical_formula_sum   'Li3 Er4 Ga1 Pt4'
_cell_volume   233.77315902
_cell_formula_units_Z   1
loop_
 _symmetry_equiv_pos_site_id
 _symmetry_equiv_pos_as_xyz
  1  'x, y, z'
loop_
 _atom_site_type_symbol
 _atom_site_label
 _atom_site_symmetry_multiplicity
 _atom_site_fract_x
 _atom_site_fract_y
 _atom_site_fract_z
 _atom_site_occupancy
  Li  Li0  1  0.250000  0.365662  0.562976  1
  Li  Li1  1  0.250000  0.867189  0.938616  1
  Li  Li2  1  0.750000  0.631275  0.439354  1
  Er  Er3  1  0.250000  0.961439  0.316916  1
  Er  Er4  1  0.250000  0.456781  0.181517  1
  Er  Er5  1  0.750000  0.044288  0.681497  1
  Er  Er6  1  0.750000  0.538578  0.818007  1
  Ga  Ga7  1  0.750000  0.131739  0.061162  1
  Pt  Pt8  1  0.250000  0.247022  0.884909  1
  Pt  Pt9  1  0.250000  0.755085  0.622030  1
  Pt  Pt10  1  0.750000  0.752151  0.118839  1
  Pt  Pt11  1  0.750000  0.248792  0.374178  1
