# generated using pymatgen
data_HoEr7B2(Os2C3)2
_symmetry_space_group_name_H-M   'P 1'
_cell_length_a   5.08730900
_cell_length_b   6.51930873
_cell_length_c   9.75588964
_cell_angle_alpha   90.29623504
_cell_angle_beta   90.00000000
_cell_angle_gamma   90.00000000
_symmetry_Int_Tables_number   1
_chemical_formula_structural   HoEr7B2(Os2C3)2
_chemical_formula_sum   'Ho1 Er7 B2 Os4 C6'
_cell_volume   323.55695468
_cell_formula_units_Z   1
loop_
 _symmetry_equiv_pos_site_id
 _symmetry_equiv_pos_as_xyz
  1  'x, y, z'
loop_
 _atom_site_type_symbol
 _atom_site_label
 _atom_site_symmetry_multiplicity
 _atom_site_fract_x
 _atom_site_fract_y
 _atom_site_fract_z
 _atom_site_occupancy
  Ho  Ho0  1  0.250000  0.026782  0.283959  1
  Er  Er1  1  0.250000  0.678749  0.550669  1
  Er  Er2  1  0.750000  0.321457  0.449474  1
  Er  Er3  1  0.750000  0.826680  0.053316  1
  Er  Er4  1  0.250000  0.173134  0.946537  1
  Er  Er5  1  0.250000  0.523608  0.211899  1
  Er  Er6  1  0.750000  0.476323  0.787993  1
  Er  Er7  1  0.750000  0.973109  0.716282  1
  B  B8  1  0.250000  0.450788  0.757345  1
  B  B9  1  0.750000  0.549150  0.242670  1
  Os  Os10  1  0.250000  0.725635  0.864161  1
  Os  Os11  1  0.750000  0.274315  0.135629  1
  Os  Os12  1  0.750000  0.788287  0.371999  1
  Os  Os13  1  0.250000  0.211630  0.628116  1
  C  C14  1  0.750000  0.045066  0.260437  1
  C  C15  1  0.250000  0.954864  0.739437  1
  C  C16  1  0.250000  0.823381  0.052751  1
  C  C17  1  0.750000  0.176319  0.946968  1
  C  C18  1  0.750000  0.674077  0.555068  1
  C  C19  1  0.250000  0.326645  0.445290  1
