# generated using pymatgen
data_PrNdIr2F14
_symmetry_space_group_name_H-M   'P 1'
_cell_length_a   5.68618400
_cell_length_b   9.23995025
_cell_length_c   12.34501171
_cell_angle_alpha   62.00141452
_cell_angle_beta   90.00000000
_cell_angle_gamma   90.00000000
_symmetry_Int_Tables_number   1
_chemical_formula_structural   PrNdIr2F14
_chemical_formula_sum   'Pr2 Nd2 Ir4 F28'
_cell_volume   572.69405627
_cell_formula_units_Z   2
loop_
 _symmetry_equiv_pos_site_id
 _symmetry_equiv_pos_as_xyz
  1  'x, y, z'
loop_
 _atom_site_type_symbol
 _atom_site_label
 _atom_site_symmetry_multiplicity
 _atom_site_fract_x
 _atom_site_fract_y
 _atom_site_fract_z
 _atom_site_occupancy
  Pr  Pr0  1  0.240115  0.189968  0.234575  1
  Pr  Pr1  1  0.740115  0.810032  0.265425  1
  Nd  Nd2  1  0.759627  0.811192  0.765211  1
  Nd  Nd3  1  0.259627  0.188808  0.734789  1
  Ir  Ir4  1  0.756129  0.274723  0.955415  1
  Ir  Ir5  1  0.256129  0.725277  0.544585  1
  Ir  Ir6  1  0.244687  0.727109  0.041670  1
  Ir  Ir7  1  0.744687  0.272891  0.458330  1
  F  F8  1  0.436550  0.709141  0.916065  1
  F  F9  1  0.936550  0.290859  0.583935  1
  F  F10  1  0.564043  0.292517  0.081605  1
  F  F11  1  0.064043  0.707483  0.418395  1
  F  F12  1  0.452754  0.281417  0.542919  1
  F  F13  1  0.952754  0.718583  0.957081  1
  F  F14  1  0.546963  0.716518  0.460130  1
  F  F15  1  0.046963  0.283482  0.039870  1
  F  F16  1  0.763272  0.513294  0.861226  1
  F  F17  1  0.263272  0.486706  0.638774  1
  F  F18  1  0.236292  0.488868  0.136476  1
  F  F19  1  0.736292  0.511132  0.363524  1
  F  F20  1  0.759515  0.036377  0.047901  1
  F  F21  1  0.259515  0.963623  0.452099  1
  F  F22  1  0.241704  0.965454  0.949768  1
  F  F23  1  0.741704  0.034546  0.550232  1
  F  F24  1  0.970140  0.730593  0.633039  1
  F  F25  1  0.470140  0.269407  0.866961  1
  F  F26  1  0.031319  0.269595  0.369425  1
  F  F27  1  0.531319  0.730405  0.130575  1
  F  F28  1  0.056404  0.743151  0.169399  1
  F  F29  1  0.556404  0.256849  0.330601  1
  F  F30  1  0.945690  0.257264  0.828111  1
  F  F31  1  0.445690  0.742736  0.671889  1
  F  F32  1  0.405082  0.966792  0.230100  1
  F  F33  1  0.905082  0.033208  0.269900  1
  F  F34  1  0.589715  0.030882  0.769424  1
  F  F35  1  0.089715  0.969118  0.730576  1
