# generated using pymatgen
data_YHo9Ru3Rh
_symmetry_space_group_name_H-M   'P 1'
_cell_length_a   6.32163128
_cell_length_b   7.27926511
_cell_length_c   8.44956324
_cell_angle_alpha   96.78637751
_cell_angle_beta   111.98536999
_cell_angle_gamma   89.97711180
_symmetry_Int_Tables_number   1
_chemical_formula_structural   YHo9Ru3Rh
_chemical_formula_sum   'Y1 Ho9 Ru3 Rh1'
_cell_volume   357.61463907
_cell_formula_units_Z   1
loop_
 _symmetry_equiv_pos_site_id
 _symmetry_equiv_pos_as_xyz
  1  'x, y, z'
loop_
 _atom_site_type_symbol
 _atom_site_label
 _atom_site_symmetry_multiplicity
 _atom_site_fract_x
 _atom_site_fract_y
 _atom_site_fract_z
 _atom_site_occupancy
  Y  Y0  1  0.978446  0.918227  0.185693  1
  Ho  Ho1  1  0.791507  0.584817  0.811052  1
  Ho  Ho2  1  0.021518  0.084867  0.813476  1
  Ho  Ho3  1  0.209313  0.413975  0.185576  1
  Ho  Ho4  1  0.640343  0.816290  0.436360  1
  Ho  Ho5  1  0.209577  0.685492  0.567669  1
  Ho  Ho6  1  0.357957  0.185555  0.565500  1
  Ho  Ho7  1  0.793283  0.313208  0.436185  1
  Ho  Ho8  1  0.418918  0.750533  0.999384  1
  Ho  Ho9  1  0.578203  0.248118  0.998205  1
  Ru  Ru10  1  0.603997  0.922991  0.779584  1
  Ru  Ru11  1  0.175418  0.424985  0.778895  1
  Ru  Ru12  1  0.399311  0.076531  0.220818  1
  Rh  Rh13  1  0.822207  0.574409  0.221604  1
