# generated using pymatgen
data_Li4Ca7YSi11Ge
_symmetry_space_group_name_H-M   'P 1'
_cell_length_a   4.36127000
_cell_length_b   10.52967434
_cell_length_c   11.16958100
_cell_angle_alpha   90.23067632
_cell_angle_beta   90.00000000
_cell_angle_gamma   90.00000000
_symmetry_Int_Tables_number   1
_chemical_formula_structural   Li4Ca7YSi11Ge
_chemical_formula_sum   'Li4 Ca7 Y1 Si11 Ge1'
_cell_volume   512.93375003
_cell_formula_units_Z   1
loop_
 _symmetry_equiv_pos_site_id
 _symmetry_equiv_pos_as_xyz
  1  'x, y, z'
loop_
 _atom_site_type_symbol
 _atom_site_label
 _atom_site_symmetry_multiplicity
 _atom_site_fract_x
 _atom_site_fract_y
 _atom_site_fract_z
 _atom_site_occupancy
  Li  Li0  1  0.500000  0.860567  0.285522  1
  Li  Li1  1  0.500000  0.140081  0.716773  1
  Li  Li2  1  0.000000  0.362778  0.217736  1
  Li  Li3  1  0.000000  0.638062  0.781580  1
  Ca  Ca4  1  0.500000  0.447040  0.651393  1
  Ca  Ca5  1  0.000000  0.053793  0.151203  1
  Ca  Ca6  1  0.000000  0.949378  0.849114  1
  Ca  Ca7  1  0.500000  0.822801  0.573262  1
  Ca  Ca8  1  0.500000  0.176057  0.426205  1
  Ca  Ca9  1  0.000000  0.322555  0.925145  1
  Ca  Ca10  1  0.000000  0.675648  0.075239  1
  Y  Y11  1  0.500000  0.551206  0.352663  1
  Si  Si12  1  0.500000  0.112350  0.959050  1
  Si  Si13  1  0.000000  0.393971  0.454365  1
  Si  Si14  1  0.000000  0.607476  0.538865  1
  Si  Si15  1  0.000000  0.964622  0.399408  1
  Si  Si16  1  0.000000  0.034167  0.598582  1
  Si  Si17  1  0.500000  0.468034  0.103426  1
  Si  Si18  1  0.500000  0.534229  0.902995  1
  Si  Si19  1  0.000000  0.255553  0.631144  1
  Si  Si20  1  0.000000  0.740032  0.362914  1
  Si  Si21  1  0.500000  0.753348  0.863533  1
  Si  Si22  1  0.500000  0.246544  0.134977  1
  Ge  Ge23  1  0.500000  0.889712  0.044909  1
