# generated using pymatgen
data_Cs2La10Co2Cl17
_symmetry_space_group_name_H-M   'P 1'
_cell_length_a   9.19782218
_cell_length_b   10.85374022
_cell_length_c   10.85373100
_cell_angle_alpha   107.44282261
_cell_angle_beta   93.36159521
_cell_angle_gamma   93.35836621
_symmetry_Int_Tables_number   1
_chemical_formula_structural   Cs2La10Co2Cl17
_chemical_formula_sum   'Cs2 La10 Co2 Cl17'
_cell_volume   1028.62829142
_cell_formula_units_Z   1
loop_
 _symmetry_equiv_pos_site_id
 _symmetry_equiv_pos_as_xyz
  1  'x, y, z'
loop_
 _atom_site_type_symbol
 _atom_site_label
 _atom_site_symmetry_multiplicity
 _atom_site_fract_x
 _atom_site_fract_y
 _atom_site_fract_z
 _atom_site_occupancy
  Cs  Cs0  1  0.001070  0.816001  0.185742  1
  Cs  Cs1  1  0.001070  0.185738  0.815988  1
  La  La2  1  0.430143  0.152502  0.152510  1
  La  La3  1  0.576602  0.516690  0.191122  1
  La  La4  1  0.828521  0.290720  0.290730  1
  La  La5  1  0.318085  0.429325  0.429331  1
  La  La6  1  0.424139  0.808022  0.484888  1
  La  La7  1  0.576625  0.191109  0.516693  1
  La  La8  1  0.689753  0.571626  0.571621  1
  La  La9  1  0.166886  0.708259  0.708247  1
  La  La10  1  0.424159  0.484881  0.808010  1
  La  La11  1  0.565083  0.846613  0.846614  1
  Co  Co12  1  0.575095  0.351626  0.351638  1
  Co  Co13  1  0.427793  0.648188  0.648171  1
  Cl  Cl14  1  0.584141  0.689300  0.019105  1
  Cl  Cl15  1  0.715745  0.069754  0.069796  1
  Cl  Cl16  1  0.858385  0.451454  0.120323  1
  Cl  Cl17  1  0.130757  0.207700  0.207732  1
  Cl  Cl18  1  0.288643  0.605193  0.256835  1
  Cl  Cl19  1  0.416225  0.980699  0.310958  1
  Cl  Cl20  1  0.712187  0.743062  0.393795  1
  Cl  Cl21  1  0.858433  0.120363  0.451451  1
  Cl  Cl22  1  0.001717  0.498578  0.498580  1
  Cl  Cl23  1  0.140969  0.879709  0.549240  1
  Cl  Cl24  1  0.288675  0.256832  0.605173  1
  Cl  Cl25  1  0.584135  0.019109  0.689302  1
  Cl  Cl26  1  0.712160  0.393744  0.743066  1
  Cl  Cl27  1  0.866671  0.793046  0.793024  1
  Cl  Cl28  1  0.140961  0.549231  0.879714  1
  Cl  Cl29  1  0.278936  0.929951  0.929909  1
  Cl  Cl30  1  0.416237  0.310977  0.980689  1
