# generated using pymatgen
data_Tb5Dy5(Sn3P)2
_symmetry_space_group_name_H-M   'P 1'
_cell_length_a   9.10950112
_cell_length_b   9.10699113
_cell_length_c   6.71317100
_cell_angle_alpha   90.00015170
_cell_angle_beta   89.99992813
_cell_angle_gamma   119.99087586
_symmetry_Int_Tables_number   1
_chemical_formula_structural   Tb5Dy5(Sn3P)2
_chemical_formula_sum   'Tb5 Dy5 Sn6 P2'
_cell_volume   482.35609507
_cell_formula_units_Z   1
loop_
 _symmetry_equiv_pos_site_id
 _symmetry_equiv_pos_as_xyz
  1  'x, y, z'
loop_
 _atom_site_type_symbol
 _atom_site_label
 _atom_site_symmetry_multiplicity
 _atom_site_fract_x
 _atom_site_fract_y
 _atom_site_fract_z
 _atom_site_occupancy
  Tb  Tb0  1  0.758350  0.758319  0.750000  1
  Tb  Tb1  1  0.241650  0.999969  0.750000  1
  Tb  Tb2  1  0.000000  0.241649  0.750001  1
  Tb  Tb3  1  0.241676  0.241629  0.250000  1
  Tb  Tb4  1  0.758324  0.999953  0.250000  1
  Dy  Dy5  1  0.666701  0.333393  0.000024  1
  Dy  Dy6  1  0.333299  0.666694  0.000024  1
  Dy  Dy7  1  0.333299  0.666693  0.499976  1
  Dy  Dy8  1  0.666701  0.333393  0.499976  1
  Dy  Dy9  1  0.000000  0.758757  0.249999  1
  Sn  Sn10  1  0.398813  0.398831  0.749999  1
  Sn  Sn11  1  0.601187  0.000018  0.749999  1
  Sn  Sn12  1  0.000000  0.601169  0.750001  1
  Sn  Sn13  1  0.601466  0.601278  0.250000  1
  Sn  Sn14  1  0.398534  0.999811  0.250000  1
  Sn  Sn15  1  0.000000  0.399029  0.250000  1
  P  P16  1  0.000000  0.999707  0.000259  1
  P  P17  1  0.000000  0.999706  0.499741  1
