# generated using pymatgen
data_LuSc5Pa2(ReB6)4
_symmetry_space_group_name_H-M   'P 1'
_cell_length_a   3.59793500
_cell_length_b   8.96654400
_cell_length_c   11.31580317
_cell_angle_alpha   90.18344264
_cell_angle_beta   90.00000000
_cell_angle_gamma   90.00000000
_symmetry_Int_Tables_number   1
_chemical_formula_structural   LuSc5Pa2(ReB6)4
_chemical_formula_sum   'Lu1 Sc5 Pa2 Re4 B24'
_cell_volume   365.05773562
_cell_formula_units_Z   1
loop_
 _symmetry_equiv_pos_site_id
 _symmetry_equiv_pos_as_xyz
  1  'x, y, z'
loop_
 _atom_site_type_symbol
 _atom_site_label
 _atom_site_symmetry_multiplicity
 _atom_site_fract_x
 _atom_site_fract_y
 _atom_site_fract_z
 _atom_site_occupancy
  Lu  Lu0  1  0.000000  0.821862  0.085267  1
  Sc  Sc1  1  0.000000  0.178661  0.914289  1
  Sc  Sc2  1  0.000000  0.946053  0.372307  1
  Sc  Sc3  1  0.000000  0.054739  0.628370  1
  Sc  Sc4  1  0.000000  0.443628  0.124563  1
  Sc  Sc5  1  0.000000  0.555079  0.874711  1
  Pa  Pa6  1  0.000000  0.319535  0.413541  1
  Pa  Pa7  1  0.000000  0.680504  0.586720  1
  Re  Re8  1  0.000000  0.638242  0.320442  1
  Re  Re9  1  0.000000  0.361174  0.680427  1
  Re  Re10  1  0.000000  0.141381  0.180520  1
  Re  Re11  1  0.000000  0.859757  0.818720  1
  B  B12  1  0.500000  0.554605  0.432456  1
  B  B13  1  0.500000  0.445076  0.568073  1
  B  B14  1  0.500000  0.054044  0.065011  1
  B  B15  1  0.500000  0.946995  0.934101  1
  B  B16  1  0.500000  0.753961  0.418033  1
  B  B17  1  0.500000  0.245994  0.582480  1
  B  B18  1  0.500000  0.251774  0.077571  1
  B  B19  1  0.500000  0.748020  0.920890  1
  B  B20  1  0.500000  0.794486  0.262875  1
  B  B21  1  0.500000  0.205195  0.738096  1
  B  B22  1  0.500000  0.293875  0.232903  1
  B  B23  1  0.500000  0.706299  0.766638  1
  B  B24  1  0.500000  0.629837  0.181642  1
  B  B25  1  0.500000  0.369016  0.819042  1
  B  B26  1  0.500000  0.129000  0.315416  1
  B  B27  1  0.500000  0.871612  0.684464  1
  B  B28  1  0.500000  0.980326  0.211620  1
  B  B29  1  0.500000  0.020819  0.788793  1
  B  B30  1  0.500000  0.481609  0.284103  1
  B  B31  1  0.500000  0.517914  0.716242  1
  B  B32  1  0.500000  0.598605  0.026837  1
  B  B33  1  0.500000  0.400044  0.972590  1
  B  B34  1  0.500000  0.100004  0.472721  1
  B  B35  1  0.500000  0.900272  0.527528  1
