# generated using pymatgen
data_Er12Si12IrOs3
_symmetry_space_group_name_H-M   'P 1'
_cell_length_a   4.18627300
_cell_length_b   10.62637806
_cell_length_c   12.22570001
_cell_angle_alpha   90.06338322
_cell_angle_beta   90.00000000
_cell_angle_gamma   90.00000000
_symmetry_Int_Tables_number   1
_chemical_formula_structural   Er12Si12IrOs3
_chemical_formula_sum   'Er12 Si12 Ir1 Os3'
_cell_volume   543.85894855
_cell_formula_units_Z   1
loop_
 _symmetry_equiv_pos_site_id
 _symmetry_equiv_pos_as_xyz
  1  'x, y, z'
loop_
 _atom_site_type_symbol
 _atom_site_label
 _atom_site_symmetry_multiplicity
 _atom_site_fract_x
 _atom_site_fract_y
 _atom_site_fract_z
 _atom_site_occupancy
  Er  Er0  1  0.250000  0.879949  0.020585  1
  Er  Er1  1  0.250000  0.620681  0.520375  1
  Er  Er2  1  0.750000  0.120666  0.980005  1
  Er  Er3  1  0.750000  0.380411  0.479274  1
  Er  Er4  1  0.250000  0.920216  0.604897  1
  Er  Er5  1  0.250000  0.579715  0.104608  1
  Er  Er6  1  0.750000  0.079172  0.395457  1
  Er  Er7  1  0.750000  0.420246  0.894989  1
  Er  Er8  1  0.250000  0.661000  0.799959  1
  Er  Er9  1  0.250000  0.838228  0.299592  1
  Er  Er10  1  0.750000  0.339039  0.200230  1
  Er  Er11  1  0.750000  0.159811  0.699359  1
  Si  Si12  1  0.250000  0.011684  0.822090  1
  Si  Si13  1  0.250000  0.490597  0.320783  1
  Si  Si14  1  0.750000  0.990230  0.179205  1
  Si  Si15  1  0.750000  0.509891  0.679174  1
  Si  Si16  1  0.250000  0.248815  0.840494  1
  Si  Si17  1  0.250000  0.250396  0.341373  1
  Si  Si18  1  0.750000  0.750551  0.158654  1
  Si  Si19  1  0.750000  0.748534  0.658498  1
  Si  Si20  1  0.250000  0.201646  0.544349  1
  Si  Si21  1  0.250000  0.299164  0.044293  1
  Si  Si22  1  0.750000  0.799790  0.455670  1
  Si  Si23  1  0.750000  0.699038  0.956126  1
  Ir  Ir24  1  0.750000  0.889450  0.820533  1
  Os  Os25  1  0.250000  0.390095  0.679684  1
  Os  Os26  1  0.250000  0.110154  0.179553  1
  Os  Os27  1  0.750000  0.610829  0.320190  1
