# generated using pymatgen
data_TaSi8MoPt6
_symmetry_space_group_name_H-M   'P 1'
_cell_length_a   3.57374100
_cell_length_b   5.55988700
_cell_length_c   24.60428300
_cell_angle_alpha   90.00000000
_cell_angle_beta   90.00000000
_cell_angle_gamma   90.00000000
_symmetry_Int_Tables_number   1
_chemical_formula_structural   TaSi8MoPt6
_chemical_formula_sum   'Ta2 Si16 Mo2 Pt12'
_cell_volume   488.87716621
_cell_formula_units_Z   2
loop_
 _symmetry_equiv_pos_site_id
 _symmetry_equiv_pos_as_xyz
  1  'x, y, z'
loop_
 _atom_site_type_symbol
 _atom_site_label
 _atom_site_symmetry_multiplicity
 _atom_site_fract_x
 _atom_site_fract_y
 _atom_site_fract_z
 _atom_site_occupancy
  Ta  Ta0  1  0.250000  0.503111  0.711484  1
  Ta  Ta1  1  0.750000  0.996889  0.211484  1
  Si  Si2  1  0.250000  0.180660  0.520056  1
  Si  Si3  1  0.750000  0.319340  0.020056  1
  Si  Si4  1  0.250000  0.679201  0.979628  1
  Si  Si5  1  0.750000  0.820799  0.479628  1
  Si  Si6  1  0.750000  0.321903  0.644946  1
  Si  Si7  1  0.250000  0.178097  0.144946  1
  Si  Si8  1  0.750000  0.816715  0.853527  1
  Si  Si9  1  0.250000  0.683285  0.353527  1
  Si  Si10  1  0.250000  0.657299  0.608830  1
  Si  Si11  1  0.750000  0.842701  0.108830  1
  Si  Si12  1  0.250000  0.159384  0.890630  1
  Si  Si13  1  0.750000  0.340616  0.390630  1
  Si  Si14  1  0.750000  0.837840  0.726131  1
  Si  Si15  1  0.250000  0.662160  0.226131  1
  Si  Si16  1  0.750000  0.327052  0.775997  1
  Si  Si17  1  0.250000  0.172948  0.275997  1
  Mo  Mo18  1  0.250000  0.004218  0.790089  1
  Mo  Mo19  1  0.750000  0.495782  0.290089  1
  Pt  Pt20  1  0.750000  0.001814  0.573768  1
  Pt  Pt21  1  0.250000  0.498186  0.073768  1
  Pt  Pt22  1  0.750000  0.502351  0.926356  1
  Pt  Pt23  1  0.250000  0.997649  0.426356  1
  Pt  Pt24  1  0.250000  0.003844  0.669224  1
  Pt  Pt25  1  0.750000  0.496156  0.169224  1
  Pt  Pt26  1  0.250000  0.504339  0.831529  1
  Pt  Pt27  1  0.750000  0.995661  0.331529  1
  Pt  Pt28  1  0.750000  0.503273  0.546958  1
  Pt  Pt29  1  0.250000  0.996727  0.046958  1
  Pt  Pt30  1  0.750000  0.003792  0.950846  1
  Pt  Pt31  1  0.250000  0.496208  0.450846  1
