# generated using pymatgen
data_CaLa2(NdIr)2
_symmetry_space_group_name_H-M   'P 1'
_cell_length_a   8.99950862
_cell_length_b   8.99950881
_cell_length_c   7.45000196
_cell_angle_alpha   83.68551238
_cell_angle_beta   83.68551572
_cell_angle_gamma   43.79526163
_symmetry_Int_Tables_number   1
_chemical_formula_structural   CaLa2(NdIr)2
_chemical_formula_sum   'Ca2 La4 Nd4 Ir4'
_cell_volume   414.64806924
_cell_formula_units_Z   2
loop_
 _symmetry_equiv_pos_site_id
 _symmetry_equiv_pos_as_xyz
  1  'x, y, z'
loop_
 _atom_site_type_symbol
 _atom_site_label
 _atom_site_symmetry_multiplicity
 _atom_site_fract_x
 _atom_site_fract_y
 _atom_site_fract_z
 _atom_site_occupancy
  Ca  Ca0  1  0.016635  0.799644  0.917706  1
  Ca  Ca1  1  0.200356  0.983365  0.582294  1
  La  La2  1  0.984319  0.200376  0.088069  1
  La  La3  1  0.799624  0.015681  0.411931  1
  La  La4  1  0.352398  0.216146  0.817926  1
  La  La5  1  0.783854  0.647602  0.682074  1
  Nd  Nd6  1  0.652672  0.786901  0.183480  1
  Nd  Nd7  1  0.213099  0.347328  0.316520  1
  Nd  Nd8  1  0.561413  0.438587  0.750000  1
  Nd  Nd9  1  0.428223  0.571777  0.250000  1
  Ir  Ir10  1  0.180027  0.587890  0.570373  1
  Ir  Ir11  1  0.412110  0.819973  0.929627  1
  Ir  Ir12  1  0.818309  0.403039  0.421965  1
  Ir  Ir13  1  0.596961  0.181691  0.078035  1
