# generated using pymatgen
data_Zr10GaBi2AsPb4
_symmetry_space_group_name_H-M   'P 1'
_cell_length_a   8.84350492
_cell_length_b   8.83873663
_cell_length_c   5.98939916
_cell_angle_alpha   89.91790888
_cell_angle_beta   90.04102106
_cell_angle_gamma   119.98217108
_symmetry_Int_Tables_number   1
_chemical_formula_structural   Zr10GaBi2AsPb4
_chemical_formula_sum   'Zr10 Ga1 Bi2 As1 Pb4'
_cell_volume   405.51418805
_cell_formula_units_Z   1
loop_
 _symmetry_equiv_pos_site_id
 _symmetry_equiv_pos_as_xyz
  1  'x, y, z'
loop_
 _atom_site_type_symbol
 _atom_site_label
 _atom_site_symmetry_multiplicity
 _atom_site_fract_x
 _atom_site_fract_y
 _atom_site_fract_z
 _atom_site_occupancy
  Zr  Zr0  1  0.667462  0.333066  0.002111  1
  Zr  Zr1  1  0.332538  0.665605  0.002111  1
  Zr  Zr2  1  0.333096  0.665921  0.498328  1
  Zr  Zr3  1  0.666904  0.332823  0.498328  1
  Zr  Zr4  1  0.739361  0.740130  0.752157  1
  Zr  Zr5  1  0.260639  0.000770  0.752157  1
  Zr  Zr6  1  0.000000  0.261631  0.752348  1
  Zr  Zr7  1  0.265068  0.263944  0.248023  1
  Zr  Zr8  1  0.734932  0.998877  0.248023  1
  Zr  Zr9  1  0.000000  0.735516  0.247432  1
  Ga  Ga10  1  0.000000  0.000175  0.497419  1
  Bi  Bi11  1  0.394106  0.393681  0.748720  1
  Bi  Bi12  1  0.605894  0.999574  0.748720  1
  As  As13  1  0.000000  0.000278  0.002185  1
  Pb  Pb14  1  0.000000  0.609181  0.748567  1
  Pb  Pb15  1  0.611743  0.610654  0.251000  1
  Pb  Pb16  1  0.388257  0.998911  0.251000  1
  Pb  Pb17  1  0.000000  0.389265  0.251368  1
