# generated using pymatgen
data_Sr4Zn9Ir11
_symmetry_space_group_name_H-M   'P 1'
_cell_length_a   5.49237000
_cell_length_b   6.61608721
_cell_length_c   12.83155096
_cell_angle_alpha   90.93107156
_cell_angle_beta   90.00000000
_cell_angle_gamma   90.00000000
_symmetry_Int_Tables_number   1
_chemical_formula_structural   Sr4Zn9Ir11
_chemical_formula_sum   'Sr4 Zn9 Ir11'
_cell_volume   466.21132165
_cell_formula_units_Z   1
loop_
 _symmetry_equiv_pos_site_id
 _symmetry_equiv_pos_as_xyz
  1  'x, y, z'
loop_
 _atom_site_type_symbol
 _atom_site_label
 _atom_site_symmetry_multiplicity
 _atom_site_fract_x
 _atom_site_fract_y
 _atom_site_fract_z
 _atom_site_occupancy
  Sr  Sr0  1  0.250000  0.649489  0.911759  1
  Sr  Sr1  1  0.250000  0.839162  0.408564  1
  Sr  Sr2  1  0.750000  0.339307  0.092753  1
  Sr  Sr3  1  0.750000  0.157953  0.580678  1
  Zn  Zn4  1  0.750000  0.860649  0.777749  1
  Zn  Zn5  1  0.250000  0.962142  0.707576  1
  Zn  Zn6  1  0.250000  0.539775  0.205318  1
  Zn  Zn7  1  0.750000  0.041686  0.297244  1
  Zn  Zn8  1  0.750000  0.440991  0.778592  1
  Zn  Zn9  1  0.250000  0.408948  0.521087  1
  Zn  Zn10  1  0.250000  0.086715  0.018816  1
  Zn  Zn11  1  0.750000  0.604704  0.483414  1
  Zn  Zn12  1  0.750000  0.913649  0.983374  1
  Ir  Ir13  1  0.250000  0.352634  0.720377  1
  Ir  Ir14  1  0.250000  0.143923  0.218953  1
  Ir  Ir15  1  0.750000  0.646796  0.283341  1
  Ir  Ir16  1  0.000537  0.150515  0.856842  1
  Ir  Ir17  1  0.497850  0.352733  0.355341  1
  Ir  Ir18  1  0.501229  0.846695  0.146430  1
  Ir  Ir19  1  0.001925  0.655796  0.646588  1
  Ir  Ir20  1  0.998771  0.846695  0.146430  1
  Ir  Ir21  1  0.498075  0.655796  0.646588  1
  Ir  Ir22  1  0.499463  0.150515  0.856842  1
  Ir  Ir23  1  0.002150  0.352733  0.355341  1
