# generated using pymatgen
data_Mg6Al7Au16
_symmetry_space_group_name_H-M   'P 1'
_cell_length_a   9.05364700
_cell_length_b   9.05364737
_cell_length_c   9.05364700
_cell_angle_alpha   120.00000231
_cell_angle_beta   90.00000000
_cell_angle_gamma   120.00000231
_symmetry_Int_Tables_number   1
_chemical_formula_structural   Mg6Al7Au16
_chemical_formula_sum   'Mg6 Al7 Au16'
_cell_volume   524.75388396
_cell_formula_units_Z   1
loop_
 _symmetry_equiv_pos_site_id
 _symmetry_equiv_pos_as_xyz
  1  'x, y, z'
loop_
 _atom_site_type_symbol
 _atom_site_label
 _atom_site_symmetry_multiplicity
 _atom_site_fract_x
 _atom_site_fract_y
 _atom_site_fract_z
 _atom_site_occupancy
  Mg  Mg0  1  0.288340  0.000000  0.288340  1
  Mg  Mg1  1  0.288340  0.576679  0.288340  1
  Mg  Mg2  1  0.711661  0.000000  0.288340  1
  Mg  Mg3  1  0.711660  0.000000  0.711660  1
  Mg  Mg4  1  0.288340  0.000000  0.711661  1
  Mg  Mg5  1  0.711661  0.423320  0.711661  1
  Al  Al6  1  0.000000  0.000000  0.000000  1
  Al  Al7  1  0.500000  0.000000  0.000000  1
  Al  Al8  1  0.000000  0.500000  0.000000  1
  Al  Al9  1  0.500000  0.500000  0.000000  1
  Al  Al10  1  0.000000  0.000000  0.500000  1
  Al  Al11  1  0.000000  0.500000  0.500000  1
  Al  Al12  1  0.500000  0.500000  0.500000  1
  Au  Au13  1  0.651768  0.303535  0.955302  1
  Au  Au14  1  0.880865  0.761730  0.119136  1
  Au  Au15  1  0.357407  0.238271  0.119136  1
  Au  Au16  1  0.880865  0.238271  0.119136  1
  Au  Au17  1  0.651768  0.303535  0.348233  1
  Au  Au18  1  0.651768  0.696466  0.348233  1
  Au  Au19  1  0.044699  0.696466  0.348233  1
  Au  Au20  1  0.119136  0.238271  0.357407  1
  Au  Au21  1  0.880865  0.761730  0.642594  1
  Au  Au22  1  0.955302  0.303535  0.651768  1
  Au  Au23  1  0.348233  0.303535  0.651768  1
  Au  Au24  1  0.348233  0.696466  0.651768  1
  Au  Au25  1  0.119136  0.238271  0.880865  1
  Au  Au26  1  0.119136  0.761730  0.880865  1
  Au  Au27  1  0.642594  0.761730  0.880865  1
  Au  Au28  1  0.348233  0.696466  0.044699  1
