# generated using pymatgen
data_Nd(Ga2Au)2
_symmetry_space_group_name_H-M   'P 1'
_cell_length_a   4.57624400
_cell_length_b   6.79080500
_cell_length_c   17.68876700
_cell_angle_alpha   90.00000000
_cell_angle_beta   90.00000000
_cell_angle_gamma   90.00000000
_symmetry_Int_Tables_number   1
_chemical_formula_structural   Nd(Ga2Au)2
_chemical_formula_sum   'Nd4 Ga16 Au8'
_cell_volume   549.70285628
_cell_formula_units_Z   4
loop_
 _symmetry_equiv_pos_site_id
 _symmetry_equiv_pos_as_xyz
  1  'x, y, z'
loop_
 _atom_site_type_symbol
 _atom_site_label
 _atom_site_symmetry_multiplicity
 _atom_site_fract_x
 _atom_site_fract_y
 _atom_site_fract_z
 _atom_site_occupancy
  Nd  Nd0  1  0.750000  0.989540  0.640097  1
  Nd  Nd1  1  0.250000  0.010460  0.359903  1
  Nd  Nd2  1  0.250000  0.489540  0.859903  1
  Nd  Nd3  1  0.750000  0.510460  0.140097  1
  Ga  Ga4  1  0.250000  0.276548  0.684781  1
  Ga  Ga5  1  0.750000  0.723452  0.315219  1
  Ga  Ga6  1  0.750000  0.776548  0.815219  1
  Ga  Ga7  1  0.250000  0.223452  0.184781  1
  Ga  Ga8  1  0.250000  0.675976  0.680430  1
  Ga  Ga9  1  0.750000  0.324024  0.319570  1
  Ga  Ga10  1  0.750000  0.175976  0.819570  1
  Ga  Ga11  1  0.250000  0.824024  0.180430  1
  Ga  Ga12  1  0.250000  0.160661  0.537426  1
  Ga  Ga13  1  0.750000  0.839339  0.462574  1
  Ga  Ga14  1  0.750000  0.660661  0.962574  1
  Ga  Ga15  1  0.250000  0.339339  0.037426  1
  Ga  Ga16  1  0.250000  0.474827  0.429619  1
  Ga  Ga17  1  0.750000  0.525173  0.570381  1
  Ga  Ga18  1  0.750000  0.974827  0.070381  1
  Ga  Ga19  1  0.250000  0.025173  0.929619  1
  Au  Au20  1  0.250000  0.756451  0.532581  1
  Au  Au21  1  0.750000  0.243549  0.467419  1
  Au  Au22  1  0.750000  0.256451  0.967419  1
  Au  Au23  1  0.250000  0.743549  0.032581  1
  Au  Au24  1  0.250000  0.970628  0.781196  1
  Au  Au25  1  0.750000  0.029372  0.218804  1
  Au  Au26  1  0.750000  0.470628  0.718804  1
  Au  Au27  1  0.250000  0.529372  0.281196  1
