# generated using pymatgen
data_Ho6Al13Fe2Si11Os6
_symmetry_space_group_name_H-M   'P 1'
_cell_length_a   8.66395600
_cell_length_b   8.66395514
_cell_length_c   9.12865000
_cell_angle_alpha   90.00000000
_cell_angle_beta   90.00000000
_cell_angle_gamma   120.00000328
_symmetry_Int_Tables_number   1
_chemical_formula_structural   Ho6Al13Fe2Si11Os6
_chemical_formula_sum   'Ho6 Al13 Fe2 Si11 Os6'
_cell_volume   593.43014871
_cell_formula_units_Z   1
loop_
 _symmetry_equiv_pos_site_id
 _symmetry_equiv_pos_as_xyz
  1  'x, y, z'
loop_
 _atom_site_type_symbol
 _atom_site_label
 _atom_site_symmetry_multiplicity
 _atom_site_fract_x
 _atom_site_fract_y
 _atom_site_fract_z
 _atom_site_occupancy
  Ho  Ho0  1  0.192642  0.385282  0.249452  1
  Ho  Ho1  1  0.807220  0.614441  0.750250  1
  Ho  Ho2  1  0.614718  0.807358  0.249452  1
  Ho  Ho3  1  0.385559  0.192780  0.750250  1
  Ho  Ho4  1  0.192642  0.807358  0.249452  1
  Ho  Ho5  1  0.807220  0.192780  0.750250  1
  Al  Al6  1  0.333333  0.666667  0.473184  1
  Al  Al7  1  0.160513  0.321027  0.578770  1
  Al  Al8  1  0.838806  0.677613  0.419706  1
  Al  Al9  1  0.678973  0.839487  0.578770  1
  Al  Al10  1  0.838941  0.677882  0.079912  1
  Al  Al11  1  0.322387  0.161194  0.419706  1
  Al  Al12  1  0.161604  0.323208  0.919055  1
  Al  Al13  1  0.160513  0.839487  0.578770  1
  Al  Al14  1  0.322118  0.161059  0.079912  1
  Al  Al15  1  0.838806  0.161194  0.419706  1
  Al  Al16  1  0.676792  0.838396  0.919055  1
  Al  Al17  1  0.838941  0.161059  0.079912  1
  Al  Al18  1  0.161604  0.838396  0.919055  1
  Fe  Fe19  1  0.000000  0.000000  0.999657  1
  Fe  Fe20  1  0.000000  0.000000  0.499720  1
  Si  Si21  1  0.333333  0.666667  0.045303  1
  Si  Si22  1  0.666667  0.333333  0.957510  1
  Si  Si23  1  0.666667  0.333333  0.541248  1
  Si  Si24  1  0.563156  0.126314  0.249659  1
  Si  Si25  1  0.437415  0.874828  0.748167  1
  Si  Si26  1  0.873686  0.436844  0.249659  1
  Si  Si27  1  0.125172  0.562585  0.748167  1
  Si  Si28  1  0.563156  0.436844  0.249659  1
  Si  Si29  1  0.437415  0.562585  0.748167  1
  Si  Si30  1  0.000000  0.000000  0.249594  1
  Si  Si31  1  0.000000  0.000000  0.749886  1
  Os  Os32  1  0.500348  0.000697  0.998558  1
  Os  Os33  1  0.999303  0.499652  0.998558  1
  Os  Os34  1  0.503505  0.007010  0.501105  1
  Os  Os35  1  0.500348  0.499652  0.998558  1
  Os  Os36  1  0.992990  0.496495  0.501105  1
  Os  Os37  1  0.503505  0.496495  0.501105  1
