# generated using pymatgen
data_SrLa4Pr2IrBr12
_symmetry_space_group_name_H-M   'P 1'
_cell_length_a   9.76719265
_cell_length_b   9.77121937
_cell_length_c   9.60106285
_cell_angle_alpha   106.45033922
_cell_angle_beta   106.15014010
_cell_angle_gamma   106.40068987
_symmetry_Int_Tables_number   1
_chemical_formula_structural   SrLa4Pr2IrBr12
_chemical_formula_sum   'Sr1 La4 Pr2 Ir1 Br12'
_cell_volume   776.55121874
_cell_formula_units_Z   1
loop_
 _symmetry_equiv_pos_site_id
 _symmetry_equiv_pos_as_xyz
  1  'x, y, z'
loop_
 _atom_site_type_symbol
 _atom_site_label
 _atom_site_symmetry_multiplicity
 _atom_site_fract_x
 _atom_site_fract_y
 _atom_site_fract_z
 _atom_site_occupancy
  Sr  Sr0  1  0.500182  0.500775  0.501591  1
  La  La1  1  0.106475  0.318604  0.019147  1
  La  La2  1  0.318284  0.020022  0.107426  1
  La  La3  1  0.019910  0.101613  0.303921  1
  La  La4  1  0.980347  0.896735  0.695276  1
  Pr  Pr5  1  0.685565  0.979926  0.892796  1
  Pr  Pr6  1  0.891758  0.684536  0.979748  1
  Ir  Ir7  1  0.001328  0.000485  0.999784  1
  Br  Br8  1  0.213339  0.680363  0.072097  1
  Br  Br9  1  0.449483  0.366872  0.153081  1
  Br  Br10  1  0.681026  0.072730  0.216433  1
  Br  Br11  1  0.926275  0.781252  0.319263  1
  Br  Br12  1  0.156522  0.450309  0.369954  1
  Br  Br13  1  0.368961  0.157362  0.453384  1
  Br  Br14  1  0.631195  0.843761  0.548999  1
  Br  Br15  1  0.843321  0.549062  0.633015  1
  Br  Br16  1  0.072271  0.215814  0.677263  1
  Br  Br17  1  0.320292  0.926263  0.780716  1
  Br  Br18  1  0.551960  0.635893  0.849590  1
  Br  Br19  1  0.781511  0.317627  0.926519  1
