# generated using pymatgen
data_YTh3AlGa17Ir6
_symmetry_space_group_name_H-M   'P 1'
_cell_length_a   7.68428985
_cell_length_b   7.69376351
_cell_length_c   9.48845360
_cell_angle_alpha   89.98033542
_cell_angle_beta   89.97916662
_cell_angle_gamma   119.77531321
_symmetry_Int_Tables_number   1
_chemical_formula_structural   YTh3AlGa17Ir6
_chemical_formula_sum   'Y1 Th3 Al1 Ga17 Ir6'
_cell_volume   486.90851576
_cell_formula_units_Z   1
loop_
 _symmetry_equiv_pos_site_id
 _symmetry_equiv_pos_as_xyz
  1  'x, y, z'
loop_
 _atom_site_type_symbol
 _atom_site_label
 _atom_site_symmetry_multiplicity
 _atom_site_fract_x
 _atom_site_fract_y
 _atom_site_fract_z
 _atom_site_occupancy
  Y  Y0  1  0.328311  0.003330  0.749387  1
  Th  Th1  1  0.997747  0.670309  0.249964  1
  Th  Th2  1  0.001178  0.329592  0.748972  1
  Th  Th3  1  0.670024  0.996766  0.249995  1
  Al  Al4  1  0.337780  0.334468  0.947927  1
  Ga  Ga5  1  0.136080  0.133013  0.249457  1
  Ga  Ga6  1  0.869934  0.868747  0.749290  1
  Ga  Ga7  1  0.003938  0.335219  0.078053  1
  Ga  Ga8  1  0.001720  0.670220  0.917500  1
  Ga  Ga9  1  0.001247  0.670399  0.582268  1
  Ga  Ga10  1  0.335227  0.004135  0.425717  1
  Ga  Ga11  1  0.005428  0.335393  0.419830  1
  Ga  Ga12  1  0.658487  0.995761  0.582365  1
  Ga  Ga13  1  0.658834  0.996449  0.917506  1
  Ga  Ga14  1  0.335278  0.002639  0.072287  1
  Ga  Ga15  1  0.335017  0.330631  0.565552  1
  Ga  Ga16  1  0.662852  0.662685  0.440989  1
  Ga  Ga17  1  0.666574  0.666335  0.059186  1
  Ga  Ga18  1  0.342471  0.543429  0.250001  1
  Ga  Ga19  1  0.652678  0.449334  0.750100  1
  Ga  Ga20  1  0.543440  0.338989  0.249998  1
  Ga  Ga21  1  0.453132  0.657763  0.749895  1
  Ir  Ir22  1  0.672931  0.330068  0.999798  1
  Ir  Ir23  1  0.327503  0.668397  0.999903  1
  Ir  Ir24  1  0.327248  0.671760  0.498717  1
  Ir  Ir25  1  0.676557  0.330127  0.498888  1
  Ir  Ir26  1  0.001980  0.004564  0.998560  1
  Ir  Ir27  1  0.996405  0.999479  0.497894  1
