# generated using pymatgen
data_Dy3Tm2SiSn3
_symmetry_space_group_name_H-M   'P 1'
_cell_length_a   9.17880500
_cell_length_b   9.17880672
_cell_length_c   6.42309200
_cell_angle_alpha   90.00000000
_cell_angle_beta   90.00000000
_cell_angle_gamma   119.99999742
_symmetry_Int_Tables_number   1
_chemical_formula_structural   Dy3Tm2SiSn3
_chemical_formula_sum   'Dy6 Tm4 Si2 Sn6'
_cell_volume   468.64841647
_cell_formula_units_Z   2
loop_
 _symmetry_equiv_pos_site_id
 _symmetry_equiv_pos_as_xyz
  1  'x, y, z'
loop_
 _atom_site_type_symbol
 _atom_site_label
 _atom_site_symmetry_multiplicity
 _atom_site_fract_x
 _atom_site_fract_y
 _atom_site_fract_z
 _atom_site_occupancy
  Dy  Dy0  1  0.746708  0.746708  0.750000  1
  Dy  Dy1  1  0.253292  0.000000  0.750000  1
  Dy  Dy2  1  0.000000  0.253292  0.750000  1
  Dy  Dy3  1  0.253292  0.253292  0.250000  1
  Dy  Dy4  1  0.746708  0.000000  0.250000  1
  Dy  Dy5  1  0.000000  0.746708  0.250000  1
  Tm  Tm6  1  0.666667  0.333333  0.000000  1
  Tm  Tm7  1  0.333333  0.666667  0.000000  1
  Tm  Tm8  1  0.333333  0.666667  0.500000  1
  Tm  Tm9  1  0.666667  0.333333  0.500000  1
  Si  Si10  1  0.000000  0.000000  0.000000  1
  Si  Si11  1  0.000000  0.000000  0.500000  1
  Sn  Sn12  1  0.392937  0.392937  0.750000  1
  Sn  Sn13  1  0.607063  0.000000  0.750000  1
  Sn  Sn14  1  0.000000  0.607063  0.750000  1
  Sn  Sn15  1  0.607063  0.607063  0.250000  1
  Sn  Sn16  1  0.392937  0.000000  0.250000  1
  Sn  Sn17  1  0.000000  0.392937  0.250000  1
