# generated using pymatgen
data_Lu6InTcSb
_symmetry_space_group_name_H-M   'P 1'
_cell_length_a   8.04396200
_cell_length_b   8.04396335
_cell_length_c   4.18922600
_cell_angle_alpha   90.00000000
_cell_angle_beta   90.00000000
_cell_angle_gamma   119.99999444
_symmetry_Int_Tables_number   1
_chemical_formula_structural   Lu6InTcSb
_chemical_formula_sum   'Lu6 In1 Tc1 Sb1'
_cell_volume   234.74942647
_cell_formula_units_Z   1
loop_
 _symmetry_equiv_pos_site_id
 _symmetry_equiv_pos_as_xyz
  1  'x, y, z'
loop_
 _atom_site_type_symbol
 _atom_site_label
 _atom_site_symmetry_multiplicity
 _atom_site_fract_x
 _atom_site_fract_y
 _atom_site_fract_z
 _atom_site_occupancy
  Lu  Lu0  1  0.238600  0.997295  0.500000  1
  Lu  Lu1  1  0.002705  0.241306  0.500000  1
  Lu  Lu2  1  0.758694  0.761400  0.500000  1
  Lu  Lu3  1  0.608554  0.002162  0.000000  1
  Lu  Lu4  1  0.997838  0.606392  0.000000  1
  Lu  Lu5  1  0.393608  0.391446  0.000000  1
  In  In6  1  0.333333  0.666667  0.500000  1
  Tc  Tc7  1  0.000000  0.000000  0.000000  1
  Sb  Sb8  1  0.666667  0.333333  0.500000  1
