# generated using pymatgen
data_Tb2Y2AsS3
_symmetry_space_group_name_H-M   'P 1'
_cell_length_a   6.88429606
_cell_length_b   6.88429588
_cell_length_c   6.88429598
_cell_angle_alpha   131.71891184
_cell_angle_beta   131.71891051
_cell_angle_gamma   70.67333848
_symmetry_Int_Tables_number   1
_chemical_formula_structural   Tb2Y2AsS3
_chemical_formula_sum   'Tb2 Y2 As1 S3'
_cell_volume   178.07434119
_cell_formula_units_Z   1
loop_
 _symmetry_equiv_pos_site_id
 _symmetry_equiv_pos_as_xyz
  1  'x, y, z'
loop_
 _atom_site_type_symbol
 _atom_site_label
 _atom_site_symmetry_multiplicity
 _atom_site_fract_x
 _atom_site_fract_y
 _atom_site_fract_z
 _atom_site_occupancy
  Tb  Tb0  1  0.248804  0.248804  0.000000  1
  Tb  Tb1  1  0.751196  0.751196  0.000000  1
  Y  Y2  1  0.500001  0.000000  0.500001  1
  Y  Y3  1  0.000000  0.500001  0.500001  1
  As  As4  1  0.500000  0.500000  0.000000  1
  S  S5  1  0.000000  0.000000  0.000000  1
  S  S6  1  0.750001  0.250000  0.500001  1
  S  S7  1  0.250000  0.750001  0.500001  1
