# generated using pymatgen
data_Ca2AlSi(Ni3B)2
_symmetry_space_group_name_H-M   'P 1'
_cell_length_a   5.25147600
_cell_length_b   5.25147633
_cell_length_c   6.49346000
_cell_angle_alpha   90.00000000
_cell_angle_beta   90.00000000
_cell_angle_gamma   119.99999795
_symmetry_Int_Tables_number   1
_chemical_formula_structural   Ca2AlSi(Ni3B)2
_chemical_formula_sum   'Ca2 Al1 Si1 Ni6 B2'
_cell_volume   155.08493321
_cell_formula_units_Z   1
loop_
 _symmetry_equiv_pos_site_id
 _symmetry_equiv_pos_as_xyz
  1  'x, y, z'
loop_
 _atom_site_type_symbol
 _atom_site_label
 _atom_site_symmetry_multiplicity
 _atom_site_fract_x
 _atom_site_fract_y
 _atom_site_fract_z
 _atom_site_occupancy
  Ca  Ca0  1  0.000000  0.000000  0.500000  1
  Ca  Ca1  1  0.000000  0.000000  0.000000  1
  Al  Al2  1  0.666667  0.333333  0.500000  1
  Si  Si3  1  0.333333  0.666667  0.500000  1
  Ni  Ni4  1  0.498373  0.501627  0.794380  1
  Ni  Ni5  1  0.003254  0.501627  0.794380  1
  Ni  Ni6  1  0.498373  0.996746  0.794380  1
  Ni  Ni7  1  0.003254  0.501627  0.205620  1
  Ni  Ni8  1  0.498373  0.501627  0.205620  1
  Ni  Ni9  1  0.498373  0.996746  0.205620  1
  B  B10  1  0.666667  0.333333  0.000000  1
  B  B11  1  0.333333  0.666667  0.000000  1
