# generated using pymatgen
data_Lu5P12Ru19
_symmetry_space_group_name_H-M   'P 1'
_cell_length_a   12.49145200
_cell_length_b   12.49145221
_cell_length_c   3.96189900
_cell_angle_alpha   90.00000000
_cell_angle_beta   90.00000000
_cell_angle_gamma   119.99999945
_symmetry_Int_Tables_number   1
_chemical_formula_structural   Lu5P12Ru19
_chemical_formula_sum   'Lu5 P12 Ru19'
_cell_volume   535.37721987
_cell_formula_units_Z   1
loop_
 _symmetry_equiv_pos_site_id
 _symmetry_equiv_pos_as_xyz
  1  'x, y, z'
loop_
 _atom_site_type_symbol
 _atom_site_label
 _atom_site_symmetry_multiplicity
 _atom_site_fract_x
 _atom_site_fract_y
 _atom_site_fract_z
 _atom_site_occupancy
  Lu  Lu0  1  0.816993  0.000000  0.500000  1
  Lu  Lu1  1  0.000000  0.816993  0.500000  1
  Lu  Lu2  1  0.183007  0.183007  0.500000  1
  Lu  Lu3  1  0.333333  0.666667  0.000000  1
  Lu  Lu4  1  0.666667  0.333333  0.000000  1
  P  P5  1  0.183613  0.000000  0.000000  1
  P  P6  1  0.000000  0.183613  0.000000  1
  P  P7  1  0.816387  0.816387  0.000000  1
  P  P8  1  0.521408  0.693347  0.500000  1
  P  P9  1  0.306653  0.828061  0.500000  1
  P  P10  1  0.171939  0.478592  0.500000  1
  P  P11  1  0.478592  0.171939  0.500000  1
  P  P12  1  0.693347  0.521408  0.500000  1
  P  P13  1  0.828061  0.306653  0.500000  1
  P  P14  1  0.627862  0.000000  0.000000  1
  P  P15  1  0.000000  0.627862  0.000000  1
  P  P16  1  0.372138  0.372138  0.000000  1
  Ru  Ru17  1  0.445424  0.000000  0.000000  1
  Ru  Ru18  1  0.000000  0.445424  0.000000  1
  Ru  Ru19  1  0.554576  0.554576  0.000000  1
  Ru  Ru20  1  0.282201  0.000000  0.500000  1
  Ru  Ru21  1  0.000000  0.282201  0.500000  1
  Ru  Ru22  1  0.717799  0.717799  0.500000  1
  Ru  Ru23  1  0.623272  0.808529  0.000000  1
  Ru  Ru24  1  0.191471  0.814743  0.000000  1
  Ru  Ru25  1  0.185257  0.376728  0.000000  1
  Ru  Ru26  1  0.376728  0.185257  0.000000  1
  Ru  Ru27  1  0.808529  0.623272  0.000000  1
  Ru  Ru28  1  0.814743  0.191471  0.000000  1
  Ru  Ru29  1  0.507425  0.873181  0.500000  1
  Ru  Ru30  1  0.126819  0.634244  0.500000  1
  Ru  Ru31  1  0.365756  0.492575  0.500000  1
  Ru  Ru32  1  0.492575  0.365756  0.500000  1
  Ru  Ru33  1  0.873181  0.507425  0.500000  1
  Ru  Ru34  1  0.634244  0.126819  0.500000  1
  Ru  Ru35  1  0.000000  0.000000  0.000000  1
