# generated using pymatgen
data_VFe4Hg4As3O20
_symmetry_space_group_name_H-M   'P 1'
_cell_length_a   6.26954900
_cell_length_b   8.33653136
_cell_length_c   8.62296078
_cell_angle_alpha   90.26139994
_cell_angle_beta   90.00000000
_cell_angle_gamma   90.00000000
_symmetry_Int_Tables_number   1
_chemical_formula_structural   VFe4Hg4As3O20
_chemical_formula_sum   'V1 Fe4 Hg4 As3 O20'
_cell_volume   450.68549428
_cell_formula_units_Z   1
loop_
 _symmetry_equiv_pos_site_id
 _symmetry_equiv_pos_as_xyz
  1  'x, y, z'
loop_
 _atom_site_type_symbol
 _atom_site_label
 _atom_site_symmetry_multiplicity
 _atom_site_fract_x
 _atom_site_fract_y
 _atom_site_fract_z
 _atom_site_occupancy
  V  V0  1  0.250000  0.187928  0.211291  1
  Fe  Fe1  1  0.998991  0.999210  0.500898  1
  Fe  Fe2  1  0.497684  0.501298  0.999441  1
  Fe  Fe3  1  0.501009  0.999210  0.500898  1
  Fe  Fe4  1  0.002316  0.501298  0.999441  1
  Hg  Hg5  1  0.250000  0.576155  0.656477  1
  Hg  Hg6  1  0.250000  0.069085  0.840682  1
  Hg  Hg7  1  0.750000  0.424675  0.341097  1
  Hg  Hg8  1  0.750000  0.921046  0.158063  1
  As  As9  1  0.750000  0.314904  0.713072  1
  As  As10  1  0.750000  0.814489  0.787847  1
  As  As11  1  0.250000  0.684928  0.287509  1
  O  O12  1  0.523020  0.333450  0.823087  1
  O  O13  1  0.976139  0.832650  0.676963  1
  O  O14  1  0.023240  0.668439  0.176886  1
  O  O15  1  0.472418  0.164831  0.327415  1
  O  O16  1  0.476760  0.668439  0.176886  1
  O  O17  1  0.027582  0.164831  0.327415  1
  O  O18  1  0.976980  0.333450  0.823087  1
  O  O19  1  0.523861  0.832650  0.676963  1
  O  O20  1  0.750000  0.132925  0.610842  1
  O  O21  1  0.750000  0.634583  0.891105  1
  O  O22  1  0.250000  0.864749  0.392468  1
  O  O23  1  0.250000  0.372847  0.106537  1
  O  O24  1  0.250000  0.094673  0.604215  1
  O  O25  1  0.250000  0.599785  0.893521  1
  O  O26  1  0.750000  0.903391  0.395653  1
  O  O27  1  0.750000  0.406066  0.103663  1
  O  O28  1  0.750000  0.468905  0.577191  1
  O  O29  1  0.750000  0.970321  0.923300  1
  O  O30  1  0.250000  0.528623  0.420772  1
  O  O31  1  0.250000  0.030167  0.075318  1
