# generated using pymatgen
data_NaLa8(HoAu4)5
_symmetry_space_group_name_H-M   'P 1'
_cell_length_a   8.96210783
_cell_length_b   8.96163506
_cell_length_c   10.63896499
_cell_angle_alpha   89.66106070
_cell_angle_beta   90.33880408
_cell_angle_gamma   107.50592377
_symmetry_Int_Tables_number   1
_chemical_formula_structural   NaLa8(HoAu4)5
_chemical_formula_sum   'Na1 La8 Ho5 Au20'
_cell_volume   814.87400135
_cell_formula_units_Z   1
loop_
 _symmetry_equiv_pos_site_id
 _symmetry_equiv_pos_as_xyz
  1  'x, y, z'
loop_
 _atom_site_type_symbol
 _atom_site_label
 _atom_site_symmetry_multiplicity
 _atom_site_fract_x
 _atom_site_fract_y
 _atom_site_fract_z
 _atom_site_occupancy
  Na  Na0  1  0.492344  0.992345  0.750001  1
  La  La1  1  0.695880  0.296658  0.996886  1
  La  La2  1  0.205302  0.800859  0.503629  1
  La  La3  1  0.802111  0.805755  0.299217  1
  La  La4  1  0.305748  0.302107  0.200795  1
  La  La5  1  0.796658  0.195876  0.503126  1
  La  La6  1  0.300862  0.705291  0.996364  1
  La  La7  1  0.693323  0.702835  0.800145  1
  La  La8  1  0.202837  0.193319  0.699851  1
  Ho  Ho9  1  0.505666  0.005669  0.249999  1
  Ho  Ho10  1  0.991279  0.491281  0.750000  1
  Ho  Ho11  1  0.002813  0.002092  0.002207  1
  Ho  Ho12  1  0.006370  0.506378  0.249998  1
  Ho  Ho13  1  0.502093  0.502817  0.497792  1
  Au  Au14  1  0.147476  0.434603  0.490925  1
  Au  Au15  1  0.901578  0.899004  0.594717  1
  Au  Au16  1  0.567067  0.849661  0.505650  1
  Au  Au17  1  0.871705  0.159127  0.209907  1
  Au  Au18  1  0.367533  0.655330  0.289473  1
  Au  Au19  1  0.659122  0.371707  0.290092  1
  Au  Au20  1  0.399011  0.401574  0.905278  1
  Au  Au21  1  0.934601  0.647475  0.009073  1
  Au  Au22  1  0.338111  0.614329  0.707080  1
  Au  Au23  1  0.349658  0.067064  0.994352  1
  Au  Au24  1  0.599919  0.598896  0.095377  1
  Au  Au25  1  0.654898  0.934056  0.017438  1
  Au  Au26  1  0.098896  0.099912  0.404623  1
  Au  Au27  1  0.631883  0.354203  0.706475  1
  Au  Au28  1  0.114328  0.838108  0.792916  1
  Au  Au29  1  0.061719  0.355627  0.995837  1
  Au  Au30  1  0.855627  0.561722  0.504165  1
  Au  Au31  1  0.155327  0.867538  0.210527  1
  Au  Au32  1  0.434054  0.154899  0.482559  1
  Au  Au33  1  0.854201  0.131884  0.793528  1
