# generated using pymatgen
data_Th3Zn(Pd5Pt)2
_symmetry_space_group_name_H-M   'P 1'
_cell_length_a   5.87814030
_cell_length_b   5.87814000
_cell_length_c   9.62652000
_cell_angle_alpha   90.00000000
_cell_angle_beta   90.00000000
_cell_angle_gamma   120.10127569
_symmetry_Int_Tables_number   1
_chemical_formula_structural   Th3Zn(Pd5Pt)2
_chemical_formula_sum   'Th3 Zn1 Pd10 Pt2'
_cell_volume   287.76350222
_cell_formula_units_Z   1
loop_
 _symmetry_equiv_pos_site_id
 _symmetry_equiv_pos_as_xyz
  1  'x, y, z'
loop_
 _atom_site_type_symbol
 _atom_site_label
 _atom_site_symmetry_multiplicity
 _atom_site_fract_x
 _atom_site_fract_y
 _atom_site_fract_z
 _atom_site_occupancy
  Th  Th0  1  0.999777  0.000223  0.492705  1
  Th  Th1  1  0.999777  0.000223  0.007295  1
  Th  Th2  1  0.667021  0.332979  0.750000  1
  Zn  Zn3  1  0.333409  0.666591  0.250000  1
  Pd  Pd4  1  0.497062  0.502938  0.492956  1
  Pd  Pd5  1  0.496787  0.994155  0.492770  1
  Pd  Pd6  1  0.005845  0.503213  0.492770  1
  Pd  Pd7  1  0.497062  0.502938  0.007044  1
  Pd  Pd8  1  0.496787  0.994155  0.007230  1
  Pd  Pd9  1  0.005845  0.503213  0.007230  1
  Pd  Pd10  1  0.825221  0.650455  0.250000  1
  Pd  Pd11  1  0.349545  0.174779  0.250000  1
  Pd  Pd12  1  0.825640  0.174360  0.250000  1
  Pd  Pd13  1  0.172903  0.827097  0.750000  1
  Pt  Pt14  1  0.172846  0.345524  0.750000  1
  Pt  Pt15  1  0.654476  0.827154  0.750000  1
