# generated using pymatgen
data_Sm7BBr12
_symmetry_space_group_name_H-M   'P 1'
_cell_length_a   9.25558620
_cell_length_b   9.25558722
_cell_length_c   9.25558544
_cell_angle_alpha   107.48352917
_cell_angle_beta   107.48353283
_cell_angle_gamma   107.48353686
_symmetry_Int_Tables_number   1
_chemical_formula_structural   Sm7BBr12
_chemical_formula_sum   'Sm7 B1 Br12'
_cell_volume   651.41857359
_cell_formula_units_Z   1
loop_
 _symmetry_equiv_pos_site_id
 _symmetry_equiv_pos_as_xyz
  1  'x, y, z'
loop_
 _atom_site_type_symbol
 _atom_site_label
 _atom_site_symmetry_multiplicity
 _atom_site_fract_x
 _atom_site_fract_y
 _atom_site_fract_z
 _atom_site_occupancy
  Sm  Sm0  1  0.475611  0.475611  0.475611  1
  Sm  Sm1  1  0.903351  0.976695  0.695527  1
  Sm  Sm2  1  0.976695  0.695527  0.903351  1
  Sm  Sm3  1  0.695527  0.903351  0.976695  1
  Sm  Sm4  1  0.041957  0.312684  0.112990  1
  Sm  Sm5  1  0.312684  0.112990  0.041957  1
  Sm  Sm6  1  0.112990  0.041957  0.312684  1
  B  B7  1  0.995935  0.995935  0.995935  1
  Br  Br8  1  0.230207  0.077757  0.692005  1
  Br  Br9  1  0.077757  0.692005  0.230207  1
  Br  Br10  1  0.692005  0.230207  0.077757  1
  Br  Br11  1  0.540354  0.836368  0.616245  1
  Br  Br12  1  0.836368  0.616245  0.540354  1
  Br  Br13  1  0.616245  0.540354  0.836368  1
  Br  Br14  1  0.925040  0.315930  0.780833  1
  Br  Br15  1  0.315930  0.780833  0.925040  1
  Br  Br16  1  0.780833  0.925040  0.315930  1
  Br  Br17  1  0.391180  0.474726  0.148808  1
  Br  Br18  1  0.474726  0.148808  0.391180  1
  Br  Br19  1  0.148808  0.391180  0.474726  1
