# generated using pymatgen
data_Tb5Nd2YSb20
_symmetry_space_group_name_H-M   'P 1'
_cell_length_a   4.21177100
_cell_length_b   13.36832801
_cell_length_c   14.87418735
_cell_angle_alpha   78.41368004
_cell_angle_beta   90.00000000
_cell_angle_gamma   90.00000000
_symmetry_Int_Tables_number   1
_chemical_formula_structural   Tb5Nd2YSb20
_chemical_formula_sum   'Tb5 Nd2 Y1 Sb20'
_cell_volume   820.41608446
_cell_formula_units_Z   1
loop_
 _symmetry_equiv_pos_site_id
 _symmetry_equiv_pos_as_xyz
  1  'x, y, z'
loop_
 _atom_site_type_symbol
 _atom_site_label
 _atom_site_symmetry_multiplicity
 _atom_site_fract_x
 _atom_site_fract_y
 _atom_site_fract_z
 _atom_site_occupancy
  Tb  Tb0  1  0.250000  0.661713  0.856795  1
  Tb  Tb1  1  0.250000  0.667698  0.576382  1
  Tb  Tb2  1  0.750000  0.332270  0.423505  1
  Tb  Tb3  1  0.250000  0.395528  0.771324  1
  Tb  Tb4  1  0.750000  0.604361  0.228695  1
  Nd  Nd5  1  0.250000  0.953393  0.359039  1
  Nd  Nd6  1  0.750000  0.046697  0.640892  1
  Y  Y7  1  0.750000  0.338501  0.143309  1
  Sb  Sb8  1  0.750000  0.846031  0.827368  1
  Sb  Sb9  1  0.250000  0.856457  0.678448  1
  Sb  Sb10  1  0.250000  0.147092  0.479601  1
  Sb  Sb11  1  0.750000  0.281516  0.937339  1
  Sb  Sb12  1  0.250000  0.145194  0.783052  1
  Sb  Sb13  1  0.750000  0.573062  0.445748  1
  Sb  Sb14  1  0.750000  0.143644  0.321462  1
  Sb  Sb15  1  0.250000  0.710839  0.350266  1
  Sb  Sb16  1  0.750000  0.289125  0.649731  1
  Sb  Sb17  1  0.750000  0.854740  0.217031  1
  Sb  Sb18  1  0.250000  0.420604  0.975186  1
  Sb  Sb19  1  0.250000  0.426906  0.554237  1
  Sb  Sb20  1  0.750000  0.575774  0.734687  1
  Sb  Sb21  1  0.250000  0.424141  0.265242  1
  Sb  Sb22  1  0.750000  0.852892  0.520377  1
  Sb  Sb23  1  0.750000  0.028660  0.901317  1
  Sb  Sb24  1  0.250000  0.718428  0.062911  1
  Sb  Sb25  1  0.250000  0.971220  0.098715  1
  Sb  Sb26  1  0.250000  0.154088  0.172496  1
  Sb  Sb27  1  0.750000  0.579427  0.024846  1
