# generated using pymatgen
data_Cs3Rb2Au6
_symmetry_space_group_name_H-M   'P 1'
_cell_length_a   15.98927877
_cell_length_b   15.98927950
_cell_length_c   5.42956400
_cell_angle_alpha   90.00000000
_cell_angle_beta   90.00000000
_cell_angle_gamma   161.60393919
_symmetry_Int_Tables_number   1
_chemical_formula_structural   Cs3Rb2Au6
_chemical_formula_sum   'Cs3 Rb2 Au6'
_cell_volume   438.06385992
_cell_formula_units_Z   1
loop_
 _symmetry_equiv_pos_site_id
 _symmetry_equiv_pos_as_xyz
  1  'x, y, z'
loop_
 _atom_site_type_symbol
 _atom_site_label
 _atom_site_symmetry_multiplicity
 _atom_site_fract_x
 _atom_site_fract_y
 _atom_site_fract_z
 _atom_site_occupancy
  Cs  Cs0  1  0.614707  0.385293  0.000000  1
  Cs  Cs1  1  0.384202  0.615798  0.000000  1
  Cs  Cs2  1  0.192117  0.807882  0.500000  1
  Rb  Rb3  1  0.999202  0.000798  0.000000  1
  Rb  Rb4  1  0.807763  0.192236  0.500000  1
  Au  Au5  1  0.740909  0.259091  0.000000  1
  Au  Au6  1  0.263522  0.736478  0.000000  1
  Au  Au7  1  0.927506  0.072494  0.500000  1
  Au  Au8  1  0.545736  0.454263  0.500000  1
  Au  Au9  1  0.453260  0.546739  0.500000  1
  Au  Au10  1  0.071072  0.928928  0.500000  1
