# generated using pymatgen
data_YbRh4Pb3O14
_symmetry_space_group_name_H-M   'P 1'
_cell_length_a   7.26959022
_cell_length_b   7.23970174
_cell_length_c   7.23970300
_cell_angle_alpha   59.99999880
_cell_angle_beta   60.13591122
_cell_angle_gamma   60.13590100
_symmetry_Int_Tables_number   1
_chemical_formula_structural   YbRh4Pb3O14
_chemical_formula_sum   'Yb1 Rh4 Pb3 O14'
_cell_volume   269.97617659
_cell_formula_units_Z   1
loop_
 _symmetry_equiv_pos_site_id
 _symmetry_equiv_pos_as_xyz
  1  'x, y, z'
loop_
 _atom_site_type_symbol
 _atom_site_label
 _atom_site_symmetry_multiplicity
 _atom_site_fract_x
 _atom_site_fract_y
 _atom_site_fract_z
 _atom_site_occupancy
  Yb  Yb0  1  0.625000  0.125000  0.125000  1
  Rh  Rh1  1  0.125000  0.625000  0.625000  1
  Rh  Rh2  1  0.625000  0.125000  0.625000  1
  Rh  Rh3  1  0.625000  0.625000  0.125000  1
  Rh  Rh4  1  0.625000  0.625000  0.625000  1
  Pb  Pb5  1  0.125000  0.625000  0.125000  1
  Pb  Pb6  1  0.125000  0.125000  0.625000  1
  Pb  Pb7  1  0.125000  0.125000  0.125000  1
  O  O8  1  0.711267  0.699673  0.294530  1
  O  O9  1  0.291315  0.292787  0.707949  1
  O  O10  1  0.711267  0.294530  0.699673  1
  O  O11  1  0.291315  0.707949  0.292787  1
  O  O12  1  0.291315  0.707949  0.707949  1
  O  O13  1  0.711267  0.294530  0.294530  1
  O  O14  1  0.538733  0.550327  0.955470  1
  O  O15  1  0.958685  0.957213  0.542051  1
  O  O16  1  0.538733  0.955470  0.550327  1
  O  O17  1  0.958685  0.542051  0.957213  1
  O  O18  1  0.958685  0.542051  0.542051  1
  O  O19  1  0.538733  0.955470  0.955470  1
  O  O20  1  0.251159  0.249613  0.249613  1
  O  O21  1  0.998841  0.000387  0.000387  1
