# generated using pymatgen
data_Dy2HgRhAu
_symmetry_space_group_name_H-M   'P 1'
_cell_length_a   7.64061100
_cell_length_b   7.87723900
_cell_length_c   3.76039900
_cell_angle_alpha   90.00000000
_cell_angle_beta   90.00000000
_cell_angle_gamma   90.00000000
_symmetry_Int_Tables_number   1
_chemical_formula_structural   Dy2HgRhAu
_chemical_formula_sum   'Dy4 Hg2 Rh2 Au2'
_cell_volume   226.32682984
_cell_formula_units_Z   2
loop_
 _symmetry_equiv_pos_site_id
 _symmetry_equiv_pos_as_xyz
  1  'x, y, z'
loop_
 _atom_site_type_symbol
 _atom_site_label
 _atom_site_symmetry_multiplicity
 _atom_site_fract_x
 _atom_site_fract_y
 _atom_site_fract_z
 _atom_site_occupancy
  Dy  Dy0  1  0.329441  0.186271  0.500001  1
  Dy  Dy1  1  0.829440  0.313729  0.500001  1
  Dy  Dy2  1  0.176940  0.646469  0.500001  1
  Dy  Dy3  1  0.676940  0.853530  0.500001  1
  Hg  Hg4  1  0.997451  0.007165  0.000000  1
  Hg  Hg5  1  0.497451  0.492835  0.000000  1
  Rh  Rh6  1  0.630363  0.129964  0.000000  1
  Rh  Rh7  1  0.130364  0.370036  0.000000  1
  Au  Au8  1  0.865804  0.622878  0.000000  1
  Au  Au9  1  0.365803  0.877122  0.000000  1
