# generated using pymatgen
data_Tb7NdCu2(Si6Pd)2
_symmetry_space_group_name_H-M   'P 1'
_cell_length_a   8.10643500
_cell_length_b   8.10643506
_cell_length_c   8.23372200
_cell_angle_alpha   90.00000000
_cell_angle_beta   90.00000000
_cell_angle_gamma   119.99999568
_symmetry_Int_Tables_number   1
_chemical_formula_structural   Tb7NdCu2(Si6Pd)2
_chemical_formula_sum   'Tb7 Nd1 Cu2 Si12 Pd2'
_cell_volume   468.58314484
_cell_formula_units_Z   1
loop_
 _symmetry_equiv_pos_site_id
 _symmetry_equiv_pos_as_xyz
  1  'x, y, z'
loop_
 _atom_site_type_symbol
 _atom_site_label
 _atom_site_symmetry_multiplicity
 _atom_site_fract_x
 _atom_site_fract_y
 _atom_site_fract_z
 _atom_site_occupancy
  Tb  Tb0  1  0.499548  0.500452  0.750307  1
  Tb  Tb1  1  0.500457  0.499543  0.249642  1
  Tb  Tb2  1  0.000904  0.500452  0.750307  1
  Tb  Tb3  1  0.999087  0.499543  0.249642  1
  Tb  Tb4  1  0.499548  0.999096  0.750307  1
  Tb  Tb5  1  0.500457  0.000913  0.249642  1
  Tb  Tb6  1  0.000000  0.000000  0.749925  1
  Nd  Nd7  1  0.000000  0.000000  0.249609  1
  Cu  Cu8  1  0.666667  0.333333  0.999761  1
  Cu  Cu9  1  0.333333  0.666667  0.001194  1
  Si  Si10  1  0.830424  0.169576  0.996559  1
  Si  Si11  1  0.169591  0.830409  0.997671  1
  Si  Si12  1  0.339152  0.169576  0.996559  1
  Si  Si13  1  0.166297  0.833703  0.502385  1
  Si  Si14  1  0.660817  0.830409  0.997671  1
  Si  Si15  1  0.833710  0.166290  0.503608  1
  Si  Si16  1  0.830424  0.660848  0.996559  1
  Si  Si17  1  0.667406  0.833703  0.502385  1
  Si  Si18  1  0.169591  0.339183  0.997671  1
  Si  Si19  1  0.332581  0.166290  0.503608  1
  Si  Si20  1  0.166297  0.332594  0.502385  1
  Si  Si21  1  0.833710  0.667419  0.503608  1
  Pd  Pd22  1  0.333333  0.666667  0.498767  1
  Pd  Pd23  1  0.666667  0.333333  0.500227  1
