# generated using pymatgen
data_Dy16CdHg3PtRh3
_symmetry_space_group_name_H-M   'P 1'
_cell_length_a   9.61086231
_cell_length_b   9.59478866
_cell_length_c   9.61638426
_cell_angle_alpha   59.98025636
_cell_angle_beta   60.01899216
_cell_angle_gamma   59.94456513
_symmetry_Int_Tables_number   1
_chemical_formula_structural   Dy16CdHg3PtRh3
_chemical_formula_sum   'Dy16 Cd1 Hg3 Pt1 Rh3'
_cell_volume   626.77221839
_cell_formula_units_Z   1
loop_
 _symmetry_equiv_pos_site_id
 _symmetry_equiv_pos_as_xyz
  1  'x, y, z'
loop_
 _atom_site_type_symbol
 _atom_site_label
 _atom_site_symmetry_multiplicity
 _atom_site_fract_x
 _atom_site_fract_y
 _atom_site_fract_z
 _atom_site_occupancy
  Dy  Dy0  1  0.563788  0.563580  0.937654  1
  Dy  Dy1  1  0.146890  0.558322  0.147899  1
  Dy  Dy2  1  0.689026  0.311650  0.310299  1
  Dy  Dy3  1  0.936556  0.563912  0.562977  1
  Dy  Dy4  1  0.934977  0.563580  0.937654  1
  Dy  Dy5  1  0.689161  0.689861  0.311298  1
  Dy  Dy6  1  0.563604  0.935895  0.936896  1
  Dy  Dy7  1  0.149379  0.146831  0.150686  1
  Dy  Dy8  1  0.309679  0.689861  0.311298  1
  Dy  Dy9  1  0.553103  0.146831  0.150686  1
  Dy  Dy10  1  0.309078  0.311469  0.686971  1
  Dy  Dy11  1  0.309323  0.693714  0.687640  1
  Dy  Dy12  1  0.149815  0.148096  0.552274  1
  Dy  Dy13  1  0.692482  0.311469  0.686971  1
  Dy  Dy14  1  0.935669  0.936996  0.563285  1
  Dy  Dy15  1  0.564049  0.936996  0.563285  1
  Cd  Cd16  1  0.919129  0.242198  0.919543  1
  Hg  Hg17  1  0.914005  0.916342  0.914173  1
  Hg  Hg18  1  0.255479  0.916342  0.914173  1
  Hg  Hg19  1  0.913312  0.915828  0.257547  1
  Pt  Pt20  1  0.357117  0.357075  0.928689  1
  Rh  Rh21  1  0.357680  0.357538  0.355830  1
  Rh  Rh22  1  0.928951  0.357538  0.355830  1
  Rh  Rh23  1  0.357745  0.928072  0.356438  1
