# generated using pymatgen
data_Tb4ErTm3(SiBr6)2
_symmetry_space_group_name_H-M   'P 1'
_cell_length_a   4.03740200
_cell_length_b   13.20107253
_cell_length_c   13.94932756
_cell_angle_alpha   90.03244355
_cell_angle_beta   90.00000000
_cell_angle_gamma   90.00000000
_symmetry_Int_Tables_number   1
_chemical_formula_structural   Tb4ErTm3(SiBr6)2
_chemical_formula_sum   'Tb4 Er1 Tm3 Si2 Br12'
_cell_volume   743.47165203
_cell_formula_units_Z   1
loop_
 _symmetry_equiv_pos_site_id
 _symmetry_equiv_pos_as_xyz
  1  'x, y, z'
loop_
 _atom_site_type_symbol
 _atom_site_label
 _atom_site_symmetry_multiplicity
 _atom_site_fract_x
 _atom_site_fract_y
 _atom_site_fract_z
 _atom_site_occupancy
  Tb  Tb0  1  0.000000  0.118978  0.579260  1
  Tb  Tb1  1  0.000000  0.881032  0.420702  1
  Tb  Tb2  1  0.000000  0.618935  0.920749  1
  Tb  Tb3  1  0.000000  0.381067  0.079235  1
  Er  Er4  1  0.500000  0.117545  0.341953  1
  Tm  Tm5  1  0.500000  0.882581  0.658019  1
  Tm  Tm6  1  0.500000  0.617337  0.157918  1
  Tm  Tm7  1  0.500000  0.382653  0.842081  1
  Si  Si8  1  0.500000  0.999738  0.500371  1
  Si  Si9  1  0.500000  0.500000  0.999995  1
  Br  Br10  1  0.500000  0.241874  0.164897  1
  Br  Br11  1  0.500000  0.758452  0.834618  1
  Br  Br12  1  0.500000  0.741436  0.334549  1
  Br  Br13  1  0.500000  0.258512  0.665498  1
  Br  Br14  1  0.000000  0.254689  0.408876  1
  Br  Br15  1  0.000000  0.745981  0.591675  1
  Br  Br16  1  0.000000  0.753883  0.091736  1
  Br  Br17  1  0.000000  0.246078  0.908258  1
  Br  Br18  1  0.000000  0.004635  0.242510  1
  Br  Br19  1  0.000000  0.994610  0.757094  1
  Br  Br20  1  0.000000  0.505459  0.257047  1
  Br  Br21  1  0.000000  0.494526  0.742960  1
