# generated using pymatgen
data_Dy4HoCo7(PRu)12
_symmetry_space_group_name_H-M   'P 1'
_cell_length_a   12.38897400
_cell_length_b   12.38942656
_cell_length_c   3.81474200
_cell_angle_alpha   90.00000000
_cell_angle_beta   90.00000000
_cell_angle_gamma   120.00098172
_symmetry_Int_Tables_number   1
_chemical_formula_structural   Dy4HoCo7(PRu)12
_chemical_formula_sum   'Dy4 Ho1 Co7 P12 Ru12'
_cell_volume   507.08183528
_cell_formula_units_Z   1
loop_
 _symmetry_equiv_pos_site_id
 _symmetry_equiv_pos_as_xyz
  1  'x, y, z'
loop_
 _atom_site_type_symbol
 _atom_site_label
 _atom_site_symmetry_multiplicity
 _atom_site_fract_x
 _atom_site_fract_y
 _atom_site_fract_z
 _atom_site_occupancy
  Dy  Dy0  1  0.666664  0.333329  0.000000  1
  Dy  Dy1  1  0.333331  0.666668  0.000000  1
  Dy  Dy2  1  0.818368  0.000189  0.500000  1
  Dy  Dy3  1  0.999813  0.818180  0.500000  1
  Ho  Ho4  1  0.181840  0.181664  0.500000  1
  Co  Co5  1  0.194419  0.824006  0.000000  1
  Co  Co6  1  0.629588  0.805581  0.000000  1
  Co  Co7  1  0.176003  0.370370  0.000000  1
  Co  Co8  1  0.716041  0.722665  0.500000  1
  Co  Co9  1  0.277324  0.993387  0.500000  1
  Co  Co10  1  0.006661  0.283952  0.500000  1
  Co  Co11  1  0.000064  0.000064  0.000000  1
  P  P12  1  0.363942  0.367325  0.000000  1
  P  P13  1  0.632613  0.996607  0.000000  1
  P  P14  1  0.003388  0.636002  0.000000  1
  P  P15  1  0.837590  0.312811  0.500000  1
  P  P16  1  0.687186  0.524781  0.500000  1
  P  P17  1  0.475227  0.162411  0.500000  1
  P  P18  1  0.316503  0.839270  0.500000  1
  P  P19  1  0.522769  0.683502  0.500000  1
  P  P20  1  0.160734  0.477244  0.500000  1
  P  P21  1  0.818444  0.824491  0.000000  1
  P  P22  1  0.175500  0.994007  0.000000  1
  P  P23  1  0.006116  0.181536  0.000000  1
  Ru  Ru24  1  0.550056  0.561604  0.000000  1
  Ru  Ru25  1  0.438396  0.988444  0.000000  1
  Ru  Ru26  1  0.011552  0.449950  0.000000  1
  Ru  Ru27  1  0.826765  0.197549  0.000000  1
  Ru  Ru28  1  0.802451  0.629215  0.000000  1
  Ru  Ru29  1  0.370705  0.173241  0.000000  1
  Ru  Ru30  1  0.638420  0.123504  0.500000  1
  Ru  Ru31  1  0.876492  0.514911  0.500000  1
  Ru  Ru32  1  0.485066  0.361572  0.500000  1
  Ru  Ru33  1  0.131158  0.649060  0.500000  1
  Ru  Ru34  1  0.517892  0.868838  0.500000  1
  Ru  Ru35  1  0.350922  0.482069  0.500000  1
