# generated using pymatgen
data_Ho2AlB2Ir4Ru
_symmetry_space_group_name_H-M   'P 1'
_cell_length_a   9.63694500
_cell_length_b   9.63694500
_cell_length_c   3.07734300
_cell_angle_alpha   90.00000000
_cell_angle_beta   90.00000000
_cell_angle_gamma   90.00000000
_symmetry_Int_Tables_number   1
_chemical_formula_structural   Ho2AlB2Ir4Ru
_chemical_formula_sum   'Ho4 Al2 B4 Ir8 Ru2'
_cell_volume   285.79502604
_cell_formula_units_Z   2
loop_
 _symmetry_equiv_pos_site_id
 _symmetry_equiv_pos_as_xyz
  1  'x, y, z'
loop_
 _atom_site_type_symbol
 _atom_site_label
 _atom_site_symmetry_multiplicity
 _atom_site_fract_x
 _atom_site_fract_y
 _atom_site_fract_z
 _atom_site_occupancy
  Ho  Ho0  1  0.175018  0.675018  0.000000  1
  Ho  Ho1  1  0.324982  0.175018  0.000000  1
  Ho  Ho2  1  0.675018  0.824982  0.000000  1
  Ho  Ho3  1  0.824982  0.324982  0.000000  1
  Al  Al4  1  0.000000  0.000000  0.000000  1
  Al  Al5  1  0.500000  0.500000  0.000000  1
  B  B6  1  0.121229  0.378771  0.000000  1
  B  B7  1  0.378771  0.878771  0.000000  1
  B  B8  1  0.621229  0.121229  0.000000  1
  B  B9  1  0.878771  0.621229  0.000000  1
  Ir  Ir10  1  0.069011  0.217358  0.500000  1
  Ir  Ir11  1  0.217358  0.930989  0.500000  1
  Ir  Ir12  1  0.282642  0.430989  0.500000  1
  Ir  Ir13  1  0.430989  0.717358  0.500000  1
  Ir  Ir14  1  0.569011  0.282642  0.500000  1
  Ir  Ir15  1  0.717358  0.569011  0.500000  1
  Ir  Ir16  1  0.782642  0.069011  0.500000  1
  Ir  Ir17  1  0.930989  0.782642  0.500000  1
  Ru  Ru18  1  0.000000  0.500000  0.500000  1
  Ru  Ru19  1  0.500000  0.000000  0.500000  1
