# generated using pymatgen
data_SrLaGaIr2
_symmetry_space_group_name_H-M   'P 1'
_cell_length_a   5.86381822
_cell_length_b   5.86381828
_cell_length_c   7.98357558
_cell_angle_alpha   101.56394529
_cell_angle_beta   101.56394669
_cell_angle_gamma   60.07918132
_symmetry_Int_Tables_number   1
_chemical_formula_structural   SrLaGaIr2
_chemical_formula_sum   'Sr2 La2 Ga2 Ir4'
_cell_volume   231.45535477
_cell_formula_units_Z   2
loop_
 _symmetry_equiv_pos_site_id
 _symmetry_equiv_pos_as_xyz
  1  'x, y, z'
loop_
 _atom_site_type_symbol
 _atom_site_label
 _atom_site_symmetry_multiplicity
 _atom_site_fract_x
 _atom_site_fract_y
 _atom_site_fract_z
 _atom_site_occupancy
  Sr  Sr0  1  0.788088  0.504409  0.647563  1
  Sr  Sr1  1  0.495590  0.211912  0.852437  1
  La  La2  1  0.498979  0.791684  0.139365  1
  La  La3  1  0.208316  0.501021  0.360634  1
  Ga  Ga4  1  0.899135  0.100864  0.250000  1
  Ga  Ga5  1  0.094497  0.905503  0.750000  1
  Ir  Ir6  1  0.001321  0.289396  0.023647  1
  Ir  Ir7  1  0.710604  0.998679  0.476352  1
  Ir  Ir8  1  0.281732  0.978264  0.500928  1
  Ir  Ir9  1  0.021737  0.718268  0.999071  1
