# generated using pymatgen
data_LaHo4HgPd14
_symmetry_space_group_name_H-M   'P 1'
_cell_length_a   4.18673000
_cell_length_b   4.12431200
_cell_length_c   21.02636300
_cell_angle_alpha   90.00000000
_cell_angle_beta   90.00000000
_cell_angle_gamma   90.00000000
_symmetry_Int_Tables_number   1
_chemical_formula_structural   LaHo4HgPd14
_chemical_formula_sum   'La1 Ho4 Hg1 Pd14'
_cell_volume   363.07021633
_cell_formula_units_Z   1
loop_
 _symmetry_equiv_pos_site_id
 _symmetry_equiv_pos_as_xyz
  1  'x, y, z'
loop_
 _atom_site_type_symbol
 _atom_site_label
 _atom_site_symmetry_multiplicity
 _atom_site_fract_x
 _atom_site_fract_y
 _atom_site_fract_z
 _atom_site_occupancy
  La  La0  1  0.000000  0.000000  0.000000  1
  Ho  Ho1  1  0.000000  0.000000  0.198487  1
  Ho  Ho2  1  0.000000  0.000000  0.388810  1
  Ho  Ho3  1  0.000000  0.000000  0.611190  1
  Ho  Ho4  1  0.000000  0.000000  0.801513  1
  Hg  Hg5  1  0.500000  0.000000  0.500000  1
  Pd  Pd6  1  0.500000  0.500000  0.000000  1
  Pd  Pd7  1  0.500000  0.500000  0.199324  1
  Pd  Pd8  1  0.500000  0.500000  0.396549  1
  Pd  Pd9  1  0.500000  0.500000  0.603451  1
  Pd  Pd10  1  0.500000  0.500000  0.800676  1
  Pd  Pd11  1  0.500000  0.000000  0.102407  1
  Pd  Pd12  1  0.500000  0.000000  0.297212  1
  Pd  Pd13  1  0.500000  0.000000  0.702788  1
  Pd  Pd14  1  0.500000  0.000000  0.897593  1
  Pd  Pd15  1  0.000000  0.500000  0.102364  1
  Pd  Pd16  1  0.000000  0.500000  0.296785  1
  Pd  Pd17  1  0.000000  0.500000  0.500000  1
  Pd  Pd18  1  0.000000  0.500000  0.703215  1
  Pd  Pd19  1  0.000000  0.500000  0.897636  1
