# generated using pymatgen
data_Dy15Lu5Rh11Au
_symmetry_space_group_name_H-M   'P 1'
_cell_length_a   10.89138480
_cell_length_b   10.89118494
_cell_length_c   6.32898300
_cell_angle_alpha   89.96165440
_cell_angle_beta   89.95890379
_cell_angle_gamma   89.78522831
_symmetry_Int_Tables_number   1
_chemical_formula_structural   Dy15Lu5Rh11Au
_chemical_formula_sum   'Dy15 Lu5 Rh11 Au1'
_cell_volume   750.73887400
_cell_formula_units_Z   1
loop_
 _symmetry_equiv_pos_site_id
 _symmetry_equiv_pos_as_xyz
  1  'x, y, z'
loop_
 _atom_site_type_symbol
 _atom_site_label
 _atom_site_symmetry_multiplicity
 _atom_site_fract_x
 _atom_site_fract_y
 _atom_site_fract_z
 _atom_site_occupancy
  Dy  Dy0  1  0.290809  0.912409  0.877033  1
  Dy  Dy1  1  0.705781  0.084924  0.867575  1
  Dy  Dy2  1  0.707816  0.906195  0.380549  1
  Dy  Dy3  1  0.587424  0.789384  0.880377  1
  Dy  Dy4  1  0.579993  0.211328  0.379561  1
  Dy  Dy5  1  0.410906  0.790432  0.378601  1
  Dy  Dy6  1  0.409879  0.210156  0.879181  1
  Dy  Dy7  1  0.210835  0.412025  0.619785  1
  Dy  Dy8  1  0.210186  0.588656  0.121630  1
  Dy  Dy9  1  0.788699  0.418528  0.120613  1
  Dy  Dy10  1  0.789487  0.589223  0.621371  1
  Dy  Dy11  1  0.911687  0.711053  0.121578  1
  Dy  Dy12  1  0.915308  0.293825  0.632694  1
  Dy  Dy13  1  0.088551  0.708931  0.622528  1
  Dy  Dy14  1  0.095484  0.290960  0.120211  1
  Lu  Lu15  1  0.291001  0.087345  0.380160  1
  Lu  Lu16  1  0.004838  0.996937  0.500781  1
  Lu  Lu17  1  0.003714  0.996651  0.997251  1
  Lu  Lu18  1  0.499214  0.499577  0.999080  1
  Lu  Lu19  1  0.499852  0.500696  0.500633  1
  Rh  Rh20  1  0.848867  0.850724  0.749368  1
  Rh  Rh21  1  0.150483  0.150527  0.747258  1
  Rh  Rh22  1  0.153068  0.849720  0.251041  1
  Rh  Rh23  1  0.652617  0.347330  0.749814  1
  Rh  Rh24  1  0.651423  0.650610  0.249204  1
  Rh  Rh25  1  0.349147  0.346675  0.252005  1
  Rh  Rh26  1  0.348487  0.651216  0.750008  1
  Rh  Rh27  1  0.499239  0.001031  0.127444  1
  Rh  Rh28  1  0.498922  0.000989  0.622686  1
  Rh  Rh29  1  0.999862  0.499611  0.876744  1
  Rh  Rh30  1  0.000023  0.498968  0.373457  1
  Au  Au31  1  0.846397  0.153364  0.249778  1
