# generated using pymatgen
data_Ca3Pr17Si15Bi
_symmetry_space_group_name_H-M   'P 1'
_cell_length_a   7.97261126
_cell_length_b   7.95475037
_cell_length_c   15.25177300
_cell_angle_alpha   90.16499996
_cell_angle_beta   89.65413673
_cell_angle_gamma   89.78913881
_symmetry_Int_Tables_number   1
_chemical_formula_structural   Ca3Pr17Si15Bi
_chemical_formula_sum   'Ca3 Pr17 Si15 Bi1'
_cell_volume   967.24121532
_cell_formula_units_Z   1
loop_
 _symmetry_equiv_pos_site_id
 _symmetry_equiv_pos_as_xyz
  1  'x, y, z'
loop_
 _atom_site_type_symbol
 _atom_site_label
 _atom_site_symmetry_multiplicity
 _atom_site_fract_x
 _atom_site_fract_y
 _atom_site_fract_z
 _atom_site_occupancy
  Ca  Ca0  1  0.310249  0.309307  0.001665  1
  Ca  Ca1  1  0.190304  0.809736  0.250337  1
  Ca  Ca2  1  0.800065  0.189438  0.752049  1
  Pr  Pr3  1  0.688219  0.695115  0.495446  1
  Pr  Pr4  1  0.377369  0.012696  0.447672  1
  Pr  Pr5  1  0.498073  0.869161  0.699526  1
  Pr  Pr6  1  0.508943  0.119769  0.196686  1
  Pr  Pr7  1  0.875784  0.490157  0.299393  1
  Pr  Pr8  1  0.118899  0.516567  0.808878  1
  Pr  Pr9  1  0.624249  0.987127  0.950107  1
  Pr  Pr10  1  0.000636  0.385783  0.542993  1
  Pr  Pr11  1  0.988950  0.620634  0.054127  1
  Pr  Pr12  1  0.128001  0.982913  0.879408  1
  Pr  Pr13  1  0.515741  0.626459  0.126482  1
  Pr  Pr14  1  0.494143  0.386285  0.627228  1
  Pr  Pr15  1  0.628452  0.517972  0.876827  1
  Pr  Pr16  1  0.375626  0.481825  0.371918  1
  Pr  Pr17  1  0.873077  0.018571  0.375593  1
  Pr  Pr18  1  0.984414  0.126187  0.124643  1
  Pr  Pr19  1  0.006629  0.855285  0.620735  1
  Si  Si20  1  0.331021  0.698093  0.953367  1
  Si  Si21  1  0.666660  0.303777  0.451210  1
  Si  Si22  1  0.699577  0.330835  0.050686  1
  Si  Si23  1  0.305195  0.670963  0.545713  1
  Si  Si24  1  0.799237  0.834863  0.199001  1
  Si  Si25  1  0.165161  0.201791  0.299951  1
  Si  Si26  1  0.838002  0.798766  0.801554  1
  Si  Si27  1  0.287414  0.919291  0.060779  1
  Si  Si28  1  0.581450  0.789187  0.308554  1
  Si  Si29  1  0.436333  0.210883  0.819497  1
  Si  Si30  1  0.789208  0.579376  0.692102  1
  Si  Si31  1  0.212901  0.417349  0.189542  1
  Si  Si32  1  0.705480  0.079316  0.560074  1
  Si  Si33  1  0.921228  0.287722  0.941458  1
  Si  Si34  1  0.079154  0.711776  0.437496  1
  Bi  Bi35  1  0.194159  0.165029  0.687304  1
