# generated using pymatgen
data_Sc4C2Br3
_symmetry_space_group_name_H-M   'P 1'
_cell_length_a   3.48781300
_cell_length_b   10.05777700
_cell_length_c   19.45102300
_cell_angle_alpha   90.00000000
_cell_angle_beta   90.00000000
_cell_angle_gamma   90.00000000
_symmetry_Int_Tables_number   1
_chemical_formula_structural   Sc4C2Br3
_chemical_formula_sum   'Sc16 C8 Br12'
_cell_volume   682.33498896
_cell_formula_units_Z   4
loop_
 _symmetry_equiv_pos_site_id
 _symmetry_equiv_pos_as_xyz
  1  'x, y, z'
loop_
 _atom_site_type_symbol
 _atom_site_label
 _atom_site_symmetry_multiplicity
 _atom_site_fract_x
 _atom_site_fract_y
 _atom_site_fract_z
 _atom_site_occupancy
  Sc  Sc0  1  0.250000  0.867250  0.586730  1
  Sc  Sc1  1  0.750000  0.132750  0.413270  1
  Sc  Sc2  1  0.750000  0.632750  0.086730  1
  Sc  Sc3  1  0.250000  0.367250  0.913270  1
  Sc  Sc4  1  0.250000  0.865857  0.743520  1
  Sc  Sc5  1  0.750000  0.134143  0.256480  1
  Sc  Sc6  1  0.750000  0.634143  0.243520  1
  Sc  Sc7  1  0.250000  0.365857  0.756480  1
  Sc  Sc8  1  0.250000  0.864300  0.171858  1
  Sc  Sc9  1  0.750000  0.135700  0.828142  1
  Sc  Sc10  1  0.750000  0.635700  0.671858  1
  Sc  Sc11  1  0.250000  0.364300  0.328142  1
  Sc  Sc12  1  0.250000  0.902410  0.325217  1
  Sc  Sc13  1  0.750000  0.097590  0.674783  1
  Sc  Sc14  1  0.750000  0.597590  0.825217  1
  Sc  Sc15  1  0.250000  0.402410  0.174783  1
  C  C16  1  0.250000  0.616253  0.750134  1
  C  C17  1  0.750000  0.383747  0.249866  1
  C  C18  1  0.750000  0.883747  0.250134  1
  C  C19  1  0.250000  0.116253  0.749866  1
  C  C20  1  0.250000  0.631712  0.159059  1
  C  C21  1  0.750000  0.368288  0.840941  1
  C  C22  1  0.750000  0.868288  0.659059  1
  C  C23  1  0.250000  0.131712  0.340941  1
  Br  Br24  1  0.250000  0.615184  0.557766  1
  Br  Br25  1  0.750000  0.384816  0.442234  1
  Br  Br26  1  0.750000  0.884816  0.057766  1
  Br  Br27  1  0.250000  0.115184  0.942234  1
  Br  Br28  1  0.250000  0.625311  0.950852  1
  Br  Br29  1  0.750000  0.374689  0.049148  1
  Br  Br30  1  0.750000  0.874689  0.450852  1
  Br  Br31  1  0.250000  0.125311  0.549148  1
  Br  Br32  1  0.250000  0.635352  0.354023  1
  Br  Br33  1  0.750000  0.364648  0.645977  1
  Br  Br34  1  0.750000  0.864648  0.854023  1
  Br  Br35  1  0.250000  0.135352  0.145977  1
