# generated using pymatgen
data_HoEr3Ga7Ag5
_symmetry_space_group_name_H-M   'P 1'
_cell_length_a   4.33215800
_cell_length_b   6.98474141
_cell_length_c   10.29169200
_cell_angle_alpha   89.97973179
_cell_angle_beta   90.00000000
_cell_angle_gamma   90.00000000
_symmetry_Int_Tables_number   1
_chemical_formula_structural   HoEr3Ga7Ag5
_chemical_formula_sum   'Ho1 Er3 Ga7 Ag5'
_cell_volume   311.41632370
_cell_formula_units_Z   1
loop_
 _symmetry_equiv_pos_site_id
 _symmetry_equiv_pos_as_xyz
  1  'x, y, z'
loop_
 _atom_site_type_symbol
 _atom_site_label
 _atom_site_symmetry_multiplicity
 _atom_site_fract_x
 _atom_site_fract_y
 _atom_site_fract_z
 _atom_site_occupancy
  Ho  Ho0  1  0.000000  0.216196  0.829097  1
  Er  Er1  1  0.500000  0.780964  0.173600  1
  Er  Er2  1  0.500000  0.276992  0.327593  1
  Er  Er3  1  0.000000  0.723502  0.670291  1
  Ga  Ga4  1  0.500000  0.923575  0.845778  1
  Ga  Ga5  1  0.500000  0.427334  0.656013  1
  Ga  Ga6  1  0.000000  0.076821  0.153967  1
  Ga  Ga7  1  0.000000  0.573659  0.343383  1
  Ga  Ga8  1  0.500000  0.202055  0.035725  1
  Ga  Ga9  1  0.000000  0.300124  0.535366  1
  Ga  Ga10  1  0.000000  0.795794  0.964350  1
  Ag  Ag11  1  0.500000  0.541376  0.903715  1
  Ag  Ag12  1  0.500000  0.046980  0.600779  1
  Ag  Ag13  1  0.000000  0.457432  0.096934  1
  Ag  Ag14  1  0.000000  0.961295  0.401321  1
  Ag  Ag15  1  0.500000  0.695904  0.462090  1
