# generated using pymatgen
data_Ce2Pa(GaNi)3
_symmetry_space_group_name_H-M   'P 1'
_cell_length_a   6.83965347
_cell_length_b   6.87986040
_cell_length_c   4.02413800
_cell_angle_alpha   90.00000000
_cell_angle_beta   90.00000000
_cell_angle_gamma   120.19464642
_symmetry_Int_Tables_number   1
_chemical_formula_structural   Ce2Pa(GaNi)3
_chemical_formula_sum   'Ce2 Pa1 Ga3 Ni3'
_cell_volume   163.66735244
_cell_formula_units_Z   1
loop_
 _symmetry_equiv_pos_site_id
 _symmetry_equiv_pos_as_xyz
  1  'x, y, z'
loop_
 _atom_site_type_symbol
 _atom_site_label
 _atom_site_symmetry_multiplicity
 _atom_site_fract_x
 _atom_site_fract_y
 _atom_site_fract_z
 _atom_site_occupancy
  Ce  Ce0  1  0.422213  0.422517  0.500000  1
  Ce  Ce1  1  0.577787  0.000304  0.500000  1
  Pa  Pa2  1  0.000000  0.578004  0.500000  1
  Ga  Ga3  1  0.240605  0.001897  0.000000  1
  Ga  Ga4  1  0.759395  0.761292  0.000000  1
  Ga  Ga5  1  0.000000  0.236415  0.000000  1
  Ni  Ni6  1  0.684106  0.348337  0.000000  1
  Ni  Ni7  1  0.315894  0.664232  0.000000  1
  Ni  Ni8  1  0.000000  0.987001  0.500000  1
