# generated using pymatgen
data_Sr4MnFe3O10
_symmetry_space_group_name_H-M   'P 1'
_cell_length_a   5.53844777
_cell_length_b   5.70632965
_cell_length_c   8.98806454
_cell_angle_alpha   108.85021772
_cell_angle_beta   107.94576352
_cell_angle_gamma   89.99714689
_symmetry_Int_Tables_number   1
_chemical_formula_structural   Sr4MnFe3O10
_chemical_formula_sum   'Sr4 Mn1 Fe3 O10'
_cell_volume   254.18010230
_cell_formula_units_Z   1
loop_
 _symmetry_equiv_pos_site_id
 _symmetry_equiv_pos_as_xyz
  1  'x, y, z'
loop_
 _atom_site_type_symbol
 _atom_site_label
 _atom_site_symmetry_multiplicity
 _atom_site_fract_x
 _atom_site_fract_y
 _atom_site_fract_z
 _atom_site_occupancy
  Sr  Sr0  1  0.611850  0.130773  0.220240  1
  Sr  Sr1  1  0.391608  0.869531  0.779730  1
  Sr  Sr2  1  0.113742  0.592973  0.218665  1
  Sr  Sr3  1  0.895036  0.406812  0.781293  1
  Mn  Mn4  1  0.007938  0.999805  0.000008  1
  Fe  Fe5  1  0.219304  0.185015  0.507562  1
  Fe  Fe6  1  0.711785  0.815161  0.492451  1
  Fe  Fe7  1  0.507955  0.499915  0.999972  1
  O  O8  1  0.867680  0.123634  0.499018  1
  O  O9  1  0.368667  0.876562  0.500973  1
  O  O10  1  0.246832  0.240978  0.984991  1
  O  O11  1  0.262048  0.758799  0.015051  1
  O  O12  1  0.752584  0.236662  0.985889  1
  O  O13  1  0.766533  0.763017  0.014127  1
  O  O14  1  0.184246  0.213850  0.301394  1
  O  O15  1  0.882884  0.786294  0.698635  1
  O  O16  1  0.652867  0.597042  0.268427  1
  O  O17  1  0.384443  0.403175  0.731576  1
