# generated using pymatgen
data_Sr(Sn2Ir)2
_symmetry_space_group_name_H-M   'P 1'
_cell_length_a   4.53761100
_cell_length_b   7.32973800
_cell_length_c   18.87344700
_cell_angle_alpha   90.00000000
_cell_angle_beta   90.00000000
_cell_angle_gamma   90.00000000
_symmetry_Int_Tables_number   1
_chemical_formula_structural   Sr(Sn2Ir)2
_chemical_formula_sum   'Sr4 Sn16 Ir8'
_cell_volume   627.72140627
_cell_formula_units_Z   4
loop_
 _symmetry_equiv_pos_site_id
 _symmetry_equiv_pos_as_xyz
  1  'x, y, z'
loop_
 _atom_site_type_symbol
 _atom_site_label
 _atom_site_symmetry_multiplicity
 _atom_site_fract_x
 _atom_site_fract_y
 _atom_site_fract_z
 _atom_site_occupancy
  Sr  Sr0  1  0.250000  0.996180  0.858164  1
  Sr  Sr1  1  0.250000  0.503820  0.358164  1
  Sr  Sr2  1  0.750000  0.003820  0.141836  1
  Sr  Sr3  1  0.750000  0.496180  0.641836  1
  Sn  Sn4  1  0.250000  0.303154  0.182533  1
  Sn  Sn5  1  0.250000  0.196846  0.682533  1
  Sn  Sn6  1  0.750000  0.696846  0.817467  1
  Sn  Sn7  1  0.750000  0.803154  0.317467  1
  Sn  Sn8  1  0.250000  0.722964  0.194134  1
  Sn  Sn9  1  0.250000  0.777036  0.694134  1
  Sn  Sn10  1  0.750000  0.277036  0.805866  1
  Sn  Sn11  1  0.750000  0.222964  0.305866  1
  Sn  Sn12  1  0.250000  0.866453  0.032013  1
  Sn  Sn13  1  0.250000  0.633547  0.532013  1
  Sn  Sn14  1  0.750000  0.133547  0.967987  1
  Sn  Sn15  1  0.750000  0.366453  0.467987  1
  Sn  Sn16  1  0.250000  0.518746  0.931781  1
  Sn  Sn17  1  0.250000  0.981254  0.431781  1
  Sn  Sn18  1  0.750000  0.481254  0.068219  1
  Sn  Sn19  1  0.750000  0.018746  0.568219  1
  Ir  Ir20  1  0.250000  0.255781  0.035998  1
  Ir  Ir21  1  0.250000  0.244219  0.535998  1
  Ir  Ir22  1  0.750000  0.744219  0.964002  1
  Ir  Ir23  1  0.750000  0.755781  0.464002  1
  Ir  Ir24  1  0.250000  0.016073  0.285781  1
  Ir  Ir25  1  0.250000  0.483927  0.785781  1
  Ir  Ir26  1  0.750000  0.983927  0.714219  1
  Ir  Ir27  1  0.750000  0.516073  0.214219  1
