# generated using pymatgen
data_Tb8Er2In8Pd3Ru
_symmetry_space_group_name_H-M   'P 1'
_cell_length_a   3.62222200
_cell_length_b   8.16993507
_cell_length_c   18.34502133
_cell_angle_alpha   89.97054629
_cell_angle_beta   90.00000000
_cell_angle_gamma   90.00000000
_symmetry_Int_Tables_number   1
_chemical_formula_structural   Tb8Er2In8Pd3Ru
_chemical_formula_sum   'Tb8 Er2 In8 Pd3 Ru1'
_cell_volume   542.88998843
_cell_formula_units_Z   1
loop_
 _symmetry_equiv_pos_site_id
 _symmetry_equiv_pos_as_xyz
  1  'x, y, z'
loop_
 _atom_site_type_symbol
 _atom_site_label
 _atom_site_symmetry_multiplicity
 _atom_site_fract_x
 _atom_site_fract_y
 _atom_site_fract_z
 _atom_site_occupancy
  Tb  Tb0  1  0.000000  0.499796  0.499413  1
  Tb  Tb1  1  0.000000  0.001257  0.001196  1
  Tb  Tb2  1  0.000000  0.728521  0.279151  1
  Tb  Tb3  1  0.000000  0.260430  0.717703  1
  Tb  Tb4  1  0.000000  0.759852  0.779641  1
  Tb  Tb5  1  0.000000  0.250649  0.221001  1
  Tb  Tb6  1  0.000000  0.616676  0.087299  1
  Tb  Tb7  1  0.000000  0.382526  0.916158  1
  Er  Er8  1  0.000000  0.882660  0.583501  1
  Er  Er9  1  0.000000  0.118643  0.414518  1
  In  In10  1  0.500000  0.709701  0.931765  1
  In  In11  1  0.500000  0.293975  0.069941  1
  In  In12  1  0.500000  0.795816  0.433842  1
  In  In13  1  0.500000  0.203515  0.565404  1
  In  In14  1  0.500000  0.580944  0.649148  1
  In  In15  1  0.500000  0.424020  0.350566  1
  In  In16  1  0.500000  0.922320  0.151647  1
  In  In17  1  0.500000  0.078611  0.849015  1
  Pd  Pd18  1  0.500000  0.476981  0.803433  1
  Pd  Pd19  1  0.500000  0.976498  0.694258  1
  Pd  Pd20  1  0.500000  0.018956  0.305157  1
  Ru  Ru21  1  0.500000  0.517654  0.196243  1
