# generated using pymatgen
data_Mg2In3(Sn3Ir2)3
_symmetry_space_group_name_H-M   'P 1'
_cell_length_a   8.19190542
_cell_length_b   8.23062256
_cell_length_c   8.19004218
_cell_angle_alpha   108.78714523
_cell_angle_beta   109.35252031
_cell_angle_gamma   110.41646120
_symmetry_Int_Tables_number   1
_chemical_formula_structural   Mg2In3(Sn3Ir2)3
_chemical_formula_sum   'Mg2 In3 Sn9 Ir6'
_cell_volume   424.27547054
_cell_formula_units_Z   1
loop_
 _symmetry_equiv_pos_site_id
 _symmetry_equiv_pos_as_xyz
  1  'x, y, z'
loop_
 _atom_site_type_symbol
 _atom_site_label
 _atom_site_symmetry_multiplicity
 _atom_site_fract_x
 _atom_site_fract_y
 _atom_site_fract_z
 _atom_site_occupancy
  Mg  Mg0  1  0.686114  0.997809  0.999105  1
  Mg  Mg1  1  0.313563  0.001270  0.000632  1
  In  In2  1  0.499027  0.756136  0.241273  1
  In  In3  1  0.499362  0.244183  0.756249  1
  In  In4  1  0.257953  0.513370  0.758205  1
  Sn  Sn5  1  0.741607  0.485816  0.241309  1
  Sn  Sn6  1  0.743185  0.242450  0.487481  1
  Sn  Sn7  1  0.258261  0.757689  0.514663  1
  Sn  Sn8  1  0.328587  0.321660  0.322408  1
  Sn  Sn9  1  0.670299  0.678334  0.679016  1
  Sn  Sn10  1  0.007141  0.001281  0.678643  1
  Sn  Sn11  1  0.006372  0.677929  0.999890  1
  Sn  Sn12  1  0.993943  0.000736  0.322439  1
  Sn  Sn13  1  0.995112  0.322364  0.999025  1
  Ir  Ir14  1  0.005727  0.347976  0.345156  1
  Ir  Ir15  1  0.988071  0.651652  0.648474  1
  Ir  Ir16  1  0.338622  0.999947  0.347380  1
  Ir  Ir17  1  0.661510  0.999785  0.652850  1
  Ir  Ir18  1  0.339987  0.346008  0.002597  1
  Ir  Ir19  1  0.665558  0.653606  0.003205  1
