# generated using pymatgen
data_Ho2TcP4Rh5
_symmetry_space_group_name_H-M   'P 1'
_cell_length_a   3.93715200
_cell_length_b   11.19557000
_cell_length_c   12.70792900
_cell_angle_alpha   90.00000000
_cell_angle_beta   90.00000000
_cell_angle_gamma   90.00000000
_symmetry_Int_Tables_number   1
_chemical_formula_structural   Ho2TcP4Rh5
_chemical_formula_sum   'Ho6 Tc3 P12 Rh15'
_cell_volume   560.14849207
_cell_formula_units_Z   3
loop_
 _symmetry_equiv_pos_site_id
 _symmetry_equiv_pos_as_xyz
  1  'x, y, z'
loop_
 _atom_site_type_symbol
 _atom_site_label
 _atom_site_symmetry_multiplicity
 _atom_site_fract_x
 _atom_site_fract_y
 _atom_site_fract_z
 _atom_site_occupancy
  Ho  Ho0  1  0.000000  0.500000  0.521031  1
  Ho  Ho1  1  0.500000  0.000000  0.477675  1
  Ho  Ho2  1  0.500000  0.813765  0.204082  1
  Ho  Ho3  1  0.500000  0.186235  0.204082  1
  Ho  Ho4  1  0.000000  0.683142  0.796841  1
  Ho  Ho5  1  0.000000  0.316858  0.796841  1
  Tc  Tc6  1  0.000000  0.500000  0.987127  1
  Tc  Tc7  1  0.500000  0.500000  0.158059  1
  Tc  Tc8  1  0.000000  0.000000  0.841737  1
  P  P9  1  0.500000  0.313616  0.619367  1
  P  P10  1  0.500000  0.686384  0.619367  1
  P  P11  1  0.000000  0.185664  0.380984  1
  P  P12  1  0.000000  0.814336  0.380984  1
  P  P13  1  0.500000  0.500000  0.877416  1
  P  P14  1  0.000000  0.000000  0.124903  1
  P  P15  1  0.500000  0.848644  0.889360  1
  P  P16  1  0.500000  0.151356  0.889360  1
  P  P17  1  0.000000  0.649825  0.108781  1
  P  P18  1  0.000000  0.350175  0.108781  1
  P  P19  1  0.500000  0.500000  0.344410  1
  P  P20  1  0.000000  0.000000  0.654314  1
  Rh  Rh21  1  0.500000  0.000000  0.012813  1
  Rh  Rh22  1  0.500000  0.295851  0.431859  1
  Rh  Rh23  1  0.500000  0.704149  0.431859  1
  Rh  Rh24  1  0.000000  0.205056  0.568984  1
  Rh  Rh25  1  0.000000  0.794944  0.568984  1
  Rh  Rh26  1  0.500000  0.875715  0.709613  1
  Rh  Rh27  1  0.500000  0.124285  0.709613  1
  Rh  Rh28  1  0.000000  0.625165  0.290399  1
  Rh  Rh29  1  0.000000  0.374835  0.290399  1
  Rh  Rh30  1  0.500000  0.328372  0.984664  1
  Rh  Rh31  1  0.500000  0.671628  0.984664  1
  Rh  Rh32  1  0.000000  0.166851  0.016157  1
  Rh  Rh33  1  0.000000  0.833149  0.016157  1
  Rh  Rh34  1  0.500000  0.500000  0.696017  1
  Rh  Rh35  1  0.000000  0.000000  0.302316  1
