# generated using pymatgen
data_NdY3(As3Rh5)4
_symmetry_space_group_name_H-M   'P 1'
_cell_length_a   4.02214000
_cell_length_b   12.92995555
_cell_length_c   11.35399058
_cell_angle_alpha   90.03507966
_cell_angle_beta   90.00000000
_cell_angle_gamma   90.00000000
_symmetry_Int_Tables_number   1
_chemical_formula_structural   NdY3(As3Rh5)4
_chemical_formula_sum   'Nd1 Y3 As12 Rh20'
_cell_volume   590.47656153
_cell_formula_units_Z   1
loop_
 _symmetry_equiv_pos_site_id
 _symmetry_equiv_pos_as_xyz
  1  'x, y, z'
loop_
 _atom_site_type_symbol
 _atom_site_label
 _atom_site_symmetry_multiplicity
 _atom_site_fract_x
 _atom_site_fract_y
 _atom_site_fract_z
 _atom_site_occupancy
  Nd  Nd0  1  0.750000  0.702134  0.081007  1
  Y  Y1  1  0.250000  0.299252  0.918753  1
  Y  Y2  1  0.250000  0.798412  0.580878  1
  Y  Y3  1  0.750000  0.200907  0.420031  1
  As  As4  1  0.750000  0.614331  0.583478  1
  As  As5  1  0.250000  0.385521  0.418006  1
  As  As6  1  0.250000  0.888739  0.082425  1
  As  As7  1  0.750000  0.116091  0.917169  1
  As  As8  1  0.750000  0.889622  0.399425  1
  As  As9  1  0.250000  0.109511  0.599872  1
  As  As10  1  0.250000  0.609707  0.897851  1
  As  As11  1  0.750000  0.389914  0.100481  1
  As  As12  1  0.750000  0.868677  0.766321  1
  As  As13  1  0.250000  0.131282  0.233480  1
  As  As14  1  0.250000  0.629480  0.269165  1
  As  As15  1  0.750000  0.368086  0.732547  1
  Rh  Rh16  1  0.750000  0.701526  0.386109  1
  Rh  Rh17  1  0.250000  0.297461  0.614415  1
  Rh  Rh18  1  0.250000  0.800503  0.882181  1
  Rh  Rh19  1  0.750000  0.202112  0.115575  1
  Rh  Rh20  1  0.750000  0.996247  0.222235  1
  Rh  Rh21  1  0.250000  0.004892  0.777764  1
  Rh  Rh22  1  0.250000  0.501509  0.722659  1
  Rh  Rh23  1  0.750000  0.496203  0.277829  1
  Rh  Rh24  1  0.750000  0.675505  0.780665  1
  Rh  Rh25  1  0.250000  0.323759  0.221221  1
  Rh  Rh26  1  0.250000  0.824450  0.280790  1
  Rh  Rh27  1  0.750000  0.175404  0.719146  1
  Rh  Rh28  1  0.750000  0.931352  0.966128  1
  Rh  Rh29  1  0.250000  0.073173  0.031758  1
  Rh  Rh30  1  0.250000  0.571011  0.470037  1
  Rh  Rh31  1  0.750000  0.428492  0.532053  1
  Rh  Rh32  1  0.750000  0.978621  0.590161  1
  Rh  Rh33  1  0.250000  0.020635  0.409445  1
  Rh  Rh34  1  0.250000  0.517227  0.089931  1
  Rh  Rh35  1  0.750000  0.478250  0.909010  1
