# generated using pymatgen
data_GaHgI4
_symmetry_space_group_name_H-M   'P 1'
_cell_length_a   7.67637361
_cell_length_b   7.98159359
_cell_length_c   10.94519985
_cell_angle_alpha   82.06815890
_cell_angle_beta   76.39728533
_cell_angle_gamma   59.91850074
_symmetry_Int_Tables_number   1
_chemical_formula_structural   GaHgI4
_chemical_formula_sum   'Ga2 Hg2 I8'
_cell_volume   563.84853353
_cell_formula_units_Z   2
loop_
 _symmetry_equiv_pos_site_id
 _symmetry_equiv_pos_as_xyz
  1  'x, y, z'
loop_
 _atom_site_type_symbol
 _atom_site_label
 _atom_site_symmetry_multiplicity
 _atom_site_fract_x
 _atom_site_fract_y
 _atom_site_fract_z
 _atom_site_occupancy
  Ga  Ga0  1  0.374670  0.854873  0.779609  1
  Ga  Ga1  1  0.617682  0.147029  0.228847  1
  Hg  Hg2  1  0.974086  0.503855  0.878008  1
  Hg  Hg3  1  0.082086  0.471832  0.097471  1
  I  I4  1  0.752620  0.563109  0.688367  1
  I  I5  1  0.234172  0.439898  0.314216  1
  I  I6  1  0.321618  0.824285  0.017334  1
  I  I7  1  0.650377  0.176480  0.989958  1
  I  I8  1  0.133217  0.803782  0.680744  1
  I  I9  1  0.856448  0.213933  0.317389  1
  I  I10  1  0.378243  0.172549  0.694186  1
  I  I11  1  0.624782  0.828375  0.313871  1
