# generated using pymatgen
data_Tb5In5Co
_symmetry_space_group_name_H-M   'P 1'
_cell_length_a   3.60081900
_cell_length_b   8.33940513
_cell_length_c   18.58246304
_cell_angle_alpha   90.69678386
_cell_angle_beta   90.00000000
_cell_angle_gamma   90.00000000
_symmetry_Int_Tables_number   1
_chemical_formula_structural   Tb5In5Co
_chemical_formula_sum   'Tb10 In10 Co2'
_cell_volume   557.96573057
_cell_formula_units_Z   2
loop_
 _symmetry_equiv_pos_site_id
 _symmetry_equiv_pos_as_xyz
  1  'x, y, z'
loop_
 _atom_site_type_symbol
 _atom_site_label
 _atom_site_symmetry_multiplicity
 _atom_site_fract_x
 _atom_site_fract_y
 _atom_site_fract_z
 _atom_site_occupancy
  Tb  Tb0  1  0.000000  0.112516  0.414777  1
  Tb  Tb1  1  0.000000  0.887484  0.585223  1
  Tb  Tb2  1  0.000000  0.373969  0.926508  1
  Tb  Tb3  1  0.000000  0.626031  0.073492  1
  Tb  Tb4  1  0.000000  0.198320  0.227986  1
  Tb  Tb5  1  0.000000  0.801680  0.772014  1
  Tb  Tb6  1  0.000000  0.224037  0.711953  1
  Tb  Tb7  1  0.000000  0.775963  0.288047  1
  Tb  Tb8  1  0.000000  0.000000  0.000000  1
  Tb  Tb9  1  0.000000  0.500000  0.500000  1
  In  In10  1  0.500000  0.413331  0.354604  1
  In  In11  1  0.500000  0.586669  0.645396  1
  In  In12  1  0.500000  0.081463  0.850122  1
  In  In13  1  0.500000  0.918537  0.149878  1
  In  In14  1  0.500000  0.288128  0.073358  1
  In  In15  1  0.500000  0.711872  0.926642  1
  In  In16  1  0.500000  0.204942  0.565735  1
  In  In17  1  0.500000  0.795058  0.434265  1
  In  In18  1  0.500000  0.480297  0.798946  1
  In  In19  1  0.500000  0.519703  0.201054  1
  Co  Co20  1  0.500000  0.019591  0.308509  1
  Co  Co21  1  0.500000  0.980409  0.691491  1
