# generated using pymatgen
data_Dy3YF12
_symmetry_space_group_name_H-M   'P 1'
_cell_length_a   4.79341109
_cell_length_b   6.24139812
_cell_length_c   6.92409300
_cell_angle_alpha   90.00000000
_cell_angle_beta   90.00000000
_cell_angle_gamma   89.97749757
_symmetry_Int_Tables_number   1
_chemical_formula_structural   Dy3YF12
_chemical_formula_sum   'Dy3 Y1 F12'
_cell_volume   207.15213862
_cell_formula_units_Z   1
loop_
 _symmetry_equiv_pos_site_id
 _symmetry_equiv_pos_as_xyz
  1  'x, y, z'
loop_
 _atom_site_type_symbol
 _atom_site_label
 _atom_site_symmetry_multiplicity
 _atom_site_fract_x
 _atom_site_fract_y
 _atom_site_fract_z
 _atom_site_occupancy
  Dy  Dy0  1  0.539592  0.634703  0.750000  1
  Dy  Dy1  1  0.960409  0.134607  0.750000  1
  Dy  Dy2  1  0.039510  0.865370  0.250000  1
  Y  Y3  1  0.460248  0.365346  0.250000  1
  F  F4  1  0.632853  0.037420  0.250000  1
  F  F5  1  0.367340  0.961872  0.750000  1
  F  F6  1  0.132669  0.461879  0.750000  1
  F  F7  1  0.868089  0.538549  0.250000  1
  F  F8  1  0.151424  0.160562  0.063108  1
  F  F9  1  0.848115  0.839159  0.936671  1
  F  F10  1  0.652143  0.339147  0.936175  1
  F  F11  1  0.848115  0.839159  0.563329  1
  F  F12  1  0.347963  0.661259  0.063083  1
  F  F13  1  0.151424  0.160562  0.436892  1
  F  F14  1  0.347963  0.661259  0.436917  1
  F  F15  1  0.652143  0.339147  0.563825  1
