# generated using pymatgen
data_Pr8Ho12Ga11Si5
_symmetry_space_group_name_H-M   'P 1'
_cell_length_a   7.56747253
_cell_length_b   7.94280179
_cell_length_c   15.28797203
_cell_angle_alpha   90.05566296
_cell_angle_beta   89.92398749
_cell_angle_gamma   89.92140791
_symmetry_Int_Tables_number   1
_chemical_formula_structural   Pr8Ho12Ga11Si5
_chemical_formula_sum   'Pr8 Ho12 Ga11 Si5'
_cell_volume   918.91102324
_cell_formula_units_Z   1
loop_
 _symmetry_equiv_pos_site_id
 _symmetry_equiv_pos_as_xyz
  1  'x, y, z'
loop_
 _atom_site_type_symbol
 _atom_site_label
 _atom_site_symmetry_multiplicity
 _atom_site_fract_x
 _atom_site_fract_y
 _atom_site_fract_z
 _atom_site_occupancy
  Pr  Pr0  1  0.979100  0.823498  0.095899  1
  Pr  Pr1  1  0.478793  0.678441  0.404737  1
  Pr  Pr2  1  0.520675  0.324120  0.903699  1
  Pr  Pr3  1  0.020426  0.178106  0.595801  1
  Pr  Pr4  1  0.020858  0.176492  0.903617  1
  Pr  Pr5  1  0.522763  0.325149  0.595720  1
  Pr  Pr6  1  0.478822  0.676413  0.096303  1
  Pr  Pr7  1  0.978742  0.821622  0.404038  1
  Ho  Ho8  1  0.655595  0.991772  0.249693  1
  Ho  Ho9  1  0.154473  0.507994  0.249453  1
  Ho  Ho10  1  0.845231  0.491409  0.749421  1
  Ho  Ho11  1  0.345389  0.007551  0.750218  1
  Ho  Ho12  1  0.679485  0.822559  0.876852  1
  Ho  Ho13  1  0.178754  0.677967  0.622946  1
  Ho  Ho14  1  0.820468  0.322931  0.122735  1
  Ho  Ho15  1  0.319795  0.176848  0.377711  1
  Ho  Ho16  1  0.320212  0.177269  0.123025  1
  Ho  Ho17  1  0.819089  0.323048  0.378217  1
  Ho  Ho18  1  0.179414  0.676665  0.876990  1
  Ho  Ho19  1  0.681214  0.820799  0.621770  1
  Ga  Ga20  1  0.763633  0.618110  0.250689  1
  Ga  Ga21  1  0.263272  0.881086  0.250559  1
  Ga  Ga22  1  0.736181  0.118915  0.749344  1
  Ga  Ga23  1  0.236726  0.381451  0.749217  1
  Ga  Ga24  1  0.849643  0.533254  0.958742  1
  Ga  Ga25  1  0.349621  0.966777  0.541812  1
  Ga  Ga26  1  0.649797  0.033193  0.040989  1
  Ga  Ga27  1  0.148344  0.467229  0.459837  1
  Ga  Ga28  1  0.150329  0.466683  0.040941  1
  Ga  Ga29  1  0.650118  0.033138  0.459441  1
  Ga  Ga30  1  0.350059  0.966919  0.958868  1
  Si  Si31  1  0.025563  0.116339  0.250770  1
  Si  Si32  1  0.524827  0.384112  0.251300  1
  Si  Si33  1  0.474846  0.616176  0.748911  1
  Si  Si34  1  0.973906  0.883942  0.748719  1
  Si  Si35  1  0.853837  0.532022  0.541014  1
