# generated using pymatgen
data_Hf4OsPt
_symmetry_space_group_name_H-M   'P 1'
_cell_length_a   8.80296894
_cell_length_b   8.80296860
_cell_length_c   8.80296900
_cell_angle_alpha   60.00000226
_cell_angle_beta   60.00000353
_cell_angle_gamma   60.00000325
_symmetry_Int_Tables_number   1
_chemical_formula_structural   Hf4OsPt
_chemical_formula_sum   'Hf16 Os4 Pt4'
_cell_volume   482.36137725
_cell_formula_units_Z   4
loop_
 _symmetry_equiv_pos_site_id
 _symmetry_equiv_pos_as_xyz
  1  'x, y, z'
loop_
 _atom_site_type_symbol
 _atom_site_label
 _atom_site_symmetry_multiplicity
 _atom_site_fract_x
 _atom_site_fract_y
 _atom_site_fract_z
 _atom_site_occupancy
  Hf  Hf0  1  0.158039  0.613987  0.613987  1
  Hf  Hf1  1  0.613987  0.158039  0.613987  1
  Hf  Hf2  1  0.613987  0.613987  0.158039  1
  Hf  Hf3  1  0.613987  0.613987  0.613987  1
  Hf  Hf4  1  0.817532  0.817532  0.182468  1
  Hf  Hf5  1  0.182468  0.182468  0.817532  1
  Hf  Hf6  1  0.817532  0.182468  0.817532  1
  Hf  Hf7  1  0.182468  0.817532  0.182468  1
  Hf  Hf8  1  0.182468  0.817532  0.817532  1
  Hf  Hf9  1  0.817532  0.182468  0.182468  1
  Hf  Hf10  1  0.458752  0.458752  0.041248  1
  Hf  Hf11  1  0.041248  0.041248  0.458752  1
  Hf  Hf12  1  0.458752  0.041248  0.458752  1
  Hf  Hf13  1  0.041248  0.458752  0.041248  1
  Hf  Hf14  1  0.041248  0.458752  0.458752  1
  Hf  Hf15  1  0.458752  0.041248  0.041248  1
  Os  Os16  1  0.496488  0.834504  0.834504  1
  Os  Os17  1  0.834504  0.496488  0.834504  1
  Os  Os18  1  0.834504  0.834504  0.496488  1
  Os  Os19  1  0.834504  0.834504  0.834504  1
  Pt  Pt20  1  0.817288  0.394237  0.394237  1
  Pt  Pt21  1  0.394237  0.817288  0.394237  1
  Pt  Pt22  1  0.394237  0.394237  0.817288  1
  Pt  Pt23  1  0.394237  0.394237  0.394237  1
