# generated using pymatgen
data_Tb2Al9ReAu2
_symmetry_space_group_name_H-M   'P 1'
_cell_length_a   7.73043291
_cell_length_b   7.73043325
_cell_length_c   9.56643200
_cell_angle_alpha   90.00000000
_cell_angle_beta   90.00000000
_cell_angle_gamma   119.43617534
_symmetry_Int_Tables_number   1
_chemical_formula_structural   Tb2Al9ReAu2
_chemical_formula_sum   'Tb4 Al18 Re2 Au4'
_cell_volume   497.88354161
_cell_formula_units_Z   2
loop_
 _symmetry_equiv_pos_site_id
 _symmetry_equiv_pos_as_xyz
  1  'x, y, z'
loop_
 _atom_site_type_symbol
 _atom_site_label
 _atom_site_symmetry_multiplicity
 _atom_site_fract_x
 _atom_site_fract_y
 _atom_site_fract_z
 _atom_site_occupancy
  Tb  Tb0  1  0.992149  0.670563  0.250000  1
  Tb  Tb1  1  0.007851  0.329437  0.750000  1
  Tb  Tb2  1  0.670563  0.992149  0.250000  1
  Tb  Tb3  1  0.329437  0.007851  0.750000  1
  Al  Al4  1  0.124810  0.124810  0.250000  1
  Al  Al5  1  0.875190  0.875190  0.750000  1
  Al  Al6  1  0.001455  0.326068  0.079420  1
  Al  Al7  1  0.998545  0.673932  0.920580  1
  Al  Al8  1  0.998545  0.673932  0.579420  1
  Al  Al9  1  0.326068  0.001455  0.420580  1
  Al  Al10  1  0.001455  0.326068  0.420580  1
  Al  Al11  1  0.673932  0.998545  0.579420  1
  Al  Al12  1  0.673932  0.998545  0.920580  1
  Al  Al13  1  0.326068  0.001455  0.079420  1
  Al  Al14  1  0.324148  0.324148  0.555022  1
  Al  Al15  1  0.675852  0.675852  0.444978  1
  Al  Al16  1  0.675852  0.675852  0.055022  1
  Al  Al17  1  0.324148  0.324148  0.944978  1
  Al  Al18  1  0.345934  0.545836  0.250000  1
  Al  Al19  1  0.654066  0.454164  0.750000  1
  Al  Al20  1  0.545836  0.345934  0.250000  1
  Al  Al21  1  0.454164  0.654066  0.750000  1
  Re  Re22  1  0.000000  0.000000  0.000000  1
  Re  Re23  1  0.000000  0.000000  0.500000  1
  Au  Au24  1  0.673471  0.326529  0.000000  1
  Au  Au25  1  0.326529  0.673471  0.000000  1
  Au  Au26  1  0.326529  0.673471  0.500000  1
  Au  Au27  1  0.673471  0.326529  0.500000  1
