# generated using pymatgen
data_TbCeCo2(SnH)2
_symmetry_space_group_name_H-M   'P 1'
_cell_length_a   4.30915400
_cell_length_b   7.10986253
_cell_length_c   8.25321822
_cell_angle_alpha   89.74594933
_cell_angle_beta   90.00000000
_cell_angle_gamma   90.00000000
_symmetry_Int_Tables_number   1
_chemical_formula_structural   TbCeCo2(SnH)2
_chemical_formula_sum   'Tb2 Ce2 Co4 Sn4 H4'
_cell_volume   252.85542606
_cell_formula_units_Z   2
loop_
 _symmetry_equiv_pos_site_id
 _symmetry_equiv_pos_as_xyz
  1  'x, y, z'
loop_
 _atom_site_type_symbol
 _atom_site_label
 _atom_site_symmetry_multiplicity
 _atom_site_fract_x
 _atom_site_fract_y
 _atom_site_fract_z
 _atom_site_occupancy
  Tb  Tb0  1  0.750000  0.013451  0.687941  1
  Tb  Tb1  1  0.250000  0.986549  0.312059  1
  Ce  Ce2  1  0.250000  0.486045  0.192625  1
  Ce  Ce3  1  0.750000  0.513955  0.807375  1
  Co  Co4  1  0.750000  0.770099  0.102308  1
  Co  Co5  1  0.250000  0.229901  0.897692  1
  Co  Co6  1  0.250000  0.724293  0.606098  1
  Co  Co7  1  0.750000  0.275707  0.393902  1
  Sn  Sn8  1  0.750000  0.661562  0.427882  1
  Sn  Sn9  1  0.250000  0.338438  0.572118  1
  Sn  Sn10  1  0.250000  0.843482  0.927509  1
  Sn  Sn11  1  0.750000  0.156518  0.072491  1
  H  H12  1  0.250000  0.452148  0.915972  1
  H  H13  1  0.750000  0.547852  0.084028  1
  H  H14  1  0.750000  0.053565  0.419087  1
  H  H15  1  0.250000  0.946435  0.580913  1
