# generated using pymatgen
data_YLuHf4Pb5
_symmetry_space_group_name_H-M   'P 1'
_cell_length_a   6.03891503
_cell_length_b   9.15789060
_cell_length_c   11.31230478
_cell_angle_alpha   113.98327285
_cell_angle_beta   105.48095207
_cell_angle_gamma   89.99999921
_symmetry_Int_Tables_number   1
_chemical_formula_structural   YLuHf4Pb5
_chemical_formula_sum   'Y2 Lu2 Hf8 Pb10'
_cell_volume   546.66404080
_cell_formula_units_Z   2
loop_
 _symmetry_equiv_pos_site_id
 _symmetry_equiv_pos_as_xyz
  1  'x, y, z'
loop_
 _atom_site_type_symbol
 _atom_site_label
 _atom_site_symmetry_multiplicity
 _atom_site_fract_x
 _atom_site_fract_y
 _atom_site_fract_z
 _atom_site_occupancy
  Y  Y0  1  0.143870  0.253560  0.287739  1
  Y  Y1  1  0.856130  0.746440  0.712261  1
  Lu  Lu2  1  0.643938  0.033818  0.287876  1
  Lu  Lu3  1  0.356062  0.966182  0.712124  1
  Hf  Hf4  1  0.562213  0.312376  0.624479  1
  Hf  Hf5  1  0.437787  0.687624  0.375521  1
  Hf  Hf6  1  0.937733  0.687624  0.375521  1
  Hf  Hf7  1  0.062267  0.312376  0.624479  1
  Hf  Hf8  1  0.434209  0.671501  0.868418  1
  Hf  Hf9  1  0.565791  0.328499  0.131582  1
  Hf  Hf10  1  0.934284  0.196366  0.868569  1
  Hf  Hf11  1  0.065716  0.803634  0.131431  1
  Pb  Pb12  1  0.289050  0.591239  0.578101  1
  Pb  Pb13  1  0.710950  0.408761  0.421899  1
  Pb  Pb14  1  0.788466  0.987939  0.576933  1
  Pb  Pb15  1  0.211534  0.012061  0.423067  1
  Pb  Pb16  1  0.250800  0.000000  0.000000  1
  Pb  Pb17  1  0.749200  0.000000  0.000000  1
  Pb  Pb18  1  0.066749  0.462283  0.133498  1
  Pb  Pb19  1  0.933251  0.537717  0.866502  1
  Pb  Pb20  1  0.567143  0.673379  0.134285  1
  Pb  Pb21  1  0.432857  0.326621  0.865715  1
