# generated using pymatgen
data_K4Rh2Cl10F
_symmetry_space_group_name_H-M   'P 1'
_cell_length_a   7.07982163
_cell_length_b   7.07982248
_cell_length_c   10.46214598
_cell_angle_alpha   109.90050255
_cell_angle_beta   109.90050366
_cell_angle_gamma   89.65564541
_symmetry_Int_Tables_number   1
_chemical_formula_structural   K4Rh2Cl10F
_chemical_formula_sum   'K4 Rh2 Cl10 F1'
_cell_volume   460.05116347
_cell_formula_units_Z   1
loop_
 _symmetry_equiv_pos_site_id
 _symmetry_equiv_pos_as_xyz
  1  'x, y, z'
loop_
 _atom_site_type_symbol
 _atom_site_label
 _atom_site_symmetry_multiplicity
 _atom_site_fract_x
 _atom_site_fract_y
 _atom_site_fract_z
 _atom_site_occupancy
  K  K0  1  0.500000  0.000000  0.000000  1
  K  K1  1  0.000000  0.500000  0.000000  1
  K  K2  1  0.750000  0.250000  0.500000  1
  K  K3  1  0.250000  0.750000  0.500000  1
  Rh  Rh4  1  0.114467  0.114467  0.228933  1
  Rh  Rh5  1  0.885533  0.885533  0.771068  1
  Cl  Cl6  1  0.347568  0.347568  0.226255  1
  Cl  Cl7  1  0.877228  0.348581  0.225809  1
  Cl  Cl8  1  0.348581  0.877228  0.225809  1
  Cl  Cl9  1  0.878687  0.878687  0.226255  1
  Cl  Cl10  1  0.238277  0.238277  0.476552  1
  Cl  Cl11  1  0.761724  0.761724  0.523448  1
  Cl  Cl12  1  0.121313  0.121313  0.773745  1
  Cl  Cl13  1  0.651419  0.122772  0.774191  1
  Cl  Cl14  1  0.122772  0.651419  0.774191  1
  Cl  Cl15  1  0.652432  0.652432  0.773745  1
  F  F16  1  0.000000  0.000000  0.000000  1
