# generated using pymatgen
data_Zr4V2(CoOs)3
_symmetry_space_group_name_H-M   'P 1'
_cell_length_a   4.98401717
_cell_length_b   5.19501547
_cell_length_c   8.57986200
_cell_angle_alpha   90.00000000
_cell_angle_beta   90.00000000
_cell_angle_gamma   121.75212968
_symmetry_Int_Tables_number   1
_chemical_formula_structural   Zr4V2(CoOs)3
_chemical_formula_sum   'Zr4 V2 Co3 Os3'
_cell_volume   188.90155814
_cell_formula_units_Z   1
loop_
 _symmetry_equiv_pos_site_id
 _symmetry_equiv_pos_as_xyz
  1  'x, y, z'
loop_
 _atom_site_type_symbol
 _atom_site_label
 _atom_site_symmetry_multiplicity
 _atom_site_fract_x
 _atom_site_fract_y
 _atom_site_fract_z
 _atom_site_occupancy
  Zr  Zr0  1  0.332640  0.667469  0.436558  1
  Zr  Zr1  1  0.663371  0.334915  0.565555  1
  Zr  Zr2  1  0.663371  0.334915  0.934445  1
  Zr  Zr3  1  0.332640  0.667469  0.063442  1
  V  V4  1  0.326337  0.161495  0.250000  1
  V  V5  1  0.672494  0.837460  0.750000  1
  Co  Co6  1  0.818596  0.652254  0.250000  1
  Co  Co7  1  0.189470  0.839489  0.750000  1
  Co  Co8  1  0.184100  0.347463  0.750000  1
  Os  Os9  1  0.999389  0.995924  0.504513  1
  Os  Os10  1  0.999389  0.995924  0.995487  1
  Os  Os11  1  0.818202  0.165223  0.250000  1
