# generated using pymatgen
data_Na3Cd2BiO6
_symmetry_space_group_name_H-M   'P 1'
_cell_length_a   11.14910092
_cell_length_b   10.60338297
_cell_length_c   5.88875409
_cell_angle_alpha   79.47719457
_cell_angle_beta   69.23755162
_cell_angle_gamma   31.28525756
_symmetry_Int_Tables_number   1
_chemical_formula_structural   Na3Cd2BiO6
_chemical_formula_sum   'Na6 Cd4 Bi2 O12'
_cell_volume   327.49465463
_cell_formula_units_Z   2
loop_
 _symmetry_equiv_pos_site_id
 _symmetry_equiv_pos_as_xyz
  1  'x, y, z'
loop_
 _atom_site_type_symbol
 _atom_site_label
 _atom_site_symmetry_multiplicity
 _atom_site_fract_x
 _atom_site_fract_y
 _atom_site_fract_z
 _atom_site_occupancy
  Na  Na0  1  0.586999  0.586999  0.913001  1
  Na  Na1  1  0.913001  0.913001  0.586999  1
  Na  Na2  1  0.663001  0.663001  0.336999  1
  Na  Na3  1  0.336999  0.336999  0.663001  1
  Na  Na4  1  0.500000  0.500000  0.500000  1
  Na  Na5  1  0.750000  0.750000  0.750000  1
  Cd  Cd6  1  0.081381  0.081381  0.418619  1
  Cd  Cd7  1  0.831381  0.831381  0.168619  1
  Cd  Cd8  1  0.418619  0.418619  0.081381  1
  Cd  Cd9  1  0.168619  0.168619  0.831381  1
  Bi  Bi10  1  0.250000  0.250000  0.250000  1
  Bi  Bi11  1  0.000000  0.000000  0.000000  1
  O  O12  1  0.394659  0.950761  0.096101  1
  O  O13  1  0.096101  0.558478  0.394659  1
  O  O14  1  0.558478  0.096101  0.950761  1
  O  O15  1  0.153899  0.691522  0.855341  1
  O  O16  1  0.224040  0.775960  0.224040  1
  O  O17  1  0.299239  0.855341  0.691522  1
  O  O18  1  0.025960  0.474040  0.025960  1
  O  O19  1  0.474040  0.025960  0.474040  1
  O  O20  1  0.691522  0.153899  0.299239  1
  O  O21  1  0.855341  0.299239  0.153899  1
  O  O22  1  0.950761  0.394659  0.558478  1
  O  O23  1  0.775960  0.224040  0.775960  1
