# generated using pymatgen
data_Er8Ti5Si16Mo4W3
_symmetry_space_group_name_H-M   'P 1'
_cell_length_a   6.91019047
_cell_length_b   6.90331002
_cell_length_c   12.77734936
_cell_angle_alpha   89.88214927
_cell_angle_beta   90.03453455
_cell_angle_gamma   90.02813935
_symmetry_Int_Tables_number   1
_chemical_formula_structural   Er8Ti5Si16Mo4W3
_chemical_formula_sum   'Er8 Ti5 Si16 Mo4 W3'
_cell_volume   609.51881433
_cell_formula_units_Z   1
loop_
 _symmetry_equiv_pos_site_id
 _symmetry_equiv_pos_as_xyz
  1  'x, y, z'
loop_
 _atom_site_type_symbol
 _atom_site_label
 _atom_site_symmetry_multiplicity
 _atom_site_fract_x
 _atom_site_fract_y
 _atom_site_fract_z
 _atom_site_occupancy
  Er  Er0  1  0.340775  0.002260  0.467551  1
  Er  Er1  1  0.498695  0.840227  0.719050  1
  Er  Er2  1  0.500915  0.160323  0.218901  1
  Er  Er3  1  0.839610  0.497368  0.280761  1
  Er  Er4  1  0.160153  0.501949  0.782562  1
  Er  Er5  1  0.659767  0.998806  0.968559  1
  Er  Er6  1  0.002480  0.340028  0.531634  1
  Er  Er7  1  0.996204  0.661192  0.030899  1
  Ti  Ti8  1  0.330124  0.331008  0.999339  1
  Ti  Ti9  1  0.169097  0.829371  0.249741  1
  Ti  Ti10  1  0.829013  0.171065  0.750207  1
  Ti  Ti11  1  0.669492  0.666238  0.499619  1
  Ti  Ti12  1  0.995022  0.840567  0.626286  1
  Si  Si13  1  0.203363  0.129722  0.682802  1
  Si  Si14  1  0.371121  0.703012  0.933057  1
  Si  Si15  1  0.630902  0.298377  0.433143  1
  Si  Si16  1  0.699853  0.369759  0.067362  1
  Si  Si17  1  0.299888  0.629859  0.566528  1
  Si  Si18  1  0.797689  0.870585  0.182840  1
  Si  Si19  1  0.127654  0.200994  0.317158  1
  Si  Si20  1  0.871562  0.799553  0.817031  1
  Si  Si21  1  0.289663  0.959527  0.062931  1
  Si  Si22  1  0.540160  0.789534  0.312842  1
  Si  Si23  1  0.459064  0.210465  0.812834  1
  Si  Si24  1  0.791468  0.542010  0.687427  1
  Si  Si25  1  0.208826  0.459034  0.186750  1
  Si  Si26  1  0.710404  0.041494  0.563367  1
  Si  Si27  1  0.958978  0.291473  0.937163  1
  Si  Si28  1  0.042566  0.709282  0.437102  1
  Mo  Mo29  1  0.657921  0.493224  0.877693  1
  Mo  Mo30  1  0.342668  0.503295  0.375005  1
  Mo  Mo31  1  0.839753  0.991983  0.373042  1
  Mo  Mo32  1  0.005181  0.158693  0.126781  1
  W  W33  1  0.160020  0.007895  0.874614  1
  W  W34  1  0.492629  0.658819  0.123766  1
  W  W35  1  0.507326  0.341009  0.623655  1
