# generated using pymatgen
data_DyHo(Sb5O13)2
_symmetry_space_group_name_H-M   'P 1'
_cell_length_a   7.42077921
_cell_length_b   7.34954899
_cell_length_c   10.30137000
_cell_angle_alpha   88.82931327
_cell_angle_beta   89.99732381
_cell_angle_gamma   89.97299238
_symmetry_Int_Tables_number   1
_chemical_formula_structural   DyHo(Sb5O13)2
_chemical_formula_sum   'Dy1 Ho1 Sb10 O26'
_cell_volume   561.71300122
_cell_formula_units_Z   1
loop_
 _symmetry_equiv_pos_site_id
 _symmetry_equiv_pos_as_xyz
  1  'x, y, z'
loop_
 _atom_site_type_symbol
 _atom_site_label
 _atom_site_symmetry_multiplicity
 _atom_site_fract_x
 _atom_site_fract_y
 _atom_site_fract_z
 _atom_site_occupancy
  Dy  Dy0  1  0.000000  0.500000  0.000000  1
  Ho  Ho1  1  0.500000  0.500000  0.000000  1
  Sb  Sb2  1  0.250169  0.729119  0.730590  1
  Sb  Sb3  1  0.749831  0.270881  0.269410  1
  Sb  Sb4  1  0.500000  0.000000  0.000000  1
  Sb  Sb5  1  0.749898  0.757523  0.748996  1
  Sb  Sb6  1  0.250096  0.748189  0.252039  1
  Sb  Sb7  1  0.500000  0.500000  0.500000  1
  Sb  Sb8  1  0.000000  0.500000  0.500000  1
  Sb  Sb9  1  0.749904  0.251811  0.747961  1
  Sb  Sb10  1  0.250102  0.242477  0.251004  1
  Sb  Sb11  1  0.000000  0.000000  0.000000  1
  O  O12  1  0.448297  0.690834  0.372343  1
  O  O13  1  0.749029  0.456140  0.127695  1
  O  O14  1  0.250380  0.493784  0.160496  1
  O  O15  1  0.454376  0.308852  0.366072  1
  O  O16  1  0.556825  0.216050  0.884904  1
  O  O17  1  0.943066  0.215548  0.884721  1
  O  O18  1  0.448441  0.207879  0.120502  1
  O  O19  1  0.750030  0.999617  0.072904  1
  O  O20  1  0.249970  0.000383  0.927096  1
  O  O21  1  0.749964  0.003804  0.683973  1
  O  O22  1  0.551559  0.792121  0.879498  1
  O  O23  1  0.948434  0.792485  0.879332  1
  O  O24  1  0.443175  0.783950  0.115096  1
  O  O25  1  0.051735  0.690830  0.372297  1
  O  O26  1  0.545624  0.691148  0.633928  1
  O  O27  1  0.954310  0.691123  0.633971  1
  O  O28  1  0.250010  0.518227  0.581115  1
  O  O29  1  0.749620  0.506216  0.839504  1
  O  O30  1  0.749990  0.481773  0.418885  1
  O  O31  1  0.045690  0.308877  0.366029  1
  O  O32  1  0.551703  0.309166  0.627657  1
  O  O33  1  0.948265  0.309170  0.627703  1
  O  O34  1  0.051566  0.207515  0.120668  1
  O  O35  1  0.250036  0.996196  0.316027  1
  O  O36  1  0.056934  0.784452  0.115279  1
  O  O37  1  0.250971  0.543860  0.872305  1
