# generated using pymatgen
data_Tb2YCo9(GeB2)2
_symmetry_space_group_name_H-M   'P 1'
_cell_length_a   5.16568302
_cell_length_b   5.16557715
_cell_length_c   9.44918600
_cell_angle_alpha   90.00359668
_cell_angle_beta   89.99612728
_cell_angle_gamma   119.99492029
_symmetry_Int_Tables_number   1
_chemical_formula_structural   Tb2YCo9(GeB2)2
_chemical_formula_sum   'Tb2 Y1 Co9 Ge2 B4'
_cell_volume   218.37044626
_cell_formula_units_Z   1
loop_
 _symmetry_equiv_pos_site_id
 _symmetry_equiv_pos_as_xyz
  1  'x, y, z'
loop_
 _atom_site_type_symbol
 _atom_site_label
 _atom_site_symmetry_multiplicity
 _atom_site_fract_x
 _atom_site_fract_y
 _atom_site_fract_z
 _atom_site_occupancy
  Tb  Tb0  1  0.000016  0.000001  0.340191  1
  Tb  Tb1  1  0.999981  0.999959  0.659787  1
  Y  Y2  1  0.999970  0.000009  0.000033  1
  Co  Co3  1  0.499978  0.000005  0.499981  1
  Co  Co4  1  0.500009  0.500014  0.500010  1
  Co  Co5  1  0.000006  0.500011  0.500001  1
  Co  Co6  1  0.500038  0.999992  0.203163  1
  Co  Co7  1  0.500010  0.500004  0.203180  1
  Co  Co8  1  0.999998  0.500004  0.203190  1
  Co  Co9  1  0.500000  0.999998  0.796846  1
  Co  Co10  1  0.500010  0.500031  0.796817  1
  Co  Co11  1  0.999993  0.500024  0.796801  1
  Ge  Ge12  1  0.333262  0.666603  0.000006  1
  Ge  Ge13  1  0.666672  0.333388  0.000008  1
  B  B14  1  0.333376  0.666644  0.348075  1
  B  B15  1  0.666613  0.333323  0.348074  1
  B  B16  1  0.666605  0.333283  0.651922  1
  B  B17  1  0.333363  0.666707  0.651916  1
