# generated using pymatgen
data_PrHo3(ZnSi)4
_symmetry_space_group_name_H-M   'P 1'
_cell_length_a   4.16590800
_cell_length_b   4.16590823
_cell_length_c   15.93004900
_cell_angle_alpha   90.00000000
_cell_angle_beta   90.00000000
_cell_angle_gamma   119.99998230
_symmetry_Int_Tables_number   1
_chemical_formula_structural   PrHo3(ZnSi)4
_chemical_formula_sum   'Pr1 Ho3 Zn4 Si4'
_cell_volume   239.42373100
_cell_formula_units_Z   1
loop_
 _symmetry_equiv_pos_site_id
 _symmetry_equiv_pos_as_xyz
  1  'x, y, z'
loop_
 _atom_site_type_symbol
 _atom_site_label
 _atom_site_symmetry_multiplicity
 _atom_site_fract_x
 _atom_site_fract_y
 _atom_site_fract_z
 _atom_site_occupancy
  Pr  Pr0  1  0.000000  0.000000  0.500000  1
  Ho  Ho1  1  0.000000  0.000000  0.244692  1
  Ho  Ho2  1  0.000000  0.000000  0.755308  1
  Ho  Ho3  1  0.000000  0.000000  0.000000  1
  Zn  Zn4  1  0.333333  0.666667  0.136447  1
  Zn  Zn5  1  0.666667  0.333333  0.863553  1
  Zn  Zn6  1  0.666667  0.333333  0.647149  1
  Zn  Zn7  1  0.333333  0.666667  0.352851  1
  Si  Si8  1  0.333333  0.666667  0.626287  1
  Si  Si9  1  0.666667  0.333333  0.373713  1
  Si  Si10  1  0.666667  0.333333  0.115036  1
  Si  Si11  1  0.333333  0.666667  0.884964  1
