# generated using pymatgen
data_La6Tl7Sn3
_symmetry_space_group_name_H-M   'P 1'
_cell_length_a   6.84720709
_cell_length_b   6.84628103
_cell_length_c   10.62089500
_cell_angle_alpha   90.00000000
_cell_angle_beta   90.00000000
_cell_angle_gamma   102.58921048
_symmetry_Int_Tables_number   1
_chemical_formula_structural   La6Tl7Sn3
_chemical_formula_sum   'La6 Tl7 Sn3'
_cell_volume   485.91505031
_cell_formula_units_Z   1
loop_
 _symmetry_equiv_pos_site_id
 _symmetry_equiv_pos_as_xyz
  1  'x, y, z'
loop_
 _atom_site_type_symbol
 _atom_site_label
 _atom_site_symmetry_multiplicity
 _atom_site_fract_x
 _atom_site_fract_y
 _atom_site_fract_z
 _atom_site_occupancy
  La  La0  1  0.622056  0.612538  0.250000  1
  La  La1  1  0.376731  0.382124  0.750000  1
  La  La2  1  0.206853  0.787584  0.503346  1
  La  La3  1  0.206853  0.787584  0.996654  1
  La  La4  1  0.794297  0.215204  0.503351  1
  La  La5  1  0.794297  0.215204  0.996649  1
  Tl  Tl6  1  0.002686  0.003801  0.250000  1
  Tl  Tl7  1  0.991776  0.994809  0.750000  1
  Tl  Tl8  1  0.298826  0.293253  0.048789  1
  Tl  Tl9  1  0.699997  0.708428  0.955989  1
  Tl  Tl10  1  0.298826  0.293253  0.451211  1
  Tl  Tl11  1  0.699997  0.708428  0.544011  1
  Tl  Tl12  1  0.502053  0.056963  0.250000  1
  Sn  Sn13  1  0.929790  0.510702  0.750000  1
  Sn  Sn14  1  0.505427  0.936100  0.750000  1
  Sn  Sn15  1  0.069539  0.494026  0.250000  1
