# generated using pymatgen
data_ZrPa3(InRh5)2
_symmetry_space_group_name_H-M   'P 1'
_cell_length_a   5.78928963
_cell_length_b   5.78928908
_cell_length_c   8.39323309
_cell_angle_alpha   89.98888461
_cell_angle_beta   89.98888462
_cell_angle_gamma   96.77264528
_symmetry_Int_Tables_number   1
_chemical_formula_structural   ZrPa3(InRh5)2
_chemical_formula_sum   'Zr1 Pa3 In2 Rh10'
_cell_volume   279.34352939
_cell_formula_units_Z   1
loop_
 _symmetry_equiv_pos_site_id
 _symmetry_equiv_pos_as_xyz
  1  'x, y, z'
loop_
 _atom_site_type_symbol
 _atom_site_label
 _atom_site_symmetry_multiplicity
 _atom_site_fract_x
 _atom_site_fract_y
 _atom_site_fract_z
 _atom_site_occupancy
  Zr  Zr0  1  0.781795  0.218205  0.000000  1
  Pa  Pa1  1  0.783672  0.216328  0.500000  1
  Pa  Pa2  1  0.213389  0.786611  0.000000  1
  Pa  Pa3  1  0.218169  0.781831  0.500000  1
  In  In4  1  0.504973  0.496747  0.754973  1
  In  In5  1  0.503253  0.495027  0.245027  1
  Rh  Rh6  1  0.732100  0.736343  0.000449  1
  Rh  Rh7  1  0.730650  0.731428  0.499616  1
  Rh  Rh8  1  0.263657  0.267900  0.999551  1
  Rh  Rh9  1  0.268572  0.269350  0.500384  1
  Rh  Rh10  1  0.499300  0.999392  0.748680  1
  Rh  Rh11  1  0.499325  0.998418  0.251252  1
  Rh  Rh12  1  0.999705  0.000748  0.250072  1
  Rh  Rh13  1  0.999252  0.000295  0.749928  1
  Rh  Rh14  1  0.001582  0.500675  0.748748  1
  Rh  Rh15  1  0.000608  0.500700  0.251320  1
