# generated using pymatgen
data_Yb5Mg(SbN)2
_symmetry_space_group_name_H-M   'P 1'
_cell_length_a   6.87895500
_cell_length_b   6.86334600
_cell_length_c   9.12568200
_cell_angle_alpha   90.00000000
_cell_angle_beta   90.00000000
_cell_angle_gamma   90.00000000
_symmetry_Int_Tables_number   1
_chemical_formula_structural   Yb5Mg(SbN)2
_chemical_formula_sum   'Yb10 Mg2 Sb4 N4'
_cell_volume   430.84761461
_cell_formula_units_Z   2
loop_
 _symmetry_equiv_pos_site_id
 _symmetry_equiv_pos_as_xyz
  1  'x, y, z'
loop_
 _atom_site_type_symbol
 _atom_site_label
 _atom_site_symmetry_multiplicity
 _atom_site_fract_x
 _atom_site_fract_y
 _atom_site_fract_z
 _atom_site_occupancy
  Yb  Yb0  1  0.750188  0.750263  0.992083  1
  Yb  Yb1  1  0.749812  0.250263  0.507917  1
  Yb  Yb2  1  0.249610  0.249755  0.516492  1
  Yb  Yb3  1  0.250390  0.749755  0.983508  1
  Yb  Yb4  1  0.249610  0.249755  0.983508  1
  Yb  Yb5  1  0.250390  0.749755  0.516492  1
  Yb  Yb6  1  0.750188  0.750263  0.507917  1
  Yb  Yb7  1  0.749812  0.250263  0.992083  1
  Yb  Yb8  1  0.492138  0.000238  0.250000  1
  Yb  Yb9  1  0.007862  0.500238  0.250000  1
  Mg  Mg10  1  0.512451  0.000456  0.750000  1
  Mg  Mg11  1  0.987549  0.500456  0.750000  1
  Sb  Sb12  1  0.499215  0.499514  0.250000  1
  Sb  Sb13  1  0.000785  0.999514  0.250000  1
  Sb  Sb14  1  0.506276  0.499544  0.750000  1
  Sb  Sb15  1  0.993724  0.999544  0.750000  1
  N  N16  1  0.000325  0.500106  0.985555  1
  N  N17  1  0.499675  0.000106  0.514445  1
  N  N18  1  0.000325  0.500106  0.514445  1
  N  N19  1  0.499675  0.000106  0.985555  1
