# generated using pymatgen
data_Nb3CrFe2N
_symmetry_space_group_name_H-M   'P 1'
_cell_length_a   8.05321689
_cell_length_b   8.05302802
_cell_length_c   8.05315802
_cell_angle_alpha   60.00128578
_cell_angle_beta   60.00160234
_cell_angle_gamma   60.00094870
_symmetry_Int_Tables_number   1
_chemical_formula_structural   Nb3CrFe2N
_chemical_formula_sum   'Nb12 Cr4 Fe8 N4'
_cell_volume   369.31115158
_cell_formula_units_Z   4
loop_
 _symmetry_equiv_pos_site_id
 _symmetry_equiv_pos_as_xyz
  1  'x, y, z'
loop_
 _atom_site_type_symbol
 _atom_site_label
 _atom_site_symmetry_multiplicity
 _atom_site_fract_x
 _atom_site_fract_y
 _atom_site_fract_z
 _atom_site_occupancy
  Nb  Nb0  1  0.803910  0.803907  0.196106  1
  Nb  Nb1  1  0.196077  0.196096  0.803916  1
  Nb  Nb2  1  0.803912  0.196095  0.803920  1
  Nb  Nb3  1  0.196069  0.803914  0.196094  1
  Nb  Nb4  1  0.196097  0.803894  0.803912  1
  Nb  Nb5  1  0.803924  0.196064  0.196080  1
  Nb  Nb6  1  0.446082  0.446092  0.053916  1
  Nb  Nb7  1  0.053920  0.053904  0.446083  1
  Nb  Nb8  1  0.446087  0.053908  0.446084  1
  Nb  Nb9  1  0.053927  0.446075  0.053928  1
  Nb  Nb10  1  0.053910  0.446103  0.446083  1
  Nb  Nb11  1  0.446066  0.053928  0.053938  1
  Cr  Cr12  1  0.125055  0.624995  0.624952  1
  Cr  Cr13  1  0.624982  0.125045  0.624946  1
  Cr  Cr14  1  0.624975  0.624977  0.125055  1
  Cr  Cr15  1  0.625003  0.625017  0.625013  1
  Fe  Fe16  1  0.726680  0.424453  0.424435  1
  Fe  Fe17  1  0.424432  0.726722  0.424426  1
  Fe  Fe18  1  0.424450  0.424457  0.726661  1
  Fe  Fe19  1  0.424426  0.424432  0.424415  1
  Fe  Fe20  1  0.523313  0.825551  0.825566  1
  Fe  Fe21  1  0.825570  0.523263  0.825575  1
  Fe  Fe22  1  0.825561  0.825552  0.523302  1
  Fe  Fe23  1  0.825569  0.825569  0.825586  1
  N  N24  1  0.625001  0.124997  0.125001  1
  N  N25  1  0.125001  0.624996  0.125002  1
  N  N26  1  0.125001  0.124997  0.624999  1
  N  N27  1  0.125001  0.124996  0.125003  1
