# generated using pymatgen
data_CrHg3(OF3)2
_symmetry_space_group_name_H-M   'P 1'
_cell_length_a   6.92372979
_cell_length_b   6.91383633
_cell_length_c   5.12586930
_cell_angle_alpha   90.00000196
_cell_angle_beta   89.84403637
_cell_angle_gamma   119.95274891
_symmetry_Int_Tables_number   1
_chemical_formula_structural   CrHg3(OF3)2
_chemical_formula_sum   'Cr1 Hg3 O2 F6'
_cell_volume   212.59928858
_cell_formula_units_Z   1
loop_
 _symmetry_equiv_pos_site_id
 _symmetry_equiv_pos_as_xyz
  1  'x, y, z'
loop_
 _atom_site_type_symbol
 _atom_site_label
 _atom_site_symmetry_multiplicity
 _atom_site_fract_x
 _atom_site_fract_y
 _atom_site_fract_z
 _atom_site_occupancy
  Cr  Cr0  1  0.000000  0.000000  0.500000  1
  Hg  Hg1  1  0.500000  0.000000  0.000000  1
  Hg  Hg2  1  0.000000  0.500000  0.000000  1
  Hg  Hg3  1  0.500000  0.500000  0.000000  1
  O  O4  1  0.666591  0.333295  0.115557  1
  O  O5  1  0.333408  0.666705  0.884444  1
  F  F6  1  0.129352  0.257700  0.292351  1
  F  F7  1  0.129352  0.871654  0.292351  1
  F  F8  1  0.743811  0.871907  0.294955  1
  F  F9  1  0.256190  0.128093  0.705045  1
  F  F10  1  0.870648  0.128346  0.707649  1
  F  F11  1  0.870647  0.742300  0.707649  1
