# generated using pymatgen
data_YbDy9(ReO6)4
_symmetry_space_group_name_H-M   'P 1'
_cell_length_a   5.66971600
_cell_length_b   7.58017392
_cell_length_c   12.41706540
_cell_angle_alpha   107.59659697
_cell_angle_beta   90.00000000
_cell_angle_gamma   90.00000000
_symmetry_Int_Tables_number   1
_chemical_formula_structural   YbDy9(ReO6)4
_chemical_formula_sum   'Yb1 Dy9 Re4 O24'
_cell_volume   508.68321484
_cell_formula_units_Z   1
loop_
 _symmetry_equiv_pos_site_id
 _symmetry_equiv_pos_as_xyz
  1  'x, y, z'
loop_
 _atom_site_type_symbol
 _atom_site_label
 _atom_site_symmetry_multiplicity
 _atom_site_fract_x
 _atom_site_fract_y
 _atom_site_fract_z
 _atom_site_occupancy
  Yb  Yb0  1  0.250000  0.610615  0.434056  1
  Dy  Dy1  1  0.750000  0.386684  0.564245  1
  Dy  Dy2  1  0.250000  0.081888  0.445132  1
  Dy  Dy3  1  0.750000  0.910722  0.551601  1
  Dy  Dy4  1  0.250000  0.886682  0.064875  1
  Dy  Dy5  1  0.750000  0.111884  0.935462  1
  Dy  Dy6  1  0.250000  0.414306  0.054070  1
  Dy  Dy7  1  0.750000  0.587271  0.947453  1
  Dy  Dy8  1  0.250000  0.247516  0.748737  1
  Dy  Dy9  1  0.750000  0.756062  0.254912  1
  Re  Re10  1  0.465103  0.747524  0.749229  1
  Re  Re11  1  0.965423  0.253880  0.250539  1
  Re  Re12  1  0.534577  0.253880  0.250539  1
  Re  Re13  1  0.034897  0.747524  0.749229  1
  O  O14  1  0.250000  0.955073  0.751833  1
  O  O15  1  0.750000  0.045721  0.246354  1
  O  O16  1  0.502353  0.329153  0.904410  1
  O  O17  1  0.002943  0.670254  0.095294  1
  O  O18  1  0.497057  0.670254  0.095294  1
  O  O19  1  0.997647  0.329153  0.904410  1
  O  O20  1  0.250000  0.541270  0.749006  1
  O  O21  1  0.750000  0.460191  0.251572  1
  O  O22  1  0.250000  0.076651  0.250121  1
  O  O23  1  0.750000  0.924026  0.749960  1
  O  O24  1  0.501516  0.829177  0.914598  1
  O  O25  1  0.000342  0.171006  0.085816  1
  O  O26  1  0.499658  0.171006  0.085816  1
  O  O27  1  0.998484  0.829177  0.914598  1
  O  O28  1  0.502305  0.170479  0.596437  1
  O  O29  1  0.998225  0.837419  0.404144  1
  O  O30  1  0.501775  0.837419  0.404144  1
  O  O31  1  0.997695  0.170479  0.596437  1
  O  O32  1  0.503004  0.668237  0.587896  1
  O  O33  1  0.997162  0.325954  0.412195  1
  O  O34  1  0.502838  0.325954  0.412195  1
  O  O35  1  0.996996  0.668237  0.587896  1
  O  O36  1  0.250000  0.425082  0.247694  1
  O  O37  1  0.750000  0.572191  0.751795  1
