# generated using pymatgen
data_TiGaTcPt
_symmetry_space_group_name_H-M   'P 1'
_cell_length_a   4.37643621
_cell_length_b   4.37643590
_cell_length_c   4.37643500
_cell_angle_alpha   59.99999926
_cell_angle_beta   60.00000161
_cell_angle_gamma   60.00000309
_symmetry_Int_Tables_number   1
_chemical_formula_structural   TiGaTcPt
_chemical_formula_sum   'Ti1 Ga1 Tc1 Pt1'
_cell_volume   59.27160300
_cell_formula_units_Z   1
loop_
 _symmetry_equiv_pos_site_id
 _symmetry_equiv_pos_as_xyz
  1  'x, y, z'
loop_
 _atom_site_type_symbol
 _atom_site_label
 _atom_site_symmetry_multiplicity
 _atom_site_fract_x
 _atom_site_fract_y
 _atom_site_fract_z
 _atom_site_occupancy
  Ti  Ti0  1  0.750000  0.750000  0.750000  1
  Ga  Ga1  1  0.250000  0.250000  0.250000  1
  Tc  Tc2  1  0.000000  0.000000  0.000000  1
  Pt  Pt3  1  0.500000  0.500000  0.500000  1
