# generated using pymatgen
data_LaBi3Te10
_symmetry_space_group_name_H-M   'P 1'
_cell_length_a   24.08252686
_cell_length_b   24.08252573
_cell_length_c   3.19300100
_cell_angle_alpha   90.00000000
_cell_angle_beta   90.00000000
_cell_angle_gamma   166.45253183
_symmetry_Int_Tables_number   1
_chemical_formula_structural   LaBi3Te10
_chemical_formula_sum   'La1 Bi3 Te10'
_cell_volume   433.79480904
_cell_formula_units_Z   1
loop_
 _symmetry_equiv_pos_site_id
 _symmetry_equiv_pos_as_xyz
  1  'x, y, z'
loop_
 _atom_site_type_symbol
 _atom_site_label
 _atom_site_symmetry_multiplicity
 _atom_site_fract_x
 _atom_site_fract_y
 _atom_site_fract_z
 _atom_site_occupancy
  La  La0  1  0.102786  0.897214  0.750000  1
  Bi  Bi1  1  0.684516  0.315484  0.250000  1
  Bi  Bi2  1  0.319546  0.680454  0.750000  1
  Bi  Bi3  1  0.886209  0.113791  0.250000  1
  Te  Te4  1  0.620838  0.379162  0.250000  1
  Te  Te5  1  0.384763  0.615237  0.750000  1
  Te  Te6  1  0.821223  0.178777  0.250000  1
  Te  Te7  1  0.176565  0.823435  0.750000  1
  Te  Te8  1  0.954327  0.045673  0.750000  1
  Te  Te9  1  0.043585  0.956415  0.250000  1
  Te  Te10  1  0.545146  0.454854  0.750000  1
  Te  Te11  1  0.458184  0.541816  0.250000  1
  Te  Te12  1  0.749295  0.250705  0.750000  1
  Te  Te13  1  0.253017  0.746983  0.250000  1
