# generated using pymatgen
data_NaNd(TcH9)2
_symmetry_space_group_name_H-M   'P 1'
_cell_length_a   4.88578608
_cell_length_b   4.88577584
_cell_length_c   8.50167700
_cell_angle_alpha   91.28553420
_cell_angle_beta   88.71428081
_cell_angle_gamma   121.92448352
_symmetry_Int_Tables_number   1
_chemical_formula_structural   NaNd(TcH9)2
_chemical_formula_sum   'Na1 Nd1 Tc2 H18'
_cell_volume   172.18970192
_cell_formula_units_Z   1
loop_
 _symmetry_equiv_pos_site_id
 _symmetry_equiv_pos_as_xyz
  1  'x, y, z'
loop_
 _atom_site_type_symbol
 _atom_site_label
 _atom_site_symmetry_multiplicity
 _atom_site_fract_x
 _atom_site_fract_y
 _atom_site_fract_z
 _atom_site_occupancy
  Na  Na0  1  0.000000  0.000000  0.000000  1
  Nd  Nd1  1  0.000000  0.000000  0.500000  1
  Tc  Tc2  1  0.326069  0.673954  0.738020  1
  Tc  Tc3  1  0.673931  0.326046  0.261980  1
  H  H4  1  0.419313  0.580696  0.560455  1
  H  H5  1  0.580687  0.419304  0.439545  1
  H  H6  1  0.409575  0.590430  0.910332  1
  H  H7  1  0.590425  0.409570  0.089668  1
  H  H8  1  0.499512  0.985064  0.863016  1
  H  H9  1  0.985051  0.499498  0.136983  1
  H  H10  1  0.519023  0.019230  0.632342  1
  H  H11  1  0.019215  0.519002  0.367658  1
  H  H12  1  0.500488  0.014936  0.136984  1
  H  H13  1  0.014949  0.500502  0.863017  1
  H  H14  1  0.480977  0.980770  0.367658  1
  H  H15  1  0.980785  0.480998  0.632342  1
  H  H16  1  0.712333  0.772691  0.749701  1
  H  H17  1  0.772685  0.712323  0.250299  1
  H  H18  1  0.287667  0.227309  0.250299  1
  H  H19  1  0.227315  0.287677  0.749701  1
  H  H20  1  0.134261  0.865763  0.761899  1
  H  H21  1  0.865739  0.134237  0.238101  1
