# generated using pymatgen
data_TbDy2Al12Ru3Pt
_symmetry_space_group_name_H-M   'P 1'
_cell_length_a   8.84614223
_cell_length_b   8.80217787
_cell_length_c   9.56487203
_cell_angle_alpha   89.99999872
_cell_angle_beta   90.07385370
_cell_angle_gamma   119.83573530
_symmetry_Int_Tables_number   1
_chemical_formula_structural   TbDy2Al12Ru3Pt
_chemical_formula_sum   'Tb2 Dy4 Al24 Ru6 Pt2'
_cell_volume   646.05554566
_cell_formula_units_Z   2
loop_
 _symmetry_equiv_pos_site_id
 _symmetry_equiv_pos_as_xyz
  1  'x, y, z'
loop_
 _atom_site_type_symbol
 _atom_site_label
 _atom_site_symmetry_multiplicity
 _atom_site_fract_x
 _atom_site_fract_y
 _atom_site_fract_z
 _atom_site_occupancy
  Tb  Tb0  1  0.191079  0.805717  0.751648  1
  Tb  Tb1  1  0.191079  0.385363  0.751648  1
  Dy  Dy2  1  0.384560  0.192280  0.248888  1
  Dy  Dy3  1  0.808727  0.194720  0.248264  1
  Dy  Dy4  1  0.808727  0.614006  0.248264  1
  Dy  Dy5  1  0.615583  0.807792  0.751125  1
  Al  Al6  1  0.437884  0.875110  0.247294  1
  Al  Al7  1  0.122055  0.561027  0.250899  1
  Al  Al8  1  0.437884  0.562774  0.247294  1
  Al  Al9  1  0.562387  0.125073  0.752756  1
  Al  Al10  1  0.877493  0.438746  0.749061  1
  Al  Al11  1  0.562387  0.437314  0.752756  1
  Al  Al12  1  0.157806  0.833125  0.421010  1
  Al  Al13  1  0.157806  0.324682  0.421010  1
  Al  Al14  1  0.677412  0.838707  0.420873  1
  Al  Al15  1  0.842000  0.166778  0.578632  1
  Al  Al16  1  0.842000  0.675221  0.578632  1
  Al  Al17  1  0.322731  0.161365  0.578853  1
  Al  Al18  1  0.836312  0.163083  0.923358  1
  Al  Al19  1  0.836312  0.673228  0.923358  1
  Al  Al20  1  0.326392  0.163195  0.924556  1
  Al  Al21  1  0.163522  0.836837  0.077015  1
  Al  Al22  1  0.163522  0.326686  0.077015  1
  Al  Al23  1  0.673800  0.836901  0.075733  1
  Al  Al24  1  0.327286  0.663644  0.523247  1
  Al  Al25  1  0.672876  0.336437  0.476346  1
  Al  Al26  1  0.666978  0.333488  0.022535  1
  Al  Al27  1  0.333277  0.666639  0.977860  1
  Al  Al28  1  0.002207  0.001103  0.249584  1
  Al  Al29  1  0.997473  0.998737  0.750415  1
  Ru  Ru30  1  0.999986  0.999993  0.499982  1
  Ru  Ru31  1  0.999973  0.999987  0.000016  1
  Ru  Ru32  1  0.999833  0.499916  0.499733  1
  Ru  Ru33  1  0.500207  0.000193  0.000166  1
  Ru  Ru34  1  0.999837  0.499919  0.000226  1
  Ru  Ru35  1  0.500207  0.500013  0.000166  1
  Pt  Pt36  1  0.500200  0.000153  0.499890  1
  Pt  Pt37  1  0.500200  0.500047  0.499890  1
