# generated using pymatgen
data_Tb8Ta11TiSi15As
_symmetry_space_group_name_H-M   'P 1'
_cell_length_a   7.06383643
_cell_length_b   7.05247467
_cell_length_c   13.04161877
_cell_angle_alpha   89.91646425
_cell_angle_beta   89.88978288
_cell_angle_gamma   89.96169604
_symmetry_Int_Tables_number   1
_chemical_formula_structural   Tb8Ta11TiSi15As
_chemical_formula_sum   'Tb8 Ta11 Ti1 Si15 As1'
_cell_volume   649.69916537
_cell_formula_units_Z   1
loop_
 _symmetry_equiv_pos_site_id
 _symmetry_equiv_pos_as_xyz
  1  'x, y, z'
loop_
 _atom_site_type_symbol
 _atom_site_label
 _atom_site_symmetry_multiplicity
 _atom_site_fract_x
 _atom_site_fract_y
 _atom_site_fract_z
 _atom_site_occupancy
  Tb  Tb0  1  0.341917  0.001924  0.467262  1
  Tb  Tb1  1  0.497725  0.842999  0.718839  1
  Tb  Tb2  1  0.501877  0.158707  0.218163  1
  Tb  Tb3  1  0.841024  0.497055  0.281800  1
  Tb  Tb4  1  0.158819  0.501048  0.781736  1
  Tb  Tb5  1  0.660105  0.995799  0.968923  1
  Tb  Tb6  1  0.999838  0.343423  0.530705  1
  Tb  Tb7  1  0.997549  0.659766  0.031791  1
  Ta  Ta8  1  0.329192  0.329380  0.999812  1
  Ta  Ta9  1  0.170874  0.828909  0.250004  1
  Ta  Ta10  1  0.824974  0.173292  0.750038  1
  Ta  Ta11  1  0.670173  0.670104  0.499925  1
  Ta  Ta12  1  0.155123  0.007817  0.874934  1
  Ta  Ta13  1  0.492617  0.653136  0.124873  1
  Ta  Ta14  1  0.509053  0.347347  0.625084  1
  Ta  Ta15  1  0.654850  0.494451  0.876540  1
  Ta  Ta16  1  0.346918  0.506535  0.375460  1
  Ta  Ta17  1  0.845088  0.992119  0.374520  1
  Ta  Ta18  1  0.007708  0.153081  0.125564  1
  Ti  Ti19  1  0.990603  0.842361  0.624663  1
  Si  Si20  1  0.366741  0.703978  0.932481  1
  Si  Si21  1  0.632195  0.296605  0.432880  1
  Si  Si22  1  0.703039  0.366667  0.067700  1
  Si  Si23  1  0.296529  0.633598  0.567252  1
  Si  Si24  1  0.797026  0.866507  0.182656  1
  Si  Si25  1  0.133221  0.202937  0.317873  1
  Si  Si26  1  0.868106  0.798614  0.816394  1
  Si  Si27  1  0.294179  0.954727  0.064027  1
  Si  Si28  1  0.545086  0.793493  0.313897  1
  Si  Si29  1  0.461651  0.207865  0.817999  1
  Si  Si30  1  0.794896  0.547294  0.685204  1
  Si  Si31  1  0.205989  0.454770  0.185967  1
  Si  Si32  1  0.708476  0.043833  0.564375  1
  Si  Si33  1  0.954716  0.293921  0.936185  1
  Si  Si34  1  0.044952  0.707640  0.436323  1
  As  As35  1  0.197174  0.128304  0.678150  1
