# generated using pymatgen
data_Tm10Lu2InFe3Bi
_symmetry_space_group_name_H-M   'P 1'
_cell_length_a   8.27531700
_cell_length_b   8.26955947
_cell_length_c   8.26955976
_cell_angle_alpha   108.57426334
_cell_angle_beta   108.23475954
_cell_angle_gamma   111.59732552
_symmetry_Int_Tables_number   1
_chemical_formula_structural   Tm10Lu2InFe3Bi
_chemical_formula_sum   'Tm10 Lu2 In1 Fe3 Bi1'
_cell_volume   435.33507066
_cell_formula_units_Z   1
loop_
 _symmetry_equiv_pos_site_id
 _symmetry_equiv_pos_as_xyz
  1  'x, y, z'
loop_
 _atom_site_type_symbol
 _atom_site_label
 _atom_site_symmetry_multiplicity
 _atom_site_fract_x
 _atom_site_fract_y
 _atom_site_fract_z
 _atom_site_occupancy
  Tm  Tm0  1  0.312928  0.303252  0.615923  1
  Tm  Tm1  1  0.687072  0.696748  0.384077  1
  Tm  Tm2  1  0.687072  0.302995  0.990323  1
  Tm  Tm3  1  0.312928  0.697005  0.009677  1
  Tm  Tm4  1  0.194257  0.425485  0.231510  1
  Tm  Tm5  1  0.805743  0.574515  0.768490  1
  Tm  Tm6  1  0.194257  0.962746  0.768772  1
  Tm  Tm7  1  0.954901  0.190863  0.764040  1
  Tm  Tm8  1  0.805743  0.037254  0.231228  1
  Tm  Tm9  1  0.045099  0.809137  0.235960  1
  Lu  Lu10  1  0.426681  0.190844  0.235837  1
  Lu  Lu11  1  0.573319  0.809156  0.764163  1
  In  In12  1  0.500000  0.000000  0.500000  1
  Fe  Fe13  1  0.383713  0.383643  0.000071  1
  Fe  Fe14  1  0.616287  0.616357  0.999929  1
  Fe  Fe15  1  0.000000  0.000000  0.000000  1
  Bi  Bi16  1  0.000000  0.500000  0.500000  1
