# generated using pymatgen
data_CrSb(SeO3)4
_symmetry_space_group_name_H-M   'P 1'
_cell_length_a   8.20616500
_cell_length_b   8.17332115
_cell_length_c   8.20024511
_cell_angle_alpha   89.34411967
_cell_angle_beta   90.00000000
_cell_angle_gamma   90.00000000
_symmetry_Int_Tables_number   1
_chemical_formula_structural   CrSb(SeO3)4
_chemical_formula_sum   'Cr2 Sb2 Se8 O24'
_cell_volume   549.96770398
_cell_formula_units_Z   2
loop_
 _symmetry_equiv_pos_site_id
 _symmetry_equiv_pos_as_xyz
  1  'x, y, z'
loop_
 _atom_site_type_symbol
 _atom_site_label
 _atom_site_symmetry_multiplicity
 _atom_site_fract_x
 _atom_site_fract_y
 _atom_site_fract_z
 _atom_site_occupancy
  Cr  Cr0  1  0.000000  0.500000  0.000000  1
  Cr  Cr1  1  0.500000  0.500000  0.500000  1
  Sb  Sb2  1  0.000000  0.000000  0.500000  1
  Sb  Sb3  1  0.500000  0.000000  0.000000  1
  Se  Se4  1  0.328223  0.659921  0.170714  1
  Se  Se5  1  0.828223  0.340079  0.329286  1
  Se  Se6  1  0.665663  0.823972  0.666766  1
  Se  Se7  1  0.165663  0.176028  0.833234  1
  Se  Se8  1  0.671777  0.340079  0.829286  1
  Se  Se9  1  0.171777  0.659921  0.670714  1
  Se  Se10  1  0.334337  0.176028  0.333234  1
  Se  Se11  1  0.834337  0.823972  0.166766  1
  O  O12  1  0.241252  0.532646  0.032088  1
  O  O13  1  0.741252  0.467354  0.467912  1
  O  O14  1  0.757374  0.970766  0.533963  1
  O  O15  1  0.257374  0.029234  0.966037  1
  O  O16  1  0.532638  0.968505  0.757274  1
  O  O17  1  0.467648  0.531550  0.258694  1
  O  O18  1  0.967648  0.468450  0.241306  1
  O  O19  1  0.032638  0.031495  0.742726  1
  O  O20  1  0.970748  0.240418  0.469067  1
  O  O21  1  0.534189  0.743119  0.531611  1
  O  O22  1  0.470748  0.759582  0.030933  1
  O  O23  1  0.034189  0.256881  0.968389  1
  O  O24  1  0.758748  0.467354  0.967912  1
  O  O25  1  0.258748  0.532646  0.532088  1
  O  O26  1  0.242626  0.029234  0.466037  1
  O  O27  1  0.742626  0.970766  0.033963  1
  O  O28  1  0.467362  0.031495  0.242726  1
  O  O29  1  0.532352  0.468450  0.741306  1
  O  O30  1  0.032352  0.531550  0.758694  1
  O  O31  1  0.967362  0.968505  0.257274  1
  O  O32  1  0.029252  0.759582  0.530933  1
  O  O33  1  0.465811  0.256881  0.468389  1
  O  O34  1  0.529252  0.240418  0.969067  1
  O  O35  1  0.965811  0.743119  0.031611  1
