# generated using pymatgen
data_Sr15Ca3(ThPt8)2
_symmetry_space_group_name_H-M   'P 1'
_cell_length_a   7.98195405
_cell_length_b   8.11284748
_cell_length_c   15.55642900
_cell_angle_alpha   89.96754849
_cell_angle_beta   90.27813343
_cell_angle_gamma   90.22805753
_symmetry_Int_Tables_number   1
_chemical_formula_structural   Sr15Ca3(ThPt8)2
_chemical_formula_sum   'Sr15 Ca3 Th2 Pt16'
_cell_volume   1007.35796207
_cell_formula_units_Z   1
loop_
 _symmetry_equiv_pos_site_id
 _symmetry_equiv_pos_as_xyz
  1  'x, y, z'
loop_
 _atom_site_type_symbol
 _atom_site_label
 _atom_site_symmetry_multiplicity
 _atom_site_fract_x
 _atom_site_fract_y
 _atom_site_fract_z
 _atom_site_occupancy
  Sr  Sr0  1  0.166344  0.328141  0.380354  1
  Sr  Sr1  1  0.335408  0.828704  0.620600  1
  Sr  Sr2  1  0.839633  0.669117  0.882395  1
  Sr  Sr3  1  0.494924  0.324502  0.899580  1
  Sr  Sr4  1  0.988947  0.179416  0.599910  1
  Sr  Sr5  1  0.510487  0.681990  0.406012  1
  Sr  Sr6  1  0.008038  0.821628  0.096251  1
  Sr  Sr7  1  0.505942  0.681386  0.093523  1
  Sr  Sr8  1  0.003304  0.817217  0.413887  1
  Sr  Sr9  1  0.495799  0.319324  0.593395  1
  Sr  Sr10  1  0.996314  0.177481  0.900956  1
  Sr  Sr11  1  0.174599  0.494551  0.748181  1
  Sr  Sr12  1  0.674418  0.006665  0.749219  1
  Sr  Sr13  1  0.822224  0.516529  0.254277  1
  Sr  Sr14  1  0.319802  0.981996  0.254502  1
  Ca  Ca15  1  0.337926  0.835913  0.878756  1
  Ca  Ca16  1  0.831405  0.669775  0.624163  1
  Ca  Ca17  1  0.667958  0.168082  0.376907  1
  Th  Th18  1  0.162176  0.335097  0.120786  1
  Th  Th19  1  0.659748  0.163937  0.121706  1
  Pt  Pt20  1  0.334307  0.059769  0.042013  1
  Pt  Pt21  1  0.827399  0.466009  0.462697  1
  Pt  Pt22  1  0.672766  0.963610  0.535347  1
  Pt  Pt23  1  0.178345  0.532931  0.969965  1
  Pt  Pt24  1  0.660938  0.977808  0.967599  1
  Pt  Pt25  1  0.143338  0.528201  0.543814  1
  Pt  Pt26  1  0.354112  0.026506  0.455466  1
  Pt  Pt27  1  0.838862  0.439896  0.046265  1
  Pt  Pt28  1  0.547196  0.622003  0.753942  1
  Pt  Pt29  1  0.048277  0.881975  0.752808  1
  Pt  Pt30  1  0.457761  0.364268  0.235155  1
  Pt  Pt31  1  0.953206  0.134086  0.235608  1
  Pt  Pt32  1  0.288733  0.125783  0.753235  1
  Pt  Pt33  1  0.784486  0.376053  0.748099  1
  Pt  Pt34  1  0.705503  0.889868  0.242671  1
  Pt  Pt35  1  0.209375  0.609780  0.239959  1
