# generated using pymatgen
data_V3Re(SiMo)2
_symmetry_space_group_name_H-M   'P 1'
_cell_length_a   4.77467185
_cell_length_b   4.82149318
_cell_length_c   4.77467145
_cell_angle_alpha   89.94198533
_cell_angle_beta   90.00505110
_cell_angle_gamma   90.05800743
_symmetry_Int_Tables_number   1
_chemical_formula_structural   V3Re(SiMo)2
_chemical_formula_sum   'V3 Re1 Si2 Mo2'
_cell_volume   109.91782634
_cell_formula_units_Z   1
loop_
 _symmetry_equiv_pos_site_id
 _symmetry_equiv_pos_as_xyz
  1  'x, y, z'
loop_
 _atom_site_type_symbol
 _atom_site_label
 _atom_site_symmetry_multiplicity
 _atom_site_fract_x
 _atom_site_fract_y
 _atom_site_fract_z
 _atom_site_occupancy
  V  V0  1  0.499610  0.250000  0.999610  1
  V  V1  1  0.749407  0.999459  0.500287  1
  V  V2  1  0.000287  0.500541  0.249407  1
  Re  Re3  1  0.500556  0.750000  0.000556  1
  Si  Si4  1  0.505521  0.494478  0.493929  1
  Si  Si5  1  0.993929  0.005522  0.005521  1
  Mo  Mo6  1  0.250791  0.999811  0.499898  1
  Mo  Mo7  1  0.999898  0.500189  0.750791  1
