# generated using pymatgen
data_Ho2CrPdF14
_symmetry_space_group_name_H-M   'P 1'
_cell_length_a   5.50357800
_cell_length_b   8.77955599
_cell_length_c   11.76125927
_cell_angle_alpha   62.79381021
_cell_angle_beta   90.00000000
_cell_angle_gamma   90.00000000
_symmetry_Int_Tables_number   1
_chemical_formula_structural   Ho2CrPdF14
_chemical_formula_sum   'Ho4 Cr2 Pd2 F28'
_cell_volume   505.42009727
_cell_formula_units_Z   2
loop_
 _symmetry_equiv_pos_site_id
 _symmetry_equiv_pos_as_xyz
  1  'x, y, z'
loop_
 _atom_site_type_symbol
 _atom_site_label
 _atom_site_symmetry_multiplicity
 _atom_site_fract_x
 _atom_site_fract_y
 _atom_site_fract_z
 _atom_site_occupancy
  Ho  Ho0  1  0.764860  0.811974  0.767530  1
  Ho  Ho1  1  0.264860  0.188026  0.732470  1
  Ho  Ho2  1  0.236623  0.188609  0.236520  1
  Ho  Ho3  1  0.736623  0.811391  0.263480  1
  Cr  Cr4  1  0.242495  0.725480  0.044332  1
  Cr  Cr5  1  0.742495  0.274520  0.455668  1
  Pd  Pd6  1  0.758461  0.271842  0.956743  1
  Pd  Pd7  1  0.258461  0.728158  0.543257  1
  F  F8  1  0.441953  0.708015  0.925524  1
  F  F9  1  0.941953  0.291985  0.574476  1
  F  F10  1  0.568644  0.299707  0.085643  1
  F  F11  1  0.068644  0.700293  0.414357  1
  F  F12  1  0.458614  0.280133  0.546131  1
  F  F13  1  0.958614  0.719867  0.953869  1
  F  F14  1  0.561888  0.718448  0.460545  1
  F  F15  1  0.061888  0.281552  0.039455  1
  F  F16  1  0.769713  0.520062  0.855792  1
  F  F17  1  0.269713  0.479938  0.644208  1
  F  F18  1  0.229674  0.489577  0.137313  1
  F  F19  1  0.729674  0.510423  0.362687  1
  F  F20  1  0.756041  0.023524  0.048182  1
  F  F21  1  0.256041  0.976476  0.451818  1
  F  F22  1  0.244275  0.959559  0.953548  1
  F  F23  1  0.744275  0.040441  0.546452  1
  F  F24  1  0.960899  0.729528  0.632025  1
  F  F25  1  0.460899  0.270472  0.867975  1
  F  F26  1  0.015222  0.272855  0.358632  1
  F  F27  1  0.515222  0.727145  0.141368  1
  F  F28  1  0.044055  0.743619  0.166536  1
  F  F29  1  0.544055  0.256381  0.333464  1
  F  F30  1  0.943142  0.250605  0.822768  1
  F  F31  1  0.443142  0.749395  0.677232  1
  F  F32  1  0.416676  0.971925  0.233298  1
  F  F33  1  0.916676  0.028075  0.266702  1
  F  F34  1  0.586766  0.026867  0.773137  1
  F  F35  1  0.086766  0.973133  0.726863  1
