# generated using pymatgen
data_Sr2FeNi4Mo(PO4)6
_symmetry_space_group_name_H-M   'P 1'
_cell_length_a   9.08678694
_cell_length_b   9.08678745
_cell_length_c   9.08678700
_cell_angle_alpha   137.54206788
_cell_angle_beta   109.44697233
_cell_angle_gamma   85.94537673
_symmetry_Int_Tables_number   1
_chemical_formula_structural   Sr2FeNi4Mo(PO4)6
_chemical_formula_sum   'Sr2 Fe1 Ni4 Mo1 P6 O24'
_cell_volume   459.20260779
_cell_formula_units_Z   1
loop_
 _symmetry_equiv_pos_site_id
 _symmetry_equiv_pos_as_xyz
  1  'x, y, z'
loop_
 _atom_site_type_symbol
 _atom_site_label
 _atom_site_symmetry_multiplicity
 _atom_site_fract_x
 _atom_site_fract_y
 _atom_site_fract_z
 _atom_site_occupancy
  Sr  Sr0  1  0.249008  0.340913  0.091904  1
  Sr  Sr1  1  0.750992  0.659087  0.908096  1
  Fe  Fe2  1  0.000000  0.500000  0.500000  1
  Ni  Ni3  1  0.113641  0.117626  0.498278  1
  Ni  Ni4  1  0.380652  0.882374  0.996014  1
  Ni  Ni5  1  0.619348  0.117626  0.003986  1
  Ni  Ni6  1  0.886359  0.882374  0.501722  1
  Mo  Mo7  1  0.500000  0.000000  0.500000  1
  P  P8  1  0.248796  0.835991  0.587195  1
  P  P9  1  0.751204  0.164009  0.412805  1
  P  P10  1  0.318027  0.325655  0.498272  1
  P  P11  1  0.172617  0.674345  0.992371  1
  P  P12  1  0.827383  0.325655  0.007629  1
  P  P13  1  0.681973  0.674345  0.501728  1
  O  O14  1  0.339785  0.782113  0.442329  1
  O  O15  1  0.660215  0.217887  0.557671  1
  O  O16  1  0.845729  0.392453  0.546724  1
  O  O17  1  0.154271  0.607547  0.453276  1
  O  O18  1  0.133618  0.984042  0.615203  1
  O  O19  1  0.631162  0.015958  0.149576  1
  O  O20  1  0.866382  0.015958  0.384797  1
  O  O21  1  0.368838  0.984042  0.850424  1
  O  O22  1  0.345120  0.201609  0.275563  1
  O  O23  1  0.073954  0.798391  0.143511  1
  O  O24  1  0.854949  0.572855  0.151069  1
  O  O25  1  0.578214  0.427145  0.282094  1
  O  O26  1  0.654880  0.798391  0.724437  1
  O  O27  1  0.926046  0.201609  0.856489  1
  O  O28  1  0.145051  0.427145  0.848931  1
  O  O29  1  0.421786  0.572855  0.717906  1
  O  O30  1  0.128764  0.286946  0.426562  1
  O  O31  1  0.139618  0.713054  0.841819  1
  O  O32  1  0.637832  0.211790  0.862357  1
  O  O33  1  0.650567  0.788210  0.426042  1
  O  O34  1  0.871236  0.713054  0.573438  1
  O  O35  1  0.860382  0.286946  0.158181  1
  O  O36  1  0.362168  0.788210  0.137643  1
  O  O37  1  0.349433  0.211790  0.573958  1
