# generated using pymatgen
data_Nd6Cd21PAu2
_symmetry_space_group_name_H-M   'P 1'
_cell_length_a   10.02672484
_cell_length_b   10.02672513
_cell_length_c   10.03473220
_cell_angle_alpha   59.95487899
_cell_angle_beta   59.95487527
_cell_angle_gamma   59.93285676
_symmetry_Int_Tables_number   1
_chemical_formula_structural   Nd6Cd21PAu2
_chemical_formula_sum   'Nd6 Cd21 P1 Au2'
_cell_volume   712.51152832
_cell_formula_units_Z   1
loop_
 _symmetry_equiv_pos_site_id
 _symmetry_equiv_pos_as_xyz
  1  'x, y, z'
loop_
 _atom_site_type_symbol
 _atom_site_label
 _atom_site_symmetry_multiplicity
 _atom_site_fract_x
 _atom_site_fract_y
 _atom_site_fract_z
 _atom_site_occupancy
  Nd  Nd0  1  0.796914  0.796914  0.208013  1
  Nd  Nd1  1  0.197512  0.797470  0.206381  1
  Nd  Nd2  1  0.797470  0.197512  0.206381  1
  Nd  Nd3  1  0.205081  0.205081  0.795448  1
  Nd  Nd4  1  0.793942  0.205849  0.796376  1
  Nd  Nd5  1  0.205849  0.793942  0.796376  1
  Cd  Cd6  1  0.828601  0.502600  0.835261  1
  Cd  Cd7  1  0.502600  0.828601  0.835261  1
  Cd  Cd8  1  0.835331  0.835331  0.837386  1
  Cd  Cd9  1  0.167567  0.167567  0.498289  1
  Cd  Cd10  1  0.171169  0.497328  0.166179  1
  Cd  Cd11  1  0.497328  0.171169  0.166179  1
  Cd  Cd12  1  0.164767  0.164767  0.165355  1
  Cd  Cd13  1  0.619624  0.619624  0.136206  1
  Cd  Cd14  1  0.626647  0.128469  0.622085  1
  Cd  Cd15  1  0.128469  0.626647  0.622085  1
  Cd  Cd16  1  0.620348  0.620348  0.625291  1
  Cd  Cd17  1  0.378754  0.378754  0.867431  1
  Cd  Cd18  1  0.376892  0.864736  0.376662  1
  Cd  Cd19  1  0.864736  0.376892  0.376662  1
  Cd  Cd20  1  0.383057  0.383057  0.373616  1
  Cd  Cd21  1  0.998272  0.998272  0.500922  1
  Cd  Cd22  1  0.502173  0.998481  0.501147  1
  Cd  Cd23  1  0.998481  0.502173  0.501147  1
  Cd  Cd24  1  0.999622  0.500034  0.000883  1
  Cd  Cd25  1  0.500034  0.999622  0.000883  1
  Cd  Cd26  1  0.498778  0.498778  0.503665  1
  P  P27  1  0.001494  0.001494  0.995270  1
  Au  Au28  1  0.838506  0.838506  0.482568  1
  Au  Au29  1  0.499986  0.499986  0.000592  1
