# generated using pymatgen
data_Sm3DyHo(CoB3)2
_symmetry_space_group_name_H-M   'P 1'
_cell_length_a   5.42012133
_cell_length_b   5.42012234
_cell_length_c   8.54074265
_cell_angle_alpha   71.49969589
_cell_angle_beta   71.49969117
_cell_angle_gamma   59.99999118
_symmetry_Int_Tables_number   1
_chemical_formula_structural   Sm3DyHo(CoB3)2
_chemical_formula_sum   'Sm3 Dy1 Ho1 Co2 B6'
_cell_volume   202.18142854
_cell_formula_units_Z   1
loop_
 _symmetry_equiv_pos_site_id
 _symmetry_equiv_pos_as_xyz
  1  'x, y, z'
loop_
 _atom_site_type_symbol
 _atom_site_label
 _atom_site_symmetry_multiplicity
 _atom_site_fract_x
 _atom_site_fract_y
 _atom_site_fract_z
 _atom_site_occupancy
  Sm  Sm0  1  0.000076  0.000076  0.999773  1
  Sm  Sm1  1  0.252366  0.252366  0.242901  1
  Sm  Sm2  1  0.747633  0.747633  0.757102  1
  Dy  Dy3  1  0.581010  0.581010  0.256970  1
  Ho  Ho4  1  0.419265  0.419265  0.742205  1
  Co  Co5  1  0.120892  0.120892  0.637323  1
  Co  Co6  1  0.879080  0.879080  0.362760  1
  B  B7  1  0.168235  0.831597  0.500161  1
  B  B8  1  0.831597  0.500007  0.500161  1
  B  B9  1  0.500007  0.168235  0.500161  1
  B  B10  1  0.168235  0.500007  0.500161  1
  B  B11  1  0.500007  0.831597  0.500161  1
  B  B12  1  0.831597  0.168235  0.500161  1
