# generated using pymatgen
data_DyEr11Co4SnRh
_symmetry_space_group_name_H-M   'P 1'
_cell_length_a   8.22878326
_cell_length_b   8.22963141
_cell_length_c   8.22878355
_cell_angle_alpha   110.79920104
_cell_angle_beta   110.87505910
_cell_angle_gamma   106.76867801
_symmetry_Int_Tables_number   1
_chemical_formula_structural   DyEr11Co4SnRh
_chemical_formula_sum   'Dy1 Er11 Co4 Sn1 Rh1'
_cell_volume   428.28311646
_cell_formula_units_Z   1
loop_
 _symmetry_equiv_pos_site_id
 _symmetry_equiv_pos_as_xyz
  1  'x, y, z'
loop_
 _atom_site_type_symbol
 _atom_site_label
 _atom_site_symmetry_multiplicity
 _atom_site_fract_x
 _atom_site_fract_y
 _atom_site_fract_z
 _atom_site_occupancy
  Dy  Dy0  1  0.312915  0.617615  0.304699  1
  Er  Er1  1  0.686385  0.380797  0.694413  1
  Er  Er2  1  0.313906  0.008842  0.694936  1
  Er  Er3  1  0.686757  0.992377  0.305620  1
  Er  Er4  1  0.409706  0.212567  0.196279  1
  Er  Er5  1  0.591046  0.787311  0.804533  1
  Er  Er6  1  0.016289  0.212567  0.802861  1
  Er  Er7  1  0.982778  0.787311  0.196265  1
  Er  Er8  1  0.185933  0.289132  0.476095  1
  Er  Er9  1  0.814668  0.710559  0.524483  1
  Er  Er10  1  0.186076  0.710559  0.895892  1
  Er  Er11  1  0.813036  0.289132  0.103198  1
  Co  Co12  1  0.111366  0.611770  0.500404  1
  Co  Co13  1  0.887722  0.387468  0.499746  1
  Co  Co14  1  0.377970  0.001056  0.378060  1
  Co  Co15  1  0.622995  0.001056  0.623086  1
  Sn  Sn16  1  0.500381  0.499632  0.999251  1
  Rh  Rh17  1  0.000072  0.000250  0.000178  1
