# generated using pymatgen
data_Lu10Hg3Os
_symmetry_space_group_name_H-M   'P 1'
_cell_length_a   9.40009842
_cell_length_b   9.40009291
_cell_length_c   9.49780100
_cell_angle_alpha   90.00000000
_cell_angle_beta   90.00000000
_cell_angle_gamma   119.96526779
_symmetry_Int_Tables_number   1
_chemical_formula_structural   Lu10Hg3Os
_chemical_formula_sum   'Lu20 Hg6 Os2'
_cell_volume   727.05980305
_cell_formula_units_Z   2
loop_
 _symmetry_equiv_pos_site_id
 _symmetry_equiv_pos_as_xyz
  1  'x, y, z'
loop_
 _atom_site_type_symbol
 _atom_site_label
 _atom_site_symmetry_multiplicity
 _atom_site_fract_x
 _atom_site_fract_y
 _atom_site_fract_z
 _atom_site_occupancy
  Lu  Lu0  1  0.000000  0.000000  0.500000  1
  Lu  Lu1  1  0.000000  0.000000  0.000000  1
  Lu  Lu2  1  0.210003  0.789998  0.442283  1
  Lu  Lu3  1  0.210088  0.420236  0.442331  1
  Lu  Lu4  1  0.579763  0.789911  0.442331  1
  Lu  Lu5  1  0.789997  0.210002  0.557717  1
  Lu  Lu6  1  0.789912  0.579764  0.557669  1
  Lu  Lu7  1  0.420237  0.210089  0.557669  1
  Lu  Lu8  1  0.789997  0.210002  0.942283  1
  Lu  Lu9  1  0.789912  0.579764  0.942331  1
  Lu  Lu10  1  0.420237  0.210089  0.942331  1
  Lu  Lu11  1  0.210003  0.789998  0.057717  1
  Lu  Lu12  1  0.210088  0.420236  0.057669  1
  Lu  Lu13  1  0.579763  0.789911  0.057669  1
  Lu  Lu14  1  0.538713  0.461286  0.250000  1
  Lu  Lu15  1  0.538734  0.077691  0.250000  1
  Lu  Lu16  1  0.922309  0.461266  0.250000  1
  Lu  Lu17  1  0.461287  0.538714  0.750000  1
  Lu  Lu18  1  0.461266  0.922309  0.750000  1
  Lu  Lu19  1  0.077691  0.538734  0.750000  1
  Hg  Hg20  1  0.882243  0.117756  0.250000  1
  Hg  Hg21  1  0.882303  0.764860  0.250000  1
  Hg  Hg22  1  0.235139  0.117694  0.250000  1
  Hg  Hg23  1  0.117757  0.882244  0.750000  1
  Hg  Hg24  1  0.117697  0.235140  0.750000  1
  Hg  Hg25  1  0.764861  0.882306  0.750000  1
  Os  Os26  1  0.333242  0.666757  0.250000  1
  Os  Os27  1  0.666758  0.333243  0.750000  1
