# generated using pymatgen
data_YLu3(Ga2Ag)4
_symmetry_space_group_name_H-M   'P 1'
_cell_length_a   4.35614700
_cell_length_b   6.89102156
_cell_length_c   10.20976361
_cell_angle_alpha   90.15654150
_cell_angle_beta   90.00000000
_cell_angle_gamma   90.00000000
_symmetry_Int_Tables_number   1
_chemical_formula_structural   YLu3(Ga2Ag)4
_chemical_formula_sum   'Y1 Lu3 Ga8 Ag4'
_cell_volume   306.47863268
_cell_formula_units_Z   1
loop_
 _symmetry_equiv_pos_site_id
 _symmetry_equiv_pos_as_xyz
  1  'x, y, z'
loop_
 _atom_site_type_symbol
 _atom_site_label
 _atom_site_symmetry_multiplicity
 _atom_site_fract_x
 _atom_site_fract_y
 _atom_site_fract_z
 _atom_site_occupancy
  Y  Y0  1  0.250000  0.277642  0.676850  1
  Lu  Lu1  1  0.250000  0.776575  0.825074  1
  Lu  Lu2  1  0.750000  0.222742  0.175690  1
  Lu  Lu3  1  0.750000  0.723461  0.324469  1
  Ga  Ga4  1  0.250000  0.703982  0.535721  1
  Ga  Ga5  1  0.750000  0.299688  0.462593  1
  Ga  Ga6  1  0.750000  0.798393  0.036722  1
  Ga  Ga7  1  0.250000  0.197219  0.966169  1
  Ga  Ga8  1  0.250000  0.929928  0.156066  1
  Ga  Ga9  1  0.750000  0.066432  0.846074  1
  Ga  Ga10  1  0.750000  0.572250  0.654187  1
  Ga  Ga11  1  0.250000  0.432416  0.344016  1
  Ag  Ag12  1  0.250000  0.544518  0.095289  1
  Ag  Ag13  1  0.750000  0.454489  0.903699  1
  Ag  Ag14  1  0.750000  0.954621  0.595131  1
  Ag  Ag15  1  0.250000  0.045642  0.402253  1
