# generated using pymatgen
data_Y2Er6Ti8Nb3Si16Os
_symmetry_space_group_name_H-M   'P 1'
_cell_length_a   7.00322021
_cell_length_b   7.00253372
_cell_length_c   12.85323400
_cell_angle_alpha   90.01822165
_cell_angle_beta   89.95451988
_cell_angle_gamma   89.92907523
_symmetry_Int_Tables_number   1
_chemical_formula_structural   Y2Er6Ti8Nb3Si16Os
_chemical_formula_sum   'Y2 Er6 Ti8 Nb3 Si16 Os1'
_cell_volume   630.32555334
_cell_formula_units_Z   1
loop_
 _symmetry_equiv_pos_site_id
 _symmetry_equiv_pos_as_xyz
  1  'x, y, z'
loop_
 _atom_site_type_symbol
 _atom_site_label
 _atom_site_symmetry_multiplicity
 _atom_site_fract_x
 _atom_site_fract_y
 _atom_site_fract_z
 _atom_site_occupancy
  Y  Y0  1  0.340187  0.002761  0.467569  1
  Y  Y1  1  0.497369  0.840411  0.718457  1
  Er  Er2  1  0.499615  0.159523  0.215510  1
  Er  Er3  1  0.840783  0.498525  0.281337  1
  Er  Er4  1  0.159445  0.499762  0.784648  1
  Er  Er5  1  0.659326  0.000319  0.968451  1
  Er  Er6  1  0.001357  0.340833  0.532385  1
  Er  Er7  1  0.999871  0.659593  0.031699  1
  Ti  Ti8  1  0.149207  0.004219  0.874707  1
  Ti  Ti9  1  0.490641  0.656172  0.124967  1
  Ti  Ti10  1  0.509835  0.348424  0.628367  1
  Ti  Ti11  1  0.656780  0.490635  0.875424  1
  Ti  Ti12  1  0.348607  0.508852  0.371495  1
  Ti  Ti13  1  0.847552  0.991892  0.374654  1
  Ti  Ti14  1  0.003697  0.149387  0.125490  1
  Ti  Ti15  1  0.992175  0.846789  0.625119  1
  Nb  Nb16  1  0.174129  0.827284  0.247278  1
  Nb  Nb17  1  0.827579  0.174618  0.752738  1
  Nb  Nb18  1  0.674731  0.673741  0.499818  1
  Si  Si19  1  0.202885  0.132192  0.684627  1
  Si  Si20  1  0.372207  0.699066  0.933586  1
  Si  Si21  1  0.631768  0.297176  0.433972  1
  Si  Si22  1  0.699520  0.372358  0.067136  1
  Si  Si23  1  0.295811  0.628813  0.565355  1
  Si  Si24  1  0.795198  0.867732  0.183235  1
  Si  Si25  1  0.130373  0.204771  0.315297  1
  Si  Si26  1  0.868515  0.795176  0.816918  1
  Si  Si27  1  0.289540  0.956920  0.061946  1
  Si  Si28  1  0.548002  0.793914  0.313996  1
  Si  Si29  1  0.449171  0.209081  0.818462  1
  Si  Si30  1  0.795172  0.547048  0.685755  1
  Si  Si31  1  0.207836  0.449546  0.181668  1
  Si  Si32  1  0.708692  0.048873  0.564479  1
  Si  Si33  1  0.956873  0.289727  0.938317  1
  Si  Si34  1  0.047710  0.706185  0.435042  1
  Os  Os35  1  0.327843  0.327681  0.000096  1
