# generated using pymatgen
data_Pr2Dy3P12Ru5Rh14
_symmetry_space_group_name_H-M   'P 1'
_cell_length_a   12.71420918
_cell_length_b   12.68490355
_cell_length_c   3.96622800
_cell_angle_alpha   90.00000000
_cell_angle_beta   90.00000000
_cell_angle_gamma   120.07025600
_symmetry_Int_Tables_number   1
_chemical_formula_structural   Pr2Dy3P12Ru5Rh14
_chemical_formula_sum   'Pr2 Dy3 P12 Ru5 Rh14'
_cell_volume   553.57559719
_cell_formula_units_Z   1
loop_
 _symmetry_equiv_pos_site_id
 _symmetry_equiv_pos_as_xyz
  1  'x, y, z'
loop_
 _atom_site_type_symbol
 _atom_site_label
 _atom_site_symmetry_multiplicity
 _atom_site_fract_x
 _atom_site_fract_y
 _atom_site_fract_z
 _atom_site_occupancy
  Pr  Pr0  1  0.814174  0.000359  0.500000  1
  Pr  Pr1  1  0.184778  0.186109  0.500000  1
  Dy  Dy2  1  0.666091  0.331008  0.000000  1
  Dy  Dy3  1  0.334925  0.668635  0.000000  1
  Dy  Dy4  1  0.999846  0.811928  0.500000  1
  P  P5  1  0.632464  0.999282  0.000000  1
  P  P6  1  0.367327  0.367479  0.000000  1
  P  P7  1  0.000276  0.634905  0.000000  1
  P  P8  1  0.688929  0.518235  0.500000  1
  P  P9  1  0.827714  0.307605  0.500000  1
  P  P10  1  0.316160  0.833121  0.500000  1
  P  P11  1  0.519413  0.691625  0.500000  1
  P  P12  1  0.182288  0.997595  0.000000  1
  P  P13  1  0.817469  0.814112  0.000000  1
  P  P14  1  0.997332  0.185441  0.000000  1
  P  P15  1  0.478397  0.168044  0.500000  1
  P  P16  1  0.170314  0.482603  0.500000  1
  Ru  Ru17  1  0.512222  0.872765  0.500000  1
  Ru  Ru18  1  0.714327  0.712806  0.500000  1
  Ru  Ru19  1  0.000337  0.288911  0.500000  1
  Ru  Ru20  1  0.817170  0.199246  0.000000  1
  Ru  Ru21  1  0.282922  0.998004  0.500000  1
  Rh  Rh22  1  0.621090  0.801219  0.000000  1
  Rh  Rh23  1  0.183156  0.381297  0.000000  1
  Rh  Rh24  1  0.378924  0.181483  0.000000  1
  Rh  Rh25  1  0.193642  0.817388  0.000000  1
  Rh  Rh26  1  0.804871  0.621487  0.000000  1
  Rh  Rh27  1  0.868994  0.507227  0.500000  1
  Rh  Rh28  1  0.492439  0.360583  0.500000  1
  Rh  Rh29  1  0.634695  0.127572  0.500000  1
  Rh  Rh30  1  0.132962  0.641744  0.500000  1
  Rh  Rh31  1  0.361981  0.492719  0.500000  1
  Rh  Rh32  1  0.999705  0.997226  0.000000  1
  Rh  Rh33  1  0.451700  0.998752  0.000000  1
  Rh  Rh34  1  0.548827  0.547553  0.000000  1
  Rh  Rh35  1  0.002144  0.453931  0.000000  1
