# generated using pymatgen
data_Ac2Y2As7Ir8
_symmetry_space_group_name_H-M   'P 1'
_cell_length_a   4.13304200
_cell_length_b   13.36666301
_cell_length_c   13.67925719
_cell_angle_alpha   81.84932009
_cell_angle_beta   90.00000000
_cell_angle_gamma   90.00000000
_symmetry_Int_Tables_number   1
_chemical_formula_structural   Ac2Y2As7Ir8
_chemical_formula_sum   'Ac4 Y4 As14 Ir16'
_cell_volume   748.07658189
_cell_formula_units_Z   2
loop_
 _symmetry_equiv_pos_site_id
 _symmetry_equiv_pos_as_xyz
  1  'x, y, z'
loop_
 _atom_site_type_symbol
 _atom_site_label
 _atom_site_symmetry_multiplicity
 _atom_site_fract_x
 _atom_site_fract_y
 _atom_site_fract_z
 _atom_site_occupancy
  Ac  Ac0  1  0.250000  0.104175  0.788125  1
  Ac  Ac1  1  0.750000  0.895825  0.211875  1
  Ac  Ac2  1  0.250000  0.285992  0.105067  1
  Ac  Ac3  1  0.750000  0.714008  0.894933  1
  Y  Y4  1  0.250000  0.520544  0.295183  1
  Y  Y5  1  0.750000  0.479456  0.704817  1
  Y  Y6  1  0.250000  0.206653  0.442609  1
  Y  Y7  1  0.750000  0.793347  0.557391  1
  As  As8  1  0.250000  0.056972  0.100394  1
  As  As9  1  0.750000  0.943028  0.899606  1
  As  As10  1  0.250000  0.318943  0.683664  1
  As  As11  1  0.750000  0.681057  0.316336  1
  As  As12  1  0.250000  0.606626  0.568345  1
  As  As13  1  0.750000  0.393374  0.431655  1
  As  As14  1  0.250000  0.843739  0.714938  1
  As  As15  1  0.750000  0.156261  0.285062  1
  As  As16  1  0.750000  0.257115  0.915498  1
  As  As17  1  0.250000  0.742885  0.084502  1
  As  As18  1  0.750000  0.096272  0.585117  1
  As  As19  1  0.250000  0.903728  0.414883  1
  As  As20  1  0.750000  0.472722  0.130243  1
  As  As21  1  0.250000  0.527278  0.869757  1
  Ir  Ir22  1  0.250000  0.988943  0.572952  1
  Ir  Ir23  1  0.750000  0.011057  0.427048  1
  Ir  Ir24  1  0.250000  0.661579  0.729515  1
  Ir  Ir25  1  0.750000  0.338421  0.270485  1
  Ir  Ir26  1  0.250000  0.551391  0.049548  1
  Ir  Ir27  1  0.750000  0.448609  0.950452  1
  Ir  Ir28  1  0.250000  0.059101  0.281524  1
  Ir  Ir29  1  0.750000  0.940899  0.718476  1
  Ir  Ir30  1  0.250000  0.425991  0.521030  1
  Ir  Ir31  1  0.750000  0.574009  0.478970  1
  Ir  Ir32  1  0.250000  0.918922  0.998306  1
  Ir  Ir33  1  0.750000  0.081078  0.001694  1
  Ir  Ir34  1  0.250000  0.721335  0.405233  1
  Ir  Ir35  1  0.750000  0.278665  0.594767  1
  Ir  Ir36  1  0.250000  0.346751  0.856179  1
  Ir  Ir37  1  0.750000  0.653249  0.143821  1
