# generated using pymatgen
data_Sc3Mn3Al6GaSi5
_symmetry_space_group_name_H-M   'P 1'
_cell_length_a   8.29188000
_cell_length_b   8.29188024
_cell_length_c   8.98620600
_cell_angle_alpha   90.00000000
_cell_angle_beta   90.00000000
_cell_angle_gamma   119.99999905
_symmetry_Int_Tables_number   1
_chemical_formula_structural   Sc3Mn3Al6GaSi5
_chemical_formula_sum   'Sc6 Mn6 Al12 Ga2 Si10'
_cell_volume   535.07299795
_cell_formula_units_Z   2
loop_
 _symmetry_equiv_pos_site_id
 _symmetry_equiv_pos_as_xyz
  1  'x, y, z'
loop_
 _atom_site_type_symbol
 _atom_site_label
 _atom_site_symmetry_multiplicity
 _atom_site_fract_x
 _atom_site_fract_y
 _atom_site_fract_z
 _atom_site_occupancy
  Sc  Sc0  1  0.199779  0.800221  0.250000  1
  Sc  Sc1  1  0.199779  0.399559  0.250000  1
  Sc  Sc2  1  0.600441  0.800221  0.250000  1
  Sc  Sc3  1  0.800221  0.199779  0.750000  1
  Sc  Sc4  1  0.800221  0.600441  0.750000  1
  Sc  Sc5  1  0.399559  0.199779  0.750000  1
  Mn  Mn6  1  0.500000  0.500000  0.500000  1
  Mn  Mn7  1  0.500000  0.000000  0.500000  1
  Mn  Mn8  1  0.000000  0.500000  0.500000  1
  Mn  Mn9  1  0.500000  0.500000  0.000000  1
  Mn  Mn10  1  0.500000  0.000000  0.000000  1
  Mn  Mn11  1  0.000000  0.500000  0.000000  1
  Al  Al12  1  0.163734  0.836266  0.920187  1
  Al  Al13  1  0.163734  0.327468  0.920187  1
  Al  Al14  1  0.672532  0.836266  0.920187  1
  Al  Al15  1  0.836266  0.163734  0.079813  1
  Al  Al16  1  0.836266  0.672532  0.079813  1
  Al  Al17  1  0.327468  0.163734  0.079813  1
  Al  Al18  1  0.836266  0.163734  0.420187  1
  Al  Al19  1  0.836266  0.672532  0.420187  1
  Al  Al20  1  0.327468  0.163734  0.420187  1
  Al  Al21  1  0.163734  0.836266  0.579813  1
  Al  Al22  1  0.163734  0.327468  0.579813  1
  Al  Al23  1  0.672532  0.836266  0.579813  1
  Ga  Ga24  1  0.000000  0.000000  0.250000  1
  Ga  Ga25  1  0.000000  0.000000  0.750000  1
  Si  Si26  1  0.559912  0.440088  0.250000  1
  Si  Si27  1  0.559912  0.119823  0.250000  1
  Si  Si28  1  0.880177  0.440088  0.250000  1
  Si  Si29  1  0.440088  0.559912  0.750000  1
  Si  Si30  1  0.440088  0.880177  0.750000  1
  Si  Si31  1  0.119823  0.559912  0.750000  1
  Si  Si32  1  0.333333  0.666667  0.460285  1
  Si  Si33  1  0.666667  0.333333  0.539715  1
  Si  Si34  1  0.666667  0.333333  0.960285  1
  Si  Si35  1  0.333333  0.666667  0.039715  1
