# generated using pymatgen
data_MoPt8
_symmetry_space_group_name_H-M   'P 1'
_cell_length_a   6.28989076
_cell_length_b   6.28989104
_cell_length_c   6.28989123
_cell_angle_alpha   95.67469496
_cell_angle_beta   95.67469115
_cell_angle_gamma   143.34448943
_symmetry_Int_Tables_number   1
_chemical_formula_structural   MoPt8
_chemical_formula_sum   'Mo1 Pt8'
_cell_volume   141.02519327
_cell_formula_units_Z   1
loop_
 _symmetry_equiv_pos_site_id
 _symmetry_equiv_pos_as_xyz
  1  'x, y, z'
loop_
 _atom_site_type_symbol
 _atom_site_label
 _atom_site_symmetry_multiplicity
 _atom_site_fract_x
 _atom_site_fract_y
 _atom_site_fract_z
 _atom_site_occupancy
  Mo  Mo0  1  0.000000  0.000000  0.000000  1
  Pt  Pt1  1  0.661227  0.338771  0.000000  1
  Pt  Pt2  1  0.338771  0.661227  0.000000  1
  Pt  Pt3  1  0.661227  0.661227  0.322455  1
  Pt  Pt4  1  0.329022  0.000000  0.329022  1
  Pt  Pt5  1  0.000000  0.329022  0.329022  1
  Pt  Pt6  1  0.670979  0.000000  0.670979  1
  Pt  Pt7  1  0.000000  0.670979  0.670979  1
  Pt  Pt8  1  0.338772  0.338772  0.677545  1
