# generated using pymatgen
data_DyEr(SbO3)6
_symmetry_space_group_name_H-M   'P 1'
_cell_length_a   7.48496700
_cell_length_b   5.35655292
_cell_length_c   8.18271055
_cell_angle_alpha   86.09721056
_cell_angle_beta   90.00000000
_cell_angle_gamma   90.00000000
_symmetry_Int_Tables_number   1
_chemical_formula_structural   DyEr(SbO3)6
_chemical_formula_sum   'Dy1 Er1 Sb6 O18'
_cell_volume   327.31368649
_cell_formula_units_Z   1
loop_
 _symmetry_equiv_pos_site_id
 _symmetry_equiv_pos_as_xyz
  1  'x, y, z'
loop_
 _atom_site_type_symbol
 _atom_site_label
 _atom_site_symmetry_multiplicity
 _atom_site_fract_x
 _atom_site_fract_y
 _atom_site_fract_z
 _atom_site_occupancy
  Dy  Dy0  1  0.250000  0.966467  0.434518  1
  Er  Er1  1  0.750000  0.034891  0.566280  1
  Sb  Sb2  1  0.999902  0.000123  0.999798  1
  Sb  Sb3  1  0.500098  0.000123  0.999798  1
  Sb  Sb4  1  0.004658  0.530310  0.697563  1
  Sb  Sb5  1  0.495342  0.530310  0.697563  1
  Sb  Sb6  1  0.994491  0.469839  0.302564  1
  Sb  Sb7  1  0.505509  0.469839  0.302564  1
  O  O8  1  0.250000  0.878330  0.983737  1
  O  O9  1  0.936248  0.858565  0.777797  1
  O  O10  1  0.563752  0.858565  0.777797  1
  O  O11  1  0.957539  0.739434  0.472493  1
  O  O12  1  0.542461  0.739434  0.472493  1
  O  O13  1  0.250000  0.666472  0.654576  1
  O  O14  1  0.930582  0.674340  0.111644  1
  O  O15  1  0.569418  0.674340  0.111644  1
  O  O16  1  0.250000  0.595218  0.309112  1
  O  O17  1  0.750000  0.401928  0.690738  1
  O  O18  1  0.069316  0.325837  0.888176  1
  O  O19  1  0.430684  0.325837  0.888176  1
  O  O20  1  0.750000  0.331288  0.346443  1
  O  O21  1  0.040484  0.261086  0.527929  1
  O  O22  1  0.459516  0.261086  0.527929  1
  O  O23  1  0.062814  0.142353  0.221215  1
  O  O24  1  0.437186  0.142353  0.221215  1
  O  O25  1  0.750000  0.121630  0.016239  1
