# generated using pymatgen
data_Cs4PaCrTe6
_symmetry_space_group_name_H-M   'P 1'
_cell_length_a   15.13544300
_cell_length_b   7.11642317
_cell_length_c   10.22845100
_cell_angle_alpha   72.27509168
_cell_angle_beta   90.00000000
_cell_angle_gamma   90.00000000
_symmetry_Int_Tables_number   1
_chemical_formula_structural   Cs4PaCrTe6
_chemical_formula_sum   'Cs8 Pa2 Cr2 Te12'
_cell_volume   1049.40970728
_cell_formula_units_Z   2
loop_
 _symmetry_equiv_pos_site_id
 _symmetry_equiv_pos_as_xyz
  1  'x, y, z'
loop_
 _atom_site_type_symbol
 _atom_site_label
 _atom_site_symmetry_multiplicity
 _atom_site_fract_x
 _atom_site_fract_y
 _atom_site_fract_z
 _atom_site_occupancy
  Cs  Cs0  1  0.953669  0.673633  0.655550  1
  Cs  Cs1  1  0.453669  0.826367  0.344450  1
  Cs  Cs2  1  0.046732  0.327946  0.344299  1
  Cs  Cs3  1  0.546732  0.172054  0.655701  1
  Cs  Cs4  1  0.868330  0.084841  0.900883  1
  Cs  Cs5  1  0.368330  0.415159  0.099117  1
  Cs  Cs6  1  0.130917  0.921563  0.100755  1
  Cs  Cs7  1  0.630917  0.578437  0.899245  1
  Pa  Pa8  1  0.749457  0.652191  0.297166  1
  Pa  Pa9  1  0.249457  0.847809  0.702834  1
  Cr  Cr10  1  0.250724  0.345875  0.703801  1
  Cr  Cr11  1  0.750724  0.154125  0.296199  1
  Te  Te12  1  0.901796  0.928770  0.282272  1
  Te  Te13  1  0.401796  0.571230  0.717728  1
  Te  Te14  1  0.097598  0.114120  0.718641  1
  Te  Te15  1  0.597598  0.385880  0.281359  1
  Te  Te16  1  0.814015  0.287771  0.510807  1
  Te  Te17  1  0.314015  0.212229  0.489193  1
  Te  Te18  1  0.186774  0.671338  0.488885  1
  Te  Te19  1  0.686774  0.828662  0.511115  1
  Te  Te20  1  0.840068  0.474944  0.098577  1
  Te  Te21  1  0.340068  0.025056  0.901423  1
  Te  Te22  1  0.159918  0.491800  0.899312  1
  Te  Te23  1  0.659918  0.008200  0.100688  1
