# generated using pymatgen
data_Ho3NiAs2Rh3
_symmetry_space_group_name_H-M   'P 1'
_cell_length_a   6.81181900
_cell_length_b   6.81181899
_cell_length_c   4.04124000
_cell_angle_alpha   90.00000000
_cell_angle_beta   90.00000000
_cell_angle_gamma   120.00000490
_symmetry_Int_Tables_number   1
_chemical_formula_structural   Ho3NiAs2Rh3
_chemical_formula_sum   'Ho3 Ni1 As2 Rh3'
_cell_volume   162.39455062
_cell_formula_units_Z   1
loop_
 _symmetry_equiv_pos_site_id
 _symmetry_equiv_pos_as_xyz
  1  'x, y, z'
loop_
 _atom_site_type_symbol
 _atom_site_label
 _atom_site_symmetry_multiplicity
 _atom_site_fract_x
 _atom_site_fract_y
 _atom_site_fract_z
 _atom_site_occupancy
  Ho  Ho0  1  0.390993  0.000000  0.500000  1
  Ho  Ho1  1  0.000000  0.390993  0.500000  1
  Ho  Ho2  1  0.609007  0.609007  0.500000  1
  Ni  Ni3  1  0.000000  0.000000  0.500000  1
  As  As4  1  0.666667  0.333333  0.000000  1
  As  As5  1  0.333333  0.666667  0.000000  1
  Rh  Rh6  1  0.766259  0.000000  0.000000  1
  Rh  Rh7  1  0.233742  0.233741  0.000000  1
  Rh  Rh8  1  0.000000  0.766259  0.000000  1
