# generated using pymatgen
data_TbTm5Co16(ReP6)2
_symmetry_space_group_name_H-M   'P 1'
_cell_length_a   3.70461700
_cell_length_b   10.47434500
_cell_length_c   12.16984500
_cell_angle_alpha   90.00000000
_cell_angle_beta   90.00000000
_cell_angle_gamma   90.00000000
_symmetry_Int_Tables_number   1
_chemical_formula_structural   TbTm5Co16(ReP6)2
_chemical_formula_sum   'Tb1 Tm5 Co16 Re2 P12'
_cell_volume   472.23180829
_cell_formula_units_Z   1
loop_
 _symmetry_equiv_pos_site_id
 _symmetry_equiv_pos_as_xyz
  1  'x, y, z'
loop_
 _atom_site_type_symbol
 _atom_site_label
 _atom_site_symmetry_multiplicity
 _atom_site_fract_x
 _atom_site_fract_y
 _atom_site_fract_z
 _atom_site_occupancy
  Tb  Tb0  1  0.000000  0.500000  0.525551  1
  Tm  Tm1  1  0.500000  0.000000  0.474314  1
  Tm  Tm2  1  0.500000  0.818807  0.205922  1
  Tm  Tm3  1  0.500000  0.181193  0.205922  1
  Tm  Tm4  1  0.000000  0.681624  0.794517  1
  Tm  Tm5  1  0.000000  0.318376  0.794517  1
  Co  Co6  1  0.500000  0.500000  0.702921  1
  Co  Co7  1  0.000000  0.000000  0.298201  1
  Co  Co8  1  0.000000  0.500000  0.987996  1
  Co  Co9  1  0.500000  0.000000  0.012122  1
  Co  Co10  1  0.500000  0.332238  0.989285  1
  Co  Co11  1  0.500000  0.667762  0.989285  1
  Co  Co12  1  0.000000  0.167410  0.010710  1
  Co  Co13  1  0.000000  0.832590  0.010710  1
  Co  Co14  1  0.500000  0.295524  0.431058  1
  Co  Co15  1  0.500000  0.704476  0.431058  1
  Co  Co16  1  0.000000  0.202141  0.568820  1
  Co  Co17  1  0.000000  0.797859  0.568820  1
  Co  Co18  1  0.500000  0.878743  0.708085  1
  Co  Co19  1  0.500000  0.121257  0.708085  1
  Co  Co20  1  0.000000  0.621805  0.291455  1
  Co  Co21  1  0.000000  0.378195  0.291455  1
  Re  Re22  1  0.500000  0.500000  0.156258  1
  Re  Re23  1  0.000000  0.000000  0.843003  1
  P  P24  1  0.500000  0.500000  0.879547  1
  P  P25  1  0.000000  0.000000  0.120891  1
  P  P26  1  0.500000  0.500000  0.349430  1
  P  P27  1  0.000000  0.000000  0.649049  1
  P  P28  1  0.500000  0.311511  0.617229  1
  P  P29  1  0.500000  0.688489  0.617229  1
  P  P30  1  0.000000  0.187119  0.383427  1
  P  P31  1  0.000000  0.812881  0.383427  1
  P  P32  1  0.500000  0.845395  0.891544  1
  P  P33  1  0.500000  0.154605  0.891544  1
  P  P34  1  0.000000  0.655046  0.108307  1
  P  P35  1  0.000000  0.344954  0.108307  1
