# generated using pymatgen
data_Dy6Al24Ir3Os3Ru2
_symmetry_space_group_name_H-M   'P 1'
_cell_length_a   8.80610990
_cell_length_b   8.79293302
_cell_length_c   9.53821729
_cell_angle_alpha   89.96910981
_cell_angle_beta   89.87414563
_cell_angle_gamma   119.73674638
_symmetry_Int_Tables_number   1
_chemical_formula_structural   Dy6Al24Ir3Os3Ru2
_chemical_formula_sum   'Dy6 Al24 Ir3 Os3 Ru2'
_cell_volume   641.29795906
_cell_formula_units_Z   1
loop_
 _symmetry_equiv_pos_site_id
 _symmetry_equiv_pos_as_xyz
  1  'x, y, z'
loop_
 _atom_site_type_symbol
 _atom_site_label
 _atom_site_symmetry_multiplicity
 _atom_site_fract_x
 _atom_site_fract_y
 _atom_site_fract_z
 _atom_site_occupancy
  Dy  Dy0  1  0.190923  0.805977  0.250853  1
  Dy  Dy1  1  0.193352  0.386378  0.251524  1
  Dy  Dy2  1  0.614938  0.805828  0.250430  1
  Dy  Dy3  1  0.809077  0.194023  0.749147  1
  Dy  Dy4  1  0.806648  0.613622  0.748476  1
  Dy  Dy5  1  0.385062  0.194172  0.749570  1
  Al  Al6  1  0.561858  0.437742  0.249714  1
  Al  Al7  1  0.561051  0.122395  0.249744  1
  Al  Al8  1  0.876526  0.438439  0.250560  1
  Al  Al9  1  0.438142  0.562258  0.750286  1
  Al  Al10  1  0.438949  0.877605  0.750256  1
  Al  Al11  1  0.123474  0.561561  0.749440  1
  Al  Al12  1  0.326287  0.165143  0.422827  1
  Al  Al13  1  0.838052  0.164314  0.422820  1
  Al  Al14  1  0.835984  0.673313  0.422428  1
  Al  Al15  1  0.673713  0.834857  0.577173  1
  Al  Al16  1  0.161948  0.835686  0.577180  1
  Al  Al17  1  0.164016  0.326687  0.577572  1
  Al  Al18  1  0.674642  0.834980  0.921958  1
  Al  Al19  1  0.163349  0.837600  0.922683  1
  Al  Al20  1  0.165725  0.326121  0.922410  1
  Al  Al21  1  0.325358  0.165020  0.078042  1
  Al  Al22  1  0.836651  0.162400  0.077317  1
  Al  Al23  1  0.834275  0.673879  0.077590  1
  Al  Al24  1  0.667969  0.334118  0.520833  1
  Al  Al25  1  0.332031  0.665882  0.479167  1
  Al  Al26  1  0.333572  0.666530  0.021128  1
  Al  Al27  1  0.666428  0.333470  0.978872  1
  Al  Al28  1  0.999146  0.999569  0.249990  1
  Al  Al29  1  0.000854  0.000431  0.750010  1
  Ir  Ir30  1  0.500000  0.000000  0.500000  1
  Ir  Ir31  1  0.500000  0.000000  0.000000  1
  Ir  Ir32  1  0.000000  0.500000  0.000000  1
  Os  Os33  1  0.500000  0.500000  0.500000  1
  Os  Os34  1  0.000000  0.500000  0.500000  1
  Os  Os35  1  0.500000  0.500000  0.000000  1
  Ru  Ru36  1  0.000000  0.000000  0.500000  1
  Ru  Ru37  1  0.000000  0.000000  0.000000  1
