# generated using pymatgen
data_Ho2Co9Si7Tc3
_symmetry_space_group_name_H-M   'P 1'
_cell_length_a   3.75093800
_cell_length_b   9.17902986
_cell_length_c   9.17903000
_cell_angle_alpha   120.00000051
_cell_angle_beta   90.00000000
_cell_angle_gamma   90.00000000
_symmetry_Int_Tables_number   1
_chemical_formula_structural   Ho2Co9Si7Tc3
_chemical_formula_sum   'Ho2 Co9 Si7 Tc3'
_cell_volume   273.69325023
_cell_formula_units_Z   1
loop_
 _symmetry_equiv_pos_site_id
 _symmetry_equiv_pos_as_xyz
  1  'x, y, z'
loop_
 _atom_site_type_symbol
 _atom_site_label
 _atom_site_symmetry_multiplicity
 _atom_site_fract_x
 _atom_site_fract_y
 _atom_site_fract_z
 _atom_site_occupancy
  Ho  Ho0  1  0.000000  0.666667  0.333333  1
  Ho  Ho1  1  0.500000  0.333333  0.666667  1
  Co  Co2  1  0.000000  0.569610  0.945753  1
  Co  Co3  1  0.000000  0.376143  0.430390  1
  Co  Co4  1  0.000000  0.054247  0.623857  1
  Co  Co5  1  0.000000  0.874568  0.155632  1
  Co  Co6  1  0.000000  0.281063  0.125432  1
  Co  Co7  1  0.000000  0.844368  0.718937  1
  Co  Co8  1  0.500000  0.948968  0.384617  1
  Co  Co9  1  0.500000  0.435648  0.051032  1
  Co  Co10  1  0.500000  0.615383  0.564352  1
  Si  Si11  1  0.000000  0.000000  0.000000  1
  Si  Si12  1  0.500000  0.709928  0.112388  1
  Si  Si13  1  0.500000  0.402461  0.290072  1
  Si  Si14  1  0.500000  0.887612  0.597539  1
  Si  Si15  1  0.000000  0.591505  0.703641  1
  Si  Si16  1  0.000000  0.112136  0.408495  1
  Si  Si17  1  0.000000  0.296359  0.887864  1
  Tc  Tc18  1  0.500000  0.783953  0.895924  1
  Tc  Tc19  1  0.500000  0.111971  0.216047  1
  Tc  Tc20  1  0.500000  0.104076  0.888029  1
