# generated using pymatgen
data_Ho5Tm7Rh4
_symmetry_space_group_name_H-M   'P 1'
_cell_length_a   7.14695439
_cell_length_b   9.32842334
_cell_length_c   6.24046009
_cell_angle_alpha   89.94107255
_cell_angle_beta   90.03397342
_cell_angle_gamma   89.98356494
_symmetry_Int_Tables_number   1
_chemical_formula_structural   Ho5Tm7Rh4
_chemical_formula_sum   'Ho5 Tm7 Rh4'
_cell_volume   416.05001651
_cell_formula_units_Z   1
loop_
 _symmetry_equiv_pos_site_id
 _symmetry_equiv_pos_as_xyz
  1  'x, y, z'
loop_
 _atom_site_type_symbol
 _atom_site_label
 _atom_site_symmetry_multiplicity
 _atom_site_fract_x
 _atom_site_fract_y
 _atom_site_fract_z
 _atom_site_occupancy
  Ho  Ho0  1  0.034142  0.249852  0.135172  1
  Ho  Ho1  1  0.533700  0.249749  0.364880  1
  Ho  Ho2  1  0.466004  0.750215  0.634801  1
  Ho  Ho3  1  0.677993  0.437053  0.829685  1
  Ho  Ho4  1  0.966126  0.750209  0.865264  1
  Tm  Tm5  1  0.321939  0.563529  0.170362  1
  Tm  Tm6  1  0.322182  0.936609  0.170326  1
  Tm  Tm7  1  0.822321  0.563641  0.329778  1
  Tm  Tm8  1  0.822211  0.936602  0.329689  1
  Tm  Tm9  1  0.177851  0.063429  0.670381  1
  Tm  Tm10  1  0.177834  0.436592  0.670209  1
  Tm  Tm11  1  0.677801  0.063061  0.829786  1
  Rh  Rh12  1  0.617620  0.750366  0.057976  1
  Rh  Rh13  1  0.117672  0.749985  0.442304  1
  Rh  Rh14  1  0.882764  0.249573  0.557232  1
  Rh  Rh15  1  0.381838  0.249534  0.942156  1
