# generated using pymatgen
data_Dy5Zr5Si20Ir5Pt3
_symmetry_space_group_name_H-M   'P 1'
_cell_length_a   12.54701636
_cell_length_b   12.54873436
_cell_length_c   4.19608700
_cell_angle_alpha   90.00000000
_cell_angle_beta   90.00000000
_cell_angle_gamma   90.07032365
_symmetry_Int_Tables_number   1
_chemical_formula_structural   Dy5Zr5Si20Ir5Pt3
_chemical_formula_sum   'Dy5 Zr5 Si20 Ir5 Pt3'
_cell_volume   660.66994035
_cell_formula_units_Z   1
loop_
 _symmetry_equiv_pos_site_id
 _symmetry_equiv_pos_as_xyz
  1  'x, y, z'
loop_
 _atom_site_type_symbol
 _atom_site_label
 _atom_site_symmetry_multiplicity
 _atom_site_fract_x
 _atom_site_fract_y
 _atom_site_fract_z
 _atom_site_occupancy
  Dy  Dy0  1  0.997920  0.000798  0.000000  1
  Dy  Dy1  1  0.885940  0.384822  0.500000  1
  Dy  Dy2  1  0.113906  0.614739  0.500000  1
  Dy  Dy3  1  0.385908  0.115063  0.500000  1
  Dy  Dy4  1  0.615169  0.885917  0.500000  1
  Zr  Zr5  1  0.500699  0.500163  0.000000  1
  Zr  Zr6  1  0.674365  0.175797  0.500000  1
  Zr  Zr7  1  0.325937  0.823869  0.500000  1
  Zr  Zr8  1  0.175043  0.324186  0.500000  1
  Zr  Zr9  1  0.825304  0.675745  0.500000  1
  Si  Si10  1  0.566682  0.068475  0.000000  1
  Si  Si11  1  0.435967  0.931701  0.000000  1
  Si  Si12  1  0.065787  0.432897  0.000000  1
  Si  Si13  1  0.934595  0.567297  0.000000  1
  Si  Si14  1  0.665644  0.702329  0.000000  1
  Si  Si15  1  0.335741  0.298836  0.000000  1
  Si  Si16  1  0.163208  0.800259  0.000000  1
  Si  Si17  1  0.837090  0.197205  0.000000  1
  Si  Si18  1  0.299179  0.668858  0.000000  1
  Si  Si19  1  0.702360  0.331134  0.000000  1
  Si  Si20  1  0.199341  0.167366  0.000000  1
  Si  Si21  1  0.801092  0.836014  0.000000  1
  Si  Si22  1  0.649701  0.516109  0.500000  1
  Si  Si23  1  0.351006  0.484039  0.500000  1
  Si  Si24  1  0.153414  0.981883  0.500000  1
  Si  Si25  1  0.842952  0.010244  0.500000  1
  Si  Si26  1  0.493218  0.654132  0.500000  1
  Si  Si27  1  0.505576  0.346435  0.500000  1
  Si  Si28  1  0.003545  0.157969  0.500000  1
  Si  Si29  1  0.990953  0.843393  0.500000  1
  Ir  Ir30  1  0.754374  0.020423  0.000000  1
  Ir  Ir31  1  0.479474  0.741450  0.000000  1
  Ir  Ir32  1  0.521428  0.258935  0.000000  1
  Ir  Ir33  1  0.021792  0.245283  0.000000  1
  Ir  Ir34  1  0.979286  0.754879  0.000000  1
  Pt  Pt35  1  0.742865  0.519163  0.000000  1
  Pt  Pt36  1  0.257797  0.481198  0.000000  1
  Pt  Pt37  1  0.245745  0.980993  0.000000  1
