# generated using pymatgen
data_Cs5TiSb3
_symmetry_space_group_name_H-M   'P 1'
_cell_length_a   9.63806200
_cell_length_b   10.17192466
_cell_length_c   19.95084230
_cell_angle_alpha   60.94377477
_cell_angle_beta   90.00000000
_cell_angle_gamma   90.00000000
_symmetry_Int_Tables_number   1
_chemical_formula_structural   Cs5TiSb3
_chemical_formula_sum   'Cs20 Ti4 Sb12'
_cell_volume   1709.76662884
_cell_formula_units_Z   4
loop_
 _symmetry_equiv_pos_site_id
 _symmetry_equiv_pos_as_xyz
  1  'x, y, z'
loop_
 _atom_site_type_symbol
 _atom_site_label
 _atom_site_symmetry_multiplicity
 _atom_site_fract_x
 _atom_site_fract_y
 _atom_site_fract_z
 _atom_site_occupancy
  Cs  Cs0  1  0.185897  0.845316  0.739078  1
  Cs  Cs1  1  0.685897  0.154684  0.760922  1
  Cs  Cs2  1  0.814103  0.154684  0.260922  1
  Cs  Cs3  1  0.314103  0.845316  0.239078  1
  Cs  Cs4  1  0.165400  0.161847  0.420385  1
  Cs  Cs5  1  0.665400  0.838153  0.079615  1
  Cs  Cs6  1  0.834600  0.838153  0.579615  1
  Cs  Cs7  1  0.334600  0.161847  0.920385  1
  Cs  Cs8  1  0.003159  0.093258  0.088667  1
  Cs  Cs9  1  0.503159  0.906742  0.411333  1
  Cs  Cs10  1  0.996841  0.906742  0.911333  1
  Cs  Cs11  1  0.496841  0.093258  0.588667  1
  Cs  Cs12  1  0.509550  0.280097  0.080704  1
  Cs  Cs13  1  0.009550  0.719903  0.419296  1
  Cs  Cs14  1  0.490450  0.719903  0.919296  1
  Cs  Cs15  1  0.990450  0.280097  0.580704  1
  Cs  Cs16  1  0.982467  0.545058  0.248826  1
  Cs  Cs17  1  0.482467  0.454942  0.251174  1
  Cs  Cs18  1  0.017533  0.454942  0.751174  1
  Cs  Cs19  1  0.517533  0.545058  0.748826  1
  Ti  Ti20  1  0.374443  0.495116  0.576524  1
  Ti  Ti21  1  0.874443  0.504884  0.923476  1
  Ti  Ti22  1  0.625557  0.504884  0.423476  1
  Ti  Ti23  1  0.125557  0.495116  0.076524  1
  Sb  Sb24  1  0.337869  0.489127  0.439686  1
  Sb  Sb25  1  0.837869  0.510873  0.060314  1
  Sb  Sb26  1  0.662131  0.510873  0.560314  1
  Sb  Sb27  1  0.162131  0.489127  0.939686  1
  Sb  Sb28  1  0.192928  0.241390  0.208695  1
  Sb  Sb29  1  0.692928  0.758610  0.291305  1
  Sb  Sb30  1  0.807072  0.758610  0.791305  1
  Sb  Sb31  1  0.307072  0.241390  0.708695  1
  Sb  Sb32  1  0.253888  0.735713  0.074708  1
  Sb  Sb33  1  0.753888  0.264287  0.425292  1
  Sb  Sb34  1  0.746112  0.264287  0.925292  1
  Sb  Sb35  1  0.246112  0.735713  0.574708  1
