# generated using pymatgen
data_TbHoGa2(SiAu2)2
_symmetry_space_group_name_H-M   'P 1'
_cell_length_a   4.23751200
_cell_length_b   4.23751200
_cell_length_c   10.80635600
_cell_angle_alpha   90.00000000
_cell_angle_beta   90.00000000
_cell_angle_gamma   90.00000000
_symmetry_Int_Tables_number   1
_chemical_formula_structural   TbHoGa2(SiAu2)2
_chemical_formula_sum   'Tb1 Ho1 Ga2 Si2 Au4'
_cell_volume   194.04441743
_cell_formula_units_Z   1
loop_
 _symmetry_equiv_pos_site_id
 _symmetry_equiv_pos_as_xyz
  1  'x, y, z'
loop_
 _atom_site_type_symbol
 _atom_site_label
 _atom_site_symmetry_multiplicity
 _atom_site_fract_x
 _atom_site_fract_y
 _atom_site_fract_z
 _atom_site_occupancy
  Tb  Tb0  1  0.000000  0.500000  0.763553  1
  Ho  Ho1  1  0.500000  0.000000  0.236016  1
  Ga  Ga2  1  0.500000  0.500000  0.499681  1
  Ga  Ga3  1  0.000000  0.000000  0.499681  1
  Si  Si4  1  0.000000  0.500000  0.135724  1
  Si  Si5  1  0.500000  0.000000  0.864610  1
  Au  Au6  1  0.500000  0.000000  0.643550  1
  Au  Au7  1  0.000000  0.000000  0.000617  1
  Au  Au8  1  0.500000  0.500000  0.000617  1
  Au  Au9  1  0.000000  0.500000  0.355952  1
