# generated using pymatgen
data_Ce8TiSi6Mo
_symmetry_space_group_name_H-M   'P 1'
_cell_length_a   5.50617707
_cell_length_b   8.42387378
_cell_length_c   8.42387374
_cell_angle_alpha   83.88501836
_cell_angle_beta   70.94857447
_cell_angle_gamma   70.94858791
_symmetry_Int_Tables_number   1
_chemical_formula_structural   Ce8TiSi6Mo
_chemical_formula_sum   'Ce8 Ti1 Si6 Mo1'
_cell_volume   349.09627141
_cell_formula_units_Z   1
loop_
 _symmetry_equiv_pos_site_id
 _symmetry_equiv_pos_as_xyz
  1  'x, y, z'
loop_
 _atom_site_type_symbol
 _atom_site_label
 _atom_site_symmetry_multiplicity
 _atom_site_fract_x
 _atom_site_fract_y
 _atom_site_fract_z
 _atom_site_occupancy
  Ce  Ce0  1  0.093062  0.134229  0.676654  1
  Ce  Ce1  1  0.904152  0.865866  0.323424  1
  Ce  Ce2  1  0.772772  0.323077  0.134226  1
  Ce  Ce3  1  0.406938  0.323346  0.865771  1
  Ce  Ce4  1  0.230101  0.676738  0.865590  1
  Ce  Ce5  1  0.595848  0.676576  0.134134  1
  Ce  Ce6  1  0.727228  0.865774  0.676923  1
  Ce  Ce7  1  0.269899  0.134410  0.323262  1
  Ti  Ti8  1  0.250000  0.499917  0.500083  1
  Si  Si9  1  0.138249  0.500082  0.216023  1
  Si  Si10  1  0.854180  0.499934  0.783968  1
  Si  Si11  1  0.361751  0.783977  0.499918  1
  Si  Si12  1  0.645820  0.216032  0.500066  1
  Si  Si13  1  0.250000  0.000037  0.999963  1
  Si  Si14  1  0.750000  0.000003  0.999997  1
  Mo  Mo15  1  0.750000  0.500003  0.499997  1
