# generated using pymatgen
data_Y20TcIr3Au8
_symmetry_space_group_name_H-M   'P 1'
_cell_length_a   11.37302800
_cell_length_b   11.37302800
_cell_length_c   6.35903700
_cell_angle_alpha   90.00000000
_cell_angle_beta   90.00000000
_cell_angle_gamma   90.00000000
_symmetry_Int_Tables_number   1
_chemical_formula_structural   Y20TcIr3Au8
_chemical_formula_sum   'Y20 Tc1 Ir3 Au8'
_cell_volume   822.51451108
_cell_formula_units_Z   1
loop_
 _symmetry_equiv_pos_site_id
 _symmetry_equiv_pos_as_xyz
  1  'x, y, z'
loop_
 _atom_site_type_symbol
 _atom_site_label
 _atom_site_symmetry_multiplicity
 _atom_site_fract_x
 _atom_site_fract_y
 _atom_site_fract_z
 _atom_site_occupancy
  Y  Y0  1  0.299433  0.082400  0.346148  1
  Y  Y1  1  0.299892  0.917479  0.849712  1
  Y  Y2  1  0.700108  0.082521  0.849712  1
  Y  Y3  1  0.700567  0.917600  0.346148  1
  Y  Y4  1  0.582521  0.799892  0.849712  1
  Y  Y5  1  0.582400  0.200567  0.346148  1
  Y  Y6  1  0.417600  0.799433  0.346148  1
  Y  Y7  1  0.417479  0.200108  0.849712  1
  Y  Y8  1  0.202341  0.417090  0.650926  1
  Y  Y9  1  0.202147  0.582903  0.150667  1
  Y  Y10  1  0.797853  0.417097  0.150667  1
  Y  Y11  1  0.797659  0.582910  0.650926  1
  Y  Y12  1  0.917097  0.702147  0.150667  1
  Y  Y13  1  0.917090  0.297659  0.650926  1
  Y  Y14  1  0.082910  0.702341  0.650926  1
  Y  Y15  1  0.082903  0.297853  0.150667  1
  Y  Y16  1  0.000000  0.000000  0.499731  1
  Y  Y17  1  0.000000  0.000000  0.999447  1
  Y  Y18  1  0.500000  0.500000  0.999447  1
  Y  Y19  1  0.500000  0.500000  0.499731  1
  Tc  Tc20  1  0.500000  0.000000  0.101999  1
  Ir  Ir21  1  0.500000  0.000000  0.599020  1
  Ir  Ir22  1  0.000000  0.500000  0.902754  1
  Ir  Ir23  1  0.000000  0.500000  0.402988  1
  Au  Au24  1  0.843780  0.156977  0.250791  1
  Au  Au25  1  0.843824  0.843151  0.750478  1
  Au  Au26  1  0.156176  0.156849  0.750478  1
  Au  Au27  1  0.156220  0.843023  0.250791  1
  Au  Au28  1  0.656849  0.343824  0.750478  1
  Au  Au29  1  0.656977  0.656220  0.250791  1
  Au  Au30  1  0.343023  0.343780  0.250791  1
  Au  Au31  1  0.343151  0.656176  0.750478  1
