# generated using pymatgen
data_SrLa2Pr4OsI12
_symmetry_space_group_name_H-M   'P 1'
_cell_length_a   10.12885108
_cell_length_b   10.12952333
_cell_length_c   10.25187847
_cell_angle_alpha   106.33181348
_cell_angle_beta   106.70525488
_cell_angle_gamma   106.38080253
_symmetry_Int_Tables_number   1
_chemical_formula_structural   SrLa2Pr4OsI12
_chemical_formula_sum   'Sr1 La2 Pr4 Os1 I12'
_cell_volume   888.28065587
_cell_formula_units_Z   1
loop_
 _symmetry_equiv_pos_site_id
 _symmetry_equiv_pos_as_xyz
  1  'x, y, z'
loop_
 _atom_site_type_symbol
 _atom_site_label
 _atom_site_symmetry_multiplicity
 _atom_site_fract_x
 _atom_site_fract_y
 _atom_site_fract_z
 _atom_site_occupancy
  Sr  Sr0  1  0.499774  0.499453  0.499025  1
  La  La1  1  0.701609  0.977352  0.903286  1
  La  La2  1  0.904124  0.702730  0.978205  1
  Pr  Pr3  1  0.096637  0.295464  0.022385  1
  Pr  Pr4  1  0.296055  0.022152  0.096622  1
  Pr  Pr5  1  0.022529  0.101479  0.309444  1
  Pr  Pr6  1  0.977162  0.899836  0.691435  1
  Os  Os7  1  0.995713  0.996896  0.999240  1
  I  I8  1  0.229808  0.682561  0.075144  1
  I  I9  1  0.454084  0.372642  0.147385  1
  I  I10  1  0.680676  0.074141  0.226382  1
  I  I11  1  0.927496  0.776546  0.321140  1
  I  I12  1  0.145322  0.454481  0.370112  1
  I  I13  1  0.372705  0.144903  0.452115  1
  I  I14  1  0.627374  0.853534  0.544519  1
  I  I15  1  0.854760  0.545959  0.625810  1
  I  I16  1  0.074468  0.226492  0.683210  1
  I  I17  1  0.320180  0.927974  0.778004  1
  I  I18  1  0.542066  0.622999  0.849274  1
  I  I19  1  0.777457  0.322407  0.927264  1
