# generated using pymatgen
data_HfI19
_symmetry_space_group_name_H-M   'P 1'
_cell_length_a   10.72698634
_cell_length_b   10.72698727
_cell_length_c   10.72698531
_cell_angle_alpha   93.89123552
_cell_angle_beta   93.89123558
_cell_angle_gamma   93.89124286
_symmetry_Int_Tables_number   1
_chemical_formula_structural   HfI19
_chemical_formula_sum   'Hf1 I19'
_cell_volume   1225.39038674
_cell_formula_units_Z   1
loop_
 _symmetry_equiv_pos_site_id
 _symmetry_equiv_pos_as_xyz
  1  'x, y, z'
loop_
 _atom_site_type_symbol
 _atom_site_label
 _atom_site_symmetry_multiplicity
 _atom_site_fract_x
 _atom_site_fract_y
 _atom_site_fract_z
 _atom_site_occupancy
  Hf  Hf0  1  0.500000  0.500000  0.500000  1
  I  I1  1  0.488509  0.480944  0.232892  1
  I  I2  1  0.232892  0.488509  0.480944  1
  I  I3  1  0.480944  0.232892  0.488509  1
  I  I4  1  0.511491  0.519056  0.767108  1
  I  I5  1  0.767108  0.511491  0.519056  1
  I  I6  1  0.519056  0.767108  0.511491  1
  I  I7  1  0.000000  0.000000  0.000000  1
  I  I8  1  0.047780  0.333893  0.981093  1
  I  I9  1  0.981093  0.047780  0.333893  1
  I  I10  1  0.333893  0.981093  0.047780  1
  I  I11  1  0.952220  0.666107  0.018907  1
  I  I12  1  0.018907  0.952220  0.666107  1
  I  I13  1  0.666107  0.018907  0.952220  1
  I  I14  1  0.733500  0.580506  0.125731  1
  I  I15  1  0.125731  0.733500  0.580506  1
  I  I16  1  0.580506  0.125731  0.733500  1
  I  I17  1  0.266500  0.419494  0.874269  1
  I  I18  1  0.874269  0.266500  0.419494  1
  I  I19  1  0.419494  0.874269  0.266500  1
