# generated using pymatgen
data_Y2B6MoW
_symmetry_space_group_name_H-M   'P 1'
_cell_length_a   3.17160800
_cell_length_b   5.45877577
_cell_length_c   6.84704612
_cell_angle_alpha   77.88205414
_cell_angle_beta   90.00000000
_cell_angle_gamma   90.00000000
_symmetry_Int_Tables_number   1
_chemical_formula_structural   Y2B6MoW
_chemical_formula_sum   'Y2 B6 Mo1 W1'
_cell_volume   115.90212976
_cell_formula_units_Z   1
loop_
 _symmetry_equiv_pos_site_id
 _symmetry_equiv_pos_as_xyz
  1  'x, y, z'
loop_
 _atom_site_type_symbol
 _atom_site_label
 _atom_site_symmetry_multiplicity
 _atom_site_fract_x
 _atom_site_fract_y
 _atom_site_fract_z
 _atom_site_occupancy
  Y  Y0  1  0.750000  0.824604  0.708275  1
  Y  Y1  1  0.250000  0.175181  0.291433  1
  B  B2  1  0.250000  0.581122  0.474465  1
  B  B3  1  0.750000  0.418875  0.524301  1
  B  B4  1  0.250000  0.587196  0.996086  1
  B  B5  1  0.750000  0.412876  0.004705  1
  B  B6  1  0.250000  0.916682  0.993627  1
  B  B7  1  0.750000  0.083186  0.006991  1
  Mo  Mo8  1  0.250000  0.312182  0.780655  1
  W  W9  1  0.750000  0.688097  0.219461  1
