# generated using pymatgen
data_LiLu4(SiB4)2
_symmetry_space_group_name_H-M   'P 1'
_cell_length_a   7.05908400
_cell_length_b   7.05908400
_cell_length_c   7.61871500
_cell_angle_alpha   90.00000000
_cell_angle_beta   90.00000000
_cell_angle_gamma   90.00000000
_symmetry_Int_Tables_number   1
_chemical_formula_structural   LiLu4(SiB4)2
_chemical_formula_sum   'Li2 Lu8 Si4 B16'
_cell_volume   379.64564952
_cell_formula_units_Z   2
loop_
 _symmetry_equiv_pos_site_id
 _symmetry_equiv_pos_as_xyz
  1  'x, y, z'
loop_
 _atom_site_type_symbol
 _atom_site_label
 _atom_site_symmetry_multiplicity
 _atom_site_fract_x
 _atom_site_fract_y
 _atom_site_fract_z
 _atom_site_occupancy
  Li  Li0  1  0.000000  0.000000  0.500000  1
  Li  Li1  1  0.500000  0.500000  0.500000  1
  Lu  Lu2  1  0.683223  0.183223  0.234656  1
  Lu  Lu3  1  0.316777  0.816777  0.765344  1
  Lu  Lu4  1  0.316777  0.816777  0.234656  1
  Lu  Lu5  1  0.816777  0.683223  0.234656  1
  Lu  Lu6  1  0.816777  0.683223  0.765344  1
  Lu  Lu7  1  0.683223  0.183223  0.765344  1
  Lu  Lu8  1  0.183223  0.316777  0.765344  1
  Lu  Lu9  1  0.183223  0.316777  0.234656  1
  Si  Si10  1  0.116542  0.616542  0.500000  1
  Si  Si11  1  0.883458  0.383458  0.500000  1
  Si  Si12  1  0.383458  0.116542  0.500000  1
  Si  Si13  1  0.616542  0.883458  0.500000  1
  B  B14  1  0.174081  0.039690  0.000000  1
  B  B15  1  0.825919  0.960310  0.000000  1
  B  B16  1  0.960310  0.174081  0.000000  1
  B  B17  1  0.325919  0.539690  0.000000  1
  B  B18  1  0.039690  0.825919  0.000000  1
  B  B19  1  0.674081  0.460310  0.000000  1
  B  B20  1  0.539690  0.674081  0.000000  1
  B  B21  1  0.460310  0.325919  0.000000  1
  B  B22  1  0.088448  0.588448  0.000000  1
  B  B23  1  0.911552  0.411552  0.000000  1
  B  B24  1  0.411552  0.088448  0.000000  1
  B  B25  1  0.588448  0.911552  0.000000  1
  B  B26  1  0.000000  0.000000  0.168025  1
  B  B27  1  0.000000  0.000000  0.831975  1
  B  B28  1  0.500000  0.500000  0.831975  1
  B  B29  1  0.500000  0.500000  0.168025  1
