# generated using pymatgen
data_Nd3In3CuPd2
_symmetry_space_group_name_H-M   'P 1'
_cell_length_a   7.70898800
_cell_length_b   7.70898798
_cell_length_c   4.07011400
_cell_angle_alpha   90.00000000
_cell_angle_beta   90.00000000
_cell_angle_gamma   119.99999150
_symmetry_Int_Tables_number   1
_chemical_formula_structural   Nd3In3CuPd2
_chemical_formula_sum   'Nd3 In3 Cu1 Pd2'
_cell_volume   209.47489462
_cell_formula_units_Z   1
loop_
 _symmetry_equiv_pos_site_id
 _symmetry_equiv_pos_as_xyz
  1  'x, y, z'
loop_
 _atom_site_type_symbol
 _atom_site_label
 _atom_site_symmetry_multiplicity
 _atom_site_fract_x
 _atom_site_fract_y
 _atom_site_fract_z
 _atom_site_occupancy
  Nd  Nd0  1  0.000000  0.588016  0.500000  1
  Nd  Nd1  1  0.411984  0.411984  0.500000  1
  Nd  Nd2  1  0.588016  0.000000  0.500000  1
  In  In3  1  0.754085  0.754085  0.000000  1
  In  In4  1  0.000000  0.245915  0.000000  1
  In  In5  1  0.245915  0.000000  0.000000  1
  Cu  Cu6  1  0.000000  0.000000  0.500000  1
  Pd  Pd7  1  0.333333  0.666667  0.000000  1
  Pd  Pd8  1  0.666667  0.333333  0.000000  1
