# generated using pymatgen
data_PrNdAl9CoPt2
_symmetry_space_group_name_H-M   'P 1'
_cell_length_a   7.60529928
_cell_length_b   7.60542024
_cell_length_c   9.54463600
_cell_angle_alpha   89.83516885
_cell_angle_beta   89.83754409
_cell_angle_gamma   119.62031872
_symmetry_Int_Tables_number   1
_chemical_formula_structural   PrNdAl9CoPt2
_chemical_formula_sum   'Pr2 Nd2 Al18 Co2 Pt4'
_cell_volume   479.92283734
_cell_formula_units_Z   2
loop_
 _symmetry_equiv_pos_site_id
 _symmetry_equiv_pos_as_xyz
  1  'x, y, z'
loop_
 _atom_site_type_symbol
 _atom_site_label
 _atom_site_symmetry_multiplicity
 _atom_site_fract_x
 _atom_site_fract_y
 _atom_site_fract_z
 _atom_site_occupancy
  Pr  Pr0  1  0.004854  0.330853  0.750003  1
  Pr  Pr1  1  0.333946  0.008788  0.749680  1
  Nd  Nd2  1  0.991170  0.666206  0.250370  1
  Nd  Nd3  1  0.669399  0.995222  0.249983  1
  Al  Al4  1  0.657313  0.989096  0.928642  1
  Al  Al5  1  0.999785  0.674633  0.570704  1
  Al  Al6  1  0.127587  0.126437  0.256092  1
  Al  Al7  1  0.659151  0.666387  0.049440  1
  Al  Al8  1  0.326482  0.326908  0.547700  1
  Al  Al9  1  0.334042  0.341341  0.952160  1
  Al  Al10  1  0.673666  0.674083  0.450577  1
  Al  Al11  1  0.333487  0.990053  0.072817  1
  Al  Al12  1  0.001790  0.325982  0.427304  1
  Al  Al13  1  0.339953  0.550363  0.242463  1
  Al  Al14  1  0.010327  0.342671  0.073065  1
  Al  Al15  1  0.540805  0.339582  0.249906  1
  Al  Al16  1  0.660667  0.459998  0.750093  1
  Al  Al17  1  0.872382  0.871268  0.743890  1
  Al  Al18  1  0.009226  0.666532  0.928965  1
  Al  Al19  1  0.674043  0.997615  0.570988  1
  Al  Al20  1  0.325399  0.999613  0.427584  1
  Al  Al21  1  0.450849  0.660351  0.757558  1
  Co  Co22  1  0.999890  0.999465  0.499498  1
  Co  Co23  1  0.331063  0.669155  0.000476  1
  Pt  Pt24  1  0.671336  0.328980  0.499385  1
  Pt  Pt25  1  0.671614  0.328649  0.000592  1
  Pt  Pt26  1  0.329700  0.670555  0.499384  1
  Pt  Pt27  1  0.000070  0.999216  0.000682  1
