# generated using pymatgen
data_Mg2Fe3P7Ru9
_symmetry_space_group_name_H-M   'P 1'
_cell_length_a   9.29078700
_cell_length_b   9.29078676
_cell_length_c   3.77383500
_cell_angle_alpha   90.00000000
_cell_angle_beta   90.00000000
_cell_angle_gamma   120.00000441
_symmetry_Int_Tables_number   1
_chemical_formula_structural   Mg2Fe3P7Ru9
_chemical_formula_sum   'Mg2 Fe3 P7 Ru9'
_cell_volume   282.11002306
_cell_formula_units_Z   1
loop_
 _symmetry_equiv_pos_site_id
 _symmetry_equiv_pos_as_xyz
  1  'x, y, z'
loop_
 _atom_site_type_symbol
 _atom_site_label
 _atom_site_symmetry_multiplicity
 _atom_site_fract_x
 _atom_site_fract_y
 _atom_site_fract_z
 _atom_site_occupancy
  Mg  Mg0  1  0.000000  0.000000  0.000000  1
  Mg  Mg1  1  0.333333  0.666667  0.500000  1
  Fe  Fe2  1  0.811858  0.604016  0.000000  1
  Fe  Fe3  1  0.792158  0.188142  0.000000  1
  Fe  Fe4  1  0.395984  0.207842  0.000000  1
  P  P5  1  0.064551  0.638286  0.000000  1
  P  P6  1  0.573735  0.935449  0.000000  1
  P  P7  1  0.361714  0.426265  0.000000  1
  P  P8  1  0.773191  0.725129  0.500000  1
  P  P9  1  0.951939  0.226809  0.500000  1
  P  P10  1  0.274871  0.048061  0.500000  1
  P  P11  1  0.666667  0.333333  0.000000  1
  Ru  Ru12  1  0.102925  0.412385  0.000000  1
  Ru  Ru13  1  0.309460  0.897075  0.000000  1
  Ru  Ru14  1  0.587615  0.690540  0.000000  1
  Ru  Ru15  1  0.047427  0.781580  0.500000  1
  Ru  Ru16  1  0.734155  0.952573  0.500000  1
  Ru  Ru17  1  0.218420  0.265845  0.500000  1
  Ru  Ru18  1  0.873374  0.427734  0.500000  1
  Ru  Ru19  1  0.554361  0.126626  0.500000  1
  Ru  Ru20  1  0.572266  0.445639  0.500000  1
