# generated using pymatgen
data_Yb6Pa2GaPd24
_symmetry_space_group_name_H-M   'P 1'
_cell_length_a   8.28400900
_cell_length_b   8.34353561
_cell_length_c   8.34353561
_cell_angle_alpha   90.80055770
_cell_angle_beta   90.00000000
_cell_angle_gamma   90.00000000
_symmetry_Int_Tables_number   1
_chemical_formula_structural   Yb6Pa2GaPd24
_chemical_formula_sum   'Yb6 Pa2 Ga1 Pd24'
_cell_volume   576.63156922
_cell_formula_units_Z   1
loop_
 _symmetry_equiv_pos_site_id
 _symmetry_equiv_pos_as_xyz
  1  'x, y, z'
loop_
 _atom_site_type_symbol
 _atom_site_label
 _atom_site_symmetry_multiplicity
 _atom_site_fract_x
 _atom_site_fract_y
 _atom_site_fract_z
 _atom_site_occupancy
  Yb  Yb0  1  0.750637  0.249199  0.249199  1
  Yb  Yb1  1  0.750637  0.750801  0.750801  1
  Yb  Yb2  1  0.750235  0.747137  0.252863  1
  Yb  Yb3  1  0.750235  0.252863  0.747137  1
  Yb  Yb4  1  0.251100  0.751373  0.751373  1
  Yb  Yb5  1  0.251100  0.248627  0.248627  1
  Pa  Pa6  1  0.256304  0.255959  0.744041  1
  Pa  Pa7  1  0.256304  0.744041  0.255959  1
  Ga  Ga8  1  0.987639  0.000000  0.000000  1
  Pd  Pd9  1  0.496763  0.498765  0.747182  1
  Pd  Pd10  1  0.496763  0.252818  0.501235  1
  Pd  Pd11  1  0.255208  0.500000  0.500000  1
  Pd  Pd12  1  0.496763  0.501235  0.252818  1
  Pd  Pd13  1  0.496763  0.747182  0.498765  1
  Pd  Pd14  1  0.750463  0.500000  0.500000  1
  Pd  Pd15  1  0.003824  0.006528  0.709616  1
  Pd  Pd16  1  0.003824  0.290384  0.993472  1
  Pd  Pd17  1  0.283233  0.000000  0.000000  1
  Pd  Pd18  1  0.003824  0.993472  0.290384  1
  Pd  Pd19  1  0.003824  0.709616  0.006528  1
  Pd  Pd20  1  0.697920  0.000000  0.000000  1
  Pd  Pd21  1  0.008051  0.498907  0.740281  1
  Pd  Pd22  1  0.493579  0.260627  0.992011  1
  Pd  Pd23  1  0.259817  0.000000  0.500000  1
  Pd  Pd24  1  0.008051  0.259719  0.501093  1
  Pd  Pd25  1  0.493579  0.007989  0.739373  1
  Pd  Pd26  1  0.259817  0.500000  0.000000  1
  Pd  Pd27  1  0.008051  0.501093  0.259719  1
  Pd  Pd28  1  0.493579  0.739373  0.007989  1
  Pd  Pd29  1  0.008051  0.740281  0.498907  1
  Pd  Pd30  1  0.493579  0.992011  0.260627  1
  Pd  Pd31  1  0.740242  0.000000  0.500000  1
  Pd  Pd32  1  0.740242  0.500000  0.000000  1
