# generated using pymatgen
data_Ce3CuRu3
_symmetry_space_group_name_H-M   'P 1'
_cell_length_a   5.00800178
_cell_length_b   5.00800383
_cell_length_c   14.83807300
_cell_angle_alpha   90.00000000
_cell_angle_beta   90.00000000
_cell_angle_gamma   128.42761916
_symmetry_Int_Tables_number   1
_chemical_formula_structural   Ce3CuRu3
_chemical_formula_sum   'Ce6 Cu2 Ru6'
_cell_volume   291.53240855
_cell_formula_units_Z   2
loop_
 _symmetry_equiv_pos_site_id
 _symmetry_equiv_pos_as_xyz
  1  'x, y, z'
loop_
 _atom_site_type_symbol
 _atom_site_label
 _atom_site_symmetry_multiplicity
 _atom_site_fract_x
 _atom_site_fract_y
 _atom_site_fract_z
 _atom_site_occupancy
  Ce  Ce0  1  0.294128  0.705870  0.104348  1
  Ce  Ce1  1  0.991095  0.008903  0.250000  1
  Ce  Ce2  1  0.294128  0.705870  0.395653  1
  Ce  Ce3  1  0.705870  0.294128  0.604348  1
  Ce  Ce4  1  0.008903  0.991095  0.750000  1
  Ce  Ce5  1  0.705870  0.294128  0.895653  1
  Cu  Cu6  1  0.000000  0.000000  0.000000  1
  Cu  Cu7  1  0.000000  0.000000  0.500000  1
  Ru  Ru8  1  0.554077  0.445921  0.091215  1
  Ru  Ru9  1  0.737119  0.262879  0.250000  1
  Ru  Ru10  1  0.554077  0.445921  0.408785  1
  Ru  Ru11  1  0.445921  0.554077  0.591215  1
  Ru  Ru12  1  0.262879  0.737119  0.750000  1
  Ru  Ru13  1  0.445921  0.554077  0.908785  1
