# generated using pymatgen
data_Nb12Al11Zn5(Cu3Ir)2
_symmetry_space_group_name_H-M   'P 1'
_cell_length_a   8.77160770
_cell_length_b   8.73164916
_cell_length_c   8.14314700
_cell_angle_alpha   90.00000000
_cell_angle_beta   90.00000000
_cell_angle_gamma   119.89395131
_symmetry_Int_Tables_number   1
_chemical_formula_structural   Nb12Al11Zn5(Cu3Ir)2
_chemical_formula_sum   'Nb12 Al11 Zn5 Cu6 Ir2'
_cell_volume   540.70637186
_cell_formula_units_Z   1
loop_
 _symmetry_equiv_pos_site_id
 _symmetry_equiv_pos_as_xyz
  1  'x, y, z'
loop_
 _atom_site_type_symbol
 _atom_site_label
 _atom_site_symmetry_multiplicity
 _atom_site_fract_x
 _atom_site_fract_y
 _atom_site_fract_z
 _atom_site_occupancy
  Nb  Nb0  1  0.330756  0.999171  0.069694  1
  Nb  Nb1  1  0.668012  0.999228  0.931826  1
  Nb  Nb2  1  0.001195  0.335900  0.069336  1
  Nb  Nb3  1  0.668012  0.999228  0.568174  1
  Nb  Nb4  1  0.001195  0.335900  0.430664  1
  Nb  Nb5  1  0.002328  0.666601  0.931915  1
  Nb  Nb6  1  0.330756  0.999171  0.430306  1
  Nb  Nb7  1  0.002328  0.666601  0.568085  1
  Nb  Nb8  1  0.667314  0.667584  0.068931  1
  Nb  Nb9  1  0.332211  0.330614  0.930139  1
  Nb  Nb10  1  0.332211  0.330614  0.569861  1
  Nb  Nb11  1  0.667314  0.667584  0.431069  1
  Al  Al12  1  0.163759  0.665341  0.250000  1
  Al  Al13  1  0.341985  0.670580  0.500812  1
  Al  Al14  1  0.669622  0.332216  0.503565  1
  Al  Al15  1  0.669622  0.332216  0.996435  1
  Al  Al16  1  0.341985  0.670580  0.999188  1
  Al  Al17  1  0.173792  0.995688  0.750000  1
  Al  Al18  1  0.818168  0.003294  0.250000  1
  Al  Al19  1  0.996787  0.174432  0.750000  1
  Al  Al20  1  0.996624  0.831328  0.250000  1
  Al  Al21  1  0.827023  0.820337  0.750000  1
  Al  Al22  1  0.172606  0.181144  0.250000  1
  Zn  Zn23  1  0.158120  0.497172  0.750000  1
  Zn  Zn24  1  0.836589  0.503162  0.250000  1
  Zn  Zn25  1  0.506278  0.661708  0.750000  1
  Zn  Zn26  1  0.495948  0.157314  0.750000  1
  Zn  Zn27  1  0.494686  0.335519  0.250000  1
  Cu  Cu28  1  0.501467  0.836694  0.250000  1
  Cu  Cu29  1  0.333032  0.834429  0.750000  1
  Cu  Cu30  1  0.669660  0.501663  0.750000  1
  Cu  Cu31  1  0.661945  0.162884  0.250000  1
  Cu  Cu32  1  0.334412  0.500209  0.250000  1
  Cu  Cu33  1  0.835277  0.330361  0.750000  1
  Ir  Ir34  1  0.998492  0.001767  0.500283  1
  Ir  Ir35  1  0.998492  0.001767  0.999717  1
