# generated using pymatgen
data_Th10Bi6Sb
_symmetry_space_group_name_H-M   'P 1'
_cell_length_a   6.64579500
_cell_length_b   9.65323646
_cell_length_c   9.65327400
_cell_angle_alpha   120.00093774
_cell_angle_beta   90.00055222
_cell_angle_gamma   89.99974190
_symmetry_Int_Tables_number   1
_chemical_formula_structural   Th10Bi6Sb
_chemical_formula_sum   'Th10 Bi6 Sb1'
_cell_volume   536.31636211
_cell_formula_units_Z   1
loop_
 _symmetry_equiv_pos_site_id
 _symmetry_equiv_pos_as_xyz
  1  'x, y, z'
loop_
 _atom_site_type_symbol
 _atom_site_label
 _atom_site_symmetry_multiplicity
 _atom_site_fract_x
 _atom_site_fract_y
 _atom_site_fract_z
 _atom_site_occupancy
  Th  Th0  1  0.500000  0.333301  0.666649  1
  Th  Th1  1  0.500000  0.666704  0.333355  1
  Th  Th2  1  0.000000  0.666714  0.333331  1
  Th  Th3  1  0.000001  0.333289  0.666667  1
  Th  Th4  1  0.769095  0.267689  0.999929  1
  Th  Th5  1  0.769110  0.732339  0.732324  1
  Th  Th6  1  0.769088  0.999940  0.267688  1
  Th  Th7  1  0.230908  0.732313  0.000074  1
  Th  Th8  1  0.230885  0.267661  0.267677  1
  Th  Th9  1  0.230909  0.000058  0.732310  1
  Bi  Bi10  1  0.742976  0.615953  0.000009  1
  Bi  Bi11  1  0.742970  0.384071  0.384074  1
  Bi  Bi12  1  0.742969  0.000003  0.615948  1
  Bi  Bi13  1  0.257026  0.384048  0.999993  1
  Bi  Bi14  1  0.257033  0.615930  0.615924  1
  Bi  Bi15  1  0.257031  0.999992  0.384049  1
  Sb  Sb16  1  0.500002  0.999998  0.000000  1
