# generated using pymatgen
data_Y7Co4Sn23Ru2
_symmetry_space_group_name_H-M   'P 1'
_cell_length_a   9.76643390
_cell_length_b   9.76643300
_cell_length_c   10.02570816
_cell_angle_alpha   90.24095186
_cell_angle_beta   89.75904565
_cell_angle_gamma   119.93300213
_symmetry_Int_Tables_number   1
_chemical_formula_structural   Y7Co4Sn23Ru2
_chemical_formula_sum   'Y7 Co4 Sn23 Ru2'
_cell_volume   828.71530514
_cell_formula_units_Z   1
loop_
 _symmetry_equiv_pos_site_id
 _symmetry_equiv_pos_as_xyz
  1  'x, y, z'
loop_
 _atom_site_type_symbol
 _atom_site_label
 _atom_site_symmetry_multiplicity
 _atom_site_fract_x
 _atom_site_fract_y
 _atom_site_fract_z
 _atom_site_occupancy
  Y  Y0  1  0.000000  0.000000  0.000000  1
  Y  Y1  1  0.479531  0.520469  0.306454  1
  Y  Y2  1  0.520469  0.479531  0.693546  1
  Y  Y3  1  0.480104  0.958622  0.305544  1
  Y  Y4  1  0.519896  0.041378  0.694456  1
  Y  Y5  1  0.041378  0.519896  0.305544  1
  Y  Y6  1  0.958622  0.480104  0.694456  1
  Co  Co7  1  0.830503  0.663291  0.198126  1
  Co  Co8  1  0.169497  0.336709  0.801874  1
  Co  Co9  1  0.336709  0.169497  0.198126  1
  Co  Co10  1  0.663291  0.830503  0.801874  1
  Sn  Sn11  1  0.348648  0.002928  0.003835  1
  Sn  Sn12  1  0.651352  0.997072  0.996165  1
  Sn  Sn13  1  0.002928  0.348648  0.996165  1
  Sn  Sn14  1  0.997072  0.651352  0.003835  1
  Sn  Sn15  1  0.653226  0.653226  0.000000  1
  Sn  Sn16  1  0.346774  0.346774  0.000000  1
  Sn  Sn17  1  0.334814  0.665186  0.817784  1
  Sn  Sn18  1  0.665186  0.334814  0.182216  1
  Sn  Sn19  1  0.000000  0.000000  0.500000  1
  Sn  Sn20  1  0.780400  0.219600  0.456558  1
  Sn  Sn21  1  0.219600  0.780400  0.543442  1
  Sn  Sn22  1  0.781678  0.563673  0.451432  1
  Sn  Sn23  1  0.218322  0.436327  0.548568  1
  Sn  Sn24  1  0.436327  0.218322  0.451432  1
  Sn  Sn25  1  0.563673  0.781678  0.548568  1
  Sn  Sn26  1  0.333629  0.666371  0.117328  1
  Sn  Sn27  1  0.666371  0.333629  0.882672  1
  Sn  Sn28  1  0.116909  0.883091  0.272181  1
  Sn  Sn29  1  0.883091  0.116909  0.727819  1
  Sn  Sn30  1  0.122298  0.235615  0.275342  1
  Sn  Sn31  1  0.877702  0.764385  0.724658  1
  Sn  Sn32  1  0.764385  0.877702  0.275342  1
  Sn  Sn33  1  0.235615  0.122298  0.724658  1
  Ru  Ru34  1  0.832331  0.167669  0.198241  1
  Ru  Ru35  1  0.167669  0.832331  0.801759  1
