# generated using pymatgen
data_Tm6CoRh
_symmetry_space_group_name_H-M   'P 1'
_cell_length_a   6.17927811
_cell_length_b   7.02030034
_cell_length_c   9.24764800
_cell_angle_alpha   90.00000000
_cell_angle_beta   90.00000000
_cell_angle_gamma   90.38325928
_symmetry_Int_Tables_number   1
_chemical_formula_structural   Tm6CoRh
_chemical_formula_sum   'Tm12 Co2 Rh2'
_cell_volume   401.15758523
_cell_formula_units_Z   2
loop_
 _symmetry_equiv_pos_site_id
 _symmetry_equiv_pos_as_xyz
  1  'x, y, z'
loop_
 _atom_site_type_symbol
 _atom_site_label
 _atom_site_symmetry_multiplicity
 _atom_site_fract_x
 _atom_site_fract_y
 _atom_site_fract_z
 _atom_site_occupancy
  Tm  Tm0  1  0.627631  0.044156  0.250000  1
  Tm  Tm1  1  0.372369  0.955844  0.750000  1
  Tm  Tm2  1  0.142108  0.468444  0.750000  1
  Tm  Tm3  1  0.857892  0.531556  0.250000  1
  Tm  Tm4  1  0.177508  0.182021  0.063959  1
  Tm  Tm5  1  0.822492  0.817979  0.936041  1
  Tm  Tm6  1  0.673178  0.328428  0.934643  1
  Tm  Tm7  1  0.822492  0.817979  0.563959  1
  Tm  Tm8  1  0.326822  0.671572  0.065357  1
  Tm  Tm9  1  0.177508  0.182021  0.436041  1
  Tm  Tm10  1  0.326822  0.671572  0.434643  1
  Tm  Tm11  1  0.673178  0.328428  0.565357  1
  Co  Co12  1  0.450554  0.384136  0.250000  1
  Co  Co13  1  0.549446  0.615864  0.750000  1
  Rh  Rh14  1  0.952697  0.113749  0.750000  1
  Rh  Rh15  1  0.047303  0.886251  0.250000  1
