# generated using pymatgen
data_Er4ZnCuPt2
_symmetry_space_group_name_H-M   'P 1'
_cell_length_a   4.49154400
_cell_length_b   5.47834565
_cell_length_c   7.10029091
_cell_angle_alpha   89.58844564
_cell_angle_beta   90.00000000
_cell_angle_gamma   90.00000000
_symmetry_Int_Tables_number   1
_chemical_formula_structural   Er4ZnCuPt2
_chemical_formula_sum   'Er4 Zn1 Cu1 Pt2'
_cell_volume   174.70688769
_cell_formula_units_Z   1
loop_
 _symmetry_equiv_pos_site_id
 _symmetry_equiv_pos_as_xyz
  1  'x, y, z'
loop_
 _atom_site_type_symbol
 _atom_site_label
 _atom_site_symmetry_multiplicity
 _atom_site_fract_x
 _atom_site_fract_y
 _atom_site_fract_z
 _atom_site_occupancy
  Er  Er0  1  0.250000  0.645067  0.188684  1
  Er  Er1  1  0.750000  0.369582  0.811568  1
  Er  Er2  1  0.750000  0.133137  0.321521  1
  Er  Er3  1  0.250000  0.849864  0.681357  1
  Zn  Zn4  1  0.250000  0.144978  0.031598  1
  Cu  Cu5  1  0.250000  0.353922  0.537805  1
  Pt  Pt6  1  0.750000  0.868891  0.964937  1
  Pt  Pt7  1  0.750000  0.634559  0.462531  1
