# generated using pymatgen
data_NdGdCrSiO8
_symmetry_space_group_name_H-M   'P 1'
_cell_length_a   6.02867426
_cell_length_b   6.02867607
_cell_length_c   6.02867483
_cell_angle_alpha   105.80770446
_cell_angle_beta   105.80771737
_cell_angle_gamma   117.07654730
_symmetry_Int_Tables_number   1
_chemical_formula_structural   NdGdCrSiO8
_chemical_formula_sum   'Nd1 Gd1 Cr1 Si1 O8'
_cell_volume   166.41552171
_cell_formula_units_Z   1
loop_
 _symmetry_equiv_pos_site_id
 _symmetry_equiv_pos_as_xyz
  1  'x, y, z'
loop_
 _atom_site_type_symbol
 _atom_site_label
 _atom_site_symmetry_multiplicity
 _atom_site_fract_x
 _atom_site_fract_y
 _atom_site_fract_z
 _atom_site_occupancy
  Nd  Nd0  1  0.500000  0.500000  0.000000  1
  Gd  Gd1  1  0.750000  0.250000  0.500000  1
  Cr  Cr2  1  0.000000  0.000000  0.000000  1
  Si  Si3  1  0.250000  0.750000  0.500000  1
  O  O4  1  0.839017  0.019385  0.180367  1
  O  O5  1  0.904369  0.579618  0.324751  1
  O  O6  1  0.254868  0.579618  0.675249  1
  O  O7  1  0.839017  0.658650  0.819633  1
  O  O8  1  0.341350  0.160983  0.180367  1
  O  O9  1  0.420382  0.745132  0.324751  1
  O  O10  1  0.420382  0.095631  0.675249  1
  O  O11  1  0.980615  0.160983  0.819633  1
