# generated using pymatgen
data_CePa5O12
_symmetry_space_group_name_H-M   'P 1'
_cell_length_a   6.71316968
_cell_length_b   6.71316984
_cell_length_c   6.71376205
_cell_angle_alpha   80.41052738
_cell_angle_beta   80.41052814
_cell_angle_gamma   119.99996655
_symmetry_Int_Tables_number   1
_chemical_formula_structural   CePa5O12
_chemical_formula_sum   'Ce1 Pa5 O12'
_cell_volume   247.05946890
_cell_formula_units_Z   1
loop_
 _symmetry_equiv_pos_site_id
 _symmetry_equiv_pos_as_xyz
  1  'x, y, z'
loop_
 _atom_site_type_symbol
 _atom_site_label
 _atom_site_symmetry_multiplicity
 _atom_site_fract_x
 _atom_site_fract_y
 _atom_site_fract_z
 _atom_site_occupancy
  Ce  Ce0  1  0.500000  0.500000  0.500000  1
  Pa  Pa1  1  0.833233  0.166767  0.500000  1
  Pa  Pa2  1  0.166767  0.833233  0.500000  1
  Pa  Pa3  1  0.665797  0.334203  0.000000  1
  Pa  Pa4  1  0.000000  0.000000  0.000000  1
  Pa  Pa5  1  0.334203  0.665797  0.000000  1
  O  O6  1  0.114332  0.114332  0.629671  1
  O  O7  1  0.707788  0.042311  0.876663  1
  O  O8  1  0.957689  0.292212  0.123337  1
  O  O9  1  0.370177  0.370177  0.885569  1
  O  O10  1  0.042311  0.707788  0.876663  1
  O  O11  1  0.542986  0.201088  0.370382  1
  O  O12  1  0.885668  0.885668  0.370329  1
  O  O13  1  0.457014  0.798912  0.629618  1
  O  O14  1  0.629823  0.629823  0.114431  1
  O  O15  1  0.292212  0.957689  0.123337  1
  O  O16  1  0.798912  0.457014  0.629618  1
  O  O17  1  0.201088  0.542986  0.370382  1
