# generated using pymatgen
data_SmYCo5(NiAs)7
_symmetry_space_group_name_H-M   'P 1'
_cell_length_a   3.79213300
_cell_length_b   9.39468864
_cell_length_c   9.38770747
_cell_angle_alpha   120.07722586
_cell_angle_beta   90.00000000
_cell_angle_gamma   90.00000000
_symmetry_Int_Tables_number   1
_chemical_formula_structural   SmYCo5(NiAs)7
_chemical_formula_sum   'Sm1 Y1 Co5 Ni7 As7'
_cell_volume   289.41274124
_cell_formula_units_Z   1
loop_
 _symmetry_equiv_pos_site_id
 _symmetry_equiv_pos_as_xyz
  1  'x, y, z'
loop_
 _atom_site_type_symbol
 _atom_site_label
 _atom_site_symmetry_multiplicity
 _atom_site_fract_x
 _atom_site_fract_y
 _atom_site_fract_z
 _atom_site_occupancy
  Sm  Sm0  1  0.500000  0.335278  0.667092  1
  Y  Y1  1  0.000000  0.665454  0.333615  1
  Co  Co2  1  0.000000  0.874088  0.153131  1
  Co  Co3  1  0.000000  0.276922  0.124233  1
  Co  Co4  1  0.000000  0.849354  0.723269  1
  Co  Co5  1  0.500000  0.426416  0.048752  1
  Co  Co6  1  0.500000  0.622412  0.572337  1
  Ni  Ni7  1  0.000000  0.561804  0.941882  1
  Ni  Ni8  1  0.000000  0.382715  0.437372  1
  Ni  Ni9  1  0.000000  0.056991  0.617750  1
  Ni  Ni10  1  0.500000  0.790984  0.907986  1
  Ni  Ni11  1  0.500000  0.118579  0.211033  1
  Ni  Ni12  1  0.500000  0.091330  0.884608  1
  Ni  Ni13  1  0.500000  0.949137  0.378638  1
  As  As14  1  0.000000  0.999117  0.001162  1
  As  As15  1  0.500000  0.703563  0.109276  1
  As  As16  1  0.500000  0.405126  0.292660  1
  As  As17  1  0.500000  0.887272  0.597225  1
  As  As18  1  0.000000  0.598961  0.710411  1
  As  As19  1  0.000000  0.115527  0.400647  1
  As  As20  1  0.000000  0.288970  0.886919  1
