# generated using pymatgen
data_Ce3Nd(Rh2Pb)2
_symmetry_space_group_name_H-M   'P 1'
_cell_length_a   7.80251602
_cell_length_b   7.80251662
_cell_length_c   3.73109100
_cell_angle_alpha   90.00000000
_cell_angle_beta   90.00000000
_cell_angle_gamma   91.64533484
_symmetry_Int_Tables_number   1
_chemical_formula_structural   Ce3Nd(Rh2Pb)2
_chemical_formula_sum   'Ce3 Nd1 Rh4 Pb2'
_cell_volume   227.05241233
_cell_formula_units_Z   1
loop_
 _symmetry_equiv_pos_site_id
 _symmetry_equiv_pos_as_xyz
  1  'x, y, z'
loop_
 _atom_site_type_symbol
 _atom_site_label
 _atom_site_symmetry_multiplicity
 _atom_site_fract_x
 _atom_site_fract_y
 _atom_site_fract_z
 _atom_site_occupancy
  Ce  Ce0  1  0.673131  0.168252  0.500000  1
  Ce  Ce1  1  0.331748  0.826869  0.500000  1
  Ce  Ce2  1  0.171258  0.328742  0.500000  1
  Nd  Nd3  1  0.830021  0.669979  0.500000  1
  Rh  Rh4  1  0.146102  0.629079  0.000000  1
  Rh  Rh5  1  0.870921  0.353898  0.000000  1
  Rh  Rh6  1  0.613288  0.886712  0.000000  1
  Rh  Rh7  1  0.356785  0.143215  0.000000  1
  Pb  Pb8  1  0.002447  0.995702  0.000000  1
  Pb  Pb9  1  0.504298  0.497553  0.000000  1
