# generated using pymatgen
data_Pr9Th2US20
_symmetry_space_group_name_H-M   'P 1'
_cell_length_a   7.60930136
_cell_length_b   8.24085400
_cell_length_c   12.11089195
_cell_angle_alpha   90.00000000
_cell_angle_beta   89.79665767
_cell_angle_gamma   90.00000000
_symmetry_Int_Tables_number   1
_chemical_formula_structural   Pr9Th2US20
_chemical_formula_sum   'Pr9 Th2 U1 S20'
_cell_volume   759.43463296
_cell_formula_units_Z   1
loop_
 _symmetry_equiv_pos_site_id
 _symmetry_equiv_pos_as_xyz
  1  'x, y, z'
loop_
 _atom_site_type_symbol
 _atom_site_label
 _atom_site_symmetry_multiplicity
 _atom_site_fract_x
 _atom_site_fract_y
 _atom_site_fract_z
 _atom_site_occupancy
  Pr  Pr0  1  0.925904  0.750000  0.492660  1
  Pr  Pr1  1  0.476078  0.998996  0.323350  1
  Pr  Pr2  1  0.981197  0.999040  0.179186  1
  Pr  Pr3  1  0.520896  0.500135  0.675607  1
  Pr  Pr4  1  0.023215  0.500220  0.822294  1
  Pr  Pr5  1  0.520896  0.999865  0.675607  1
  Pr  Pr6  1  0.023215  0.999780  0.822294  1
  Pr  Pr7  1  0.476078  0.501004  0.323350  1
  Pr  Pr8  1  0.981197  0.500960  0.179186  1
  Th  Th9  1  0.428097  0.250000  0.009291  1
  Th  Th10  1  0.577798  0.750000  0.988969  1
  U  U11  1  0.058479  0.250000  0.505874  1
  S  S12  1  0.173784  0.750000  0.310543  1
  S  S13  1  0.670633  0.250000  0.188863  1
  S  S14  1  0.832458  0.250000  0.680330  1
  S  S15  1  0.327503  0.750000  0.810028  1
  S  S16  1  0.538596  0.750000  0.498684  1
  S  S17  1  0.044240  0.250000  0.002308  1
  S  S18  1  0.447508  0.250000  0.499117  1
  S  S19  1  0.958405  0.750000  0.999765  1
  S  S20  1  0.800641  0.750000  0.719719  1
  S  S21  1  0.305478  0.250000  0.787505  1
  S  S22  1  0.194793  0.250000  0.289307  1
  S  S23  1  0.699552  0.750000  0.216810  1
  S  S24  1  0.161965  0.524810  0.597802  1
  S  S25  1  0.664834  0.456000  0.899335  1
  S  S26  1  0.840448  0.052257  0.404471  1
  S  S27  1  0.339430  0.957052  0.098070  1
  S  S28  1  0.840448  0.447743  0.404471  1
  S  S29  1  0.339430  0.542948  0.098070  1
  S  S30  1  0.161965  0.975190  0.597802  1
  S  S31  1  0.664834  0.044000  0.899335  1
