# generated using pymatgen
data_La16Cd4CoNi3
_symmetry_space_group_name_H-M   'P 1'
_cell_length_a   10.03774128
_cell_length_b   10.03774075
_cell_length_c   10.03774119
_cell_angle_alpha   59.78622173
_cell_angle_beta   59.78622484
_cell_angle_gamma   59.78622274
_symmetry_Int_Tables_number   1
_chemical_formula_structural   La16Cd4CoNi3
_chemical_formula_sum   'La16 Cd4 Co1 Ni3'
_cell_volume   711.67229725
_cell_formula_units_Z   1
loop_
 _symmetry_equiv_pos_site_id
 _symmetry_equiv_pos_as_xyz
  1  'x, y, z'
loop_
 _atom_site_type_symbol
 _atom_site_label
 _atom_site_symmetry_multiplicity
 _atom_site_fract_x
 _atom_site_fract_y
 _atom_site_fract_z
 _atom_site_occupancy
  La  La0  1  0.937803  0.937803  0.560744  1
  La  La1  1  0.561271  0.941850  0.561271  1
  La  La2  1  0.560744  0.937803  0.937803  1
  La  La3  1  0.693122  0.693122  0.307837  1
  La  La4  1  0.155073  0.155073  0.539602  1
  La  La5  1  0.307837  0.693122  0.693122  1
  La  La6  1  0.153196  0.153196  0.153196  1
  La  La7  1  0.539602  0.155073  0.155073  1
  La  La8  1  0.310452  0.683974  0.310452  1
  La  La9  1  0.310452  0.310452  0.683974  1
  La  La10  1  0.693122  0.307837  0.693122  1
  La  La11  1  0.941850  0.561271  0.561271  1
  La  La12  1  0.561271  0.561271  0.941850  1
  La  La13  1  0.155073  0.539602  0.155073  1
  La  La14  1  0.683974  0.310452  0.310452  1
  La  La15  1  0.937803  0.560744  0.937803  1
  Cd  Cd16  1  0.237392  0.920573  0.920573  1
  Cd  Cd17  1  0.921142  0.921142  0.921142  1
  Cd  Cd18  1  0.920573  0.920573  0.237392  1
  Cd  Cd19  1  0.920573  0.237392  0.920573  1
  Co  Co20  1  0.357973  0.357973  0.357973  1
  Ni  Ni21  1  0.923721  0.357989  0.357989  1
  Ni  Ni22  1  0.357989  0.357989  0.923721  1
  Ni  Ni23  1  0.357989  0.923721  0.357989  1
