# generated using pymatgen
data_PrLu2(Co3P2)3
_symmetry_space_group_name_H-M   'P 1'
_cell_length_a   3.69706300
_cell_length_b   10.51322700
_cell_length_c   12.18515300
_cell_angle_alpha   90.00000000
_cell_angle_beta   90.00000000
_cell_angle_gamma   90.00000000
_symmetry_Int_Tables_number   1
_chemical_formula_structural   PrLu2(Co3P2)3
_chemical_formula_sum   'Pr2 Lu4 Co18 P12'
_cell_volume   473.61328901
_cell_formula_units_Z   2
loop_
 _symmetry_equiv_pos_site_id
 _symmetry_equiv_pos_as_xyz
  1  'x, y, z'
loop_
 _atom_site_type_symbol
 _atom_site_label
 _atom_site_symmetry_multiplicity
 _atom_site_fract_x
 _atom_site_fract_y
 _atom_site_fract_z
 _atom_site_occupancy
  Pr  Pr0  1  0.000000  0.500000  0.522536  1
  Pr  Pr1  1  0.500000  0.000000  0.477464  1
  Lu  Lu2  1  0.500000  0.818045  0.204309  1
  Lu  Lu3  1  0.500000  0.181955  0.204309  1
  Lu  Lu4  1  0.000000  0.681955  0.795691  1
  Lu  Lu5  1  0.000000  0.318045  0.795691  1
  Co  Co6  1  0.500000  0.500000  0.155890  1
  Co  Co7  1  0.000000  0.000000  0.844110  1
  Co  Co8  1  0.500000  0.500000  0.708187  1
  Co  Co9  1  0.000000  0.000000  0.291813  1
  Co  Co10  1  0.000000  0.500000  0.986515  1
  Co  Co11  1  0.500000  0.000000  0.013485  1
  Co  Co12  1  0.500000  0.332920  0.994618  1
  Co  Co13  1  0.500000  0.667080  0.994618  1
  Co  Co14  1  0.000000  0.167080  0.005382  1
  Co  Co15  1  0.000000  0.832920  0.005382  1
  Co  Co16  1  0.500000  0.296255  0.428120  1
  Co  Co17  1  0.500000  0.703745  0.428120  1
  Co  Co18  1  0.000000  0.203745  0.571880  1
  Co  Co19  1  0.000000  0.796255  0.571880  1
  Co  Co20  1  0.500000  0.878594  0.713994  1
  Co  Co21  1  0.500000  0.121406  0.713994  1
  Co  Co22  1  0.000000  0.621406  0.286006  1
  Co  Co23  1  0.000000  0.378594  0.286006  1
  P  P24  1  0.500000  0.500000  0.883534  1
  P  P25  1  0.000000  0.000000  0.116466  1
  P  P26  1  0.500000  0.500000  0.338528  1
  P  P27  1  0.000000  0.000000  0.661472  1
  P  P28  1  0.500000  0.307534  0.619624  1
  P  P29  1  0.500000  0.692466  0.619624  1
  P  P30  1  0.000000  0.192466  0.380376  1
  P  P31  1  0.000000  0.807534  0.380376  1
  P  P32  1  0.500000  0.845660  0.893727  1
  P  P33  1  0.500000  0.154340  0.893727  1
  P  P34  1  0.000000  0.654340  0.106273  1
  P  P35  1  0.000000  0.345660  0.106273  1
