# generated using pymatgen
data_Ti3Be2AuC
_symmetry_space_group_name_H-M   'P 1'
_cell_length_a   7.95865273
_cell_length_b   7.95820244
_cell_length_c   7.95848001
_cell_angle_alpha   60.00026249
_cell_angle_beta   60.00146949
_cell_angle_gamma   60.00056523
_symmetry_Int_Tables_number   1
_chemical_formula_structural   Ti3Be2AuC
_chemical_formula_sum   'Ti12 Be8 Au4 C4'
_cell_volume   356.43242813
_cell_formula_units_Z   4
loop_
 _symmetry_equiv_pos_site_id
 _symmetry_equiv_pos_as_xyz
  1  'x, y, z'
loop_
 _atom_site_type_symbol
 _atom_site_label
 _atom_site_symmetry_multiplicity
 _atom_site_fract_x
 _atom_site_fract_y
 _atom_site_fract_z
 _atom_site_occupancy
  Ti  Ti0  1  0.938033  0.937865  0.562017  1
  Ti  Ti1  1  0.688117  0.311930  0.311902  1
  Ti  Ti2  1  0.311794  0.688181  0.687997  1
  Ti  Ti3  1  0.688017  0.688062  0.311877  1
  Ti  Ti4  1  0.688174  0.311833  0.688035  1
  Ti  Ti5  1  0.311904  0.688117  0.311978  1
  Ti  Ti6  1  0.562108  0.937962  0.561970  1
  Ti  Ti7  1  0.562060  0.937855  0.938094  1
  Ti  Ti8  1  0.938069  0.562111  0.561919  1
  Ti  Ti9  1  0.937958  0.562067  0.938029  1
  Ti  Ti10  1  0.311833  0.311923  0.688085  1
  Ti  Ti11  1  0.561951  0.562005  0.938141  1
  Be  Be12  1  0.919110  0.242673  0.919123  1
  Be  Be13  1  0.330870  0.330893  0.007329  1
  Be  Be14  1  0.007242  0.330925  0.330894  1
  Be  Be15  1  0.330914  0.330908  0.330912  1
  Be  Be16  1  0.242682  0.919108  0.919116  1
  Be  Be17  1  0.919091  0.919092  0.919093  1
  Be  Be18  1  0.919094  0.919097  0.242739  1
  Be  Be19  1  0.330916  0.007251  0.330911  1
  Au  Au20  1  0.124995  0.624956  0.125029  1
  Au  Au21  1  0.125018  0.124986  0.624970  1
  Au  Au22  1  0.624959  0.124977  0.125043  1
  Au  Au23  1  0.125007  0.124989  0.125037  1
  C  C24  1  0.625157  0.124814  0.624960  1
  C  C25  1  0.625032  0.625077  0.124953  1
  C  C26  1  0.124850  0.625195  0.624953  1
  C  C27  1  0.625046  0.625147  0.624895  1
