# generated using pymatgen
data_HfZrTiSi2Mo
_symmetry_space_group_name_H-M   'P 1'
_cell_length_a   3.58250600
_cell_length_b   6.90676200
_cell_length_c   8.30860500
_cell_angle_alpha   90.00000000
_cell_angle_beta   90.00000000
_cell_angle_gamma   90.00000000
_symmetry_Int_Tables_number   1
_chemical_formula_structural   HfZrTiSi2Mo
_chemical_formula_sum   'Hf2 Zr2 Ti2 Si4 Mo2'
_cell_volume   205.58410329
_cell_formula_units_Z   2
loop_
 _symmetry_equiv_pos_site_id
 _symmetry_equiv_pos_as_xyz
  1  'x, y, z'
loop_
 _atom_site_type_symbol
 _atom_site_label
 _atom_site_symmetry_multiplicity
 _atom_site_fract_x
 _atom_site_fract_y
 _atom_site_fract_z
 _atom_site_occupancy
  Hf  Hf0  1  0.250000  0.050627  0.334098  1
  Hf  Hf1  1  0.250000  0.550627  0.165902  1
  Zr  Zr2  1  0.750000  0.956188  0.665344  1
  Zr  Zr3  1  0.750000  0.456188  0.834656  1
  Ti  Ti4  1  0.250000  0.124837  0.941972  1
  Ti  Ti5  1  0.250000  0.624837  0.558028  1
  Si  Si6  1  0.250000  0.253788  0.637664  1
  Si  Si7  1  0.250000  0.753788  0.862336  1
  Si  Si8  1  0.750000  0.746769  0.360580  1
  Si  Si9  1  0.750000  0.246769  0.139420  1
  Mo  Mo10  1  0.750000  0.867791  0.060401  1
  Mo  Mo11  1  0.750000  0.367791  0.439599  1
