# generated using pymatgen
data_Ho7Er(InRu)2
_symmetry_space_group_name_H-M   'P 1'
_cell_length_a   9.59040411
_cell_length_b   9.59039010
_cell_length_c   9.59039041
_cell_angle_alpha   59.98539003
_cell_angle_beta   60.02362751
_cell_angle_gamma   60.02362800
_symmetry_Int_Tables_number   1
_chemical_formula_structural   Ho7Er(InRu)2
_chemical_formula_sum   'Ho14 Er2 In4 Ru4'
_cell_volume   623.88058176
_cell_formula_units_Z   2
loop_
 _symmetry_equiv_pos_site_id
 _symmetry_equiv_pos_as_xyz
  1  'x, y, z'
loop_
 _atom_site_type_symbol
 _atom_site_label
 _atom_site_symmetry_multiplicity
 _atom_site_fract_x
 _atom_site_fract_y
 _atom_site_fract_z
 _atom_site_occupancy
  Ho  Ho0  1  0.098030  0.705854  0.098057  1
  Ho  Ho1  1  0.941089  0.941454  0.558866  1
  Ho  Ho2  1  0.941089  0.558866  0.941454  1
  Ho  Ho3  1  0.308626  0.691746  0.308129  1
  Ho  Ho4  1  0.941421  0.558581  0.558581  1
  Ho  Ho5  1  0.308626  0.308129  0.691746  1
  Ho  Ho6  1  0.098331  0.098006  0.098006  1
  Ho  Ho7  1  0.558611  0.558607  0.941560  1
  Ho  Ho8  1  0.098030  0.098057  0.705854  1
  Ho  Ho9  1  0.691600  0.308044  0.691954  1
  Ho  Ho10  1  0.691600  0.691954  0.308044  1
  Ho  Ho11  1  0.691770  0.308155  0.308155  1
  Ho  Ho12  1  0.308534  0.691529  0.691529  1
  Ho  Ho13  1  0.558611  0.941560  0.558607  1
  Er  Er14  1  0.706020  0.097786  0.097786  1
  Er  Er15  1  0.558729  0.941500  0.941500  1
  In  In16  1  0.332576  0.332423  0.332423  1
  In  In17  1  0.002541  0.332491  0.332491  1
  In  In18  1  0.332595  0.002542  0.332390  1
  In  In19  1  0.332595  0.332390  0.002542  1
  Ru  Ru20  1  0.888759  0.889726  0.889726  1
  Ru  Ru21  1  0.888995  0.889686  0.331556  1
  Ru  Ru22  1  0.332225  0.889356  0.889356  1
  Ru  Ru23  1  0.888995  0.331556  0.889686  1
