# generated using pymatgen
data_HoTh(GaRu)2
_symmetry_space_group_name_H-M   'P 1'
_cell_length_a   4.13303800
_cell_length_b   7.02443800
_cell_length_c   8.12529300
_cell_angle_alpha   90.00000000
_cell_angle_beta   90.00000000
_cell_angle_gamma   90.00000000
_symmetry_Int_Tables_number   1
_chemical_formula_structural   HoTh(GaRu)2
_chemical_formula_sum   'Ho2 Th2 Ga4 Ru4'
_cell_volume   235.89569356
_cell_formula_units_Z   2
loop_
 _symmetry_equiv_pos_site_id
 _symmetry_equiv_pos_as_xyz
  1  'x, y, z'
loop_
 _atom_site_type_symbol
 _atom_site_label
 _atom_site_symmetry_multiplicity
 _atom_site_fract_x
 _atom_site_fract_y
 _atom_site_fract_z
 _atom_site_occupancy
  Ho  Ho0  1  0.750000  0.033287  0.692065  1
  Ho  Ho1  1  0.750000  0.533287  0.807935  1
  Th  Th2  1  0.250000  0.971207  0.317180  1
  Th  Th3  1  0.250000  0.471207  0.182820  1
  Ga  Ga4  1  0.250000  0.351352  0.572021  1
  Ga  Ga5  1  0.250000  0.851352  0.927979  1
  Ga  Ga6  1  0.750000  0.644848  0.443616  1
  Ga  Ga7  1  0.750000  0.144848  0.056384  1
  Ru  Ru8  1  0.250000  0.236792  0.883684  1
  Ru  Ru9  1  0.250000  0.736792  0.616316  1
  Ru  Ru10  1  0.750000  0.762515  0.122676  1
  Ru  Ru11  1  0.750000  0.262515  0.377324  1
