# generated using pymatgen
data_Ta3Ga(AsO4)6
_symmetry_space_group_name_H-M   'P 1'
_cell_length_a   9.39441793
_cell_length_b   9.39441725
_cell_length_c   9.39441701
_cell_angle_alpha   56.82126995
_cell_angle_beta   56.82126468
_cell_angle_gamma   56.82126354
_symmetry_Int_Tables_number   1
_chemical_formula_structural   Ta3Ga(AsO4)6
_chemical_formula_sum   'Ta3 Ga1 As6 O24'
_cell_volume   543.25813111
_cell_formula_units_Z   1
loop_
 _symmetry_equiv_pos_site_id
 _symmetry_equiv_pos_as_xyz
  1  'x, y, z'
loop_
 _atom_site_type_symbol
 _atom_site_label
 _atom_site_symmetry_multiplicity
 _atom_site_fract_x
 _atom_site_fract_y
 _atom_site_fract_z
 _atom_site_occupancy
  Ta  Ta0  1  0.143996  0.143996  0.143996  1
  Ta  Ta1  1  0.356596  0.356596  0.356596  1
  Ta  Ta2  1  0.640302  0.640302  0.640302  1
  Ga  Ga3  1  0.854249  0.854249  0.854249  1
  As  As4  1  0.028484  0.485100  0.745151  1
  As  As5  1  0.485100  0.745151  0.028484  1
  As  As6  1  0.745151  0.028484  0.485100  1
  As  As7  1  0.234860  0.968436  0.540524  1
  As  As8  1  0.540524  0.234860  0.968436  1
  As  As9  1  0.968436  0.540524  0.234860  1
  O  O10  1  0.138959  0.500145  0.287187  1
  O  O11  1  0.287187  0.138959  0.500145  1
  O  O12  1  0.044371  0.305781  0.946278  1
  O  O13  1  0.500145  0.287187  0.138959  1
  O  O14  1  0.223650  0.415202  0.578137  1
  O  O15  1  0.017701  0.683281  0.717739  1
  O  O16  1  0.305781  0.946278  0.044371  1
  O  O17  1  0.415202  0.578137  0.223650  1
  O  O18  1  0.578137  0.223650  0.415202  1
  O  O19  1  0.253516  0.990615  0.337031  1
  O  O20  1  0.028082  0.984650  0.702212  1
  O  O21  1  0.337031  0.253516  0.990615  1
  O  O22  1  0.683281  0.717739  0.017701  1
  O  O23  1  0.946278  0.044371  0.305781  1
  O  O24  1  0.717739  0.017701  0.683281  1
  O  O25  1  0.413072  0.771928  0.590962  1
  O  O26  1  0.590962  0.413072  0.771928  1
  O  O27  1  0.702212  0.028082  0.984650  1
  O  O28  1  0.990615  0.337031  0.253516  1
  O  O29  1  0.771928  0.590962  0.413072  1
  O  O30  1  0.496967  0.722267  0.852568  1
  O  O31  1  0.984650  0.702212  0.028082  1
  O  O32  1  0.722267  0.852568  0.496967  1
  O  O33  1  0.852568  0.496967  0.722267  1
