# generated using pymatgen
data_Li4La3YbPd4
_symmetry_space_group_name_H-M   'P 1'
_cell_length_a   4.18045800
_cell_length_b   7.34891620
_cell_length_c   8.66904989
_cell_angle_alpha   89.72345028
_cell_angle_beta   90.00000000
_cell_angle_gamma   90.00000000
_symmetry_Int_Tables_number   1
_chemical_formula_structural   Li4La3YbPd4
_chemical_formula_sum   'Li4 La3 Yb1 Pd4'
_cell_volume   266.32602247
_cell_formula_units_Z   1
loop_
 _symmetry_equiv_pos_site_id
 _symmetry_equiv_pos_as_xyz
  1  'x, y, z'
loop_
 _atom_site_type_symbol
 _atom_site_label
 _atom_site_symmetry_multiplicity
 _atom_site_fract_x
 _atom_site_fract_y
 _atom_site_fract_z
 _atom_site_occupancy
  Li  Li0  1  0.750000  0.372595  0.049701  1
  Li  Li1  1  0.250000  0.619950  0.940864  1
  Li  Li2  1  0.750000  0.872421  0.449858  1
  Li  Li3  1  0.250000  0.136085  0.555007  1
  La  La4  1  0.250000  0.041492  0.183378  1
  La  La5  1  0.750000  0.956874  0.813231  1
  La  La6  1  0.250000  0.542608  0.323741  1
  Yb  Yb7  1  0.750000  0.458459  0.682361  1
  Pd  Pd8  1  0.250000  0.753606  0.627734  1
  Pd  Pd9  1  0.750000  0.250974  0.372317  1
  Pd  Pd10  1  0.250000  0.247513  0.874636  1
  Pd  Pd11  1  0.750000  0.747422  0.127173  1
