# generated using pymatgen
data_YbTiH5
_symmetry_space_group_name_H-M   'P 1'
_cell_length_a   4.18369500
_cell_length_b   5.01214400
_cell_length_c   11.95522400
_cell_angle_alpha   90.00000000
_cell_angle_beta   90.00000000
_cell_angle_gamma   90.00000000
_symmetry_Int_Tables_number   1
_chemical_formula_structural   YbTiH5
_chemical_formula_sum   'Yb4 Ti4 H20'
_cell_volume   250.69246094
_cell_formula_units_Z   4
loop_
 _symmetry_equiv_pos_site_id
 _symmetry_equiv_pos_as_xyz
  1  'x, y, z'
loop_
 _atom_site_type_symbol
 _atom_site_label
 _atom_site_symmetry_multiplicity
 _atom_site_fract_x
 _atom_site_fract_y
 _atom_site_fract_z
 _atom_site_occupancy
  Yb  Yb0  1  0.750449  0.747662  0.850716  1
  Yb  Yb1  1  0.250449  0.752338  0.149284  1
  Yb  Yb2  1  0.749551  0.252338  0.350716  1
  Yb  Yb3  1  0.249551  0.247662  0.649284  1
  Ti  Ti4  1  0.250191  0.248666  0.935048  1
  Ti  Ti5  1  0.750191  0.251334  0.064952  1
  Ti  Ti6  1  0.249809  0.751334  0.435048  1
  Ti  Ti7  1  0.749809  0.748666  0.564952  1
  H  H8  1  0.501413  0.979014  0.000483  1
  H  H9  1  0.001413  0.520986  0.999517  1
  H  H10  1  0.998587  0.020986  0.500483  1
  H  H11  1  0.498587  0.479014  0.499517  1
  H  H12  1  0.250516  0.998532  0.819364  1
  H  H13  1  0.750516  0.501468  0.180636  1
  H  H14  1  0.249484  0.001468  0.319364  1
  H  H15  1  0.749484  0.498532  0.680636  1
  H  H16  1  0.749642  0.004881  0.181628  1
  H  H17  1  0.249642  0.495119  0.818372  1
  H  H18  1  0.750358  0.995119  0.681628  1
  H  H19  1  0.250358  0.504881  0.318372  1
  H  H20  1  0.751295  0.248338  0.904685  1
  H  H21  1  0.251295  0.251662  0.095315  1
  H  H22  1  0.748705  0.751662  0.404685  1
  H  H23  1  0.248705  0.748338  0.595315  1
  H  H24  1  0.999799  0.978955  0.000598  1
  H  H25  1  0.499799  0.521045  0.999402  1
  H  H26  1  0.500201  0.021045  0.500598  1
  H  H27  1  0.000201  0.478955  0.499402  1
