# generated using pymatgen
data_Nd6IrRuBr6
_symmetry_space_group_name_H-M   'P 1'
_cell_length_a   10.45571070
_cell_length_b   10.47848119
_cell_length_c   10.45571065
_cell_angle_alpha   109.31999671
_cell_angle_beta   109.68637341
_cell_angle_gamma   109.31999528
_symmetry_Int_Tables_number   1
_chemical_formula_structural   Nd6IrRuBr6
_chemical_formula_sum   'Nd12 Ir2 Ru2 Br12'
_cell_volume   882.76707244
_cell_formula_units_Z   2
loop_
 _symmetry_equiv_pos_site_id
 _symmetry_equiv_pos_as_xyz
  1  'x, y, z'
loop_
 _atom_site_type_symbol
 _atom_site_label
 _atom_site_symmetry_multiplicity
 _atom_site_fract_x
 _atom_site_fract_y
 _atom_site_fract_z
 _atom_site_occupancy
  Nd  Nd0  1  0.266103  0.750000  0.233897  1
  Nd  Nd1  1  0.483897  0.750000  0.016103  1
  Nd  Nd2  1  0.233591  0.467181  0.483591  1
  Nd  Nd3  1  0.016409  0.032819  0.266409  1
  Nd  Nd4  1  0.232181  0.265090  0.746776  1
  Nd  Nd5  1  0.014000  0.481884  0.746400  1
  Nd  Nd6  1  0.481685  0.234910  0.467090  1
  Nd  Nd7  1  0.264516  0.018116  0.032116  1
  Nd  Nd8  1  0.753224  0.234910  0.267819  1
  Nd  Nd9  1  0.753600  0.018116  0.486000  1
  Nd  Nd10  1  0.467884  0.481884  0.235484  1
  Nd  Nd11  1  0.032910  0.265090  0.018315  1
  Ir  Ir12  1  0.500147  0.000294  0.250147  1
  Ir  Ir13  1  0.249853  0.499706  0.999853  1
  Ru  Ru14  1  0.000332  0.250000  0.499668  1
  Ru  Ru15  1  0.249668  0.250000  0.250332  1
  Br  Br16  1  0.249221  0.994750  0.504603  1
  Br  Br17  1  0.509853  0.505250  0.754471  1
  Br  Br18  1  0.249753  0.754226  0.744908  1
  Br  Br19  1  0.990680  0.745774  0.995526  1
  Br  Br20  1  0.995397  0.505250  0.250779  1
  Br  Br21  1  0.745529  0.994750  0.990147  1
  Br  Br22  1  0.755092  0.745774  0.250247  1
  Br  Br23  1  0.504474  0.754226  0.509320  1
  Br  Br24  1  0.504823  0.250000  0.995177  1
  Br  Br25  1  0.755503  0.511007  0.505503  1
  Br  Br26  1  0.745177  0.250000  0.754823  1
  Br  Br27  1  0.994497  0.988993  0.744497  1
