# generated using pymatgen
data_HoTm19Pt16
_symmetry_space_group_name_H-M   'P 1'
_cell_length_a   7.39365487
_cell_length_b   7.44700659
_cell_length_c   14.71793900
_cell_angle_alpha   90.15175269
_cell_angle_beta   89.90173086
_cell_angle_gamma   89.97981018
_symmetry_Int_Tables_number   1
_chemical_formula_structural   HoTm19Pt16
_chemical_formula_sum   'Ho1 Tm19 Pt16'
_cell_volume   810.37441629
_cell_formula_units_Z   1
loop_
 _symmetry_equiv_pos_site_id
 _symmetry_equiv_pos_as_xyz
  1  'x, y, z'
loop_
 _atom_site_type_symbol
 _atom_site_label
 _atom_site_symmetry_multiplicity
 _atom_site_fract_x
 _atom_site_fract_y
 _atom_site_fract_z
 _atom_site_occupancy
  Ho  Ho0  1  0.987092  0.823306  0.592706  1
  Tm  Tm1  1  0.639813  0.167990  0.622403  1
  Tm  Tm2  1  0.140326  0.332401  0.878697  1
  Tm  Tm3  1  0.359319  0.832712  0.122136  1
  Tm  Tm4  1  0.857064  0.667283  0.377228  1
  Tm  Tm5  1  0.360156  0.832147  0.378068  1
  Tm  Tm6  1  0.859948  0.667793  0.121763  1
  Tm  Tm7  1  0.640757  0.167114  0.878673  1
  Tm  Tm8  1  0.140857  0.331450  0.621816  1
  Tm  Tm9  1  0.487275  0.676104  0.594182  1
  Tm  Tm10  1  0.986558  0.823324  0.906510  1
  Tm  Tm11  1  0.513615  0.323438  0.093687  1
  Tm  Tm12  1  0.013542  0.178455  0.405354  1
  Tm  Tm13  1  0.511264  0.323069  0.406983  1
  Tm  Tm14  1  0.013936  0.175981  0.093903  1
  Tm  Tm15  1  0.486585  0.676264  0.906825  1
  Tm  Tm16  1  0.803086  0.509451  0.750648  1
  Tm  Tm17  1  0.303123  0.989372  0.750974  1
  Tm  Tm18  1  0.196806  0.490601  0.249868  1
  Tm  Tm19  1  0.697206  0.010275  0.249580  1
  Pt  Pt20  1  0.696033  0.973265  0.457335  1
  Pt  Pt21  1  0.195258  0.529097  0.041921  1
  Pt  Pt22  1  0.304655  0.029245  0.959068  1
  Pt  Pt23  1  0.805015  0.467954  0.539940  1
  Pt  Pt24  1  0.307954  0.030744  0.540656  1
  Pt  Pt25  1  0.804423  0.470951  0.958660  1
  Pt  Pt26  1  0.695123  0.970562  0.041775  1
  Pt  Pt27  1  0.192706  0.530794  0.458573  1
  Pt  Pt28  1  0.435580  0.386359  0.750976  1
  Pt  Pt29  1  0.935770  0.113544  0.750464  1
  Pt  Pt30  1  0.563699  0.611928  0.249088  1
  Pt  Pt31  1  0.064434  0.887492  0.249989  1
  Pt  Pt32  1  0.662214  0.855159  0.750824  1
  Pt  Pt33  1  0.162123  0.643756  0.750292  1
  Pt  Pt34  1  0.338457  0.144947  0.249742  1
  Pt  Pt35  1  0.838230  0.355672  0.248701  1
