# generated using pymatgen
data_RbLaHgB2Pt6Au
_symmetry_space_group_name_H-M   'P 1'
_cell_length_a   5.65526200
_cell_length_b   5.65526238
_cell_length_c   7.72719500
_cell_angle_alpha   90.00000000
_cell_angle_beta   90.00000000
_cell_angle_gamma   119.99999776
_symmetry_Int_Tables_number   1
_chemical_formula_structural   RbLaHgB2Pt6Au
_chemical_formula_sum   'Rb1 La1 Hg1 B2 Pt6 Au1'
_cell_volume   214.02179538
_cell_formula_units_Z   1
loop_
 _symmetry_equiv_pos_site_id
 _symmetry_equiv_pos_as_xyz
  1  'x, y, z'
loop_
 _atom_site_type_symbol
 _atom_site_label
 _atom_site_symmetry_multiplicity
 _atom_site_fract_x
 _atom_site_fract_y
 _atom_site_fract_z
 _atom_site_occupancy
  Rb  Rb0  1  0.000000  0.000000  0.500000  1
  La  La1  1  0.000000  0.000000  0.000000  1
  Hg  Hg2  1  0.333333  0.666667  0.500000  1
  B  B3  1  0.333333  0.666667  0.000000  1
  B  B4  1  0.666667  0.333333  0.000000  1
  Pt  Pt5  1  0.500412  0.000824  0.190939  1
  Pt  Pt6  1  0.500412  0.000824  0.809061  1
  Pt  Pt7  1  0.999176  0.499588  0.190939  1
  Pt  Pt8  1  0.999176  0.499588  0.809061  1
  Pt  Pt9  1  0.500412  0.499588  0.190939  1
  Pt  Pt10  1  0.500412  0.499588  0.809061  1
  Au  Au11  1  0.666667  0.333333  0.500000  1
