# generated using pymatgen
data_Ba3Sr3Be2(B6O13)2
_symmetry_space_group_name_H-M   'P 1'
_cell_length_a   8.32114721
_cell_length_b   10.25104925
_cell_length_c   13.21490800
_cell_angle_alpha   90.00000000
_cell_angle_beta   90.00000000
_cell_angle_gamma   89.97441961
_symmetry_Int_Tables_number   1
_chemical_formula_structural   Ba3Sr3Be2(B6O13)2
_chemical_formula_sum   'Ba6 Sr6 Be4 B24 O52'
_cell_volume   1127.23801383
_cell_formula_units_Z   2
loop_
 _symmetry_equiv_pos_site_id
 _symmetry_equiv_pos_as_xyz
  1  'x, y, z'
loop_
 _atom_site_type_symbol
 _atom_site_label
 _atom_site_symmetry_multiplicity
 _atom_site_fract_x
 _atom_site_fract_y
 _atom_site_fract_z
 _atom_site_occupancy
  Ba  Ba0  1  0.768113  0.499745  0.987847  1
  Ba  Ba1  1  0.731887  0.000255  0.487847  1
  Ba  Ba2  1  0.231800  0.002243  0.011476  1
  Ba  Ba3  1  0.268200  0.497757  0.511476  1
  Ba  Ba4  1  0.589800  0.751237  0.759917  1
  Ba  Ba5  1  0.910200  0.748763  0.259917  1
  Sr  Sr6  1  0.240126  0.502647  0.009273  1
  Sr  Sr7  1  0.259874  0.997353  0.509273  1
  Sr  Sr8  1  0.760834  0.003471  0.989712  1
  Sr  Sr9  1  0.739166  0.496529  0.489712  1
  Sr  Sr10  1  0.415290  0.251438  0.237277  1
  Sr  Sr11  1  0.084710  0.248562  0.737277  1
  Be  Be12  1  0.798507  0.247945  0.158367  1
  Be  Be13  1  0.701493  0.252055  0.658367  1
  Be  Be14  1  0.202067  0.748153  0.840629  1
  Be  Be15  1  0.297933  0.751847  0.340629  1
  B  B16  1  0.983514  0.124921  0.303675  1
  B  B17  1  0.516486  0.375079  0.803675  1
  B  B18  1  0.017485  0.622846  0.697415  1
  B  B19  1  0.482515  0.877154  0.197415  1
  B  B20  1  0.024569  0.874749  0.692275  1
  B  B21  1  0.475431  0.625251  0.192275  1
  B  B22  1  0.976257  0.373303  0.308654  1
  B  B23  1  0.523743  0.126697  0.808654  1
  B  B24  1  0.276219  0.518104  0.764854  1
  B  B25  1  0.223781  0.981896  0.264854  1
  B  B26  1  0.720932  0.022225  0.236549  1
  B  B27  1  0.779068  0.477775  0.736549  1
  B  B28  1  0.714399  0.474253  0.237709  1
  B  B29  1  0.785601  0.025747  0.737709  1
  B  B30  1  0.282551  0.978033  0.763506  1
  B  B31  1  0.217449  0.521967  0.263506  1
  B  B32  1  0.973901  0.247496  0.960618  1
  B  B33  1  0.526099  0.252504  0.460618  1
  B  B34  1  0.027172  0.748182  0.034239  1
  B  B35  1  0.472828  0.751818  0.534239  1
  B  B36  1  0.562782  0.754454  0.038500  1
  B  B37  1  0.937218  0.745546  0.538500  1
  B  B38  1  0.442796  0.254230  0.965516  1
  B  B39  1  0.057204  0.245770  0.465516  1
  O  O40  1  0.366846  0.406511  0.748572  1
  O  O41  1  0.133154  0.093489  0.248572  1
  O  O42  1  0.629348  0.911579  0.254571  1
  O  O43  1  0.870652  0.588421  0.754571  1
  O  O44  1  0.625726  0.588188  0.245354  1
  O  O45  1  0.874274  0.911812  0.745354  1
  O  O46  1  0.370279  0.092575  0.757594  1
  O  O47  1  0.129721  0.407425  0.257594  1
  O  O48  1  0.655314  0.756627  0.955939  1
  O  O49  1  0.844686  0.743373  0.455939  1
  O  O50  1  0.356702  0.256548  0.051242  1
  O  O51  1  0.143298  0.243452  0.551242  1
  O  O52  1  0.917754  0.249166  0.264961  1
  O  O53  1  0.582246  0.250834  0.764961  1
  O  O54  1  0.082248  0.748810  0.735520  1
  O  O55  1  0.417752  0.751190  0.235520  1
  O  O56  1  0.637909  0.479208  0.793484  1
  O  O57  1  0.862091  0.020792  0.293484  1
  O  O58  1  0.362079  0.982302  0.205820  1
  O  O59  1  0.137921  0.517698  0.705820  1
  O  O60  1  0.351730  0.521531  0.199975  1
  O  O61  1  0.148270  0.978469  0.699975  1
  O  O62  1  0.648203  0.023923  0.799148  1
  O  O63  1  0.851797  0.476077  0.299148  1
  O  O64  1  0.680859  0.375295  0.172873  1
  O  O65  1  0.819141  0.124705  0.672873  1
  O  O66  1  0.315884  0.878348  0.827597  1
  O  O67  1  0.184116  0.621652  0.327597  1
  O  O68  1  0.313260  0.615352  0.830121  1
  O  O69  1  0.186740  0.884648  0.330121  1
  O  O70  1  0.683258  0.118587  0.170635  1
  O  O71  1  0.816742  0.381413  0.670635  1
  O  O72  1  0.875869  0.245954  0.047175  1
  O  O73  1  0.624131  0.254046  0.547175  1
  O  O74  1  0.130545  0.748123  0.951398  1
  O  O75  1  0.369455  0.751877  0.451398  1
  O  O76  1  0.997305  0.629649  0.081743  1
  O  O77  1  0.502695  0.870351  0.581743  1
  O  O78  1  0.001574  0.130680  0.910184  1
  O  O79  1  0.498426  0.369320  0.410184  1
  O  O80  1  0.030864  0.364184  0.921270  1
  O  O81  1  0.469136  0.135816  0.421270  1
  O  O82  1  0.970349  0.865445  0.072864  1
  O  O83  1  0.529651  0.634555  0.572864  1
  O  O84  1  0.522750  0.870796  0.087984  1
  O  O85  1  0.977250  0.629204  0.587984  1
  O  O86  1  0.479003  0.369985  0.914102  1
  O  O87  1  0.020997  0.130015  0.414102  1
  O  O88  1  0.494905  0.137243  0.920297  1
  O  O89  1  0.005095  0.362757  0.420297  1
  O  O90  1  0.507476  0.637139  0.081569  1
  O  O91  1  0.992524  0.862861  0.581569  1
