# generated using pymatgen
data_Sc4Co19CuP12
_symmetry_space_group_name_H-M   'P 1'
_cell_length_a   3.59606700
_cell_length_b   10.15530819
_cell_length_c   11.67706613
_cell_angle_alpha   89.87342348
_cell_angle_beta   90.00000000
_cell_angle_gamma   90.00000000
_symmetry_Int_Tables_number   1
_chemical_formula_structural   Sc4Co19CuP12
_chemical_formula_sum   'Sc4 Co19 Cu1 P12'
_cell_volume   426.43570681
_cell_formula_units_Z   1
loop_
 _symmetry_equiv_pos_site_id
 _symmetry_equiv_pos_as_xyz
  1  'x, y, z'
loop_
 _atom_site_type_symbol
 _atom_site_label
 _atom_site_symmetry_multiplicity
 _atom_site_fract_x
 _atom_site_fract_y
 _atom_site_fract_z
 _atom_site_occupancy
  Sc  Sc0  1  0.250000  0.579299  0.700497  1
  Sc  Sc1  1  0.250000  0.921661  0.204750  1
  Sc  Sc2  1  0.750000  0.419375  0.297537  1
  Sc  Sc3  1  0.750000  0.079395  0.797087  1
  Co  Co4  1  0.250000  0.781624  0.494467  1
  Co  Co5  1  0.750000  0.285730  0.009184  1
  Co  Co6  1  0.750000  0.218201  0.505607  1
  Co  Co7  1  0.250000  0.407520  0.485314  1
  Co  Co8  1  0.250000  0.093217  0.985447  1
  Co  Co9  1  0.750000  0.591450  0.515716  1
  Co  Co10  1  0.750000  0.907758  0.017150  1
  Co  Co11  1  0.250000  0.223995  0.176211  1
  Co  Co12  1  0.250000  0.276918  0.675654  1
  Co  Co13  1  0.750000  0.776196  0.821477  1
  Co  Co14  1  0.750000  0.721530  0.327913  1
  Co  Co15  1  0.250000  0.883601  0.699647  1
  Co  Co16  1  0.250000  0.619493  0.201229  1
  Co  Co17  1  0.750000  0.117869  0.299027  1
  Co  Co18  1  0.750000  0.378800  0.799216  1
  Co  Co19  1  0.250000  0.463669  0.930667  1
  Co  Co20  1  0.250000  0.034653  0.430612  1
  Co  Co21  1  0.750000  0.537400  0.067564  1
  Co  Co22  1  0.750000  0.966675  0.568512  1
  Cu  Cu23  1  0.250000  0.712914  0.989263  1
  P  P24  1  0.250000  0.421787  0.114972  1
  P  P25  1  0.250000  0.080102  0.614348  1
  P  P26  1  0.750000  0.575601  0.880046  1
  P  P27  1  0.750000  0.920382  0.385619  1
  P  P28  1  0.250000  0.263654  0.867440  1
  P  P29  1  0.250000  0.235095  0.367502  1
  P  P30  1  0.750000  0.736707  0.139446  1
  P  P31  1  0.750000  0.765842  0.631649  1
  P  P32  1  0.250000  0.598667  0.391423  1
  P  P33  1  0.250000  0.903393  0.888789  1
  P  P34  1  0.750000  0.399708  0.609694  1
  P  P35  1  0.750000  0.100120  0.109324  1
