# generated using pymatgen
data_ZrAlGa5Cu6
_symmetry_space_group_name_H-M   'P 1'
_cell_length_a   6.53957120
_cell_length_b   6.53956956
_cell_length_c   6.53963516
_cell_angle_alpha   133.06860284
_cell_angle_beta   100.10925275
_cell_angle_gamma   98.13997344
_symmetry_Int_Tables_number   1
_chemical_formula_structural   ZrAlGa5Cu6
_chemical_formula_sum   'Zr1 Al1 Ga5 Cu6'
_cell_volume   187.37801973
_cell_formula_units_Z   1
loop_
 _symmetry_equiv_pos_site_id
 _symmetry_equiv_pos_as_xyz
  1  'x, y, z'
loop_
 _atom_site_type_symbol
 _atom_site_label
 _atom_site_symmetry_multiplicity
 _atom_site_fract_x
 _atom_site_fract_y
 _atom_site_fract_z
 _atom_site_occupancy
  Zr  Zr0  1  0.000820  0.000820  0.000000  1
  Al  Al1  1  0.817090  0.317090  0.500000  1
  Ga  Ga2  1  0.346777  0.001799  0.344994  1
  Ga  Ga3  1  0.656805  0.001783  0.655006  1
  Ga  Ga4  1  0.660942  0.660942  0.000000  1
  Ga  Ga5  1  0.343392  0.343392  0.000000  1
  Ga  Ga6  1  0.171847  0.671847  0.500000  1
  Cu  Cu7  1  0.761118  0.499188  0.261789  1
  Cu  Cu8  1  0.237399  0.499330  0.738211  1
  Cu  Cu9  1  0.001724  0.000618  0.500413  1
  Cu  Cu10  1  0.001714  0.501209  0.001044  1
  Cu  Cu11  1  0.500166  0.000670  0.998956  1
  Cu  Cu12  1  0.500205  0.501311  0.499587  1
