# generated using pymatgen
data_Si3Ag3(GeP3)2
_symmetry_space_group_name_H-M   'P 1'
_cell_length_a   8.90216017
_cell_length_b   8.90216020
_cell_length_c   8.90216000
_cell_angle_alpha   109.47122246
_cell_angle_beta   109.47122252
_cell_angle_gamma   109.47122190
_symmetry_Int_Tables_number   1
_chemical_formula_structural   Si3Ag3(GeP3)2
_chemical_formula_sum   'Si6 Ag6 Ge4 P12'
_cell_volume   543.08059775
_cell_formula_units_Z   2
loop_
 _symmetry_equiv_pos_site_id
 _symmetry_equiv_pos_as_xyz
  1  'x, y, z'
loop_
 _atom_site_type_symbol
 _atom_site_label
 _atom_site_symmetry_multiplicity
 _atom_site_fract_x
 _atom_site_fract_y
 _atom_site_fract_z
 _atom_site_occupancy
  Si  Si0  1  0.250000  0.750000  0.500000  1
  Si  Si1  1  0.750000  0.250000  0.500000  1
  Si  Si2  1  0.750000  0.500000  0.250000  1
  Si  Si3  1  0.500000  0.750000  0.250000  1
  Si  Si4  1  0.250000  0.500000  0.750000  1
  Si  Si5  1  0.500000  0.250000  0.750000  1
  Ag  Ag6  1  0.199266  0.199266  0.000000  1
  Ag  Ag7  1  0.800734  0.800734  0.000000  1
  Ag  Ag8  1  0.000000  0.199266  0.199266  1
  Ag  Ag9  1  0.000000  0.800734  0.800734  1
  Ag  Ag10  1  0.800734  0.000000  0.800734  1
  Ag  Ag11  1  0.199266  0.000000  0.199266  1
  Ge  Ge12  1  0.418194  0.418194  0.418194  1
  Ge  Ge13  1  0.581806  0.000000  0.000000  1
  Ge  Ge14  1  0.000000  0.000000  0.581806  1
  Ge  Ge15  1  0.000000  0.581806  0.000000  1
  P  P16  1  0.503315  0.503315  0.741944  1
  P  P17  1  0.000000  0.496685  0.238630  1
  P  P18  1  0.496685  0.000000  0.238630  1
  P  P19  1  0.503315  0.741944  0.503315  1
  P  P20  1  0.238630  0.496685  0.000000  1
  P  P21  1  0.496685  0.238630  0.000000  1
  P  P22  1  0.761370  0.761370  0.258056  1
  P  P23  1  0.761370  0.258056  0.761370  1
  P  P24  1  0.741944  0.503315  0.503315  1
  P  P25  1  0.238630  0.000000  0.496685  1
  P  P26  1  0.000000  0.238630  0.496685  1
  P  P27  1  0.258056  0.761370  0.761370  1
