# generated using pymatgen
data_LuCo4TcP3
_symmetry_space_group_name_H-M   'P 1'
_cell_length_a   3.68445200
_cell_length_b   10.30419400
_cell_length_c   11.76095800
_cell_angle_alpha   90.00000000
_cell_angle_beta   90.00000000
_cell_angle_gamma   90.00000000
_symmetry_Int_Tables_number   1
_chemical_formula_structural   LuCo4TcP3
_chemical_formula_sum   'Lu4 Co16 Tc4 P12'
_cell_volume   446.50839510
_cell_formula_units_Z   4
loop_
 _symmetry_equiv_pos_site_id
 _symmetry_equiv_pos_as_xyz
  1  'x, y, z'
loop_
 _atom_site_type_symbol
 _atom_site_label
 _atom_site_symmetry_multiplicity
 _atom_site_fract_x
 _atom_site_fract_y
 _atom_site_fract_z
 _atom_site_occupancy
  Lu  Lu0  1  0.250000  0.583470  0.704481  1
  Lu  Lu1  1  0.250000  0.916530  0.204481  1
  Lu  Lu2  1  0.750000  0.416530  0.295519  1
  Lu  Lu3  1  0.750000  0.083470  0.795519  1
  Co  Co4  1  0.250000  0.407708  0.487578  1
  Co  Co5  1  0.250000  0.092292  0.987578  1
  Co  Co6  1  0.750000  0.592292  0.512422  1
  Co  Co7  1  0.750000  0.907708  0.012422  1
  Co  Co8  1  0.250000  0.221773  0.177086  1
  Co  Co9  1  0.250000  0.278227  0.677086  1
  Co  Co10  1  0.750000  0.778227  0.822914  1
  Co  Co11  1  0.750000  0.721773  0.322914  1
  Co  Co12  1  0.250000  0.886164  0.702249  1
  Co  Co13  1  0.250000  0.613836  0.202249  1
  Co  Co14  1  0.750000  0.113836  0.297751  1
  Co  Co15  1  0.750000  0.386164  0.797751  1
  Co  Co16  1  0.250000  0.464075  0.931414  1
  Co  Co17  1  0.250000  0.035925  0.431414  1
  Co  Co18  1  0.750000  0.535925  0.068586  1
  Co  Co19  1  0.750000  0.964075  0.568586  1
  Tc  Tc20  1  0.250000  0.712122  0.989741  1
  Tc  Tc21  1  0.250000  0.787878  0.489741  1
  Tc  Tc22  1  0.750000  0.287878  0.010259  1
  Tc  Tc23  1  0.750000  0.212122  0.510259  1
  P  P24  1  0.250000  0.420458  0.114241  1
  P  P25  1  0.250000  0.079542  0.614241  1
  P  P26  1  0.750000  0.579542  0.885759  1
  P  P27  1  0.750000  0.920458  0.385759  1
  P  P28  1  0.250000  0.267744  0.865723  1
  P  P29  1  0.250000  0.232256  0.365723  1
  P  P30  1  0.750000  0.732256  0.134277  1
  P  P31  1  0.750000  0.767744  0.634277  1
  P  P32  1  0.250000  0.595461  0.389718  1
  P  P33  1  0.250000  0.904539  0.889718  1
  P  P34  1  0.750000  0.404539  0.610282  1
  P  P35  1  0.750000  0.095461  0.110282  1
