# generated using pymatgen
data_Hf8In4NiPt7
_symmetry_space_group_name_H-M   'P 1'
_cell_length_a   7.53123427
_cell_length_b   7.53123483
_cell_length_c   6.73543826
_cell_angle_alpha   89.99247364
_cell_angle_beta   90.00752699
_cell_angle_gamma   89.60770799
_symmetry_Int_Tables_number   1
_chemical_formula_structural   Hf8In4NiPt7
_chemical_formula_sum   'Hf8 In4 Ni1 Pt7'
_cell_volume   382.02168777
_cell_formula_units_Z   1
loop_
 _symmetry_equiv_pos_site_id
 _symmetry_equiv_pos_as_xyz
  1  'x, y, z'
loop_
 _atom_site_type_symbol
 _atom_site_label
 _atom_site_symmetry_multiplicity
 _atom_site_fract_x
 _atom_site_fract_y
 _atom_site_fract_z
 _atom_site_occupancy
  Hf  Hf0  1  0.154698  0.143785  0.997207  1
  Hf  Hf1  1  0.856215  0.845302  0.997207  1
  Hf  Hf2  1  0.650000  0.350000  0.500935  1
  Hf  Hf3  1  0.344422  0.655578  0.503092  1
  Hf  Hf4  1  0.682037  0.317963  0.999742  1
  Hf  Hf5  1  0.311475  0.688525  0.995820  1
  Hf  Hf6  1  0.822127  0.817777  0.501576  1
  Hf  Hf7  1  0.182223  0.177873  0.501576  1
  In  In8  1  0.500864  0.999800  0.247830  1
  In  In9  1  0.493602  0.997855  0.751342  1
  In  In10  1  0.000200  0.499136  0.247830  1
  In  In11  1  0.002145  0.506398  0.751342  1
  Ni  Ni12  1  0.130338  0.869662  0.713221  1
  Pt  Pt13  1  0.367388  0.369769  0.220971  1
  Pt  Pt14  1  0.630567  0.632013  0.779627  1
  Pt  Pt15  1  0.630231  0.632612  0.220971  1
  Pt  Pt16  1  0.874860  0.125140  0.723228  1
  Pt  Pt17  1  0.867936  0.132064  0.280634  1
  Pt  Pt18  1  0.367987  0.369433  0.779627  1
  Pt  Pt19  1  0.130684  0.869316  0.286224  1
