# generated using pymatgen
data_YHo2Tm(Si2Rh)2
_symmetry_space_group_name_H-M   'P 1'
_cell_length_a   5.66195571
_cell_length_b   5.66195505
_cell_length_c   10.01589607
_cell_angle_alpha   63.75815856
_cell_angle_beta   63.75816423
_cell_angle_gamma   43.39319798
_symmetry_Int_Tables_number   1
_chemical_formula_structural   YHo2Tm(Si2Rh)2
_chemical_formula_sum   'Y1 Ho2 Tm1 Si4 Rh2'
_cell_volume   194.00931502
_cell_formula_units_Z   1
loop_
 _symmetry_equiv_pos_site_id
 _symmetry_equiv_pos_as_xyz
  1  'x, y, z'
loop_
 _atom_site_type_symbol
 _atom_site_label
 _atom_site_symmetry_multiplicity
 _atom_site_fract_x
 _atom_site_fract_y
 _atom_site_fract_z
 _atom_site_occupancy
  Y  Y0  1  0.814382  0.814382  0.108655  1
  Ho  Ho1  1  0.000434  0.000434  0.326116  1
  Ho  Ho2  1  0.185510  0.185510  0.889461  1
  Tm  Tm3  1  0.999233  0.999233  0.674183  1
  Si  Si4  1  0.361732  0.361732  0.565603  1
  Si  Si5  1  0.488846  0.488846  0.877942  1
  Si  Si6  1  0.638221  0.638221  0.435871  1
  Si  Si7  1  0.512327  0.512327  0.120142  1
  Rh  Rh8  1  0.725900  0.725900  0.628878  1
  Rh  Rh9  1  0.273416  0.273416  0.373148  1
