# generated using pymatgen
data_RbGdGeS4
_symmetry_space_group_name_H-M   'P 1'
_cell_length_a   6.79316900
_cell_length_b   6.58863408
_cell_length_c   9.06241903
_cell_angle_alpha   72.07843137
_cell_angle_beta   90.00000000
_cell_angle_gamma   90.00000000
_symmetry_Int_Tables_number   1
_chemical_formula_structural   RbGdGeS4
_chemical_formula_sum   'Rb2 Gd2 Ge2 S8'
_cell_volume   385.93217527
_cell_formula_units_Z   2
loop_
 _symmetry_equiv_pos_site_id
 _symmetry_equiv_pos_as_xyz
  1  'x, y, z'
loop_
 _atom_site_type_symbol
 _atom_site_label
 _atom_site_symmetry_multiplicity
 _atom_site_fract_x
 _atom_site_fract_y
 _atom_site_fract_z
 _atom_site_occupancy
  Rb  Rb0  1  0.990234  0.734432  0.064485  1
  Rb  Rb1  1  0.490234  0.265568  0.935515  1
  Gd  Gd2  1  0.508863  0.229081  0.449993  1
  Gd  Gd3  1  0.008863  0.770919  0.550007  1
  Ge  Ge4  1  0.473304  0.778227  0.328880  1
  Ge  Ge5  1  0.973304  0.221773  0.671120  1
  S  S6  1  0.476539  0.576719  0.174652  1
  S  S7  1  0.236596  0.026633  0.286737  1
  S  S8  1  0.742800  0.982283  0.305559  1
  S  S9  1  0.904664  0.432391  0.432992  1
  S  S10  1  0.404664  0.567609  0.567008  1
  S  S11  1  0.242800  0.017717  0.694441  1
  S  S12  1  0.736596  0.973367  0.713263  1
  S  S13  1  0.976539  0.423281  0.825348  1
