# generated using pymatgen
data_SmY2(GaRh2)3
_symmetry_space_group_name_H-M   'P 1'
_cell_length_a   5.60015400
_cell_length_b   5.60015296
_cell_length_c   15.70829900
_cell_angle_alpha   90.00000000
_cell_angle_beta   90.00000000
_cell_angle_gamma   119.99999436
_symmetry_Int_Tables_number   1
_chemical_formula_structural   SmY2(GaRh2)3
_chemical_formula_sum   'Sm2 Y4 Ga6 Rh12'
_cell_volume   426.63813726
_cell_formula_units_Z   2
loop_
 _symmetry_equiv_pos_site_id
 _symmetry_equiv_pos_as_xyz
  1  'x, y, z'
loop_
 _atom_site_type_symbol
 _atom_site_label
 _atom_site_symmetry_multiplicity
 _atom_site_fract_x
 _atom_site_fract_y
 _atom_site_fract_z
 _atom_site_occupancy
  Sm  Sm0  1  0.666667  0.333333  0.750000  1
  Sm  Sm1  1  0.333333  0.666667  0.250000  1
  Y  Y2  1  0.666667  0.333333  0.961001  1
  Y  Y3  1  0.666667  0.333333  0.538999  1
  Y  Y4  1  0.333333  0.666667  0.038999  1
  Y  Y5  1  0.333333  0.666667  0.461001  1
  Ga  Ga6  1  0.666667  0.333333  0.250000  1
  Ga  Ga7  1  0.000000  0.000000  0.500000  1
  Ga  Ga8  1  0.000000  0.000000  0.250000  1
  Ga  Ga9  1  0.000000  0.000000  0.750000  1
  Ga  Ga10  1  0.333333  0.666667  0.750000  1
  Ga  Ga11  1  0.000000  0.000000  0.000000  1
  Rh  Rh12  1  0.168847  0.337695  0.874588  1
  Rh  Rh13  1  0.168847  0.337695  0.625412  1
  Rh  Rh14  1  0.662305  0.831153  0.874588  1
  Rh  Rh15  1  0.337695  0.168847  0.374588  1
  Rh  Rh16  1  0.831153  0.662305  0.374588  1
  Rh  Rh17  1  0.831153  0.168847  0.374588  1
  Rh  Rh18  1  0.831153  0.168847  0.125412  1
  Rh  Rh19  1  0.337695  0.168847  0.125412  1
  Rh  Rh20  1  0.662305  0.831153  0.625412  1
  Rh  Rh21  1  0.168847  0.831153  0.625412  1
  Rh  Rh22  1  0.831153  0.662305  0.125412  1
  Rh  Rh23  1  0.168847  0.831153  0.874588  1
