# generated using pymatgen
data_Dy16MgCo2Ni2Hg3
_symmetry_space_group_name_H-M   'P 1'
_cell_length_a   9.49927209
_cell_length_b   9.50114280
_cell_length_c   9.49507004
_cell_angle_alpha   60.02008109
_cell_angle_beta   60.00498141
_cell_angle_gamma   60.27561472
_symmetry_Int_Tables_number   1
_chemical_formula_structural   Dy16MgCo2Ni2Hg3
_chemical_formula_sum   'Dy16 Mg1 Co2 Ni2 Hg3'
_cell_volume   607.33508322
_cell_formula_units_Z   1
loop_
 _symmetry_equiv_pos_site_id
 _symmetry_equiv_pos_as_xyz
  1  'x, y, z'
loop_
 _atom_site_type_symbol
 _atom_site_label
 _atom_site_symmetry_multiplicity
 _atom_site_fract_x
 _atom_site_fract_y
 _atom_site_fract_z
 _atom_site_occupancy
  Dy  Dy0  1  0.805459  0.189884  0.191324  1
  Dy  Dy1  1  0.186718  0.809403  0.815649  1
  Dy  Dy2  1  0.186716  0.809435  0.188240  1
  Dy  Dy3  1  0.805441  0.189869  0.813370  1
  Dy  Dy4  1  0.187133  0.188073  0.812401  1
  Dy  Dy5  1  0.810701  0.810599  0.189363  1
  Dy  Dy6  1  0.938473  0.563710  0.561922  1
  Dy  Dy7  1  0.561771  0.938561  0.937132  1
  Dy  Dy8  1  0.561788  0.938545  0.562556  1
  Dy  Dy9  1  0.938490  0.563681  0.935922  1
  Dy  Dy10  1  0.561286  0.563878  0.937435  1
  Dy  Dy11  1  0.938903  0.938077  0.561549  1
  Dy  Dy12  1  0.347925  0.347126  0.343372  1
  Dy  Dy13  1  0.347980  0.347191  0.961540  1
  Dy  Dy14  1  0.354200  0.954979  0.345408  1
  Dy  Dy15  1  0.943684  0.356802  0.349757  1
  Mg  Mg16  1  0.285131  0.570315  0.572284  1
  Co  Co17  1  0.137488  0.574931  0.143834  1
  Co  Co18  1  0.574049  0.142108  0.141958  1
  Ni  Ni19  1  0.139768  0.143314  0.144385  1
  Ni  Ni20  1  0.139309  0.142734  0.572761  1
  Hg  Hg21  1  0.582580  0.586488  0.586486  1
  Hg  Hg22  1  0.582578  0.586488  0.244465  1
  Hg  Hg23  1  0.582426  0.243808  0.586887  1
