# generated using pymatgen
data_Rb6SmHoF12
_symmetry_space_group_name_H-M   'P 1'
_cell_length_a   6.93986835
_cell_length_b   6.68786095
_cell_length_c   11.60929659
_cell_angle_alpha   55.33397305
_cell_angle_beta   90.03011159
_cell_angle_gamma   90.02185599
_symmetry_Int_Tables_number   1
_chemical_formula_structural   Rb6SmHoF12
_chemical_formula_sum   'Rb6 Sm1 Ho1 F12'
_cell_volume   443.17006848
_cell_formula_units_Z   1
loop_
 _symmetry_equiv_pos_site_id
 _symmetry_equiv_pos_as_xyz
  1  'x, y, z'
loop_
 _atom_site_type_symbol
 _atom_site_label
 _atom_site_symmetry_multiplicity
 _atom_site_fract_x
 _atom_site_fract_y
 _atom_site_fract_z
 _atom_site_occupancy
  Rb  Rb0  1  0.500000  0.500000  0.000000  1
  Rb  Rb1  1  0.000000  0.500000  0.500000  1
  Rb  Rb2  1  0.051419  0.733275  0.752598  1
  Rb  Rb3  1  0.948581  0.266725  0.247402  1
  Rb  Rb4  1  0.550554  0.269120  0.744954  1
  Rb  Rb5  1  0.449446  0.730880  0.255046  1
  Sm  Sm6  1  0.000000  0.000000  0.000000  1
  Ho  Ho7  1  0.500000  0.000000  0.500000  1
  F  F8  1  0.760699  0.774658  0.565996  1
  F  F9  1  0.239301  0.225342  0.434004  1
  F  F10  1  0.268508  0.232259  0.932189  1
  F  F11  1  0.731492  0.767741  0.067811  1
  F  F12  1  0.446798  0.892875  0.714002  1
  F  F13  1  0.553202  0.107125  0.285998  1
  F  F14  1  0.944877  0.110607  0.779350  1
  F  F15  1  0.055123  0.889393  0.220650  1
  F  F16  1  0.332008  0.684779  0.547663  1
  F  F17  1  0.667992  0.315221  0.452337  1
  F  F18  1  0.827695  0.324843  0.950977  1
  F  F19  1  0.172305  0.675157  0.049023  1
