# generated using pymatgen
data_Nb16Ni8CN3
_symmetry_space_group_name_H-M   'P 1'
_cell_length_a   8.25829812
_cell_length_b   8.27751626
_cell_length_c   8.25829800
_cell_angle_alpha   60.07677294
_cell_angle_beta   60.00000049
_cell_angle_gamma   60.07677508
_symmetry_Int_Tables_number   1
_chemical_formula_structural   Nb16Ni8CN3
_chemical_formula_sum   'Nb16 Ni8 C1 N3'
_cell_volume   399.64018548
_cell_formula_units_Z   1
loop_
 _symmetry_equiv_pos_site_id
 _symmetry_equiv_pos_as_xyz
  1  'x, y, z'
loop_
 _atom_site_type_symbol
 _atom_site_label
 _atom_site_symmetry_multiplicity
 _atom_site_fract_x
 _atom_site_fract_y
 _atom_site_fract_z
 _atom_site_occupancy
  Nb  Nb0  1  0.431479  0.069290  0.067752  1
  Nb  Nb1  1  0.066683  0.432497  0.434136  1
  Nb  Nb2  1  0.066683  0.432497  0.066683  1
  Nb  Nb3  1  0.067752  0.069290  0.431479  1
  Nb  Nb4  1  0.431479  0.069290  0.431479  1
  Nb  Nb5  1  0.434136  0.432497  0.066683  1
  Nb  Nb6  1  0.183317  0.817503  0.183317  1
  Nb  Nb7  1  0.818521  0.180710  0.818521  1
  Nb  Nb8  1  0.818521  0.180710  0.182248  1
  Nb  Nb9  1  0.182248  0.180710  0.818521  1
  Nb  Nb10  1  0.183317  0.817503  0.815864  1
  Nb  Nb11  1  0.815864  0.817503  0.183317  1
  Nb  Nb12  1  0.625000  0.625000  0.625000  1
  Nb  Nb13  1  0.625000  0.625000  0.125000  1
  Nb  Nb14  1  0.125000  0.625000  0.625000  1
  Nb  Nb15  1  0.625000  0.125000  0.625000  1
  Ni  Ni16  1  0.829539  0.830334  0.829539  1
  Ni  Ni17  1  0.829539  0.830334  0.510586  1
  Ni  Ni18  1  0.510586  0.830334  0.829539  1
  Ni  Ni19  1  0.830174  0.509478  0.830174  1
  Ni  Ni20  1  0.420461  0.419666  0.420461  1
  Ni  Ni21  1  0.420461  0.419666  0.739414  1
  Ni  Ni22  1  0.419826  0.740522  0.419826  1
  Ni  Ni23  1  0.739414  0.419666  0.420461  1
  C  C24  1  0.125000  0.625000  0.125000  1
  N  N25  1  0.625000  0.125000  0.125000  1
  N  N26  1  0.125000  0.125000  0.625000  1
  N  N27  1  0.125000  0.125000  0.125000  1
