# generated using pymatgen
data_YHo3ReTcB12
_symmetry_space_group_name_H-M   'P 1'
_cell_length_a   3.67723700
_cell_length_b   9.15615515
_cell_length_c   11.53817103
_cell_angle_alpha   90.05047321
_cell_angle_beta   90.00000000
_cell_angle_gamma   90.00000000
_symmetry_Int_Tables_number   1
_chemical_formula_structural   YHo3ReTcB12
_chemical_formula_sum   'Y2 Ho6 Re2 Tc2 B24'
_cell_volume   388.48259669
_cell_formula_units_Z   2
loop_
 _symmetry_equiv_pos_site_id
 _symmetry_equiv_pos_as_xyz
  1  'x, y, z'
loop_
 _atom_site_type_symbol
 _atom_site_label
 _atom_site_symmetry_multiplicity
 _atom_site_fract_x
 _atom_site_fract_y
 _atom_site_fract_z
 _atom_site_occupancy
  Y  Y0  1  0.000000  0.323801  0.414053  1
  Y  Y1  1  0.000000  0.676199  0.585947  1
  Ho  Ho2  1  0.000000  0.823614  0.085973  1
  Ho  Ho3  1  0.000000  0.176386  0.914027  1
  Ho  Ho4  1  0.000000  0.942226  0.369785  1
  Ho  Ho5  1  0.000000  0.057774  0.630215  1
  Ho  Ho6  1  0.000000  0.443759  0.130443  1
  Ho  Ho7  1  0.000000  0.556241  0.869557  1
  Re  Re8  1  0.000000  0.138683  0.179119  1
  Re  Re9  1  0.000000  0.861317  0.820881  1
  Tc  Tc10  1  0.000000  0.639152  0.320351  1
  Tc  Tc11  1  0.000000  0.360848  0.679649  1
  B  B12  1  0.500000  0.553594  0.432737  1
  B  B13  1  0.500000  0.446406  0.567263  1
  B  B14  1  0.500000  0.053311  0.066854  1
  B  B15  1  0.500000  0.946689  0.933146  1
  B  B16  1  0.500000  0.749088  0.418384  1
  B  B17  1  0.500000  0.250912  0.581616  1
  B  B18  1  0.500000  0.249375  0.081171  1
  B  B19  1  0.500000  0.750625  0.918829  1
  B  B20  1  0.500000  0.792108  0.265340  1
  B  B21  1  0.500000  0.207892  0.734660  1
  B  B22  1  0.500000  0.292308  0.234400  1
  B  B23  1  0.500000  0.707692  0.765600  1
  B  B24  1  0.500000  0.631194  0.185569  1
  B  B25  1  0.500000  0.368806  0.814431  1
  B  B26  1  0.500000  0.130577  0.314418  1
  B  B27  1  0.500000  0.869423  0.685582  1
  B  B28  1  0.500000  0.982039  0.211804  1
  B  B29  1  0.500000  0.017961  0.788196  1
  B  B30  1  0.500000  0.482719  0.287974  1
  B  B31  1  0.500000  0.517281  0.712026  1
  B  B32  1  0.500000  0.600343  0.027962  1
  B  B33  1  0.500000  0.399657  0.972038  1
  B  B34  1  0.500000  0.099842  0.471949  1
  B  B35  1  0.500000  0.900158  0.528051  1
