# generated using pymatgen
data_PrHo7(Si3Pt)4
_symmetry_space_group_name_H-M   'P 1'
_cell_length_a   8.13497200
_cell_length_b   8.13497251
_cell_length_c   8.19043800
_cell_angle_alpha   90.00000000
_cell_angle_beta   90.00000000
_cell_angle_gamma   119.99999793
_symmetry_Int_Tables_number   1
_chemical_formula_structural   PrHo7(Si3Pt)4
_chemical_formula_sum   'Pr1 Ho7 Si12 Pt4'
_cell_volume   469.40738735
_cell_formula_units_Z   1
loop_
 _symmetry_equiv_pos_site_id
 _symmetry_equiv_pos_as_xyz
  1  'x, y, z'
loop_
 _atom_site_type_symbol
 _atom_site_label
 _atom_site_symmetry_multiplicity
 _atom_site_fract_x
 _atom_site_fract_y
 _atom_site_fract_z
 _atom_site_occupancy
  Pr  Pr0  1  0.000000  0.000000  0.250000  1
  Ho  Ho1  1  0.499359  0.500641  0.750000  1
  Ho  Ho2  1  0.500641  0.499359  0.250000  1
  Ho  Ho3  1  0.001283  0.500641  0.750000  1
  Ho  Ho4  1  0.998718  0.499359  0.250000  1
  Ho  Ho5  1  0.499359  0.998717  0.750000  1
  Ho  Ho6  1  0.500641  0.001282  0.250000  1
  Ho  Ho7  1  0.000000  0.000000  0.750000  1
  Si  Si8  1  0.834000  0.166000  0.996324  1
  Si  Si9  1  0.165976  0.834024  0.995729  1
  Si  Si10  1  0.331999  0.166000  0.996324  1
  Si  Si11  1  0.165976  0.834024  0.504271  1
  Si  Si12  1  0.668047  0.834024  0.995729  1
  Si  Si13  1  0.834000  0.166000  0.503676  1
  Si  Si14  1  0.834000  0.668001  0.996324  1
  Si  Si15  1  0.668047  0.834024  0.504271  1
  Si  Si16  1  0.165976  0.331953  0.995729  1
  Si  Si17  1  0.331999  0.166000  0.503676  1
  Si  Si18  1  0.165976  0.331953  0.504271  1
  Si  Si19  1  0.834000  0.668001  0.503676  1
  Pt  Pt20  1  0.666667  0.333333  0.998849  1
  Pt  Pt21  1  0.333333  0.666667  0.001995  1
  Pt  Pt22  1  0.333333  0.666667  0.498005  1
  Pt  Pt23  1  0.666667  0.333333  0.501151  1
