# generated using pymatgen
data_Tm9LuIn8(CuPt)2
_symmetry_space_group_name_H-M   'P 1'
_cell_length_a   3.59232500
_cell_length_b   8.02478026
_cell_length_c   18.00775779
_cell_angle_alpha   90.15791395
_cell_angle_beta   90.00000000
_cell_angle_gamma   90.00000000
_symmetry_Int_Tables_number   1
_chemical_formula_structural   Tm9LuIn8(CuPt)2
_chemical_formula_sum   'Tm9 Lu1 In8 Cu2 Pt2'
_cell_volume   519.11880480
_cell_formula_units_Z   1
loop_
 _symmetry_equiv_pos_site_id
 _symmetry_equiv_pos_as_xyz
  1  'x, y, z'
loop_
 _atom_site_type_symbol
 _atom_site_label
 _atom_site_symmetry_multiplicity
 _atom_site_fract_x
 _atom_site_fract_y
 _atom_site_fract_z
 _atom_site_occupancy
  Tm  Tm0  1  0.000000  0.116602  0.415011  1
  Tm  Tm1  1  0.000000  0.883107  0.584826  1
  Tm  Tm2  1  0.000000  0.383280  0.915994  1
  Tm  Tm3  1  0.000000  0.616822  0.084237  1
  Tm  Tm4  1  0.000000  0.247610  0.220178  1
  Tm  Tm5  1  0.000000  0.752521  0.779859  1
  Tm  Tm6  1  0.000000  0.259616  0.720408  1
  Tm  Tm7  1  0.000000  0.999972  0.000055  1
  Tm  Tm8  1  0.000000  0.499973  0.499975  1
  Lu  Lu9  1  0.000000  0.740271  0.279244  1
  In  In10  1  0.500000  0.422245  0.352729  1
  In  In11  1  0.500000  0.578177  0.647228  1
  In  In12  1  0.500000  0.073698  0.849779  1
  In  In13  1  0.500000  0.926035  0.150408  1
  In  In14  1  0.500000  0.291976  0.066062  1
  In  In15  1  0.500000  0.708187  0.934026  1
  In  In16  1  0.500000  0.207011  0.567488  1
  In  In17  1  0.500000  0.792874  0.432070  1
  Cu  Cu18  1  0.500000  0.025243  0.302482  1
  Cu  Cu19  1  0.500000  0.973242  0.697365  1
  Pt  Pt20  1  0.500000  0.472340  0.802732  1
  Pt  Pt21  1  0.500000  0.529197  0.197843  1
