# generated using pymatgen
data_Lu2Si2Os2C
_symmetry_space_group_name_H-M   'P 1'
_cell_length_a   5.79276968
_cell_length_b   5.79277031
_cell_length_c   6.70941663
_cell_angle_alpha   126.14782741
_cell_angle_beta   126.14783140
_cell_angle_gamma   40.88161341
_symmetry_Int_Tables_number   1
_chemical_formula_structural   Lu2Si2Os2C
_chemical_formula_sum   'Lu2 Si2 Os2 C1'
_cell_volume   114.49412292
_cell_formula_units_Z   1
loop_
 _symmetry_equiv_pos_site_id
 _symmetry_equiv_pos_as_xyz
  1  'x, y, z'
loop_
 _atom_site_type_symbol
 _atom_site_label
 _atom_site_symmetry_multiplicity
 _atom_site_fract_x
 _atom_site_fract_y
 _atom_site_fract_z
 _atom_site_occupancy
  Lu  Lu0  1  0.564816  0.564816  0.296962  1
  Lu  Lu1  1  0.435184  0.435184  0.703037  1
  Si  Si2  1  0.852813  0.852813  0.309660  1
  Si  Si3  1  0.147187  0.147187  0.690339  1
  Os  Os4  1  0.208969  0.208969  0.109864  1
  Os  Os5  1  0.791031  0.791031  0.890137  1
  C  C6  1  0.000000  0.000000  0.000000  1
