# generated using pymatgen
data_Dy3Sc2Tl3
_symmetry_space_group_name_H-M   'P 1'
_cell_length_a   8.91744700
_cell_length_b   8.91744756
_cell_length_c   6.29994900
_cell_angle_alpha   90.00000000
_cell_angle_beta   90.00000000
_cell_angle_gamma   120.00000162
_symmetry_Int_Tables_number   1
_chemical_formula_structural   Dy3Sc2Tl3
_chemical_formula_sum   'Dy6 Sc4 Tl6'
_cell_volume   433.85914832
_cell_formula_units_Z   2
loop_
 _symmetry_equiv_pos_site_id
 _symmetry_equiv_pos_as_xyz
  1  'x, y, z'
loop_
 _atom_site_type_symbol
 _atom_site_label
 _atom_site_symmetry_multiplicity
 _atom_site_fract_x
 _atom_site_fract_y
 _atom_site_fract_z
 _atom_site_occupancy
  Dy  Dy0  1  0.000000  0.762039  0.750000  1
  Dy  Dy1  1  0.000000  0.237961  0.250000  1
  Dy  Dy2  1  0.762039  0.762039  0.250000  1
  Dy  Dy3  1  0.762039  0.000000  0.750000  1
  Dy  Dy4  1  0.237961  0.237961  0.750000  1
  Dy  Dy5  1  0.237961  0.000000  0.250000  1
  Sc  Sc6  1  0.333333  0.666667  0.500000  1
  Sc  Sc7  1  0.666667  0.333333  0.000000  1
  Sc  Sc8  1  0.666667  0.333333  0.500000  1
  Sc  Sc9  1  0.333333  0.666667  0.000000  1
  Tl  Tl10  1  0.406051  0.000000  0.750000  1
  Tl  Tl11  1  0.406051  0.406051  0.250000  1
  Tl  Tl12  1  0.000000  0.593949  0.250000  1
  Tl  Tl13  1  0.000000  0.406051  0.750000  1
  Tl  Tl14  1  0.593949  0.593949  0.750000  1
  Tl  Tl15  1  0.593949  0.000000  0.250000  1
