# generated using pymatgen
data_Er4Al3GaPd3Ru
_symmetry_space_group_name_H-M   'P 1'
_cell_length_a   4.31258500
_cell_length_b   6.85462516
_cell_length_c   7.88026500
_cell_angle_alpha   90.00045134
_cell_angle_beta   90.00000000
_cell_angle_gamma   90.00000000
_symmetry_Int_Tables_number   1
_chemical_formula_structural   Er4Al3GaPd3Ru
_chemical_formula_sum   'Er4 Al3 Ga1 Pd3 Ru1'
_cell_volume   232.94972442
_cell_formula_units_Z   1
loop_
 _symmetry_equiv_pos_site_id
 _symmetry_equiv_pos_as_xyz
  1  'x, y, z'
loop_
 _atom_site_type_symbol
 _atom_site_label
 _atom_site_symmetry_multiplicity
 _atom_site_fract_x
 _atom_site_fract_y
 _atom_site_fract_z
 _atom_site_occupancy
  Er  Er0  1  0.250000  0.036071  0.321284  1
  Er  Er1  1  0.250000  0.535568  0.178241  1
  Er  Er2  1  0.750000  0.976530  0.681107  1
  Er  Er3  1  0.750000  0.465051  0.815243  1
  Al  Al4  1  0.250000  0.146529  0.937852  1
  Al  Al5  1  0.250000  0.633220  0.561245  1
  Al  Al6  1  0.750000  0.355888  0.442600  1
  Ga  Ga7  1  0.750000  0.853705  0.061532  1
  Pd  Pd8  1  0.250000  0.771543  0.874808  1
  Pd  Pd9  1  0.750000  0.731114  0.381233  1
  Pd  Pd10  1  0.750000  0.235008  0.123507  1
  Ru  Ru11  1  0.250000  0.259772  0.621350  1
