# generated using pymatgen
data_Ba12Sm3YFeCo7O30
_symmetry_space_group_name_H-M   'P 1'
_cell_length_a   6.08704638
_cell_length_b   8.11886761
_cell_length_c   18.66496449
_cell_angle_alpha   89.20329755
_cell_angle_beta   90.13410036
_cell_angle_gamma   89.99253643
_symmetry_Int_Tables_number   1
_chemical_formula_structural   Ba12Sm3YFeCo7O30
_chemical_formula_sum   'Ba12 Sm3 Y1 Fe1 Co7 O30'
_cell_volume   922.32940893
_cell_formula_units_Z   1
loop_
 _symmetry_equiv_pos_site_id
 _symmetry_equiv_pos_as_xyz
  1  'x, y, z'
loop_
 _atom_site_type_symbol
 _atom_site_label
 _atom_site_symmetry_multiplicity
 _atom_site_fract_x
 _atom_site_fract_y
 _atom_site_fract_z
 _atom_site_occupancy
  Ba  Ba0  1  0.278366  0.000503  0.249785  1
  Ba  Ba1  1  0.721819  0.000771  0.750947  1
  Ba  Ba2  1  0.334229  0.500833  0.248638  1
  Ba  Ba3  1  0.666694  0.501396  0.750513  1
  Ba  Ba4  1  0.752994  0.979791  0.090301  1
  Ba  Ba5  1  0.750757  0.023598  0.408980  1
  Ba  Ba6  1  0.248923  0.023758  0.907546  1
  Ba  Ba7  1  0.249211  0.976106  0.590204  1
  Ba  Ba8  1  0.247977  0.497548  0.578010  1
  Ba  Ba9  1  0.245107  0.500626  0.919722  1
  Ba  Ba10  1  0.752678  0.502659  0.421327  1
  Ba  Ba11  1  0.753814  0.496306  0.078235  1
  Sm  Sm12  1  0.252235  0.754590  0.410574  1
  Sm  Sm13  1  0.252517  0.245362  0.089037  1
  Sm  Sm14  1  0.748044  0.244844  0.589396  1
  Y  Y15  1  0.746473  0.753901  0.910327  1
  Fe  Fe16  1  0.253651  0.755224  0.059216  1
  Co  Co17  1  0.253030  0.245835  0.437203  1
  Co  Co18  1  0.745407  0.246235  0.936486  1
  Co  Co19  1  0.747630  0.753882  0.563142  1
  Co  Co20  1  0.779711  0.768652  0.262562  1
  Co  Co21  1  0.780574  0.231265  0.237344  1
  Co  Co22  1  0.220465  0.230825  0.736769  1
  Co  Co23  1  0.220747  0.768493  0.764337  1
  O  O24  1  0.820923  0.000251  0.251177  1
  O  O25  1  0.177786  0.999782  0.751350  1
  O  O26  1  0.771987  0.952994  0.609342  1
  O  O27  1  0.767512  0.042651  0.892484  1
  O  O28  1  0.227637  0.046200  0.391854  1
  O  O29  1  0.222336  0.955172  0.110200  1
  O  O30  1  0.238911  0.532926  0.091591  1
  O  O31  1  0.241475  0.465387  0.411542  1
  O  O32  1  0.754781  0.467801  0.910675  1
  O  O33  1  0.757833  0.534577  0.589900  1
  O  O34  1  0.042409  0.715375  0.306231  1
  O  O35  1  0.043494  0.282218  0.194134  1
  O  O36  1  0.955742  0.283285  0.694755  1
  O  O37  1  0.960605  0.717602  0.810461  1
  O  O38  1  0.554876  0.751074  0.336101  1
  O  O39  1  0.557159  0.248566  0.163243  1
  O  O40  1  0.444400  0.247837  0.663642  1
  O  O41  1  0.452201  0.751621  0.836395  1
  O  O42  1  0.487359  0.764081  0.505559  1
  O  O43  1  0.487441  0.235737  0.994346  1
  O  O44  1  0.513242  0.235229  0.494939  1
  O  O45  1  0.516051  0.765940  0.003344  1
  O  O46  1  0.019891  0.766066  0.989903  1
  O  O47  1  0.022130  0.233129  0.507662  1
  O  O48  1  0.980167  0.234745  0.005366  1
  O  O49  1  0.979770  0.766435  0.493477  1
  O  O50  1  0.342644  0.697258  0.683108  1
  O  O51  1  0.350198  0.300608  0.817552  1
  O  O52  1  0.652626  0.301401  0.318170  1
  O  O53  1  0.653360  0.701045  0.180897  1
