# generated using pymatgen
data_Dy8Ho2Si5Sn
_symmetry_space_group_name_H-M   'P 1'
_cell_length_a   8.51683200
_cell_length_b   8.54205675
_cell_length_c   6.38566601
_cell_angle_alpha   89.99580718
_cell_angle_beta   90.00000000
_cell_angle_gamma   119.90237105
_symmetry_Int_Tables_number   1
_chemical_formula_structural   Dy8Ho2Si5Sn
_chemical_formula_sum   'Dy8 Ho2 Si5 Sn1'
_cell_volume   402.72053039
_cell_formula_units_Z   1
loop_
 _symmetry_equiv_pos_site_id
 _symmetry_equiv_pos_as_xyz
  1  'x, y, z'
loop_
 _atom_site_type_symbol
 _atom_site_label
 _atom_site_symmetry_multiplicity
 _atom_site_fract_x
 _atom_site_fract_y
 _atom_site_fract_z
 _atom_site_occupancy
  Dy  Dy0  1  0.989542  0.749121  0.749989  1
  Dy  Dy1  1  0.998912  0.242587  0.249995  1
  Dy  Dy2  1  0.756326  0.757413  0.250005  1
  Dy  Dy3  1  0.765167  0.000000  0.750000  1
  Dy  Dy4  1  0.240422  0.250879  0.750011  1
  Dy  Dy5  1  0.241157  0.000000  0.250000  1
  Dy  Dy6  1  0.331598  0.658171  0.496860  1
  Dy  Dy7  1  0.673428  0.341829  0.003140  1
  Ho  Ho8  1  0.673428  0.341826  0.496875  1
  Ho  Ho9  1  0.331601  0.658174  0.003125  1
  Si  Si10  1  0.393721  0.392440  0.249986  1
  Si  Si11  1  0.001280  0.607560  0.250014  1
  Si  Si12  1  0.998771  0.394442  0.749998  1
  Si  Si13  1  0.604330  0.605558  0.750002  1
  Si  Si14  1  0.605508  0.000000  0.250000  1
  Sn  Sn15  1  0.394808  0.000000  0.750000  1
