# generated using pymatgen
data_Ta3Mn3Be2P
_symmetry_space_group_name_H-M   'P 1'
_cell_length_a   6.44401596
_cell_length_b   3.11812800
_cell_length_c   6.44401700
_cell_angle_alpha   90.00000000
_cell_angle_beta   120.00245448
_cell_angle_gamma   90.00000000
_symmetry_Int_Tables_number   1
_chemical_formula_structural   Ta3Mn3Be2P
_chemical_formula_sum   'Ta3 Mn3 Be2 P1'
_cell_volume   112.13136637
_cell_formula_units_Z   1
loop_
 _symmetry_equiv_pos_site_id
 _symmetry_equiv_pos_as_xyz
  1  'x, y, z'
loop_
 _atom_site_type_symbol
 _atom_site_label
 _atom_site_symmetry_multiplicity
 _atom_site_fract_x
 _atom_site_fract_y
 _atom_site_fract_z
 _atom_site_occupancy
  Ta  Ta0  1  0.587091  0.500000  0.999960  1
  Ta  Ta1  1  0.412901  0.500000  0.412900  1
  Ta  Ta2  1  0.999960  0.500000  0.587091  1
  Mn  Mn3  1  0.252214  0.000000  0.000020  1
  Mn  Mn4  1  0.000020  0.000000  0.252212  1
  Mn  Mn5  1  0.747865  0.000000  0.747866  1
  Be  Be6  1  0.666671  0.000000  0.333330  1
  Be  Be7  1  0.333329  0.000000  0.666675  1
  P  P8  1  0.000022  0.500000  0.000022  1
