# generated using pymatgen
data_LiYbPrPt3
_symmetry_space_group_name_H-M   'P 1'
_cell_length_a   5.60515974
_cell_length_b   5.60515834
_cell_length_c   5.25537035
_cell_angle_alpha   57.77272089
_cell_angle_beta   57.77272637
_cell_angle_gamma   60.00001309
_symmetry_Int_Tables_number   1
_chemical_formula_structural   LiYbPrPt3
_chemical_formula_sum   'Li1 Yb1 Pr1 Pt3'
_cell_volume   112.66577378
_cell_formula_units_Z   1
loop_
 _symmetry_equiv_pos_site_id
 _symmetry_equiv_pos_as_xyz
  1  'x, y, z'
loop_
 _atom_site_type_symbol
 _atom_site_label
 _atom_site_symmetry_multiplicity
 _atom_site_fract_x
 _atom_site_fract_y
 _atom_site_fract_z
 _atom_site_occupancy
  Li  Li0  1  0.125951  0.125951  0.622147  1
  Yb  Yb1  1  0.497535  0.497535  0.507394  1
  Pr  Pr2  1  0.747827  0.747827  0.756519  1
  Pt  Pt3  1  0.127200  0.624286  0.121313  1
  Pt  Pt4  1  0.624286  0.127200  0.121313  1
  Pt  Pt5  1  0.127200  0.127200  0.121313  1
