# generated using pymatgen
data_DyThNi2Ag
_symmetry_space_group_name_H-M   'P 1'
_cell_length_a   7.37409418
_cell_length_b   7.37409417
_cell_length_c   3.68780900
_cell_angle_alpha   90.00000000
_cell_angle_beta   90.00000000
_cell_angle_gamma   91.90819995
_symmetry_Int_Tables_number   1
_chemical_formula_structural   DyThNi2Ag
_chemical_formula_sum   'Dy2 Th2 Ni4 Ag2'
_cell_volume   200.42176343
_cell_formula_units_Z   2
loop_
 _symmetry_equiv_pos_site_id
 _symmetry_equiv_pos_as_xyz
  1  'x, y, z'
loop_
 _atom_site_type_symbol
 _atom_site_label
 _atom_site_symmetry_multiplicity
 _atom_site_fract_x
 _atom_site_fract_y
 _atom_site_fract_z
 _atom_site_occupancy
  Dy  Dy0  1  0.174620  0.325380  0.500000  1
  Dy  Dy1  1  0.825380  0.674620  0.500000  1
  Th  Th2  1  0.677063  0.177063  0.500000  1
  Th  Th3  1  0.322937  0.822937  0.500000  1
  Ni  Ni4  1  0.877480  0.377480  0.000000  1
  Ni  Ni5  1  0.122520  0.622520  0.000000  1
  Ni  Ni6  1  0.380267  0.119733  0.000000  1
  Ni  Ni7  1  0.619733  0.880267  0.000000  1
  Ag  Ag8  1  0.500000  0.500000  0.000000  1
  Ag  Ag9  1  0.000000  0.000000  0.000000  1
