# generated using pymatgen
data_HoEr7Ti11Si16Rh
_symmetry_space_group_name_H-M   'P 1'
_cell_length_a   7.01401715
_cell_length_b   7.01340147
_cell_length_c   12.82113701
_cell_angle_alpha   90.10892760
_cell_angle_beta   89.88472836
_cell_angle_gamma   89.78650561
_symmetry_Int_Tables_number   1
_chemical_formula_structural   HoEr7Ti11Si16Rh
_chemical_formula_sum   'Ho1 Er7 Ti11 Si16 Rh1'
_cell_volume   630.69208409
_cell_formula_units_Z   1
loop_
 _symmetry_equiv_pos_site_id
 _symmetry_equiv_pos_as_xyz
  1  'x, y, z'
loop_
 _atom_site_type_symbol
 _atom_site_label
 _atom_site_symmetry_multiplicity
 _atom_site_fract_x
 _atom_site_fract_y
 _atom_site_fract_z
 _atom_site_occupancy
  Ho  Ho0  1  0.340610  0.003787  0.467227  1
  Er  Er1  1  0.496942  0.841704  0.717958  1
  Er  Er2  1  0.500909  0.158530  0.214814  1
  Er  Er3  1  0.841735  0.496873  0.282104  1
  Er  Er4  1  0.158553  0.500930  0.785153  1
  Er  Er5  1  0.657227  0.998579  0.968096  1
  Er  Er6  1  0.003575  0.340824  0.532767  1
  Er  Er7  1  0.998568  0.657273  0.031833  1
  Ti  Ti8  1  0.175426  0.826956  0.248396  1
  Ti  Ti9  1  0.827010  0.175470  0.751566  1
  Ti  Ti10  1  0.673511  0.673293  0.500002  1
  Ti  Ti11  1  0.149080  0.002986  0.875703  1
  Ti  Ti12  1  0.494150  0.655249  0.124550  1
  Ti  Ti13  1  0.506693  0.349954  0.627360  1
  Ti  Ti14  1  0.655274  0.494185  0.875429  1
  Ti  Ti15  1  0.349876  0.506605  0.372664  1
  Ti  Ti16  1  0.849316  0.994215  0.374601  1
  Ti  Ti17  1  0.002929  0.149135  0.124322  1
  Ti  Ti18  1  0.994155  0.849321  0.625423  1
  Si  Si19  1  0.202825  0.133517  0.684823  1
  Si  Si20  1  0.371395  0.704009  0.933339  1
  Si  Si21  1  0.631991  0.295234  0.433386  1
  Si  Si22  1  0.703972  0.371416  0.066689  1
  Si  Si23  1  0.294985  0.631441  0.566705  1
  Si  Si24  1  0.796045  0.867721  0.183396  1
  Si  Si25  1  0.133272  0.203076  0.315107  1
  Si  Si26  1  0.867774  0.796043  0.816628  1
  Si  Si27  1  0.287120  0.950766  0.063850  1
  Si  Si28  1  0.547130  0.792208  0.315300  1
  Si  Si29  1  0.449499  0.209632  0.817285  1
  Si  Si30  1  0.792382  0.546908  0.684557  1
  Si  Si31  1  0.209617  0.449564  0.182715  1
  Si  Si32  1  0.708572  0.047721  0.565530  1
  Si  Si33  1  0.950781  0.287102  0.936154  1
  Si  Si34  1  0.047422  0.708068  0.434546  1
  Rh  Rh35  1  0.329679  0.329705  0.000021  1
