# generated using pymatgen
data_BaGa2(SeO3)4
_symmetry_space_group_name_H-M   'P 1'
_cell_length_a   5.24078200
_cell_length_b   10.28693813
_cell_length_c   14.09651331
_cell_angle_alpha   49.04946624
_cell_angle_beta   90.00000000
_cell_angle_gamma   90.00000000
_symmetry_Int_Tables_number   1
_chemical_formula_structural   BaGa2(SeO3)4
_chemical_formula_sum   'Ba2 Ga4 Se8 O24'
_cell_volume   573.98354763
_cell_formula_units_Z   2
loop_
 _symmetry_equiv_pos_site_id
 _symmetry_equiv_pos_as_xyz
  1  'x, y, z'
loop_
 _atom_site_type_symbol
 _atom_site_label
 _atom_site_symmetry_multiplicity
 _atom_site_fract_x
 _atom_site_fract_y
 _atom_site_fract_z
 _atom_site_occupancy
  Ba  Ba0  1  0.061845  0.000000  0.750000  1
  Ba  Ba1  1  0.938155  0.000000  0.250000  1
  Ga  Ga2  1  0.000000  0.500000  0.500000  1
  Ga  Ga3  1  0.500000  0.000000  0.000000  1
  Ga  Ga4  1  0.500000  0.000000  0.500000  1
  Ga  Ga5  1  0.000000  0.500000  0.000000  1
  Se  Se6  1  0.497843  0.343583  0.182457  1
  Se  Se7  1  0.007913  0.746454  0.594544  1
  Se  Se8  1  0.007913  0.253546  0.905456  1
  Se  Se9  1  0.992087  0.253546  0.405456  1
  Se  Se10  1  0.502157  0.343583  0.682457  1
  Se  Se11  1  0.502157  0.656417  0.817543  1
  Se  Se12  1  0.497843  0.656417  0.317543  1
  Se  Se13  1  0.992087  0.746454  0.094544  1
  O  O14  1  0.210242  0.701259  0.351720  1
  O  O15  1  0.296964  0.812127  0.030402  1
  O  O16  1  0.789758  0.701259  0.851720  1
  O  O17  1  0.810689  0.915243  0.965898  1
  O  O18  1  0.703036  0.812127  0.530402  1
  O  O19  1  0.300588  0.349179  0.581714  1
  O  O20  1  0.189311  0.084757  0.034102  1
  O  O21  1  0.699412  0.349179  0.081714  1
  O  O22  1  0.789758  0.298741  0.648280  1
  O  O23  1  0.585537  0.136371  0.316271  1
  O  O24  1  0.699412  0.650821  0.418286  1
  O  O25  1  0.296964  0.187873  0.469598  1
  O  O26  1  0.585537  0.863629  0.183729  1
  O  O27  1  0.810689  0.084757  0.534102  1
  O  O28  1  0.414463  0.136371  0.816271  1
  O  O29  1  0.055347  0.421778  0.902370  1
  O  O30  1  0.703036  0.187873  0.969598  1
  O  O31  1  0.944653  0.421778  0.402370  1
  O  O32  1  0.055347  0.578222  0.597630  1
  O  O33  1  0.414463  0.863629  0.683729  1
  O  O34  1  0.300588  0.650821  0.918286  1
  O  O35  1  0.189311  0.915243  0.465898  1
  O  O36  1  0.944653  0.578222  0.097630  1
  O  O37  1  0.210242  0.298741  0.148280  1
