# generated using pymatgen
data_YEr3LuIn4PtRh
_symmetry_space_group_name_H-M   'P 1'
_cell_length_a   3.59432300
_cell_length_b   8.08826985
_cell_length_c   18.14768442
_cell_angle_alpha   90.10111539
_cell_angle_beta   90.00000000
_cell_angle_gamma   90.00000000
_symmetry_Int_Tables_number   1
_chemical_formula_structural   YEr3LuIn4PtRh
_chemical_formula_sum   'Y2 Er6 Lu2 In8 Pt2 Rh2'
_cell_volume   527.58601647
_cell_formula_units_Z   2
loop_
 _symmetry_equiv_pos_site_id
 _symmetry_equiv_pos_as_xyz
  1  'x, y, z'
loop_
 _atom_site_type_symbol
 _atom_site_label
 _atom_site_symmetry_multiplicity
 _atom_site_fract_x
 _atom_site_fract_y
 _atom_site_fract_z
 _atom_site_occupancy
  Y  Y0  1  0.000000  0.000000  0.000000  1
  Y  Y1  1  0.000000  0.500000  0.500000  1
  Er  Er2  1  0.000000  0.383159  0.913626  1
  Er  Er3  1  0.000000  0.616841  0.086374  1
  Er  Er4  1  0.000000  0.237964  0.221865  1
  Er  Er5  1  0.000000  0.762036  0.778135  1
  Er  Er6  1  0.000000  0.251049  0.720394  1
  Er  Er7  1  0.000000  0.748951  0.279606  1
  Lu  Lu8  1  0.000000  0.114617  0.411619  1
  Lu  Lu9  1  0.000000  0.885383  0.588381  1
  In  In10  1  0.500000  0.420486  0.351787  1
  In  In11  1  0.500000  0.579514  0.648213  1
  In  In12  1  0.500000  0.072305  0.849562  1
  In  In13  1  0.500000  0.927695  0.150438  1
  In  In14  1  0.500000  0.292968  0.066588  1
  In  In15  1  0.500000  0.707032  0.933412  1
  In  In16  1  0.500000  0.203629  0.566984  1
  In  In17  1  0.500000  0.796371  0.433016  1
  Pt  Pt18  1  0.500000  0.478483  0.802930  1
  Pt  Pt19  1  0.500000  0.521517  0.197070  1
  Rh  Rh20  1  0.500000  0.022112  0.305529  1
  Rh  Rh21  1  0.500000  0.977888  0.694471  1
