# generated using pymatgen
data_DyTe28
_symmetry_space_group_name_H-M   'P 1'
_cell_length_a   11.93491965
_cell_length_b   10.68667823
_cell_length_c   12.44500674
_cell_angle_alpha   115.56274404
_cell_angle_beta   121.20208958
_cell_angle_gamma   89.00410993
_symmetry_Int_Tables_number   1
_chemical_formula_structural   DyTe28
_chemical_formula_sum   'Dy1 Te28'
_cell_volume   1180.26021082
_cell_formula_units_Z   1
loop_
 _symmetry_equiv_pos_site_id
 _symmetry_equiv_pos_as_xyz
  1  'x, y, z'
loop_
 _atom_site_type_symbol
 _atom_site_label
 _atom_site_symmetry_multiplicity
 _atom_site_fract_x
 _atom_site_fract_y
 _atom_site_fract_z
 _atom_site_occupancy
  Dy  Dy0  1  0.500000  0.000000  0.000000  1
  Te  Te1  1  0.213561  0.092166  0.408426  1
  Te  Te2  1  0.586389  0.158101  0.431186  1
  Te  Te3  1  0.281083  0.272163  0.881959  1
  Te  Te4  1  0.926794  0.310826  0.900484  1
  Te  Te5  1  0.206851  0.547456  0.714333  1
  Te  Te6  1  0.806313  0.526575  0.636955  1
  Te  Te7  1  0.413611  0.841899  0.568814  1
  Te  Te8  1  0.786439  0.907834  0.591574  1
  Te  Te9  1  0.073206  0.689174  0.099516  1
  Te  Te10  1  0.718917  0.727837  0.118041  1
  Te  Te11  1  0.193687  0.473425  0.363045  1
  Te  Te12  1  0.793149  0.452544  0.285667  1
  Te  Te13  1  0.760502  0.079340  0.842617  1
  Te  Te14  1  0.238311  0.977323  0.727551  1
  Te  Te15  1  0.806340  0.677335  0.893730  1
  Te  Te16  1  0.372136  0.753598  0.014856  1
  Te  Te17  1  0.512413  0.270135  0.243300  1
  Te  Te18  1  0.029965  0.272968  0.347395  1
  Te  Te19  1  0.761689  0.022677  0.272449  1
  Te  Te20  1  0.239498  0.920660  0.157383  1
  Te  Te21  1  0.627864  0.246402  0.985144  1
  Te  Te22  1  0.193660  0.322665  0.106270  1
  Te  Te23  1  0.970035  0.727032  0.652605  1
  Te  Te24  1  0.487587  0.729865  0.756700  1
  Te  Te25  1  0.050293  0.370493  0.734995  1
  Te  Te26  1  0.470448  0.286749  0.582273  1
  Te  Te27  1  0.529552  0.713251  0.417727  1
  Te  Te28  1  0.949707  0.629507  0.265005  1
