# generated using pymatgen
data_MgCu2Pd3
_symmetry_space_group_name_H-M   'P 1'
_cell_length_a   4.32401600
_cell_length_b   4.32401489
_cell_length_c   10.59777200
_cell_angle_alpha   90.00000000
_cell_angle_beta   90.00000000
_cell_angle_gamma   119.99999318
_symmetry_Int_Tables_number   1
_chemical_formula_structural   MgCu2Pd3
_chemical_formula_sum   'Mg2 Cu4 Pd6'
_cell_volume   171.60095746
_cell_formula_units_Z   2
loop_
 _symmetry_equiv_pos_site_id
 _symmetry_equiv_pos_as_xyz
  1  'x, y, z'
loop_
 _atom_site_type_symbol
 _atom_site_label
 _atom_site_symmetry_multiplicity
 _atom_site_fract_x
 _atom_site_fract_y
 _atom_site_fract_z
 _atom_site_occupancy
  Mg  Mg0  1  0.333333  0.666667  0.669304  1
  Mg  Mg1  1  0.666667  0.333333  0.330696  1
  Cu  Cu2  1  0.000000  0.000000  0.500000  1
  Cu  Cu3  1  0.333333  0.666667  0.164103  1
  Cu  Cu4  1  0.666667  0.333333  0.835897  1
  Cu  Cu5  1  0.000000  0.000000  0.000000  1
  Pd  Pd6  1  0.333333  0.666667  0.416674  1
  Pd  Pd7  1  0.666667  0.333333  0.079404  1
  Pd  Pd8  1  0.000000  0.000000  0.754332  1
  Pd  Pd9  1  0.000000  0.000000  0.245668  1
  Pd  Pd10  1  0.333333  0.666667  0.920596  1
  Pd  Pd11  1  0.666667  0.333333  0.583326  1
