# generated using pymatgen
data_TbSm2Mg(Co4P3)2
_symmetry_space_group_name_H-M   'P 1'
_cell_length_a   3.76191600
_cell_length_b   10.69027700
_cell_length_c   12.38042300
_cell_angle_alpha   90.00000000
_cell_angle_beta   90.00000000
_cell_angle_gamma   90.00000000
_symmetry_Int_Tables_number   1
_chemical_formula_structural   TbSm2Mg(Co4P3)2
_chemical_formula_sum   'Tb2 Sm4 Mg2 Co16 P12'
_cell_volume   497.89015158
_cell_formula_units_Z   2
loop_
 _symmetry_equiv_pos_site_id
 _symmetry_equiv_pos_as_xyz
  1  'x, y, z'
loop_
 _atom_site_type_symbol
 _atom_site_label
 _atom_site_symmetry_multiplicity
 _atom_site_fract_x
 _atom_site_fract_y
 _atom_site_fract_z
 _atom_site_occupancy
  Tb  Tb0  1  0.000000  0.678025  0.793991  1
  Tb  Tb1  1  0.000000  0.321975  0.793991  1
  Sm  Sm2  1  0.000000  0.500000  0.526490  1
  Sm  Sm3  1  0.500000  0.000000  0.474294  1
  Sm  Sm4  1  0.500000  0.821440  0.206229  1
  Sm  Sm5  1  0.500000  0.178560  0.206229  1
  Mg  Mg6  1  0.500000  0.500000  0.155129  1
  Mg  Mg7  1  0.000000  0.000000  0.844726  1
  Co  Co8  1  0.500000  0.500000  0.707286  1
  Co  Co9  1  0.000000  0.000000  0.293671  1
  Co  Co10  1  0.000000  0.500000  0.987723  1
  Co  Co11  1  0.500000  0.000000  0.009596  1
  Co  Co12  1  0.500000  0.333247  0.995853  1
  Co  Co13  1  0.500000  0.666753  0.995853  1
  Co  Co14  1  0.000000  0.168110  0.001807  1
  Co  Co15  1  0.000000  0.831890  0.001807  1
  Co  Co16  1  0.500000  0.296810  0.432638  1
  Co  Co17  1  0.500000  0.703190  0.432638  1
  Co  Co18  1  0.000000  0.203941  0.569491  1
  Co  Co19  1  0.000000  0.796059  0.569491  1
  Co  Co20  1  0.500000  0.878297  0.706403  1
  Co  Co21  1  0.500000  0.121703  0.706403  1
  Co  Co22  1  0.000000  0.620681  0.294763  1
  Co  Co23  1  0.000000  0.379319  0.294763  1
  P  P24  1  0.500000  0.500000  0.885520  1
  P  P25  1  0.000000  0.000000  0.111940  1
  P  P26  1  0.500000  0.500000  0.353161  1
  P  P27  1  0.000000  0.000000  0.647268  1
  P  P28  1  0.500000  0.307257  0.616184  1
  P  P29  1  0.500000  0.692743  0.616184  1
  P  P30  1  0.000000  0.193885  0.386333  1
  P  P31  1  0.000000  0.806115  0.386333  1
  P  P32  1  0.500000  0.838807  0.893521  1
  P  P33  1  0.500000  0.161193  0.893521  1
  P  P34  1  0.000000  0.659719  0.104385  1
  P  P35  1  0.000000  0.340281  0.104385  1
