# generated using pymatgen
data_Dy2CuIr2
_symmetry_space_group_name_H-M   'P 1'
_cell_length_a   4.17451701
_cell_length_b   5.74194763
_cell_length_c   5.40471274
_cell_angle_alpha   122.08644669
_cell_angle_beta   112.71777829
_cell_angle_gamma   90.00000254
_symmetry_Int_Tables_number   1
_chemical_formula_structural   Dy2CuIr2
_chemical_formula_sum   'Dy2 Cu1 Ir2'
_cell_volume   97.69528053
_cell_formula_units_Z   1
loop_
 _symmetry_equiv_pos_site_id
 _symmetry_equiv_pos_as_xyz
  1  'x, y, z'
loop_
 _atom_site_type_symbol
 _atom_site_label
 _atom_site_symmetry_multiplicity
 _atom_site_fract_x
 _atom_site_fract_y
 _atom_site_fract_z
 _atom_site_occupancy
  Dy  Dy0  1  0.795382  0.295382  0.590765  1
  Dy  Dy1  1  0.204618  0.704618  0.409235  1
  Cu  Cu2  1  0.000000  0.000000  0.000000  1
  Ir  Ir3  1  0.500000  0.270002  0.000000  1
  Ir  Ir4  1  0.500000  0.729998  0.000000  1
