# generated using pymatgen
data_YbEu2PtAu
_symmetry_space_group_name_H-M   'P 1'
_cell_length_a   7.77210263
_cell_length_b   7.77210316
_cell_length_c   7.77210300
_cell_angle_alpha   70.67888530
_cell_angle_beta   70.67889176
_cell_angle_gamma   70.67889372
_symmetry_Int_Tables_number   1
_chemical_formula_structural   YbEu2PtAu
_chemical_formula_sum   'Yb3 Eu6 Pt3 Au3'
_cell_volume   404.95869896
_cell_formula_units_Z   3
loop_
 _symmetry_equiv_pos_site_id
 _symmetry_equiv_pos_as_xyz
  1  'x, y, z'
loop_
 _atom_site_type_symbol
 _atom_site_label
 _atom_site_symmetry_multiplicity
 _atom_site_fract_x
 _atom_site_fract_y
 _atom_site_fract_z
 _atom_site_occupancy
  Yb  Yb0  1  0.003927  0.003927  0.003927  1
  Yb  Yb1  1  0.798845  0.798845  0.798845  1
  Yb  Yb2  1  0.191478  0.191478  0.191478  1
  Eu  Eu3  1  0.339265  0.600438  0.845697  1
  Eu  Eu4  1  0.845697  0.339265  0.600438  1
  Eu  Eu5  1  0.600438  0.845697  0.339265  1
  Eu  Eu6  1  0.665406  0.398750  0.157072  1
  Eu  Eu7  1  0.157072  0.665406  0.398750  1
  Eu  Eu8  1  0.398750  0.157072  0.665406  1
  Pt  Pt9  1  0.840889  0.043443  0.409950  1
  Pt  Pt10  1  0.409950  0.840889  0.043443  1
  Pt  Pt11  1  0.043443  0.409950  0.840889  1
  Au  Au12  1  0.153791  0.961097  0.589952  1
  Au  Au13  1  0.589952  0.153791  0.961097  1
  Au  Au14  1  0.961097  0.589952  0.153791  1
