# generated using pymatgen
data_DyHo15Cd4(NiRu)2
_symmetry_space_group_name_H-M   'P 1'
_cell_length_a   9.53315105
_cell_length_b   9.53315121
_cell_length_c   9.59661900
_cell_angle_alpha   59.77951985
_cell_angle_beta   59.77951929
_cell_angle_gamma   59.56867018
_symmetry_Int_Tables_number   1
_chemical_formula_structural   DyHo15Cd4(NiRu)2
_chemical_formula_sum   'Dy1 Ho15 Cd4 Ni2 Ru2'
_cell_volume   612.62475599
_cell_formula_units_Z   1
loop_
 _symmetry_equiv_pos_site_id
 _symmetry_equiv_pos_as_xyz
  1  'x, y, z'
loop_
 _atom_site_type_symbol
 _atom_site_label
 _atom_site_symmetry_multiplicity
 _atom_site_fract_x
 _atom_site_fract_y
 _atom_site_fract_z
 _atom_site_occupancy
  Dy  Dy0  1  0.189794  0.189794  0.810206  1
  Ho  Ho1  1  0.599251  0.599251  0.593776  1
  Ho  Ho2  1  0.599251  0.599251  0.207721  1
  Ho  Ho3  1  0.601910  0.206015  0.596038  1
  Ho  Ho4  1  0.206015  0.601910  0.596038  1
  Ho  Ho5  1  0.061030  0.436955  0.439301  1
  Ho  Ho6  1  0.436955  0.061030  0.062712  1
  Ho  Ho7  1  0.436955  0.061030  0.439301  1
  Ho  Ho8  1  0.061030  0.436955  0.062712  1
  Ho  Ho9  1  0.437861  0.437861  0.062139  1
  Ho  Ho10  1  0.060935  0.060935  0.439065  1
  Ho  Ho11  1  0.187579  0.809189  0.816486  1
  Ho  Ho12  1  0.809189  0.187579  0.186746  1
  Ho  Ho13  1  0.809189  0.187579  0.816486  1
  Ho  Ho14  1  0.187579  0.809189  0.186746  1
  Ho  Ho15  1  0.815061  0.815061  0.184939  1
  Cd  Cd16  1  0.829570  0.829570  0.832182  1
  Cd  Cd17  1  0.829570  0.829570  0.508678  1
  Cd  Cd18  1  0.829851  0.506421  0.831864  1
  Cd  Cd19  1  0.506421  0.829851  0.831864  1
  Ni  Ni20  1  0.392682  0.825752  0.390782  1
  Ni  Ni21  1  0.825752  0.392682  0.390782  1
  Ru  Ru22  1  0.393284  0.393284  0.389130  1
  Ru  Ru23  1  0.393284  0.393284  0.824302  1
