# generated using pymatgen
data_RbReP2Pd
_symmetry_space_group_name_H-M   'P 1'
_cell_length_a   7.61089072
_cell_length_b   7.61089152
_cell_length_c   7.61089076
_cell_angle_alpha   149.41976384
_cell_angle_beta   149.41978034
_cell_angle_gamma   43.79379153
_symmetry_Int_Tables_number   1
_chemical_formula_structural   RbReP2Pd
_chemical_formula_sum   'Rb1 Re1 P2 Pd1'
_cell_volume   113.78613621
_cell_formula_units_Z   1
loop_
 _symmetry_equiv_pos_site_id
 _symmetry_equiv_pos_as_xyz
  1  'x, y, z'
loop_
 _atom_site_type_symbol
 _atom_site_label
 _atom_site_symmetry_multiplicity
 _atom_site_fract_x
 _atom_site_fract_y
 _atom_site_fract_z
 _atom_site_occupancy
  Rb  Rb0  1  0.000000  0.000000  0.000000  1
  Re  Re1  1  0.250000  0.750000  0.500000  1
  P  P2  1  0.341239  0.341239  0.000000  1
  P  P3  1  0.658761  0.658761  0.000000  1
  Pd  Pd4  1  0.750000  0.250000  0.500000  1
