# generated using pymatgen
data_Dy5Sc3Co5P12Ir11
_symmetry_space_group_name_H-M   'P 1'
_cell_length_a   12.73463738
_cell_length_b   12.70766756
_cell_length_c   3.87527000
_cell_angle_alpha   90.00000000
_cell_angle_beta   90.00000000
_cell_angle_gamma   119.98653154
_symmetry_Int_Tables_number   1
_chemical_formula_structural   Dy5Sc3Co5P12Ir11
_chemical_formula_sum   'Dy5 Sc3 Co5 P12 Ir11'
_cell_volume   543.18022529
_cell_formula_units_Z   1
loop_
 _symmetry_equiv_pos_site_id
 _symmetry_equiv_pos_as_xyz
  1  'x, y, z'
loop_
 _atom_site_type_symbol
 _atom_site_label
 _atom_site_symmetry_multiplicity
 _atom_site_fract_x
 _atom_site_fract_y
 _atom_site_fract_z
 _atom_site_occupancy
  Dy  Dy0  1  0.333325  0.666295  0.500000  1
  Dy  Dy1  1  0.664374  0.333527  0.500000  1
  Dy  Dy2  1  0.999951  0.811758  0.000000  1
  Dy  Dy3  1  0.190345  0.188787  0.000000  1
  Dy  Dy4  1  0.811102  0.997629  0.000000  1
  Sc  Sc5  1  0.003897  0.447306  0.500000  1
  Sc  Sc6  1  0.556103  0.555720  0.500000  1
  Sc  Sc7  1  0.442959  0.000586  0.500000  1
  Co  Co8  1  0.626892  0.802292  0.500000  1
  Co  Co9  1  0.195746  0.823644  0.500000  1
  Co  Co10  1  0.178718  0.373280  0.500000  1
  Co  Co11  1  0.371287  0.176374  0.500000  1
  Co  Co12  1  0.804011  0.627595  0.500000  1
  P  P13  1  0.999812  0.651380  0.500000  1
  P  P14  1  0.349756  0.349581  0.500000  1
  P  P15  1  0.644003  0.991466  0.500000  1
  P  P16  1  0.520149  0.688641  0.000000  1
  P  P17  1  0.310103  0.830589  0.000000  1
  P  P18  1  0.170842  0.480759  0.000000  1
  P  P19  1  0.477806  0.169236  0.000000  1
  P  P20  1  0.689513  0.520435  0.000000  1
  P  P21  1  0.830214  0.313944  0.000000  1
  P  P22  1  0.007335  0.181282  0.500000  1
  P  P23  1  0.820833  0.820431  0.500000  1
  P  P24  1  0.179650  0.000035  0.500000  1
  Ir  Ir25  1  0.515012  0.869875  0.000000  1
  Ir  Ir26  1  0.129763  0.645119  0.000000  1
  Ir  Ir27  1  0.356106  0.485298  0.000000  1
  Ir  Ir28  1  0.484654  0.355560  0.000000  1
  Ir  Ir29  1  0.871004  0.516410  0.000000  1
  Ir  Ir30  1  0.639493  0.131546  0.000000  1
  Ir  Ir31  1  0.004524  0.279491  0.000000  1
  Ir  Ir32  1  0.722102  0.721893  0.000000  1
  Ir  Ir33  1  0.277027  0.999378  0.000000  1
  Ir  Ir34  1  0.821189  0.193486  0.500000  1
  Ir  Ir35  1  0.000399  0.999372  0.500000  1
