# generated using pymatgen
data_Ba5Er2Al2TcO13
_symmetry_space_group_name_H-M   'P 1'
_cell_length_a   5.96292200
_cell_length_b   5.96292156
_cell_length_c   24.98645500
_cell_angle_alpha   90.00000000
_cell_angle_beta   90.00000000
_cell_angle_gamma   119.99999136
_symmetry_Int_Tables_number   1
_chemical_formula_structural   Ba5Er2Al2TcO13
_chemical_formula_sum   'Ba10 Er4 Al4 Tc2 O26'
_cell_volume   769.40240307
_cell_formula_units_Z   2
loop_
 _symmetry_equiv_pos_site_id
 _symmetry_equiv_pos_as_xyz
  1  'x, y, z'
loop_
 _atom_site_type_symbol
 _atom_site_label
 _atom_site_symmetry_multiplicity
 _atom_site_fract_x
 _atom_site_fract_y
 _atom_site_fract_z
 _atom_site_occupancy
  Ba  Ba0  1  0.000000  0.000000  0.364166  1
  Ba  Ba1  1  0.666667  0.333333  0.959381  1
  Ba  Ba2  1  0.000000  0.000000  0.635834  1
  Ba  Ba3  1  0.000000  0.000000  0.864166  1
  Ba  Ba4  1  0.666667  0.333333  0.540619  1
  Ba  Ba5  1  0.333333  0.666667  0.459381  1
  Ba  Ba6  1  0.000000  0.000000  0.135834  1
  Ba  Ba7  1  0.333333  0.666667  0.040619  1
  Ba  Ba8  1  0.666667  0.333333  0.250000  1
  Ba  Ba9  1  0.333333  0.666667  0.750000  1
  Er  Er10  1  0.666667  0.333333  0.102080  1
  Er  Er11  1  0.333333  0.666667  0.897920  1
  Er  Er12  1  0.333333  0.666667  0.602080  1
  Er  Er13  1  0.666667  0.333333  0.397920  1
  Al  Al14  1  0.666667  0.333333  0.819701  1
  Al  Al15  1  0.333333  0.666667  0.180299  1
  Al  Al16  1  0.666667  0.333333  0.680299  1
  Al  Al17  1  0.333333  0.666667  0.319701  1
  Tc  Tc18  1  0.000000  0.000000  0.500000  1
  Tc  Tc19  1  0.000000  0.000000  0.000000  1
  O  O20  1  0.840018  0.680035  0.048719  1
  O  O21  1  0.840018  0.680035  0.451281  1
  O  O22  1  0.159982  0.840018  0.951281  1
  O  O23  1  0.159982  0.319965  0.548719  1
  O  O24  1  0.504153  0.495847  0.842870  1
  O  O25  1  0.840018  0.159982  0.048719  1
  O  O26  1  0.495847  0.991694  0.157130  1
  O  O27  1  0.008306  0.504153  0.157130  1
  O  O28  1  0.840018  0.159982  0.451281  1
  O  O29  1  0.319965  0.159982  0.048719  1
  O  O30  1  0.991694  0.495847  0.657130  1
  O  O31  1  0.504153  0.008306  0.657130  1
  O  O32  1  0.008306  0.504153  0.342870  1
  O  O33  1  0.680035  0.840018  0.548719  1
  O  O34  1  0.666667  0.333333  0.750000  1
  O  O35  1  0.495847  0.504153  0.342870  1
  O  O36  1  0.680035  0.840018  0.951281  1
  O  O37  1  0.504153  0.008306  0.842870  1
  O  O38  1  0.991694  0.495847  0.842870  1
  O  O39  1  0.504153  0.495847  0.657130  1
  O  O40  1  0.159982  0.840018  0.548719  1
  O  O41  1  0.159982  0.319965  0.951281  1
  O  O42  1  0.495847  0.504153  0.157130  1
  O  O43  1  0.319965  0.159982  0.451281  1
  O  O44  1  0.333333  0.666667  0.250000  1
  O  O45  1  0.495847  0.991694  0.342870  1
