# generated using pymatgen
data_Lu12CdCo4Rh
_symmetry_space_group_name_H-M   'P 1'
_cell_length_a   8.10263062
_cell_length_b   8.10263052
_cell_length_c   8.10262999
_cell_angle_alpha   111.12457443
_cell_angle_beta   111.13872949
_cell_angle_gamma   106.19908325
_symmetry_Int_Tables_number   1
_chemical_formula_structural   Lu12CdCo4Rh
_chemical_formula_sum   'Lu12 Cd1 Co4 Rh1'
_cell_volume   408.50776472
_cell_formula_units_Z   1
loop_
 _symmetry_equiv_pos_site_id
 _symmetry_equiv_pos_as_xyz
  1  'x, y, z'
loop_
 _atom_site_type_symbol
 _atom_site_label
 _atom_site_symmetry_multiplicity
 _atom_site_fract_x
 _atom_site_fract_y
 _atom_site_fract_z
 _atom_site_occupancy
  Lu  Lu0  1  0.415727  0.221347  0.194378  1
  Lu  Lu1  1  0.584273  0.778653  0.805622  1
  Lu  Lu2  1  0.026969  0.221347  0.805622  1
  Lu  Lu3  1  0.973031  0.778653  0.194378  1
  Lu  Lu4  1  0.183984  0.284072  0.468057  1
  Lu  Lu5  1  0.816016  0.715928  0.531943  1
  Lu  Lu6  1  0.183984  0.715928  0.899912  1
  Lu  Lu7  1  0.816016  0.284072  0.100088  1
  Lu  Lu8  1  0.316360  0.623569  0.307209  1
  Lu  Lu9  1  0.683640  0.376431  0.692791  1
  Lu  Lu10  1  0.316360  0.009151  0.692791  1
  Lu  Lu11  1  0.683640  0.990849  0.307209  1
  Cd  Cd12  1  0.500000  0.500000  0.000000  1
  Co  Co13  1  0.369900  0.000000  0.369900  1
  Co  Co14  1  0.630100  0.000000  0.630100  1
  Co  Co15  1  0.113621  0.613621  0.500000  1
  Co  Co16  1  0.886379  0.386379  0.500000  1
  Rh  Rh17  1  0.000000  0.000000  0.000000  1
