# generated using pymatgen
data_La2Ni2RhN3
_symmetry_space_group_name_H-M   'P 1'
_cell_length_a   6.39406567
_cell_length_b   6.39406632
_cell_length_c   6.39807268
_cell_angle_alpha   89.24116303
_cell_angle_beta   89.24115721
_cell_angle_gamma   116.22721559
_symmetry_Int_Tables_number   1
_chemical_formula_structural   La2Ni2RhN3
_chemical_formula_sum   'La4 Ni4 Rh2 N6'
_cell_volume   234.57558407
_cell_formula_units_Z   2
loop_
 _symmetry_equiv_pos_site_id
 _symmetry_equiv_pos_as_xyz
  1  'x, y, z'
loop_
 _atom_site_type_symbol
 _atom_site_label
 _atom_site_symmetry_multiplicity
 _atom_site_fract_x
 _atom_site_fract_y
 _atom_site_fract_z
 _atom_site_occupancy
  La  La0  1  0.822469  0.668206  0.900241  1
  La  La1  1  0.331794  0.177531  0.599759  1
  La  La2  1  0.177531  0.331794  0.099759  1
  La  La3  1  0.668206  0.822469  0.400241  1
  Ni  Ni4  1  0.579521  0.180877  0.106058  1
  Ni  Ni5  1  0.420479  0.819123  0.893942  1
  Ni  Ni6  1  0.819123  0.420479  0.393942  1
  Ni  Ni7  1  0.180877  0.579521  0.606058  1
  Rh  Rh8  1  0.816752  0.183248  0.750000  1
  Rh  Rh9  1  0.183248  0.816752  0.250000  1
  N  N10  1  0.435411  0.564589  0.750000  1
  N  N11  1  0.564589  0.435411  0.250000  1
  N  N12  1  0.996979  0.728234  0.518058  1
  N  N13  1  0.728234  0.996979  0.018058  1
  N  N14  1  0.003021  0.271766  0.481942  1
  N  N15  1  0.271766  0.003021  0.981942  1
