# generated using pymatgen
data_Tb8Er7Th(InIr)4
_symmetry_space_group_name_H-M   'P 1'
_cell_length_a   9.68173244
_cell_length_b   9.66936224
_cell_length_c   9.67878852
_cell_angle_alpha   60.02547937
_cell_angle_beta   60.08519227
_cell_angle_gamma   60.02608489
_symmetry_Int_Tables_number   1
_chemical_formula_structural   Tb8Er7Th(InIr)4
_chemical_formula_sum   'Tb8 Er7 Th1 In4 Ir4'
_cell_volume   641.36476527
_cell_formula_units_Z   1
loop_
 _symmetry_equiv_pos_site_id
 _symmetry_equiv_pos_as_xyz
  1  'x, y, z'
loop_
 _atom_site_type_symbol
 _atom_site_label
 _atom_site_symmetry_multiplicity
 _atom_site_fract_x
 _atom_site_fract_y
 _atom_site_fract_z
 _atom_site_occupancy
  Tb  Tb0  1  0.099853  0.101769  0.699421  1
  Tb  Tb1  1  0.690267  0.309317  0.690308  1
  Tb  Tb2  1  0.689204  0.688660  0.311039  1
  Tb  Tb3  1  0.690150  0.309835  0.310637  1
  Tb  Tb4  1  0.310512  0.688480  0.689087  1
  Tb  Tb5  1  0.560100  0.939122  0.559808  1
  Tb  Tb6  1  0.699684  0.101817  0.099834  1
  Tb  Tb7  1  0.559342  0.939415  0.941037  1
  Er  Er8  1  0.942126  0.938831  0.558854  1
  Er  Er9  1  0.939833  0.557854  0.938276  1
  Er  Er10  1  0.310347  0.689276  0.311542  1
  Er  Er11  1  0.939736  0.559153  0.562525  1
  Er  Er12  1  0.309210  0.309773  0.690924  1
  Er  Er13  1  0.098663  0.099604  0.099240  1
  Er  Er14  1  0.562620  0.558881  0.939139  1
  Th  Th15  1  0.097429  0.709414  0.097282  1
  In  In16  1  0.332794  0.334391  0.333765  1
  In  In17  1  0.001333  0.332770  0.332442  1
  In  In18  1  0.332516  0.000017  0.333052  1
  In  In19  1  0.332207  0.333111  0.000328  1
  Ir  Ir20  1  0.892302  0.890794  0.891163  1
  Ir  Ir21  1  0.893894  0.890883  0.324898  1
  Ir  Ir22  1  0.323734  0.891178  0.893688  1
  Ir  Ir23  1  0.892147  0.325654  0.891714  1
