# generated using pymatgen
data_Tl2Si(S2O7)3
_symmetry_space_group_name_H-M   'P 1'
_cell_length_a   9.83489800
_cell_length_b   9.83489842
_cell_length_c   11.58176300
_cell_angle_alpha   90.00000000
_cell_angle_beta   90.00000000
_cell_angle_gamma   119.99999858
_symmetry_Int_Tables_number   1
_chemical_formula_structural   Tl2Si(S2O7)3
_chemical_formula_sum   'Tl4 Si2 S12 O42'
_cell_volume   970.16376607
_cell_formula_units_Z   2
loop_
 _symmetry_equiv_pos_site_id
 _symmetry_equiv_pos_as_xyz
  1  'x, y, z'
loop_
 _atom_site_type_symbol
 _atom_site_label
 _atom_site_symmetry_multiplicity
 _atom_site_fract_x
 _atom_site_fract_y
 _atom_site_fract_z
 _atom_site_occupancy
  Tl  Tl0  1  0.333333  0.666667  0.565321  1
  Tl  Tl1  1  0.666667  0.333333  0.434679  1
  Tl  Tl2  1  0.333333  0.666667  0.119910  1
  Tl  Tl3  1  0.666667  0.333333  0.880090  1
  Si  Si4  1  0.000000  0.000000  0.761930  1
  Si  Si5  1  0.000000  0.000000  0.238070  1
  S  S6  1  0.672205  0.758651  0.337235  1
  S  S7  1  0.086446  0.327795  0.337235  1
  S  S8  1  0.241349  0.913554  0.337235  1
  S  S9  1  0.327795  0.241349  0.662765  1
  S  S10  1  0.913554  0.672205  0.662765  1
  S  S11  1  0.758651  0.086446  0.662765  1
  S  S12  1  0.661851  0.860437  0.848086  1
  S  S13  1  0.198586  0.338149  0.848086  1
  S  S14  1  0.139563  0.801414  0.848086  1
  S  S15  1  0.338149  0.139563  0.151914  1
  S  S16  1  0.801414  0.661851  0.151914  1
  S  S17  1  0.860437  0.198586  0.151914  1
  O  O18  1  0.677630  0.023452  0.792318  1
  O  O19  1  0.345821  0.322370  0.792318  1
  O  O20  1  0.976548  0.654179  0.792318  1
  O  O21  1  0.322370  0.976548  0.207682  1
  O  O22  1  0.654179  0.677630  0.207682  1
  O  O23  1  0.023452  0.345821  0.207682  1
  O  O24  1  0.833417  0.905121  0.331649  1
  O  O25  1  0.071704  0.166583  0.331649  1
  O  O26  1  0.094879  0.928296  0.331649  1
  O  O27  1  0.166583  0.094879  0.668351  1
  O  O28  1  0.928296  0.833417  0.668351  1
  O  O29  1  0.905121  0.071704  0.668351  1
  O  O30  1  0.833520  0.902307  0.855517  1
  O  O31  1  0.068787  0.166480  0.855517  1
  O  O32  1  0.097693  0.931213  0.855517  1
  O  O33  1  0.166480  0.097693  0.144483  1
  O  O34  1  0.931213  0.833520  0.144483  1
  O  O35  1  0.902307  0.068787  0.144483  1
  O  O36  1  0.549105  0.796756  0.334317  1
  O  O37  1  0.247651  0.450895  0.334317  1
  O  O38  1  0.203244  0.752349  0.334317  1
  O  O39  1  0.450895  0.203244  0.665683  1
  O  O40  1  0.752349  0.549105  0.665683  1
  O  O41  1  0.796756  0.247651  0.665683  1
  O  O42  1  0.602495  0.857343  0.961541  1
  O  O43  1  0.254848  0.397505  0.961541  1
  O  O44  1  0.142657  0.745152  0.961541  1
  O  O45  1  0.397505  0.142657  0.038459  1
  O  O46  1  0.745152  0.602495  0.038459  1
  O  O47  1  0.857343  0.254848  0.038459  1
  O  O48  1  0.573442  0.733961  0.769231  1
  O  O49  1  0.160519  0.426558  0.769231  1
  O  O50  1  0.266039  0.839481  0.769231  1
  O  O51  1  0.426558  0.266039  0.230769  1
  O  O52  1  0.839481  0.573442  0.230769  1
  O  O53  1  0.733961  0.160519  0.230769  1
  O  O54  1  0.667724  0.652027  0.423570  1
  O  O55  1  0.984303  0.332276  0.423570  1
  O  O56  1  0.347973  0.015697  0.423570  1
  O  O57  1  0.332276  0.347973  0.576430  1
  O  O58  1  0.015697  0.667724  0.576430  1
  O  O59  1  0.652027  0.984303  0.576430  1
