# generated using pymatgen
data_Ca5VTcN7
_symmetry_space_group_name_H-M   'P 1'
_cell_length_a   6.04632716
_cell_length_b   8.86692517
_cell_length_c   8.81228800
_cell_angle_alpha   115.58320613
_cell_angle_beta   97.48721114
_cell_angle_gamma   88.85544337
_symmetry_Int_Tables_number   1
_chemical_formula_structural   Ca5VTcN7
_chemical_formula_sum   'Ca10 V2 Tc2 N14'
_cell_volume   422.14688404
_cell_formula_units_Z   2
loop_
 _symmetry_equiv_pos_site_id
 _symmetry_equiv_pos_as_xyz
  1  'x, y, z'
loop_
 _atom_site_type_symbol
 _atom_site_label
 _atom_site_symmetry_multiplicity
 _atom_site_fract_x
 _atom_site_fract_y
 _atom_site_fract_z
 _atom_site_occupancy
  Ca  Ca0  1  0.840108  0.595269  0.309608  1
  Ca  Ca1  1  0.259428  0.994727  0.567338  1
  Ca  Ca2  1  0.715522  0.423316  0.869544  1
  Ca  Ca3  1  0.284478  0.576684  0.130456  1
  Ca  Ca4  1  0.407669  0.799020  0.944300  1
  Ca  Ca5  1  0.592331  0.200980  0.055700  1
  Ca  Ca6  1  0.159892  0.404731  0.690392  1
  Ca  Ca7  1  0.909909  0.856833  0.777827  1
  Ca  Ca8  1  0.090091  0.143167  0.222173  1
  Ca  Ca9  1  0.740572  0.005273  0.432662  1
  V  V10  1  0.117547  0.213491  0.912330  1
  V  V11  1  0.882453  0.786509  0.087670  1
  Tc  Tc12  1  0.578986  0.353824  0.473860  1
  Tc  Tc13  1  0.421014  0.646176  0.526140  1
  N  N14  1  0.529652  0.551176  0.684477  1
  N  N15  1  0.470348  0.448824  0.315523  1
  N  N16  1  0.140981  0.704205  0.547549  1
  N  N17  1  0.859019  0.295795  0.452451  1
  N  N18  1  0.405553  0.184768  0.459313  1
  N  N19  1  0.594447  0.815232  0.540687  1
  N  N20  1  0.941933  0.134165  0.709344  1
  N  N21  1  0.058067  0.865835  0.290656  1
  N  N22  1  0.233645  0.044340  0.956876  1
  N  N23  1  0.766355  0.955660  0.043124  1
  N  N24  1  0.359665  0.321395  0.891630  1
  N  N25  1  0.960160  0.350917  0.083811  1
  N  N26  1  0.039840  0.649083  0.916189  1
  N  N27  1  0.640335  0.678605  0.108370  1
