# generated using pymatgen
data_Pr4Cu2(SiGe)3
_symmetry_space_group_name_H-M   'P 1'
_cell_length_a   8.37235906
_cell_length_b   8.28231877
_cell_length_c   5.97222134
_cell_angle_alpha   69.79488554
_cell_angle_beta   68.23563985
_cell_angle_gamma   42.02305019
_symmetry_Int_Tables_number   1
_chemical_formula_structural   Pr4Cu2(SiGe)3
_chemical_formula_sum   'Pr4 Cu2 Si3 Ge3'
_cell_volume   255.83436116
_cell_formula_units_Z   1
loop_
 _symmetry_equiv_pos_site_id
 _symmetry_equiv_pos_as_xyz
  1  'x, y, z'
loop_
 _atom_site_type_symbol
 _atom_site_label
 _atom_site_symmetry_multiplicity
 _atom_site_fract_x
 _atom_site_fract_y
 _atom_site_fract_z
 _atom_site_occupancy
  Pr  Pr0  1  0.243746  0.757688  0.241224  1
  Pr  Pr1  1  0.250917  0.248522  0.249764  1
  Pr  Pr2  1  0.750235  0.749203  0.749082  1
  Pr  Pr3  1  0.758776  0.242660  0.756254  1
  Cu  Cu4  1  0.656865  0.670762  0.343135  1
  Cu  Cu5  1  0.324535  0.338652  0.675465  1
  Si  Si6  1  0.337798  0.829649  0.662203  1
  Si  Si7  1  0.177737  0.658599  0.822264  1
  Si  Si8  1  0.176102  0.164522  0.823898  1
  Ge  Ge9  1  0.835552  0.823845  0.164448  1
  Ge  Ge10  1  0.833698  0.341492  0.166302  1
  Ge  Ge11  1  0.654034  0.174406  0.345967  1
