# generated using pymatgen
data_Ti3Te3As
_symmetry_space_group_name_H-M   'P 1'
_cell_length_a   10.47372900
_cell_length_b   10.47372892
_cell_length_c   3.69505800
_cell_angle_alpha   90.00000000
_cell_angle_beta   90.00000000
_cell_angle_gamma   120.00000343
_symmetry_Int_Tables_number   1
_chemical_formula_structural   Ti3Te3As
_chemical_formula_sum   'Ti6 Te6 As2'
_cell_volume   351.03832874
_cell_formula_units_Z   2
loop_
 _symmetry_equiv_pos_site_id
 _symmetry_equiv_pos_as_xyz
  1  'x, y, z'
loop_
 _atom_site_type_symbol
 _atom_site_label
 _atom_site_symmetry_multiplicity
 _atom_site_fract_x
 _atom_site_fract_y
 _atom_site_fract_z
 _atom_site_occupancy
  Ti  Ti0  1  0.639713  0.142742  0.750000  1
  Ti  Ti1  1  0.503028  0.360287  0.750000  1
  Ti  Ti2  1  0.360287  0.857258  0.250000  1
  Ti  Ti3  1  0.857258  0.496972  0.750000  1
  Ti  Ti4  1  0.496972  0.639713  0.250000  1
  Ti  Ti5  1  0.142742  0.503028  0.250000  1
  Te  Te6  1  0.703529  0.656360  0.750000  1
  Te  Te7  1  0.296471  0.343640  0.250000  1
  Te  Te8  1  0.656360  0.952832  0.250000  1
  Te  Te9  1  0.952832  0.296471  0.750000  1
  Te  Te10  1  0.047168  0.703529  0.250000  1
  Te  Te11  1  0.343640  0.047168  0.750000  1
  As  As12  1  0.333333  0.666667  0.750000  1
  As  As13  1  0.666667  0.333333  0.250000  1
