# generated using pymatgen
data_CeHo2(Co3As2)3
_symmetry_space_group_name_H-M   'P 1'
_cell_length_a   3.83042900
_cell_length_b   10.91075400
_cell_length_c   12.67436300
_cell_angle_alpha   90.00000000
_cell_angle_beta   90.00000000
_cell_angle_gamma   90.00000000
_symmetry_Int_Tables_number   1
_chemical_formula_structural   CeHo2(Co3As2)3
_chemical_formula_sum   'Ce2 Ho4 Co18 As12'
_cell_volume   529.69798660
_cell_formula_units_Z   2
loop_
 _symmetry_equiv_pos_site_id
 _symmetry_equiv_pos_as_xyz
  1  'x, y, z'
loop_
 _atom_site_type_symbol
 _atom_site_label
 _atom_site_symmetry_multiplicity
 _atom_site_fract_x
 _atom_site_fract_y
 _atom_site_fract_z
 _atom_site_occupancy
  Ce  Ce0  1  0.000000  0.500000  0.527312  1
  Ce  Ce1  1  0.500000  0.000000  0.472688  1
  Ho  Ho2  1  0.500000  0.815890  0.205368  1
  Ho  Ho3  1  0.500000  0.184110  0.205368  1
  Ho  Ho4  1  0.000000  0.684110  0.794632  1
  Ho  Ho5  1  0.000000  0.315890  0.794632  1
  Co  Co6  1  0.500000  0.500000  0.154564  1
  Co  Co7  1  0.000000  0.000000  0.845436  1
  Co  Co8  1  0.500000  0.500000  0.698990  1
  Co  Co9  1  0.000000  0.000000  0.301010  1
  Co  Co10  1  0.000000  0.500000  0.984030  1
  Co  Co11  1  0.500000  0.000000  0.015970  1
  Co  Co12  1  0.500000  0.333347  0.995614  1
  Co  Co13  1  0.500000  0.666653  0.995614  1
  Co  Co14  1  0.000000  0.166653  0.004386  1
  Co  Co15  1  0.000000  0.833347  0.004386  1
  Co  Co16  1  0.500000  0.300206  0.430303  1
  Co  Co17  1  0.500000  0.699794  0.430303  1
  Co  Co18  1  0.000000  0.199794  0.569697  1
  Co  Co19  1  0.000000  0.800206  0.569697  1
  Co  Co20  1  0.500000  0.880712  0.709707  1
  Co  Co21  1  0.500000  0.119288  0.709707  1
  Co  Co22  1  0.000000  0.619288  0.290293  1
  Co  Co23  1  0.000000  0.380712  0.290293  1
  As  As24  1  0.500000  0.500000  0.878865  1
  As  As25  1  0.000000  0.000000  0.121135  1
  As  As26  1  0.500000  0.500000  0.344456  1
  As  As27  1  0.000000  0.000000  0.655544  1
  As  As28  1  0.500000  0.308723  0.617073  1
  As  As29  1  0.500000  0.691277  0.617073  1
  As  As30  1  0.000000  0.191277  0.382927  1
  As  As31  1  0.000000  0.808723  0.382927  1
  As  As32  1  0.500000  0.847116  0.892048  1
  As  As33  1  0.500000  0.152884  0.892048  1
  As  As34  1  0.000000  0.652884  0.107952  1
  As  As35  1  0.000000  0.347116  0.107952  1
