# generated using pymatgen
data_Ho10Cd3Co
_symmetry_space_group_name_H-M   'P 1'
_cell_length_a   9.52473600
_cell_length_b   9.52505596
_cell_length_c   9.72187900
_cell_angle_alpha   90.00000000
_cell_angle_beta   90.00000000
_cell_angle_gamma   120.00110605
_symmetry_Int_Tables_number   1
_chemical_formula_structural   Ho10Cd3Co
_chemical_formula_sum   'Ho20 Cd6 Co2'
_cell_volume   763.82960265
_cell_formula_units_Z   2
loop_
 _symmetry_equiv_pos_site_id
 _symmetry_equiv_pos_as_xyz
  1  'x, y, z'
loop_
 _atom_site_type_symbol
 _atom_site_label
 _atom_site_symmetry_multiplicity
 _atom_site_fract_x
 _atom_site_fract_y
 _atom_site_fract_z
 _atom_site_occupancy
  Ho  Ho0  1  0.000000  0.000000  0.500000  1
  Ho  Ho1  1  0.000000  0.000000  0.000000  1
  Ho  Ho2  1  0.542694  0.457315  0.250000  1
  Ho  Ho3  1  0.542694  0.085379  0.250000  1
  Ho  Ho4  1  0.914618  0.457309  0.250000  1
  Ho  Ho5  1  0.457306  0.542685  0.750000  1
  Ho  Ho6  1  0.457306  0.914621  0.750000  1
  Ho  Ho7  1  0.085382  0.542691  0.750000  1
  Ho  Ho8  1  0.211696  0.788309  0.436237  1
  Ho  Ho9  1  0.211696  0.423388  0.436237  1
  Ho  Ho10  1  0.576611  0.788306  0.436240  1
  Ho  Ho11  1  0.788304  0.211691  0.563763  1
  Ho  Ho12  1  0.788304  0.576612  0.563763  1
  Ho  Ho13  1  0.423389  0.211694  0.563760  1
  Ho  Ho14  1  0.788304  0.211691  0.936237  1
  Ho  Ho15  1  0.788304  0.576612  0.936237  1
  Ho  Ho16  1  0.423389  0.211694  0.936240  1
  Ho  Ho17  1  0.211696  0.788309  0.063763  1
  Ho  Ho18  1  0.211696  0.423388  0.063763  1
  Ho  Ho19  1  0.576611  0.788306  0.063760  1
  Cd  Cd20  1  0.884836  0.115164  0.250000  1
  Cd  Cd21  1  0.884836  0.769672  0.250000  1
  Cd  Cd22  1  0.230332  0.115166  0.250000  1
  Cd  Cd23  1  0.115164  0.884836  0.750000  1
  Cd  Cd24  1  0.115164  0.230328  0.750000  1
  Cd  Cd25  1  0.769668  0.884834  0.750000  1
  Co  Co26  1  0.333334  0.666667  0.250000  1
  Co  Co27  1  0.666666  0.333333  0.750000  1
