# generated using pymatgen
data_Li2ErTh3(ZnPt2)2
_symmetry_space_group_name_H-M   'P 1'
_cell_length_a   4.02842000
_cell_length_b   7.28898322
_cell_length_c   8.53116771
_cell_angle_alpha   90.68547230
_cell_angle_beta   90.00000000
_cell_angle_gamma   90.00000000
_symmetry_Int_Tables_number   1
_chemical_formula_structural   Li2ErTh3(ZnPt2)2
_chemical_formula_sum   'Li2 Er1 Th3 Zn2 Pt4'
_cell_volume   250.48348204
_cell_formula_units_Z   1
loop_
 _symmetry_equiv_pos_site_id
 _symmetry_equiv_pos_as_xyz
  1  'x, y, z'
loop_
 _atom_site_type_symbol
 _atom_site_label
 _atom_site_symmetry_multiplicity
 _atom_site_fract_x
 _atom_site_fract_y
 _atom_site_fract_z
 _atom_site_occupancy
  Li  Li0  1  0.250000  0.612810  0.561887  1
  Li  Li1  1  0.250000  0.128469  0.939694  1
  Er  Er2  1  0.750000  0.447088  0.808248  1
  Th  Th3  1  0.250000  0.052982  0.310888  1
  Th  Th4  1  0.250000  0.550724  0.182860  1
  Th  Th5  1  0.750000  0.948082  0.695141  1
  Zn  Zn6  1  0.750000  0.382678  0.443104  1
  Zn  Zn7  1  0.750000  0.878419  0.059520  1
  Pt  Pt8  1  0.250000  0.235474  0.621999  1
  Pt  Pt9  1  0.250000  0.738701  0.876770  1
  Pt  Pt10  1  0.750000  0.763778  0.379875  1
  Pt  Pt11  1  0.750000  0.260794  0.120014  1
