# generated using pymatgen
data_Ca20Cd5Ag7
_symmetry_space_group_name_H-M   'P 1'
_cell_length_a   8.21103120
_cell_length_b   8.21117187
_cell_length_c   14.75497101
_cell_angle_alpha   89.99774307
_cell_angle_beta   90.00413046
_cell_angle_gamma   90.16083003
_symmetry_Int_Tables_number   1
_chemical_formula_structural   Ca20Cd5Ag7
_chemical_formula_sum   'Ca20 Cd5 Ag7'
_cell_volume   994.80851242
_cell_formula_units_Z   1
loop_
 _symmetry_equiv_pos_site_id
 _symmetry_equiv_pos_as_xyz
  1  'x, y, z'
loop_
 _atom_site_type_symbol
 _atom_site_label
 _atom_site_symmetry_multiplicity
 _atom_site_fract_x
 _atom_site_fract_y
 _atom_site_fract_z
 _atom_site_occupancy
  Ca  Ca0  1  0.667160  0.171178  0.104071  1
  Ca  Ca1  1  0.165372  0.665509  0.608775  1
  Ca  Ca2  1  0.328518  0.833154  0.104099  1
  Ca  Ca3  1  0.834223  0.334850  0.608762  1
  Ca  Ca4  1  0.838844  0.661437  0.103997  1
  Ca  Ca5  1  0.333050  0.167209  0.608251  1
  Ca  Ca6  1  0.167962  0.331714  0.106333  1
  Ca  Ca7  1  0.665366  0.834411  0.607081  1
  Ca  Ca8  1  0.834625  0.334769  0.891558  1
  Ca  Ca9  1  0.328657  0.832674  0.395593  1
  Ca  Ca10  1  0.165014  0.665639  0.891566  1
  Ca  Ca11  1  0.666995  0.171626  0.395556  1
  Ca  Ca12  1  0.665500  0.834729  0.893276  1
  Ca  Ca13  1  0.168564  0.331752  0.393282  1
  Ca  Ca14  1  0.332932  0.166841  0.892088  1
  Ca  Ca15  1  0.838511  0.661215  0.395692  1
  Ca  Ca16  1  0.499752  0.501030  0.750556  1
  Ca  Ca17  1  0.002751  0.000939  0.249920  1
  Ca  Ca18  1  0.998985  0.000253  0.750074  1
  Ca  Ca19  1  0.499056  0.497244  0.249362  1
  Cd  Cd20  1  0.499491  0.501080  0.501963  1
  Cd  Cd21  1  0.499475  0.501124  0.998141  1
  Cd  Cd22  1  0.998903  0.000546  0.501894  1
  Cd  Cd23  1  0.626634  0.873349  0.249772  1
  Cd  Cd24  1  0.998903  0.000497  0.998055  1
  Ag  Ag25  1  0.625096  0.126216  0.750292  1
  Ag  Ag26  1  0.126144  0.624661  0.249765  1
  Ag  Ag27  1  0.875333  0.373856  0.249728  1
  Ag  Ag28  1  0.373781  0.874904  0.750288  1
  Ag  Ag29  1  0.873133  0.626870  0.750252  1
  Ag  Ag30  1  0.375309  0.124682  0.249693  1
  Ag  Ag31  1  0.125962  0.374042  0.750269  1
