# generated using pymatgen
data_Sr5Fe3(P3Rh4)4
_symmetry_space_group_name_H-M   'P 1'
_cell_length_a   12.74355400
_cell_length_b   12.74355493
_cell_length_c   4.02616200
_cell_angle_alpha   90.00000000
_cell_angle_beta   90.00000000
_cell_angle_gamma   120.00000277
_symmetry_Int_Tables_number   1
_chemical_formula_structural   Sr5Fe3(P3Rh4)4
_chemical_formula_sum   'Sr5 Fe3 P12 Rh16'
_cell_volume   566.24323196
_cell_formula_units_Z   1
loop_
 _symmetry_equiv_pos_site_id
 _symmetry_equiv_pos_as_xyz
  1  'x, y, z'
loop_
 _atom_site_type_symbol
 _atom_site_label
 _atom_site_symmetry_multiplicity
 _atom_site_fract_x
 _atom_site_fract_y
 _atom_site_fract_z
 _atom_site_occupancy
  Sr  Sr0  1  0.181571  0.181571  0.500000  1
  Sr  Sr1  1  0.818429  0.000000  0.500000  1
  Sr  Sr2  1  0.000000  0.818429  0.500000  1
  Sr  Sr3  1  0.333333  0.666667  0.000000  1
  Sr  Sr4  1  0.666667  0.333333  0.000000  1
  Fe  Fe5  1  0.710728  0.710728  0.500000  1
  Fe  Fe6  1  0.289272  0.000000  0.500000  1
  Fe  Fe7  1  0.000000  0.289272  0.500000  1
  P  P8  1  0.810229  0.810229  0.000000  1
  P  P9  1  0.189771  0.000000  0.000000  1
  P  P10  1  0.000000  0.189771  0.000000  1
  P  P11  1  0.160105  0.473022  0.500000  1
  P  P12  1  0.526978  0.687083  0.500000  1
  P  P13  1  0.312917  0.839895  0.500000  1
  P  P14  1  0.687083  0.526978  0.500000  1
  P  P15  1  0.839895  0.312917  0.500000  1
  P  P16  1  0.473022  0.160105  0.500000  1
  P  P17  1  0.369906  0.369906  0.000000  1
  P  P18  1  0.630094  0.000000  0.000000  1
  P  P19  1  0.000000  0.630094  0.000000  1
  Rh  Rh20  1  0.549127  0.549127  0.000000  1
  Rh  Rh21  1  0.450873  0.000000  0.000000  1
  Rh  Rh22  1  0.000000  0.450873  0.000000  1
  Rh  Rh23  1  0.179979  0.377976  0.000000  1
  Rh  Rh24  1  0.622024  0.802003  0.000000  1
  Rh  Rh25  1  0.197997  0.820021  0.000000  1
  Rh  Rh26  1  0.802003  0.622024  0.000000  1
  Rh  Rh27  1  0.820021  0.197997  0.000000  1
  Rh  Rh28  1  0.377976  0.179979  0.000000  1
  Rh  Rh29  1  0.359923  0.486307  0.500000  1
  Rh  Rh30  1  0.513693  0.873617  0.500000  1
  Rh  Rh31  1  0.126383  0.640077  0.500000  1
  Rh  Rh32  1  0.873617  0.513693  0.500000  1
  Rh  Rh33  1  0.640077  0.126383  0.500000  1
  Rh  Rh34  1  0.486307  0.359923  0.500000  1
  Rh  Rh35  1  0.000000  0.000000  0.000000  1
