# generated using pymatgen
data_Tb3Cu4(SnGe)2
_symmetry_space_group_name_H-M   'P 1'
_cell_length_a   8.25607522
_cell_length_b   8.25607472
_cell_length_c   8.25607496
_cell_angle_alpha   149.23109991
_cell_angle_beta   132.11889693
_cell_angle_gamma   58.00068951
_symmetry_Int_Tables_number   1
_chemical_formula_structural   Tb3Cu4(SnGe)2
_chemical_formula_sum   'Tb3 Cu4 Sn2 Ge2'
_cell_volume   211.94669592
_cell_formula_units_Z   1
loop_
 _symmetry_equiv_pos_site_id
 _symmetry_equiv_pos_as_xyz
  1  'x, y, z'
loop_
 _atom_site_type_symbol
 _atom_site_label
 _atom_site_symmetry_multiplicity
 _atom_site_fract_x
 _atom_site_fract_y
 _atom_site_fract_z
 _atom_site_occupancy
  Tb  Tb0  1  0.374760  0.874760  0.500000  1
  Tb  Tb1  1  0.000000  0.000000  0.000000  1
  Tb  Tb2  1  0.625240  0.125240  0.500000  1
  Cu  Cu3  1  0.971018  0.660237  0.310781  1
  Cu  Cu4  1  0.650544  0.339763  0.310781  1
  Cu  Cu5  1  0.349456  0.660237  0.689219  1
  Cu  Cu6  1  0.028982  0.339763  0.689219  1
  Sn  Sn7  1  0.782505  0.782505  0.000000  1
  Sn  Sn8  1  0.217495  0.217495  0.000000  1
  Ge  Ge9  1  0.690353  0.500000  0.190353  1
  Ge  Ge10  1  0.309647  0.500000  0.809647  1
