# generated using pymatgen
data_HoErLu3Co19P12
_symmetry_space_group_name_H-M   'P 1'
_cell_length_a   11.94345500
_cell_length_b   11.94345487
_cell_length_c   3.64877600
_cell_angle_alpha   90.00000000
_cell_angle_beta   90.00000000
_cell_angle_gamma   120.00000313
_symmetry_Int_Tables_number   1
_chemical_formula_structural   HoErLu3Co19P12
_chemical_formula_sum   'Ho1 Er1 Lu3 Co19 P12'
_cell_volume   450.75211282
_cell_formula_units_Z   1
loop_
 _symmetry_equiv_pos_site_id
 _symmetry_equiv_pos_as_xyz
  1  'x, y, z'
loop_
 _atom_site_type_symbol
 _atom_site_label
 _atom_site_symmetry_multiplicity
 _atom_site_fract_x
 _atom_site_fract_y
 _atom_site_fract_z
 _atom_site_occupancy
  Ho  Ho0  1  0.333333  0.666667  0.500000  1
  Er  Er1  1  0.666667  0.333333  0.500000  1
  Lu  Lu2  1  0.186197  0.999972  0.000000  1
  Lu  Lu3  1  0.000028  0.186226  0.000000  1
  Lu  Lu4  1  0.813774  0.813803  0.000000  1
  Co  Co5  1  0.198212  0.375788  0.500000  1
  Co  Co6  1  0.624212  0.822424  0.500000  1
  Co  Co7  1  0.177576  0.801788  0.500000  1
  Co  Co8  1  0.822164  0.623788  0.500000  1
  Co  Co9  1  0.801622  0.177836  0.500000  1
  Co  Co10  1  0.376212  0.198378  0.500000  1
  Co  Co11  1  0.551736  0.999971  0.500000  1
  Co  Co12  1  0.000029  0.551765  0.500000  1
  Co  Co13  1  0.448235  0.448264  0.500000  1
  Co  Co14  1  0.125204  0.482714  0.000000  1
  Co  Co15  1  0.517286  0.642490  0.000000  1
  Co  Co16  1  0.357510  0.874796  0.000000  1
  Co  Co17  1  0.642461  0.516883  0.000000  1
  Co  Co18  1  0.874423  0.357539  0.000000  1
  Co  Co19  1  0.483117  0.125577  0.000000  1
  Co  Co20  1  0.716300  0.000473  0.000000  1
  Co  Co21  1  0.999527  0.715827  0.000000  1
  Co  Co22  1  0.284173  0.283700  0.000000  1
  Co  Co23  1  0.000000  0.000000  0.500000  1
  P  P24  1  0.366094  0.999982  0.500000  1
  P  P25  1  0.000018  0.366112  0.500000  1
  P  P26  1  0.633888  0.633906  0.500000  1
  P  P27  1  0.315181  0.480015  0.000000  1
  P  P28  1  0.519985  0.835166  0.000000  1
  P  P29  1  0.164834  0.684819  0.000000  1
  P  P30  1  0.834694  0.519689  0.000000  1
  P  P31  1  0.684994  0.165306  0.000000  1
  P  P32  1  0.480311  0.315006  0.000000  1
  P  P33  1  0.821133  0.000206  0.500000  1
  P  P34  1  0.999794  0.820926  0.500000  1
  P  P35  1  0.179074  0.178867  0.500000  1
