# generated using pymatgen
data_Li11LaPr12(WO6)8
_symmetry_space_group_name_H-M   'P 1'
_cell_length_a   11.07848485
_cell_length_b   11.10996837
_cell_length_c   11.10994751
_cell_angle_alpha   108.86676283
_cell_angle_beta   109.83844548
_cell_angle_gamma   109.82734647
_symmetry_Int_Tables_number   1
_chemical_formula_structural   Li11LaPr12(WO6)8
_chemical_formula_sum   'Li11 La1 Pr12 W8 O48'
_cell_volume   1051.02645831
_cell_formula_units_Z   1
loop_
 _symmetry_equiv_pos_site_id
 _symmetry_equiv_pos_as_xyz
  1  'x, y, z'
loop_
 _atom_site_type_symbol
 _atom_site_label
 _atom_site_symmetry_multiplicity
 _atom_site_fract_x
 _atom_site_fract_y
 _atom_site_fract_z
 _atom_site_occupancy
  Li  Li0  1  0.376338  0.251462  0.127815  1
  Li  Li1  1  0.123827  0.374698  0.253080  1
  Li  Li2  1  0.624819  0.873428  0.252154  1
  Li  Li3  1  0.123658  0.751470  0.375125  1
  Li  Li4  1  0.750005  0.625411  0.375412  1
  Li  Li5  1  0.249998  0.374974  0.624972  1
  Li  Li6  1  0.876010  0.246707  0.622833  1
  Li  Li7  1  0.376164  0.129251  0.750876  1
  Li  Li8  1  0.875175  0.627331  0.748602  1
  Li  Li9  1  0.623999  0.746831  0.870705  1
  Li  Li10  1  0.749996  0.120803  0.870800  1
  La  La11  1  0.249997  0.875458  0.125458  1
  Pr  Pr12  1  0.750003  0.377790  0.127789  1
  Pr  Pr13  1  0.869764  0.754408  0.131272  1
  Pr  Pr14  1  0.382636  0.622567  0.252238  1
  Pr  Pr15  1  0.876036  0.126195  0.252430  1
  Pr  Pr16  1  0.250002  0.142893  0.392891  1
  Pr  Pr17  1  0.630235  0.261507  0.384644  1
  Pr  Pr18  1  0.750001  0.874817  0.624816  1
  Pr  Pr19  1  0.378639  0.754394  0.621177  1
  Pr  Pr20  1  0.117364  0.869606  0.739934  1
  Pr  Pr21  1  0.623962  0.376393  0.750156  1
  Pr  Pr22  1  0.250005  0.607637  0.857635  1
  Pr  Pr23  1  0.121361  0.242539  0.875754  1
  W  W24  1  0.992481  0.003917  0.000445  1
  W  W25  1  0.506845  0.001333  0.991930  1
  W  W26  1  0.500520  0.497974  0.999819  1
  W  W27  1  0.993167  0.485073  0.994485  1
  W  W28  1  0.998730  0.000085  0.502134  1
  W  W29  1  0.507518  0.007966  0.511439  1
  W  W30  1  0.999480  0.499298  0.497456  1
  W  W31  1  0.501263  0.503408  0.501362  1
  O  O32  1  0.820892  0.905913  0.018168  1
  O  O33  1  0.698692  0.118340  0.023724  1
  O  O34  1  0.203798  0.647500  0.069456  1
  O  O35  1  0.384428  0.406636  0.077444  1
  O  O36  1  0.479965  0.668002  0.086536  1
  O  O37  1  0.109016  0.414729  0.093429  1
  O  O38  1  0.520425  0.186641  0.113337  1
  O  O39  1  0.080202  0.928303  0.140360  1
  O  O40  1  0.979576  0.592915  0.166214  1
  O  O41  1  0.693814  0.577950  0.172897  1
  O  O42  1  0.072500  0.175574  0.204033  1
  O  O43  1  0.598721  0.008045  0.180240  1
  O  O44  1  0.829406  0.922643  0.305915  1
  O  O45  1  0.973661  0.387112  0.304906  1
  O  O46  1  0.419794  0.060154  0.348097  1
  O  O47  1  0.419963  0.313225  0.331850  1
  O  O48  1  0.080038  0.911885  0.393263  1
  O  O49  1  0.806188  0.479085  0.384136  1
  O  O50  1  0.331234  0.528106  0.409140  1
  O  O51  1  0.575449  0.875891  0.405333  1
  O  O52  1  0.594978  0.612703  0.421959  1
  O  O53  1  0.324965  0.817213  0.415265  1
  O  O54  1  0.090262  0.174862  0.484352  1
  O  O55  1  0.883209  0.305254  0.473884  1
  O  O56  1  0.115573  0.693017  0.522211  1
  O  O57  1  0.905022  0.826981  0.517725  1
  O  O58  1  0.409738  0.394093  0.584603  1
  O  O59  1  0.679102  0.197276  0.585021  1
  O  O60  1  0.670597  0.476512  0.593239  1
  O  O61  1  0.427500  0.131536  0.603076  1
  O  O62  1  0.192079  0.517501  0.608456  1
  O  O63  1  0.919918  0.089890  0.613025  1
  O  O64  1  0.580083  0.693108  0.669973  1
  O  O65  1  0.591653  0.966287  0.674119  1
  O  O66  1  0.168770  0.077910  0.696874  1
  O  O67  1  0.020041  0.606572  0.688038  1
  O  O68  1  0.390984  0.984415  0.805712  1
  O  O69  1  0.924543  0.829877  0.800436  1
  O  O70  1  0.307922  0.416378  0.825423  1
  O  O71  1  0.019333  0.397138  0.827648  1
  O  O72  1  0.480663  0.808317  0.877804  1
  O  O73  1  0.908353  0.082463  0.874633  1
  O  O74  1  0.526339  0.331244  0.913450  1
  O  O75  1  0.901280  0.581519  0.909322  1
  O  O76  1  0.616790  0.590675  0.922045  1
  O  O77  1  0.801307  0.325033  0.919647  1
  O  O78  1  0.296203  0.865661  0.943704  1
  O  O79  1  0.175032  0.090295  0.992243  1
