# generated using pymatgen
data_LaBeRe2C
_symmetry_space_group_name_H-M   'P 1'
_cell_length_a   5.63029904
_cell_length_b   5.63029780
_cell_length_c   7.42946700
_cell_angle_alpha   90.00000000
_cell_angle_beta   90.00000000
_cell_angle_gamma   138.12733023
_symmetry_Int_Tables_number   1
_chemical_formula_structural   LaBeRe2C
_chemical_formula_sum   'La2 Be2 Re4 C2'
_cell_volume   157.20164221
_cell_formula_units_Z   2
loop_
 _symmetry_equiv_pos_site_id
 _symmetry_equiv_pos_as_xyz
  1  'x, y, z'
loop_
 _atom_site_type_symbol
 _atom_site_label
 _atom_site_symmetry_multiplicity
 _atom_site_fract_x
 _atom_site_fract_y
 _atom_site_fract_z
 _atom_site_occupancy
  La  La0  1  0.531312  0.468688  0.250000  1
  La  La1  1  0.468688  0.531312  0.750000  1
  Be  Be2  1  0.255359  0.744641  0.250000  1
  Be  Be3  1  0.744641  0.255359  0.750000  1
  Re  Re4  1  0.816160  0.183840  0.062845  1
  Re  Re5  1  0.183840  0.816160  0.937155  1
  Re  Re6  1  0.183840  0.816160  0.562845  1
  Re  Re7  1  0.816160  0.183840  0.437155  1
  C  C8  1  0.000000  0.000000  0.000000  1
  C  C9  1  0.000000  0.000000  0.500000  1
