# generated using pymatgen
data_MnCo3S8
_symmetry_space_group_name_H-M   'P 1'
_cell_length_a   5.47458454
_cell_length_b   5.47458454
_cell_length_c   5.47458454
_cell_angle_alpha   89.87481409
_cell_angle_beta   90.12518591
_cell_angle_gamma   89.87481409
_symmetry_Int_Tables_number   1
_chemical_formula_structural   MnCo3S8
_chemical_formula_sum   'Mn1 Co3 S8'
_cell_volume   164.07801212
_cell_formula_units_Z   1
loop_
 _symmetry_equiv_pos_site_id
 _symmetry_equiv_pos_as_xyz
  1  'x, y, z'
loop_
 _atom_site_type_symbol
 _atom_site_label
 _atom_site_symmetry_multiplicity
 _atom_site_fract_x
 _atom_site_fract_y
 _atom_site_fract_z
 _atom_site_occupancy
  Mn  Mn0  1  0.000000  0.500000  0.500000  1
  Co  Co1  1  0.500000  0.500000  0.000000  1
  Co  Co2  1  0.500000  0.000000  0.500000  1
  Co  Co3  1  0.000000  0.000000  0.000000  1
  S  S4  1  0.386732  0.113268  0.886732  1
  S  S5  1  0.111973  0.878868  0.387029  1
  S  S6  1  0.887029  0.388027  0.121132  1
  S  S7  1  0.621132  0.612971  0.611973  1
  S  S8  1  0.378868  0.387029  0.388027  1
  S  S9  1  0.112971  0.611973  0.878868  1
  S  S10  1  0.888027  0.121132  0.612971  1
  S  S11  1  0.613268  0.886732  0.113268  1
