# generated using pymatgen
data_K2TeBrF5
_symmetry_space_group_name_H-M   'P 1'
_cell_length_a   10.90926300
_cell_length_b   4.84644232
_cell_length_c   15.80110189
_cell_angle_alpha   74.36639894
_cell_angle_beta   90.00000000
_cell_angle_gamma   90.00000000
_symmetry_Int_Tables_number   1
_chemical_formula_structural   K2TeBrF5
_chemical_formula_sum   'K8 Te4 Br4 F20'
_cell_volume   804.51516982
_cell_formula_units_Z   4
loop_
 _symmetry_equiv_pos_site_id
 _symmetry_equiv_pos_as_xyz
  1  'x, y, z'
loop_
 _atom_site_type_symbol
 _atom_site_label
 _atom_site_symmetry_multiplicity
 _atom_site_fract_x
 _atom_site_fract_y
 _atom_site_fract_z
 _atom_site_occupancy
  K  K0  1  0.085738  0.653213  0.110479  1
  K  K1  1  0.348954  0.311641  0.920397  1
  K  K2  1  0.151046  0.311641  0.420397  1
  K  K3  1  0.585738  0.346787  0.389521  1
  K  K4  1  0.414262  0.653213  0.610479  1
  K  K5  1  0.651046  0.688359  0.079603  1
  K  K6  1  0.914262  0.346787  0.889521  1
  K  K7  1  0.848954  0.688359  0.579603  1
  Te  Te8  1  0.630032  0.814857  0.818679  1
  Te  Te9  1  0.869968  0.814857  0.318679  1
  Te  Te10  1  0.130032  0.185143  0.681321  1
  Te  Te11  1  0.369968  0.185143  0.181321  1
  Br  Br12  1  0.129136  0.827704  0.898084  1
  Br  Br13  1  0.370864  0.827704  0.398084  1
  Br  Br14  1  0.870864  0.172296  0.101916  1
  Br  Br15  1  0.629136  0.172296  0.601916  1
  F  F16  1  0.245507  0.377152  0.239278  1
  F  F17  1  0.730871  0.876246  0.398184  1
  F  F18  1  0.005031  0.132953  0.590499  1
  F  F19  1  0.269129  0.123754  0.601816  1
  F  F20  1  0.505092  0.388018  0.226354  1
  F  F21  1  0.637394  0.442509  0.903520  1
  F  F22  1  0.254493  0.377152  0.739278  1
  F  F23  1  0.505031  0.867047  0.909501  1
  F  F24  1  0.137394  0.557491  0.596480  1
  F  F25  1  0.769129  0.876246  0.898184  1
  F  F26  1  0.994908  0.388018  0.726354  1
  F  F27  1  0.754493  0.622848  0.760722  1
  F  F28  1  0.862606  0.442509  0.403520  1
  F  F29  1  0.362606  0.557491  0.096480  1
  F  F30  1  0.494969  0.132953  0.090499  1
  F  F31  1  0.230871  0.123754  0.101816  1
  F  F32  1  0.005092  0.611982  0.273646  1
  F  F33  1  0.494908  0.611982  0.773646  1
  F  F34  1  0.745507  0.622848  0.260722  1
  F  F35  1  0.994969  0.867047  0.409501  1
