# generated using pymatgen
data_Sc7Co6Sn23
_symmetry_space_group_name_H-M   'P 1'
_cell_length_a   9.53618700
_cell_length_b   9.53618621
_cell_length_c   9.79258200
_cell_angle_alpha   90.00000000
_cell_angle_beta   90.00000000
_cell_angle_gamma   120.00000620
_symmetry_Int_Tables_number   1
_chemical_formula_structural   Sc7Co6Sn23
_chemical_formula_sum   'Sc7 Co6 Sn23'
_cell_volume   771.21825903
_cell_formula_units_Z   1
loop_
 _symmetry_equiv_pos_site_id
 _symmetry_equiv_pos_as_xyz
  1  'x, y, z'
loop_
 _atom_site_type_symbol
 _atom_site_label
 _atom_site_symmetry_multiplicity
 _atom_site_fract_x
 _atom_site_fract_y
 _atom_site_fract_z
 _atom_site_occupancy
  Sc  Sc0  1  0.481462  0.518538  0.307556  1
  Sc  Sc1  1  0.518538  0.481462  0.692444  1
  Sc  Sc2  1  0.481462  0.962925  0.307556  1
  Sc  Sc3  1  0.518538  0.037075  0.692444  1
  Sc  Sc4  1  0.037075  0.518538  0.307556  1
  Sc  Sc5  1  0.962925  0.481462  0.692444  1
  Sc  Sc6  1  0.000000  0.000000  0.000000  1
  Co  Co7  1  0.831007  0.168993  0.198808  1
  Co  Co8  1  0.168993  0.831007  0.801192  1
  Co  Co9  1  0.831007  0.662015  0.198808  1
  Co  Co10  1  0.168993  0.337985  0.801192  1
  Co  Co11  1  0.337985  0.168993  0.198808  1
  Co  Co12  1  0.662015  0.831007  0.801192  1
  Sn  Sn13  1  0.121006  0.878994  0.274735  1
  Sn  Sn14  1  0.878994  0.121006  0.725265  1
  Sn  Sn15  1  0.121006  0.242012  0.274735  1
  Sn  Sn16  1  0.878994  0.757988  0.725265  1
  Sn  Sn17  1  0.757988  0.878994  0.274735  1
  Sn  Sn18  1  0.242012  0.121006  0.725265  1
  Sn  Sn19  1  0.779657  0.220343  0.454085  1
  Sn  Sn20  1  0.220343  0.779657  0.545915  1
  Sn  Sn21  1  0.779657  0.559314  0.454085  1
  Sn  Sn22  1  0.220343  0.440686  0.545915  1
  Sn  Sn23  1  0.440686  0.220343  0.454085  1
  Sn  Sn24  1  0.559314  0.779657  0.545915  1
  Sn  Sn25  1  0.345592  0.000000  0.000000  1
  Sn  Sn26  1  0.654408  0.000000  0.000000  1
  Sn  Sn27  1  0.000000  0.345592  0.000000  1
  Sn  Sn28  1  0.000000  0.654408  0.000000  1
  Sn  Sn29  1  0.654408  0.654408  0.000000  1
  Sn  Sn30  1  0.345592  0.345592  0.000000  1
  Sn  Sn31  1  0.333333  0.666667  0.134112  1
  Sn  Sn32  1  0.666667  0.333333  0.865888  1
  Sn  Sn33  1  0.333333  0.666667  0.820741  1
  Sn  Sn34  1  0.666667  0.333333  0.179259  1
  Sn  Sn35  1  0.000000  0.000000  0.500000  1
