# generated using pymatgen
data_NdHo2Er2(MnB3)2
_symmetry_space_group_name_H-M   'P 1'
_cell_length_a   5.41125060
_cell_length_b   5.41125116
_cell_length_c   8.29313261
_cell_angle_alpha   70.95875254
_cell_angle_beta   70.95874865
_cell_angle_gamma   60.00000976
_symmetry_Int_Tables_number   1
_chemical_formula_structural   NdHo2Er2(MnB3)2
_chemical_formula_sum   'Nd1 Ho2 Er2 Mn2 B6'
_cell_volume   194.80903438
_cell_formula_units_Z   1
loop_
 _symmetry_equiv_pos_site_id
 _symmetry_equiv_pos_as_xyz
  1  'x, y, z'
loop_
 _atom_site_type_symbol
 _atom_site_label
 _atom_site_symmetry_multiplicity
 _atom_site_fract_x
 _atom_site_fract_y
 _atom_site_fract_z
 _atom_site_occupancy
  Nd  Nd0  1  0.000000  0.000000  0.000000  1
  Ho  Ho1  1  0.249707  0.249707  0.250877  1
  Ho  Ho2  1  0.750293  0.750293  0.749123  1
  Er  Er3  1  0.418031  0.418031  0.745907  1
  Er  Er4  1  0.581969  0.581969  0.254093  1
  Mn  Mn5  1  0.114670  0.114670  0.655991  1
  Mn  Mn6  1  0.885330  0.885330  0.344009  1
  B  B7  1  0.166587  0.833413  0.500000  1
  B  B8  1  0.833413  0.500000  0.500000  1
  B  B9  1  0.500000  0.166587  0.500000  1
  B  B10  1  0.166587  0.500000  0.500000  1
  B  B11  1  0.500000  0.833413  0.500000  1
  B  B12  1  0.833413  0.166587  0.500000  1
