# generated using pymatgen
data_Ho2Pa2Zn4IrRh3
_symmetry_space_group_name_H-M   'P 1'
_cell_length_a   3.83277300
_cell_length_b   7.13901240
_cell_length_c   8.39427317
_cell_angle_alpha   91.31070038
_cell_angle_beta   90.00000000
_cell_angle_gamma   90.00000000
_symmetry_Int_Tables_number   1
_chemical_formula_structural   Ho2Pa2Zn4IrRh3
_chemical_formula_sum   'Ho2 Pa2 Zn4 Ir1 Rh3'
_cell_volume   229.62580247
_cell_formula_units_Z   1
loop_
 _symmetry_equiv_pos_site_id
 _symmetry_equiv_pos_as_xyz
  1  'x, y, z'
loop_
 _atom_site_type_symbol
 _atom_site_label
 _atom_site_symmetry_multiplicity
 _atom_site_fract_x
 _atom_site_fract_y
 _atom_site_fract_z
 _atom_site_occupancy
  Ho  Ho0  1  0.250000  0.054345  0.315009  1
  Ho  Ho1  1  0.750000  0.943756  0.684560  1
  Pa  Pa2  1  0.250000  0.552048  0.191096  1
  Pa  Pa3  1  0.750000  0.447659  0.810935  1
  Zn  Zn4  1  0.250000  0.116033  0.939040  1
  Zn  Zn5  1  0.750000  0.882974  0.060239  1
  Zn  Zn6  1  0.250000  0.632968  0.559395  1
  Zn  Zn7  1  0.750000  0.366703  0.440759  1
  Ir  Ir8  1  0.750000  0.750056  0.359011  1
  Rh  Rh9  1  0.250000  0.254442  0.642804  1
  Rh  Rh10  1  0.750000  0.282145  0.119100  1
  Rh  Rh11  1  0.250000  0.716870  0.878054  1
