# generated using pymatgen
data_Hf18CrFeCuRe7
_symmetry_space_group_name_H-M   'P 1'
_cell_length_a   8.49629800
_cell_length_b   8.58790230
_cell_length_c   8.58790500
_cell_angle_alpha   119.99971382
_cell_angle_beta   90.00002023
_cell_angle_gamma   89.99970967
_symmetry_Int_Tables_number   1
_chemical_formula_structural   Hf18CrFeCuRe7
_chemical_formula_sum   'Hf18 Cr1 Fe1 Cu1 Re7'
_cell_volume   542.67016680
_cell_formula_units_Z   1
loop_
 _symmetry_equiv_pos_site_id
 _symmetry_equiv_pos_as_xyz
  1  'x, y, z'
loop_
 _atom_site_type_symbol
 _atom_site_label
 _atom_site_symmetry_multiplicity
 _atom_site_fract_x
 _atom_site_fract_y
 _atom_site_fract_z
 _atom_site_occupancy
  Hf  Hf0  1  0.554164  0.806325  0.612617  1
  Hf  Hf1  1  0.554283  0.806357  0.193713  1
  Hf  Hf2  1  0.554220  0.387433  0.193750  1
  Hf  Hf3  1  0.441627  0.199725  0.399459  1
  Hf  Hf4  1  0.441631  0.199812  0.800296  1
  Hf  Hf5  1  0.441614  0.600522  0.800313  1
  Hf  Hf6  1  0.059334  0.200723  0.401460  1
  Hf  Hf7  1  0.059326  0.200753  0.799281  1
  Hf  Hf8  1  0.059314  0.598515  0.799285  1
  Hf  Hf9  1  0.945303  0.805587  0.611161  1
  Hf  Hf10  1  0.945323  0.805558  0.194492  1
  Hf  Hf11  1  0.945322  0.388871  0.194469  1
  Hf  Hf12  1  0.749897  0.458504  0.916997  1
  Hf  Hf13  1  0.749819  0.458515  0.541534  1
  Hf  Hf14  1  0.749879  0.083041  0.541523  1
  Hf  Hf15  1  0.250480  0.541143  0.082260  1
  Hf  Hf16  1  0.250462  0.541093  0.458866  1
  Hf  Hf17  1  0.250510  0.917796  0.458866  1
  Cr  Cr18  1  0.500611  0.999973  0.000009  1
  Fe  Fe19  1  0.250176  0.333293  0.666521  1
  Cu  Cu20  1  0.750071  0.666691  0.333627  1
  Re  Re21  1  0.745468  0.109850  0.219635  1
  Re  Re22  1  0.745449  0.109813  0.890108  1
  Re  Re23  1  0.745469  0.780311  0.890093  1
  Re  Re24  1  0.253723  0.891005  0.782013  1
  Re  Re25  1  0.253787  0.890988  0.108844  1
  Re  Re26  1  0.253758  0.217801  0.108799  1
  Re  Re27  1  0.998978  0.000003  0.000002  1
