# generated using pymatgen
data_Zr10GaNiPb6
_symmetry_space_group_name_H-M   'P 1'
_cell_length_a   8.81709800
_cell_length_b   8.81709899
_cell_length_c   5.96134600
_cell_angle_alpha   90.00000000
_cell_angle_beta   90.00000000
_cell_angle_gamma   119.99999628
_symmetry_Int_Tables_number   1
_chemical_formula_structural   Zr10GaNiPb6
_chemical_formula_sum   'Zr10 Ga1 Ni1 Pb6'
_cell_volume   401.35285980
_cell_formula_units_Z   1
loop_
 _symmetry_equiv_pos_site_id
 _symmetry_equiv_pos_as_xyz
  1  'x, y, z'
loop_
 _atom_site_type_symbol
 _atom_site_label
 _atom_site_symmetry_multiplicity
 _atom_site_fract_x
 _atom_site_fract_y
 _atom_site_fract_z
 _atom_site_occupancy
  Zr  Zr0  1  0.666667  0.333333  0.000000  1
  Zr  Zr1  1  0.333333  0.666667  0.000000  1
  Zr  Zr2  1  0.333333  0.666667  0.500000  1
  Zr  Zr3  1  0.666667  0.333333  0.500000  1
  Zr  Zr4  1  0.745522  0.745522  0.759576  1
  Zr  Zr5  1  0.254478  0.000000  0.759576  1
  Zr  Zr6  1  0.000000  0.254478  0.759576  1
  Zr  Zr7  1  0.254478  0.254478  0.240424  1
  Zr  Zr8  1  0.745522  0.000000  0.240424  1
  Zr  Zr9  1  0.000000  0.745522  0.240424  1
  Ga  Ga10  1  0.000000  0.000000  0.500000  1
  Ni  Ni11  1  0.000000  0.000000  0.000000  1
  Pb  Pb12  1  0.389199  0.389199  0.746915  1
  Pb  Pb13  1  0.610801  0.000000  0.746915  1
  Pb  Pb14  1  0.000000  0.610801  0.746915  1
  Pb  Pb15  1  0.610801  0.610801  0.253085  1
  Pb  Pb16  1  0.389199  0.000000  0.253085  1
  Pb  Pb17  1  0.000000  0.389199  0.253085  1
