# generated using pymatgen
data_Yb2HoAl8(SiOs)4
_symmetry_space_group_name_H-M   'P 1'
_cell_length_a   8.67666893
_cell_length_b   8.67666921
_cell_length_c   9.51099600
_cell_angle_alpha   90.00000000
_cell_angle_beta   90.00000000
_cell_angle_gamma   120.27697920
_symmetry_Int_Tables_number   1
_chemical_formula_structural   Yb2HoAl8(SiOs)4
_chemical_formula_sum   'Yb4 Ho2 Al16 Si8 Os8'
_cell_volume   618.36342214
_cell_formula_units_Z   2
loop_
 _symmetry_equiv_pos_site_id
 _symmetry_equiv_pos_as_xyz
  1  'x, y, z'
loop_
 _atom_site_type_symbol
 _atom_site_label
 _atom_site_symmetry_multiplicity
 _atom_site_fract_x
 _atom_site_fract_y
 _atom_site_fract_z
 _atom_site_occupancy
  Yb  Yb0  1  0.193212  0.389016  0.250000  1
  Yb  Yb1  1  0.806788  0.610984  0.750000  1
  Yb  Yb2  1  0.610984  0.806788  0.250000  1
  Yb  Yb3  1  0.389016  0.193212  0.750000  1
  Ho  Ho4  1  0.195176  0.804824  0.250000  1
  Ho  Ho5  1  0.804824  0.195176  0.750000  1
  Al  Al6  1  0.166375  0.331699  0.577930  1
  Al  Al7  1  0.833625  0.668301  0.422070  1
  Al  Al8  1  0.668301  0.833625  0.577930  1
  Al  Al9  1  0.833625  0.668301  0.077930  1
  Al  Al10  1  0.331699  0.166375  0.422070  1
  Al  Al11  1  0.166375  0.331699  0.922070  1
  Al  Al12  1  0.165658  0.834342  0.578079  1
  Al  Al13  1  0.331699  0.166375  0.077930  1
  Al  Al14  1  0.834342  0.165658  0.421921  1
  Al  Al15  1  0.668301  0.833625  0.922070  1
  Al  Al16  1  0.834342  0.165658  0.078079  1
  Al  Al17  1  0.165658  0.834342  0.921921  1
  Al  Al18  1  0.564593  0.435407  0.250000  1
  Al  Al19  1  0.435407  0.564593  0.750000  1
  Al  Al20  1  0.000168  0.999832  0.250000  1
  Al  Al21  1  0.999832  0.000168  0.750000  1
  Si  Si22  1  0.334947  0.665053  0.041095  1
  Si  Si23  1  0.665053  0.334947  0.958905  1
  Si  Si24  1  0.665053  0.334947  0.541095  1
  Si  Si25  1  0.334947  0.665053  0.458905  1
  Si  Si26  1  0.565294  0.125076  0.250000  1
  Si  Si27  1  0.434706  0.874924  0.750000  1
  Si  Si28  1  0.874924  0.434706  0.250000  1
  Si  Si29  1  0.125076  0.565294  0.750000  1
  Os  Os30  1  0.500000  0.000000  0.000000  1
  Os  Os31  1  0.000000  0.500000  0.000000  1
  Os  Os32  1  0.500000  0.000000  0.500000  1
  Os  Os33  1  0.500000  0.500000  0.000000  1
  Os  Os34  1  0.000000  0.500000  0.500000  1
  Os  Os35  1  0.500000  0.500000  0.500000  1
  Os  Os36  1  0.000000  0.000000  0.000000  1
  Os  Os37  1  0.000000  0.000000  0.500000  1
