# generated using pymatgen
data_CePrZnSb4
_symmetry_space_group_name_H-M   'P 1'
_cell_length_a   4.38130900
_cell_length_b   4.41200100
_cell_length_c   9.95702200
_cell_angle_alpha   90.00000000
_cell_angle_beta   90.00000000
_cell_angle_gamma   90.00000000
_symmetry_Int_Tables_number   1
_chemical_formula_structural   CePrZnSb4
_chemical_formula_sum   'Ce1 Pr1 Zn1 Sb4'
_cell_volume   192.47261755
_cell_formula_units_Z   1
loop_
 _symmetry_equiv_pos_site_id
 _symmetry_equiv_pos_as_xyz
  1  'x, y, z'
loop_
 _atom_site_type_symbol
 _atom_site_label
 _atom_site_symmetry_multiplicity
 _atom_site_fract_x
 _atom_site_fract_y
 _atom_site_fract_z
 _atom_site_occupancy
  Ce  Ce0  1  0.000000  0.500000  0.253162  1
  Pr  Pr1  1  0.500000  0.000000  0.752383  1
  Zn  Zn2  1  0.500000  0.500000  0.496380  1
  Sb  Sb3  1  0.500000  0.500000  0.004917  1
  Sb  Sb4  1  0.000000  0.000000  0.006533  1
  Sb  Sb5  1  0.500000  0.000000  0.337062  1
  Sb  Sb6  1  0.000000  0.500000  0.649563  1
