# generated using pymatgen
data_ScFeH7
_symmetry_space_group_name_H-M   'P 1'
_cell_length_a   4.46453352
_cell_length_b   4.45736294
_cell_length_c   4.42815174
_cell_angle_alpha   60.18249332
_cell_angle_beta   59.97221802
_cell_angle_gamma   86.73573794
_symmetry_Int_Tables_number   1
_chemical_formula_structural   ScFeH7
_chemical_formula_sum   'Sc1 Fe1 H7'
_cell_volume   63.99679665
_cell_formula_units_Z   1
loop_
 _symmetry_equiv_pos_site_id
 _symmetry_equiv_pos_as_xyz
  1  'x, y, z'
loop_
 _atom_site_type_symbol
 _atom_site_label
 _atom_site_symmetry_multiplicity
 _atom_site_fract_x
 _atom_site_fract_y
 _atom_site_fract_z
 _atom_site_occupancy
  Sc  Sc0  1  0.199071  0.145238  0.919516  1
  Fe  Fe1  1  0.465797  0.878816  0.416822  1
  H  H2  1  0.206521  0.655990  0.417548  1
  H  H3  1  0.207620  0.126801  0.430119  1
  H  H4  1  0.684990  0.147017  0.934971  1
  H  H5  1  0.705559  0.629997  0.513611  1
  H  H6  1  0.226495  0.651890  0.901808  1
  H  H7  1  0.705970  0.656670  0.267322  1
  H  H8  1  0.692603  0.119542  0.432395  1
