# generated using pymatgen
data_Dy4Zr3SnF28
_symmetry_space_group_name_H-M   'P 1'
_cell_length_a   5.70066763
_cell_length_b   9.04868977
_cell_length_c   12.19321100
_cell_angle_alpha   62.48073111
_cell_angle_beta   89.95670152
_cell_angle_gamma   89.95175995
_symmetry_Int_Tables_number   1
_chemical_formula_structural   Dy4Zr3SnF28
_chemical_formula_sum   'Dy4 Zr3 Sn1 F28'
_cell_volume   557.80471197
_cell_formula_units_Z   1
loop_
 _symmetry_equiv_pos_site_id
 _symmetry_equiv_pos_as_xyz
  1  'x, y, z'
loop_
 _atom_site_type_symbol
 _atom_site_label
 _atom_site_symmetry_multiplicity
 _atom_site_fract_x
 _atom_site_fract_y
 _atom_site_fract_z
 _atom_site_occupancy
  Dy  Dy0  1  0.757178  0.816588  0.764831  1
  Dy  Dy1  1  0.256013  0.184968  0.731933  1
  Dy  Dy2  1  0.242336  0.184454  0.237471  1
  Dy  Dy3  1  0.743888  0.814239  0.266988  1
  Zr  Zr4  1  0.755673  0.273403  0.956360  1
  Zr  Zr5  1  0.256173  0.725765  0.544033  1
  Zr  Zr6  1  0.244516  0.725680  0.044612  1
  Sn  Sn7  1  0.742081  0.273057  0.456124  1
  F  F8  1  0.462221  0.709506  0.918401  1
  F  F9  1  0.946666  0.292932  0.582058  1
  F  F10  1  0.536845  0.289340  0.082153  1
  F  F11  1  0.039715  0.710112  0.417653  1
  F  F12  1  0.445816  0.278999  0.544205  1
  F  F13  1  0.946163  0.725350  0.950224  1
  F  F14  1  0.555220  0.720086  0.452334  1
  F  F15  1  0.052758  0.274374  0.051287  1
  F  F16  1  0.775894  0.525992  0.859598  1
  F  F17  1  0.270081  0.472798  0.640009  1
  F  F18  1  0.223048  0.473302  0.142087  1
  F  F19  1  0.727383  0.520588  0.358323  1
  F  F20  1  0.758475  0.021144  0.059368  1
  F  F21  1  0.260709  0.978087  0.443238  1
  F  F22  1  0.242194  0.977694  0.939736  1
  F  F23  1  0.741257  0.024857  0.552514  1
  F  F24  1  0.978389  0.732382  0.646920  1
  F  F25  1  0.481669  0.267511  0.851057  1
  F  F26  1  0.023474  0.270269  0.358258  1
  F  F27  1  0.520706  0.731969  0.148115  1
  F  F28  1  0.038654  0.748253  0.174136  1
  F  F29  1  0.543987  0.256481  0.325540  1
  F  F30  1  0.965646  0.252275  0.827168  1
  F  F31  1  0.464050  0.745780  0.674156  1
  F  F32  1  0.425827  0.971916  0.236498  1
  F  F33  1  0.924735  0.027600  0.268263  1
  F  F34  1  0.574790  0.029599  0.763518  1
  F  F35  1  0.075776  0.972651  0.730827  1
