# generated using pymatgen
data_CsTl3Se2
_symmetry_space_group_name_H-M   'P 1'
_cell_length_a   8.82260177
_cell_length_b   8.82260205
_cell_length_c   11.76378960
_cell_angle_alpha   69.23786543
_cell_angle_beta   69.23786443
_cell_angle_gamma   32.08505163
_symmetry_Int_Tables_number   1
_chemical_formula_structural   CsTl3Se2
_chemical_formula_sum   'Cs2 Tl6 Se4'
_cell_volume   452.08897783
_cell_formula_units_Z   2
loop_
 _symmetry_equiv_pos_site_id
 _symmetry_equiv_pos_as_xyz
  1  'x, y, z'
loop_
 _atom_site_type_symbol
 _atom_site_label
 _atom_site_symmetry_multiplicity
 _atom_site_fract_x
 _atom_site_fract_y
 _atom_site_fract_z
 _atom_site_occupancy
  Cs  Cs0  1  0.129299  0.129299  0.966536  1
  Cs  Cs1  1  0.870701  0.870701  0.033464  1
  Tl  Tl2  1  0.027678  0.027678  0.640597  1
  Tl  Tl3  1  0.972322  0.972322  0.359403  1
  Tl  Tl4  1  0.387208  0.387208  0.639132  1
  Tl  Tl5  1  0.612792  0.612792  0.360868  1
  Tl  Tl6  1  0.703466  0.703466  0.604671  1
  Tl  Tl7  1  0.296534  0.296534  0.395329  1
  Se  Se8  1  0.791479  0.791479  0.772934  1
  Se  Se9  1  0.208521  0.208521  0.227066  1
  Se  Se10  1  0.530674  0.530674  0.796045  1
  Se  Se11  1  0.469326  0.469326  0.203955  1
