# generated using pymatgen
data_TbCe3Th4(ReC2)4
_symmetry_space_group_name_H-M   'P 1'
_cell_length_a   5.31248200
_cell_length_b   6.69039204
_cell_length_c   9.95599706
_cell_angle_alpha   90.01275146
_cell_angle_beta   90.00000000
_cell_angle_gamma   90.00000000
_symmetry_Int_Tables_number   1
_chemical_formula_structural   TbCe3Th4(ReC2)4
_chemical_formula_sum   'Tb1 Ce3 Th4 Re4 C8'
_cell_volume   353.86188589
_cell_formula_units_Z   1
loop_
 _symmetry_equiv_pos_site_id
 _symmetry_equiv_pos_as_xyz
  1  'x, y, z'
loop_
 _atom_site_type_symbol
 _atom_site_label
 _atom_site_symmetry_multiplicity
 _atom_site_fract_x
 _atom_site_fract_y
 _atom_site_fract_z
 _atom_site_occupancy
  Tb  Tb0  1  0.250000  0.318492  0.051092  1
  Ce  Ce1  1  0.750000  0.185877  0.548043  1
  Ce  Ce2  1  0.250000  0.814670  0.452341  1
  Ce  Ce3  1  0.750000  0.683940  0.952803  1
  Th  Th4  1  0.250000  0.972954  0.780718  1
  Th  Th5  1  0.750000  0.526972  0.281859  1
  Th  Th6  1  0.250000  0.472782  0.717284  1
  Th  Th7  1  0.750000  0.028190  0.216669  1
  Re  Re8  1  0.250000  0.769412  0.138184  1
  Re  Re9  1  0.750000  0.727985  0.637625  1
  Re  Re10  1  0.250000  0.270823  0.361075  1
  Re  Re11  1  0.750000  0.228230  0.863117  1
  C  C12  1  0.250000  0.166695  0.551054  1
  C  C13  1  0.750000  0.330078  0.050823  1
  C  C14  1  0.250000  0.670929  0.949195  1
  C  C15  1  0.750000  0.833050  0.448637  1
  C  C16  1  0.250000  0.532805  0.258324  1
  C  C17  1  0.750000  0.965535  0.757718  1
  C  C18  1  0.250000  0.034811  0.240180  1
  C  C19  1  0.750000  0.465772  0.743260  1
