# generated using pymatgen
data_LaSm7(Er3Si4)4
_symmetry_space_group_name_H-M   'P 1'
_cell_length_a   7.68718706
_cell_length_b   7.68596702
_cell_length_c   14.22299203
_cell_angle_alpha   90.00376682
_cell_angle_beta   89.93957522
_cell_angle_gamma   89.94100249
_symmetry_Int_Tables_number   1
_chemical_formula_structural   LaSm7(Er3Si4)4
_chemical_formula_sum   'La1 Sm7 Er12 Si16'
_cell_volume   840.34275517
_cell_formula_units_Z   1
loop_
 _symmetry_equiv_pos_site_id
 _symmetry_equiv_pos_as_xyz
  1  'x, y, z'
loop_
 _atom_site_type_symbol
 _atom_site_label
 _atom_site_symmetry_multiplicity
 _atom_site_fract_x
 _atom_site_fract_y
 _atom_site_fract_z
 _atom_site_occupancy
  La  La0  1  0.357553  0.010101  0.458659  1
  Sm  Sm1  1  0.991829  0.639525  0.041868  1
  Sm  Sm2  1  0.007706  0.362465  0.543941  1
  Sm  Sm3  1  0.639176  0.991135  0.957568  1
  Sm  Sm4  1  0.139441  0.507642  0.792942  1
  Sm  Sm5  1  0.860431  0.491437  0.291731  1
  Sm  Sm6  1  0.507465  0.139070  0.206277  1
  Sm  Sm7  1  0.492630  0.859576  0.708493  1
  Er  Er8  1  0.362325  0.491774  0.374989  1
  Er  Er9  1  0.860829  0.010060  0.373507  1
  Er  Er10  1  0.989770  0.137323  0.124653  1
  Er  Er11  1  0.009703  0.860842  0.626601  1
  Er  Er12  1  0.637986  0.509156  0.875612  1
  Er  Er13  1  0.492927  0.362505  0.625721  1
  Er  Er14  1  0.508730  0.637480  0.123858  1
  Er  Er15  1  0.137613  0.991117  0.874649  1
  Er  Er16  1  0.684335  0.683449  0.499941  1
  Er  Er17  1  0.817193  0.183134  0.750595  1
  Er  Er18  1  0.182421  0.816087  0.249707  1
  Er  Er19  1  0.316278  0.315979  0.999968  1
  Si  Si20  1  0.061828  0.707781  0.438167  1
  Si  Si21  1  0.936289  0.290595  0.938237  1
  Si  Si22  1  0.713614  0.065969  0.562486  1
  Si  Si23  1  0.208730  0.437500  0.187400  1
  Si  Si24  1  0.790864  0.564115  0.688694  1
  Si  Si25  1  0.436326  0.209242  0.812011  1
  Si  Si26  1  0.565596  0.788916  0.310611  1
  Si  Si27  1  0.289554  0.935833  0.061418  1
  Si  Si28  1  0.845187  0.798036  0.811581  1
  Si  Si29  1  0.153180  0.204411  0.307945  1
  Si  Si30  1  0.798261  0.844017  0.188555  1
  Si  Si31  1  0.296872  0.651726  0.562353  1
  Si  Si32  1  0.701453  0.344938  0.060567  1
  Si  Si33  1  0.658012  0.300932  0.440073  1
  Si  Si34  1  0.344861  0.701561  0.938723  1
  Si  Si35  1  0.203033  0.154572  0.689899  1
