# generated using pymatgen
data_Pr2SmBiO7
_symmetry_space_group_name_H-M   'P 1'
_cell_length_a   6.75959747
_cell_length_b   6.77669310
_cell_length_c   7.95933776
_cell_angle_alpha   106.89161426
_cell_angle_beta   89.86045864
_cell_angle_gamma   98.59070150
_symmetry_Int_Tables_number   1
_chemical_formula_structural   Pr2SmBiO7
_chemical_formula_sum   'Pr4 Sm2 Bi2 O14'
_cell_volume   344.63125909
_cell_formula_units_Z   2
loop_
 _symmetry_equiv_pos_site_id
 _symmetry_equiv_pos_as_xyz
  1  'x, y, z'
loop_
 _atom_site_type_symbol
 _atom_site_label
 _atom_site_symmetry_multiplicity
 _atom_site_fract_x
 _atom_site_fract_y
 _atom_site_fract_z
 _atom_site_occupancy
  Pr  Pr0  1  0.268179  0.537675  0.882792  1
  Pr  Pr1  1  0.731821  0.462325  0.117208  1
  Pr  Pr2  1  0.739703  0.479182  0.615809  1
  Pr  Pr3  1  0.260297  0.520818  0.384191  1
  Sm  Sm4  1  0.460934  0.004667  0.253128  1
  Sm  Sm5  1  0.539066  0.995333  0.746872  1
  Bi  Bi6  1  0.000000  0.000000  0.500000  1
  Bi  Bi7  1  0.000000  0.000000  0.000000  1
  O  O8  1  0.443271  0.649475  0.168094  1
  O  O9  1  0.556729  0.350525  0.831906  1
  O  O10  1  0.298692  0.931816  0.954601  1
  O  O11  1  0.701308  0.068184  0.045399  1
  O  O12  1  0.295008  0.930408  0.512689  1
  O  O13  1  0.704992  0.069592  0.487311  1
  O  O14  1  0.546587  0.358560  0.344513  1
  O  O15  1  0.453413  0.641440  0.655487  1
  O  O16  1  0.926220  0.673594  0.954342  1
  O  O17  1  0.073780  0.326406  0.045658  1
  O  O18  1  0.072055  0.336811  0.614343  1
  O  O19  1  0.927945  0.663189  0.385657  1
  O  O20  1  0.884611  0.915891  0.728309  1
  O  O21  1  0.115389  0.084109  0.271691  1
