# generated using pymatgen
data_Er7Tm3(OsRu)2
_symmetry_space_group_name_H-M   'P 1'
_cell_length_a   6.27655138
_cell_length_b   7.28511382
_cell_length_c   8.34669897
_cell_angle_alpha   96.89226691
_cell_angle_beta   112.11325892
_cell_angle_gamma   89.97823128
_symmetry_Int_Tables_number   1
_chemical_formula_structural   Er7Tm3(OsRu)2
_chemical_formula_sum   'Er7 Tm3 Os2 Ru2'
_cell_volume   350.61035028
_cell_formula_units_Z   1
loop_
 _symmetry_equiv_pos_site_id
 _symmetry_equiv_pos_as_xyz
  1  'x, y, z'
loop_
 _atom_site_type_symbol
 _atom_site_label
 _atom_site_symmetry_multiplicity
 _atom_site_fract_x
 _atom_site_fract_y
 _atom_site_fract_z
 _atom_site_occupancy
  Er  Er0  1  0.792891  0.083545  0.816484  1
  Er  Er1  1  0.976599  0.416442  0.183363  1
  Er  Er2  1  0.208485  0.915354  0.185544  1
  Er  Er3  1  0.023289  0.584651  0.814670  1
  Er  Er4  1  0.204506  0.183387  0.564554  1
  Er  Er5  1  0.639945  0.316685  0.435646  1
  Er  Er6  1  0.794753  0.816403  0.434969  1
  Tm  Tm7  1  0.359852  0.683396  0.565045  1
  Tm  Tm8  1  0.420877  0.249791  0.999855  1
  Tm  Tm9  1  0.580362  0.750187  0.999917  1
  Os  Os10  1  0.602309  0.423383  0.780604  1
  Os  Os11  1  0.821646  0.077243  0.219113  1
  Ru  Ru12  1  0.397053  0.577227  0.220152  1
  Ru  Ru13  1  0.177435  0.922306  0.780083  1
