# generated using pymatgen
data_HoTmFe6(SiB)2
_symmetry_space_group_name_H-M   'P 1'
_cell_length_a   5.12116200
_cell_length_b   5.12208314
_cell_length_c   6.63609200
_cell_angle_alpha   90.00000000
_cell_angle_beta   90.00000000
_cell_angle_gamma   119.99405121
_symmetry_Int_Tables_number   1
_chemical_formula_structural   HoTmFe6(SiB)2
_chemical_formula_sum   'Ho1 Tm1 Fe6 Si2 B2'
_cell_volume   150.75932981
_cell_formula_units_Z   1
loop_
 _symmetry_equiv_pos_site_id
 _symmetry_equiv_pos_as_xyz
  1  'x, y, z'
loop_
 _atom_site_type_symbol
 _atom_site_label
 _atom_site_symmetry_multiplicity
 _atom_site_fract_x
 _atom_site_fract_y
 _atom_site_fract_z
 _atom_site_occupancy
  Ho  Ho0  1  0.999971  0.000000  0.000000  1
  Tm  Tm1  1  0.999986  0.000000  0.500000  1
  Fe  Fe2  1  0.499984  0.000000  0.283104  1
  Fe  Fe3  1  0.499985  0.500000  0.283124  1
  Fe  Fe4  1  0.999985  0.500000  0.283124  1
  Fe  Fe5  1  0.499984  0.000000  0.716896  1
  Fe  Fe6  1  0.499985  0.500000  0.716876  1
  Fe  Fe7  1  0.999985  0.500000  0.716876  1
  Si  Si8  1  0.333255  0.666545  0.000000  1
  Si  Si9  1  0.666709  0.333455  0.000000  1
  B  B10  1  0.333319  0.666665  0.500000  1
  B  B11  1  0.666653  0.333335  0.500000  1
