# generated using pymatgen
data_Tb3YFe12(P3Rh2)4
_symmetry_space_group_name_H-M   'P 1'
_cell_length_a   3.77362400
_cell_length_b   10.36120501
_cell_length_c   12.19877001
_cell_angle_alpha   89.99444265
_cell_angle_beta   90.00000000
_cell_angle_gamma   90.00000000
_symmetry_Int_Tables_number   1
_chemical_formula_structural   Tb3YFe12(P3Rh2)4
_chemical_formula_sum   'Tb3 Y1 Fe12 P12 Rh8'
_cell_volume   476.96326740
_cell_formula_units_Z   1
loop_
 _symmetry_equiv_pos_site_id
 _symmetry_equiv_pos_as_xyz
  1  'x, y, z'
loop_
 _atom_site_type_symbol
 _atom_site_label
 _atom_site_symmetry_multiplicity
 _atom_site_fract_x
 _atom_site_fract_y
 _atom_site_fract_z
 _atom_site_occupancy
  Tb  Tb0  1  0.250000  0.919065  0.210960  1
  Tb  Tb1  1  0.750000  0.419087  0.289127  1
  Tb  Tb2  1  0.750000  0.081003  0.789172  1
  Y  Y3  1  0.250000  0.580851  0.710941  1
  Fe  Fe4  1  0.250000  0.224246  0.170851  1
  Fe  Fe5  1  0.250000  0.275860  0.670896  1
  Fe  Fe6  1  0.750000  0.775571  0.829221  1
  Fe  Fe7  1  0.750000  0.724264  0.329181  1
  Fe  Fe8  1  0.250000  0.877613  0.697180  1
  Fe  Fe9  1  0.250000  0.622352  0.197212  1
  Fe  Fe10  1  0.750000  0.122283  0.302886  1
  Fe  Fe11  1  0.750000  0.377758  0.802738  1
  Fe  Fe12  1  0.250000  0.459378  0.935175  1
  Fe  Fe13  1  0.250000  0.040677  0.435253  1
  Fe  Fe14  1  0.750000  0.540716  0.064686  1
  Fe  Fe15  1  0.750000  0.959311  0.564595  1
  P  P16  1  0.250000  0.429646  0.112573  1
  P  P17  1  0.250000  0.070252  0.612416  1
  P  P18  1  0.750000  0.570399  0.887285  1
  P  P19  1  0.750000  0.929720  0.387520  1
  P  P20  1  0.250000  0.274269  0.853078  1
  P  P21  1  0.250000  0.225573  0.353096  1
  P  P22  1  0.750000  0.725654  0.146931  1
  P  P23  1  0.750000  0.774112  0.646925  1
  P  P24  1  0.250000  0.606594  0.378024  1
  P  P25  1  0.250000  0.893455  0.878106  1
  P  P26  1  0.750000  0.393612  0.622069  1
  P  P27  1  0.750000  0.106590  0.121927  1
  Rh  Rh28  1  0.250000  0.707325  0.985343  1
  Rh  Rh29  1  0.250000  0.792697  0.485216  1
  Rh  Rh30  1  0.750000  0.292685  0.014657  1
  Rh  Rh31  1  0.750000  0.207346  0.514629  1
  Rh  Rh32  1  0.250000  0.404720  0.479585  1
  Rh  Rh33  1  0.250000  0.095279  0.979612  1
  Rh  Rh34  1  0.750000  0.595303  0.520537  1
  Rh  Rh35  1  0.750000  0.904735  0.020397  1
