# generated using pymatgen
data_Sc6NiBr10
_symmetry_space_group_name_H-M   'P 1'
_cell_length_a   6.88342522
_cell_length_b   8.68011960
_cell_length_c   8.75211811
_cell_angle_alpha   107.18664914
_cell_angle_beta   97.01452794
_cell_angle_gamma   104.34337467
_symmetry_Int_Tables_number   1
_chemical_formula_structural   Sc6NiBr10
_chemical_formula_sum   'Sc6 Ni1 Br10'
_cell_volume   473.10695936
_cell_formula_units_Z   1
loop_
 _symmetry_equiv_pos_site_id
 _symmetry_equiv_pos_as_xyz
  1  'x, y, z'
loop_
 _atom_site_type_symbol
 _atom_site_label
 _atom_site_symmetry_multiplicity
 _atom_site_fract_x
 _atom_site_fract_y
 _atom_site_fract_z
 _atom_site_occupancy
  Sc  Sc0  1  0.116382  0.041964  0.757671  1
  Sc  Sc1  1  0.883618  0.958036  0.242329  1
  Sc  Sc2  1  0.970031  0.289356  0.087141  1
  Sc  Sc3  1  0.029969  0.710644  0.912859  1
  Sc  Sc4  1  0.351559  0.125766  0.168700  1
  Sc  Sc5  1  0.648441  0.874234  0.831300  1
  Ni  Ni6  1  0.000000  0.000000  0.000000  1
  Br  Br7  1  0.542986  0.179133  0.909562  1
  Br  Br8  1  0.457014  0.820867  0.090438  1
  Br  Br9  1  0.346301  0.442687  0.268620  1
  Br  Br10  1  0.653699  0.557313  0.731380  1
  Br  Br11  1  0.252187  0.085352  0.455695  1
  Br  Br12  1  0.747813  0.914648  0.544305  1
  Br  Br13  1  0.781772  0.254593  0.339943  1
  Br  Br14  1  0.218228  0.745407  0.660057  1
  Br  Br15  1  0.084305  0.368391  0.825786  1
  Br  Br16  1  0.915695  0.631609  0.174214  1
