# generated using pymatgen
data_YbY3(Al8Pt3)3
_symmetry_space_group_name_H-M   'P 1'
_cell_length_a   7.52471780
_cell_length_b   7.52965707
_cell_length_c   13.20322009
_cell_angle_alpha   84.59138904
_cell_angle_beta   100.88074208
_cell_angle_gamma   119.81141018
_symmetry_Int_Tables_number   1
_chemical_formula_structural   YbY3(Al8Pt3)3
_chemical_formula_sum   'Yb1 Y3 Al24 Pt9'
_cell_volume   637.41070212
_cell_formula_units_Z   1
loop_
 _symmetry_equiv_pos_site_id
 _symmetry_equiv_pos_as_xyz
  1  'x, y, z'
loop_
 _atom_site_type_symbol
 _atom_site_label
 _atom_site_symmetry_multiplicity
 _atom_site_fract_x
 _atom_site_fract_y
 _atom_site_fract_z
 _atom_site_occupancy
  Yb  Yb0  1  0.233023  0.498526  0.192526  1
  Y  Y1  1  0.436728  0.830563  0.808361  1
  Y  Y2  1  0.562712  0.168881  0.191834  1
  Y  Y3  1  0.768317  0.501508  0.808387  1
  Al  Al4  1  0.481297  0.166134  0.944372  1
  Al  Al5  1  0.518169  0.833513  0.054990  1
  Al  Al6  1  0.021302  0.168162  0.561185  1
  Al  Al7  1  0.979093  0.832082  0.439452  1
  Al  Al8  1  0.354143  0.833376  0.559086  1
  Al  Al9  1  0.646204  0.166397  0.441513  1
  Al  Al10  1  0.617253  0.834154  0.329566  1
  Al  Al11  1  0.382229  0.165300  0.670723  1
  Al  Al12  1  0.056197  0.493378  0.670555  1
  Al  Al13  1  0.944718  0.506972  0.329764  1
  Al  Al14  1  0.730330  0.839967  0.669209  1
  Al  Al15  1  0.269390  0.160423  0.331019  1
  Al  Al16  1  0.147894  0.499770  0.945847  1
  Al  Al17  1  0.852616  0.499951  0.054764  1
  Al  Al18  1  0.816623  0.832473  0.953229  1
  Al  Al19  1  0.182885  0.167527  0.046009  1
  Al  Al20  1  0.314283  0.500656  0.440989  1
  Al  Al21  1  0.685597  0.499306  0.559167  1
  Al  Al22  1  0.103051  0.837797  0.183164  1
  Al  Al23  1  0.897659  0.164808  0.816346  1
  Al  Al24  1  0.306939  0.369067  0.815244  1
  Al  Al25  1  0.694410  0.630500  0.184141  1
  Al  Al26  1  0.102845  0.958942  0.815966  1
  Al  Al27  1  0.895040  0.040232  0.183590  1
  Pt  Pt28  1  0.387736  0.507764  0.638325  1
  Pt  Pt29  1  0.612965  0.492569  0.361986  1
  Pt  Pt30  1  0.171050  0.828680  0.999137  1
  Pt  Pt31  1  0.828043  0.170868  0.999501  1
  Pt  Pt32  1  0.294997  0.833018  0.362075  1
  Pt  Pt33  1  0.704455  0.166871  0.638469  1
  Pt  Pt34  1  0.046413  0.825324  0.637397  1
  Pt  Pt35  1  0.953391  0.174407  0.362933  1
  Pt  Pt36  1  0.500000  0.500133  0.999179  1
