# generated using pymatgen
data_Er4FeRu6W
_symmetry_space_group_name_H-M   'P 1'
_cell_length_a   5.40834808
_cell_length_b   5.20580803
_cell_length_c   8.96961800
_cell_angle_alpha   90.00000000
_cell_angle_beta   90.00000000
_cell_angle_gamma   121.77398208
_symmetry_Int_Tables_number   1
_chemical_formula_structural   Er4FeRu6W
_chemical_formula_sum   'Er4 Fe1 Ru6 W1'
_cell_volume   214.69060587
_cell_formula_units_Z   1
loop_
 _symmetry_equiv_pos_site_id
 _symmetry_equiv_pos_as_xyz
  1  'x, y, z'
loop_
 _atom_site_type_symbol
 _atom_site_label
 _atom_site_symmetry_multiplicity
 _atom_site_fract_x
 _atom_site_fract_y
 _atom_site_fract_z
 _atom_site_occupancy
  Er  Er0  1  0.334045  0.667247  0.431747  1
  Er  Er1  1  0.671914  0.345693  0.561543  1
  Er  Er2  1  0.671914  0.345693  0.938457  1
  Er  Er3  1  0.334045  0.667247  0.068253  1
  Fe  Fe4  1  0.329897  0.163452  0.250000  1
  Ru  Ru5  1  0.172931  0.819099  0.750000  1
  Ru  Ru6  1  0.821586  0.646863  0.250000  1
  Ru  Ru7  1  0.651045  0.821776  0.750000  1
  Ru  Ru8  1  0.011351  0.017265  0.003671  1
  Ru  Ru9  1  0.829094  0.169334  0.250000  1
  Ru  Ru10  1  0.011351  0.017265  0.496329  1
  W  W11  1  0.160824  0.319067  0.750000  1
