# generated using pymatgen
data_Sc2SnHgRh4
_symmetry_space_group_name_H-M   'P 1'
_cell_length_a   6.14712400
_cell_length_b   6.14404400
_cell_length_c   7.13065800
_cell_angle_alpha   90.00000000
_cell_angle_beta   89.99905860
_cell_angle_gamma   90.00000000
_symmetry_Int_Tables_number   1
_chemical_formula_structural   Sc2SnHgRh4
_chemical_formula_sum   'Sc4 Sn2 Hg2 Rh8'
_cell_volume   269.31211981
_cell_formula_units_Z   2
loop_
 _symmetry_equiv_pos_site_id
 _symmetry_equiv_pos_as_xyz
  1  'x, y, z'
loop_
 _atom_site_type_symbol
 _atom_site_label
 _atom_site_symmetry_multiplicity
 _atom_site_fract_x
 _atom_site_fract_y
 _atom_site_fract_z
 _atom_site_occupancy
  Sc  Sc0  1  0.750088  0.249999  0.000001  1
  Sc  Sc1  1  0.249912  0.750000  0.999999  1
  Sc  Sc2  1  0.749904  0.249999  0.499991  1
  Sc  Sc3  1  0.250097  0.750000  0.500009  1
  Sn  Sn4  1  0.750080  0.750000  0.499985  1
  Sn  Sn5  1  0.249920  0.249999  0.500015  1
  Hg  Hg6  1  0.249964  0.249999  0.999989  1
  Hg  Hg7  1  0.750037  0.750000  0.000011  1
  Rh  Rh8  1  0.499987  0.999998  0.261100  1
  Rh  Rh9  1  0.499987  0.500002  0.261100  1
  Rh  Rh10  1  0.000002  0.000002  0.261104  1
  Rh  Rh11  1  0.000002  0.499998  0.261104  1
  Rh  Rh12  1  0.999998  0.999998  0.738896  1
  Rh  Rh13  1  0.999998  0.500001  0.738896  1
  Rh  Rh14  1  0.500012  0.000002  0.738900  1
  Rh  Rh15  1  0.500012  0.499998  0.738900  1
