# generated using pymatgen
data_LiY(NiPt)2
_symmetry_space_group_name_H-M   'P 1'
_cell_length_a   4.95826587
_cell_length_b   5.12862924
_cell_length_c   5.12862802
_cell_angle_alpha   63.34986962
_cell_angle_beta   61.09288836
_cell_angle_gamma   61.09289506
_symmetry_Int_Tables_number   1
_chemical_formula_structural   LiY(NiPt)2
_chemical_formula_sum   'Li1 Y1 Ni2 Pt2'
_cell_volume   95.93327541
_cell_formula_units_Z   1
loop_
 _symmetry_equiv_pos_site_id
 _symmetry_equiv_pos_as_xyz
  1  'x, y, z'
loop_
 _atom_site_type_symbol
 _atom_site_label
 _atom_site_symmetry_multiplicity
 _atom_site_fract_x
 _atom_site_fract_y
 _atom_site_fract_z
 _atom_site_occupancy
  Li  Li0  1  0.240708  0.259292  0.259292  1
  Y  Y1  1  0.999316  0.000684  0.000684  1
  Ni  Ni2  1  0.127182  0.621456  0.621456  1
  Ni  Ni3  1  0.629906  0.621456  0.621456  1
  Pt  Pt4  1  0.626444  0.621369  0.125744  1
  Pt  Pt5  1  0.626444  0.125744  0.621369  1
