# generated using pymatgen
data_Dy8MoOs2WC8
_symmetry_space_group_name_H-M   'P 1'
_cell_length_a   5.11209500
_cell_length_b   6.59546931
_cell_length_c   9.92314010
_cell_angle_alpha   89.21737742
_cell_angle_beta   90.00000000
_cell_angle_gamma   90.00000000
_symmetry_Int_Tables_number   1
_chemical_formula_structural   Dy8MoOs2WC8
_chemical_formula_sum   'Dy8 Mo1 Os2 W1 C8'
_cell_volume   334.54398554
_cell_formula_units_Z   1
loop_
 _symmetry_equiv_pos_site_id
 _symmetry_equiv_pos_as_xyz
  1  'x, y, z'
loop_
 _atom_site_type_symbol
 _atom_site_label
 _atom_site_symmetry_multiplicity
 _atom_site_fract_x
 _atom_site_fract_y
 _atom_site_fract_z
 _atom_site_occupancy
  Dy  Dy0  1  0.250000  0.679629  0.556729  1
  Dy  Dy1  1  0.750000  0.320352  0.442977  1
  Dy  Dy2  1  0.750000  0.823249  0.057372  1
  Dy  Dy3  1  0.250000  0.176836  0.942417  1
  Dy  Dy4  1  0.250000  0.537587  0.218310  1
  Dy  Dy5  1  0.750000  0.462230  0.781539  1
  Dy  Dy6  1  0.750000  0.968984  0.716579  1
  Dy  Dy7  1  0.250000  0.030712  0.283414  1
  Mo  Mo8  1  0.750000  0.282494  0.133349  1
  Os  Os9  1  0.750000  0.778933  0.365766  1
  Os  Os10  1  0.250000  0.221321  0.634024  1
  W  W11  1  0.250000  0.717240  0.866283  1
  C  C12  1  0.250000  0.451238  0.757410  1
  C  C13  1  0.750000  0.549471  0.243141  1
  C  C14  1  0.750000  0.044791  0.260374  1
  C  C15  1  0.250000  0.954956  0.739832  1
  C  C16  1  0.250000  0.822883  0.051554  1
  C  C17  1  0.750000  0.177032  0.949024  1
  C  C18  1  0.750000  0.678362  0.547892  1
  C  C19  1  0.250000  0.321700  0.452013  1
