# generated using pymatgen
data_Yb6HoEr3Sn8
_symmetry_space_group_name_H-M   'P 1'
_cell_length_a   7.81511600
_cell_length_b   8.40092901
_cell_length_c   15.98940203
_cell_angle_alpha   89.99358741
_cell_angle_beta   90.00000000
_cell_angle_gamma   90.00000000
_symmetry_Int_Tables_number   1
_chemical_formula_structural   Yb6HoEr3Sn8
_chemical_formula_sum   'Yb12 Ho2 Er6 Sn16'
_cell_volume   1049.77194742
_cell_formula_units_Z   2
loop_
 _symmetry_equiv_pos_site_id
 _symmetry_equiv_pos_as_xyz
  1  'x, y, z'
loop_
 _atom_site_type_symbol
 _atom_site_label
 _atom_site_symmetry_multiplicity
 _atom_site_fract_x
 _atom_site_fract_y
 _atom_site_fract_z
 _atom_site_occupancy
  Yb  Yb0  1  0.499396  0.686780  0.593281  1
  Yb  Yb1  1  0.999396  0.813220  0.906719  1
  Yb  Yb2  1  0.500611  0.313209  0.093290  1
  Yb  Yb3  1  0.000611  0.186791  0.406710  1
  Yb  Yb4  1  0.500576  0.313227  0.406698  1
  Yb  Yb5  1  0.000576  0.186773  0.093302  1
  Yb  Yb6  1  0.499422  0.686793  0.906729  1
  Yb  Yb7  1  0.999422  0.813207  0.593271  1
  Yb  Yb8  1  0.827752  0.511293  0.750005  1
  Yb  Yb9  1  0.327752  0.988707  0.749995  1
  Yb  Yb10  1  0.172234  0.488764  0.250008  1
  Yb  Yb11  1  0.672234  0.011236  0.249992  1
  Ho  Ho12  1  0.666904  0.167398  0.622045  1
  Ho  Ho13  1  0.166904  0.332602  0.877955  1
  Er  Er14  1  0.333087  0.832597  0.122072  1
  Er  Er15  1  0.833087  0.667403  0.377928  1
  Er  Er16  1  0.333071  0.832615  0.377931  1
  Er  Er17  1  0.833071  0.667385  0.122069  1
  Er  Er18  1  0.666945  0.167352  0.877974  1
  Er  Er19  1  0.166945  0.332648  0.622026  1
  Sn  Sn20  1  0.673853  0.964266  0.459995  1
  Sn  Sn21  1  0.173853  0.535734  0.040005  1
  Sn  Sn22  1  0.326287  0.035482  0.960137  1
  Sn  Sn23  1  0.826287  0.464518  0.539863  1
  Sn  Sn24  1  0.325951  0.035548  0.539858  1
  Sn  Sn25  1  0.825951  0.464452  0.960142  1
  Sn  Sn26  1  0.673880  0.964363  0.039918  1
  Sn  Sn27  1  0.173880  0.535637  0.460082  1
  Sn  Sn28  1  0.463703  0.373947  0.749976  1
  Sn  Sn29  1  0.963703  0.126053  0.750024  1
  Sn  Sn30  1  0.536295  0.626194  0.250000  1
  Sn  Sn31  1  0.036295  0.873806  0.250000  1
  Sn  Sn32  1  0.708687  0.874007  0.750042  1
  Sn  Sn33  1  0.208687  0.625993  0.749958  1
  Sn  Sn34  1  0.291348  0.125902  0.250005  1
  Sn  Sn35  1  0.791348  0.374098  0.249995  1
