# generated using pymatgen
data_Y6Ta2Fe3Co13P12
_symmetry_space_group_name_H-M   'P 1'
_cell_length_a   3.71487100
_cell_length_b   10.66649375
_cell_length_c   12.25974111
_cell_angle_alpha   89.93357454
_cell_angle_beta   90.00000000
_cell_angle_gamma   90.00000000
_symmetry_Int_Tables_number   1
_chemical_formula_structural   Y6Ta2Fe3Co13P12
_chemical_formula_sum   'Y6 Ta2 Fe3 Co13 P12'
_cell_volume   485.78760325
_cell_formula_units_Z   1
loop_
 _symmetry_equiv_pos_site_id
 _symmetry_equiv_pos_as_xyz
  1  'x, y, z'
loop_
 _atom_site_type_symbol
 _atom_site_label
 _atom_site_symmetry_multiplicity
 _atom_site_fract_x
 _atom_site_fract_y
 _atom_site_fract_z
 _atom_site_occupancy
  Y  Y0  1  0.000000  0.500160  0.527034  1
  Y  Y1  1  0.500000  0.000377  0.472829  1
  Y  Y2  1  0.500000  0.821219  0.203738  1
  Y  Y3  1  0.500000  0.179023  0.203568  1
  Y  Y4  1  0.000000  0.678140  0.796759  1
  Y  Y5  1  0.000000  0.320704  0.796872  1
  Ta  Ta6  1  0.500000  0.499680  0.153998  1
  Ta  Ta7  1  0.000000  0.999946  0.844958  1
  Fe  Fe8  1  0.000000  0.502607  0.987876  1
  Fe  Fe9  1  0.500000  0.998812  0.011696  1
  Fe  Fe10  1  0.500000  0.330711  0.995940  1
  Co  Co11  1  0.500000  0.500125  0.701834  1
  Co  Co12  1  0.000000  0.000314  0.298321  1
  Co  Co13  1  0.500000  0.669979  0.993965  1
  Co  Co14  1  0.000000  0.166512  0.005960  1
  Co  Co15  1  0.000000  0.831102  0.006490  1
  Co  Co16  1  0.500000  0.295941  0.432241  1
  Co  Co17  1  0.500000  0.704682  0.432465  1
  Co  Co18  1  0.000000  0.204552  0.567727  1
  Co  Co19  1  0.000000  0.795707  0.567913  1
  Co  Co20  1  0.500000  0.878508  0.704733  1
  Co  Co21  1  0.500000  0.120937  0.704386  1
  Co  Co22  1  0.000000  0.621612  0.295166  1
  Co  Co23  1  0.000000  0.379017  0.294587  1
  P  P24  1  0.500000  0.498309  0.886481  1
  P  P25  1  0.000000  0.999620  0.114935  1
  P  P26  1  0.500000  0.500133  0.356107  1
  P  P27  1  0.000000  0.000249  0.643422  1
  P  P28  1  0.500000  0.309709  0.616630  1
  P  P29  1  0.500000  0.690357  0.616576  1
  P  P30  1  0.000000  0.191124  0.383671  1
  P  P31  1  0.000000  0.809631  0.383887  1
  P  P32  1  0.500000  0.841600  0.894031  1
  P  P33  1  0.500000  0.158979  0.895363  1
  P  P34  1  0.000000  0.658490  0.105785  1
  P  P35  1  0.000000  0.341434  0.102054  1
