# generated using pymatgen
data_La8Ho2AlSn5
_symmetry_space_group_name_H-M   'P 1'
_cell_length_a   9.44586476
_cell_length_b   9.44586520
_cell_length_c   9.44586464
_cell_angle_alpha   96.28474486
_cell_angle_beta   96.28474411
_cell_angle_gamma   141.35778666
_symmetry_Int_Tables_number   1
_chemical_formula_structural   La8Ho2AlSn5
_chemical_formula_sum   'La8 Ho2 Al1 Sn5'
_cell_volume   496.65047699
_cell_formula_units_Z   1
loop_
 _symmetry_equiv_pos_site_id
 _symmetry_equiv_pos_as_xyz
  1  'x, y, z'
loop_
 _atom_site_type_symbol
 _atom_site_label
 _atom_site_symmetry_multiplicity
 _atom_site_fract_x
 _atom_site_fract_y
 _atom_site_fract_z
 _atom_site_occupancy
  La  La0  1  0.905517  0.215504  0.132178  1
  La  La1  1  0.215504  0.083326  0.309987  1
  La  La2  1  0.773339  0.905517  0.690013  1
  La  La3  1  0.083326  0.773339  0.867822  1
  La  La4  1  0.726661  0.416674  0.132178  1
  La  La5  1  0.284496  0.594483  0.867822  1
  La  La6  1  0.594483  0.726661  0.309987  1
  La  La7  1  0.416674  0.284496  0.690013  1
  Ho  Ho8  1  0.750000  0.250000  0.500000  1
  Ho  Ho9  1  0.250000  0.750000  0.500000  1
  Al  Al10  1  0.750000  0.750000  0.000000  1
  Sn  Sn11  1  0.250000  0.250000  0.000000  1
  Sn  Sn12  1  0.846170  0.653830  0.500000  1
  Sn  Sn13  1  0.653830  0.153830  0.807661  1
  Sn  Sn14  1  0.346170  0.846170  0.192339  1
  Sn  Sn15  1  0.153830  0.346170  0.500000  1
