# generated using pymatgen
data_CaLa7(W2C3)4
_symmetry_space_group_name_H-M   'P 1'
_cell_length_a   6.77700526
_cell_length_b   6.02319078
_cell_length_c   12.05774088
_cell_angle_alpha   68.54773034
_cell_angle_beta   90.09788503
_cell_angle_gamma   89.97411775
_symmetry_Int_Tables_number   1
_chemical_formula_structural   CaLa7(W2C3)4
_chemical_formula_sum   'Ca1 La7 W8 C12'
_cell_volume   458.08883369
_cell_formula_units_Z   1
loop_
 _symmetry_equiv_pos_site_id
 _symmetry_equiv_pos_as_xyz
  1  'x, y, z'
loop_
 _atom_site_type_symbol
 _atom_site_label
 _atom_site_symmetry_multiplicity
 _atom_site_fract_x
 _atom_site_fract_y
 _atom_site_fract_z
 _atom_site_occupancy
  Ca  Ca0  1  0.787502  0.689355  0.907958  1
  La  La1  1  0.277965  0.320872  0.592342  1
  La  La2  1  0.217520  0.327361  0.090148  1
  La  La3  1  0.720913  0.678072  0.407995  1
  La  La4  1  0.995323  0.724949  0.636288  1
  La  La5  1  0.500424  0.271987  0.866728  1
  La  La6  1  0.001021  0.272557  0.366774  1
  La  La7  1  0.505046  0.725963  0.133128  1
  W  W8  1  0.996216  0.822629  0.119649  1
  W  W9  1  0.495349  0.179237  0.380271  1
  W  W10  1  0.003490  0.177811  0.879747  1
  W  W11  1  0.502720  0.820260  0.619674  1
  W  W12  1  0.751384  0.174681  0.662071  1
  W  W13  1  0.247642  0.824255  0.338539  1
  W  W14  1  0.747906  0.180701  0.160197  1
  W  W15  1  0.253359  0.821386  0.838216  1
  C  C16  1  0.624691  0.503683  0.641135  1
  C  C17  1  0.129594  0.492668  0.856988  1
  C  C18  1  0.371878  0.495168  0.358110  1
  C  C19  1  0.871650  0.508725  0.141510  1
  C  C20  1  0.211780  0.927326  0.987136  1
  C  C21  1  0.712769  0.063918  0.512783  1
  C  C22  1  0.788432  0.066724  0.012905  1
  C  C23  1  0.284178  0.935519  0.487705  1
  C  C24  1  0.488086  0.030141  0.246142  1
  C  C25  1  0.010326  0.025042  0.748407  1
  C  C26  1  0.988053  0.974923  0.252127  1
  C  C27  1  0.514781  0.964084  0.755326  1
