# generated using pymatgen
data_Rb8Sm2O7
_symmetry_space_group_name_H-M   'P 1'
_cell_length_a   19.31111100
_cell_length_b   7.30579799
_cell_length_c   7.37238700
_cell_angle_alpha   60.89241165
_cell_angle_beta   90.00000000
_cell_angle_gamma   90.00000000
_symmetry_Int_Tables_number   1
_chemical_formula_structural   Rb8Sm2O7
_chemical_formula_sum   'Rb16 Sm4 O14'
_cell_volume   908.76011855
_cell_formula_units_Z   2
loop_
 _symmetry_equiv_pos_site_id
 _symmetry_equiv_pos_as_xyz
  1  'x, y, z'
loop_
 _atom_site_type_symbol
 _atom_site_label
 _atom_site_symmetry_multiplicity
 _atom_site_fract_x
 _atom_site_fract_y
 _atom_site_fract_z
 _atom_site_occupancy
  Rb  Rb0  1  0.703391  0.549115  0.217793  1
  Rb  Rb1  1  0.591848  0.004405  0.648245  1
  Rb  Rb2  1  0.796609  0.049115  0.217793  1
  Rb  Rb3  1  0.296609  0.450885  0.782207  1
  Rb  Rb4  1  0.691546  0.453359  0.783214  1
  Rb  Rb5  1  0.408152  0.995595  0.351755  1
  Rb  Rb6  1  0.308454  0.546641  0.216786  1
  Rb  Rb7  1  0.504386  0.524664  0.242744  1
  Rb  Rb8  1  0.808454  0.953359  0.783214  1
  Rb  Rb9  1  0.995614  0.024664  0.242744  1
  Rb  Rb10  1  0.091848  0.495595  0.351755  1
  Rb  Rb11  1  0.004386  0.975336  0.757256  1
  Rb  Rb12  1  0.495614  0.475336  0.757256  1
  Rb  Rb13  1  0.908152  0.504405  0.648245  1
  Rb  Rb14  1  0.191546  0.046641  0.216786  1
  Rb  Rb15  1  0.203391  0.950885  0.782207  1
  Sm  Sm16  1  0.099487  0.500075  0.842848  1
  Sm  Sm17  1  0.400513  0.000075  0.842848  1
  Sm  Sm18  1  0.599487  0.999925  0.157152  1
  Sm  Sm19  1  0.900513  0.499925  0.157152  1
  O  O20  1  0.316289  0.002236  0.047136  1
  O  O21  1  0.398758  0.285536  0.536835  1
  O  O22  1  0.898758  0.214464  0.463165  1
  O  O23  1  0.101242  0.785536  0.536835  1
  O  O24  1  0.183711  0.502236  0.047136  1
  O  O25  1  0.392574  0.712451  0.815920  1
  O  O26  1  0.892574  0.787549  0.184080  1
  O  O27  1  0.601242  0.714464  0.463165  1
  O  O28  1  0.000000  0.500000  0.000000  1
  O  O29  1  0.607426  0.287549  0.184080  1
  O  O30  1  0.683711  0.997764  0.952864  1
  O  O31  1  0.816289  0.497764  0.952864  1
  O  O32  1  0.500000  0.000000  0.000000  1
  O  O33  1  0.107426  0.212451  0.815920  1
