# generated using pymatgen
data_HoZr2Fe9
_symmetry_space_group_name_H-M   'P 1'
_cell_length_a   8.47274796
_cell_length_b   8.47274782
_cell_length_c   8.47274897
_cell_angle_alpha   34.27762740
_cell_angle_beta   34.27763014
_cell_angle_gamma   34.27762665
_symmetry_Int_Tables_number   1
_chemical_formula_structural   HoZr2Fe9
_chemical_formula_sum   'Ho1 Zr2 Fe9'
_cell_volume   172.05445481
_cell_formula_units_Z   1
loop_
 _symmetry_equiv_pos_site_id
 _symmetry_equiv_pos_as_xyz
  1  'x, y, z'
loop_
 _atom_site_type_symbol
 _atom_site_label
 _atom_site_symmetry_multiplicity
 _atom_site_fract_x
 _atom_site_fract_y
 _atom_site_fract_z
 _atom_site_occupancy
  Ho  Ho0  1  0.000000  0.000000  0.000000  1
  Zr  Zr1  1  0.142445  0.142445  0.142445  1
  Zr  Zr2  1  0.857555  0.857555  0.857555  1
  Fe  Fe3  1  0.500000  0.500000  0.500000  1
  Fe  Fe4  1  0.332853  0.332853  0.332853  1
  Fe  Fe5  1  0.667147  0.667147  0.667147  1
  Fe  Fe6  1  0.082449  0.585111  0.585111  1
  Fe  Fe7  1  0.585111  0.585111  0.082449  1
  Fe  Fe8  1  0.585111  0.082449  0.585111  1
  Fe  Fe9  1  0.414889  0.917551  0.414889  1
  Fe  Fe10  1  0.917551  0.414889  0.414889  1
  Fe  Fe11  1  0.414889  0.414889  0.917551  1
