# generated using pymatgen
data_Be5Nb6GaRu6
_symmetry_space_group_name_H-M   'P 1'
_cell_length_a   7.39472633
_cell_length_b   7.39328698
_cell_length_c   7.39439634
_cell_angle_alpha   126.31383006
_cell_angle_beta   129.16037286
_cell_angle_gamma   77.06977846
_symmetry_Int_Tables_number   1
_chemical_formula_structural   Be5Nb6GaRu6
_chemical_formula_sum   'Be5 Nb6 Ga1 Ru6'
_cell_volume   245.17068810
_cell_formula_units_Z   1
loop_
 _symmetry_equiv_pos_site_id
 _symmetry_equiv_pos_as_xyz
  1  'x, y, z'
loop_
 _atom_site_type_symbol
 _atom_site_label
 _atom_site_symmetry_multiplicity
 _atom_site_fract_x
 _atom_site_fract_y
 _atom_site_fract_z
 _atom_site_occupancy
  Be  Be0  1  0.749948  0.497175  0.246726  1
  Be  Be1  1  0.250268  0.496761  0.747414  1
  Be  Be2  1  0.331563  0.829173  0.498594  1
  Be  Be3  1  0.665394  0.163428  0.495252  1
  Be  Be4  1  0.834926  0.830475  0.994470  1
  Nb  Nb5  1  0.557073  0.087486  0.041427  1
  Nb  Nb6  1  0.460281  0.509250  0.560216  1
  Nb  Nb7  1  0.949224  0.508596  0.048102  1
  Nb  Nb8  1  0.045372  0.086880  0.530352  1
  Nb  Nb9  1  0.738327  0.895016  0.644688  1
  Nb  Nb10  1  0.249312  0.893996  0.156372  1
  Ga  Ga11  1  0.167837  0.163308  0.997661  1
  Ru  Ru12  1  0.499327  0.243487  0.744147  1
  Ru  Ru13  1  0.996303  0.243691  0.247654  1
  Ru  Ru14  1  0.126336  0.742051  0.616100  1
  Ru  Ru15  1  0.873688  0.497962  0.623994  1
  Ru  Ru16  1  0.627099  0.748837  0.121685  1
  Ru  Ru17  1  0.377722  0.504627  0.127346  1
