# generated using pymatgen
data_LaSm3(SiTc2)8
_symmetry_space_group_name_H-M   'P 1'
_cell_length_a   4.16961100
_cell_length_b   7.19131893
_cell_length_c   15.52406900
_cell_angle_alpha   90.21135843
_cell_angle_beta   90.00000000
_cell_angle_gamma   90.00000000
_symmetry_Int_Tables_number   1
_chemical_formula_structural   LaSm3(SiTc2)8
_chemical_formula_sum   'La1 Sm3 Si8 Tc16'
_cell_volume   465.48608080
_cell_formula_units_Z   1
loop_
 _symmetry_equiv_pos_site_id
 _symmetry_equiv_pos_as_xyz
  1  'x, y, z'
loop_
 _atom_site_type_symbol
 _atom_site_label
 _atom_site_symmetry_multiplicity
 _atom_site_fract_x
 _atom_site_fract_y
 _atom_site_fract_z
 _atom_site_occupancy
  La  La0  1  0.500000  0.915242  0.617786  1
  Sm  Sm1  1  0.000000  0.584628  0.117475  1
  Sm  Sm2  1  0.000000  0.414653  0.883649  1
  Sm  Sm3  1  0.500000  0.086304  0.381279  1
  Si  Si4  1  0.000000  0.828480  0.473169  1
  Si  Si5  1  0.000000  0.176945  0.523999  1
  Si  Si6  1  0.500000  0.328346  0.025148  1
  Si  Si7  1  0.500000  0.670993  0.975966  1
  Si  Si8  1  0.000000  0.299512  0.272181  1
  Si  Si9  1  0.000000  0.695458  0.728857  1
  Si  Si10  1  0.500000  0.799308  0.226498  1
  Si  Si11  1  0.500000  0.200262  0.775524  1
  Tc  Tc12  1  0.000000  0.141212  0.052234  1
  Tc  Tc13  1  0.000000  0.858530  0.948994  1
  Tc  Tc14  1  0.500000  0.642654  0.446081  1
  Tc  Tc15  1  0.500000  0.363750  0.550370  1
  Tc  Tc16  1  0.000000  0.734805  0.319337  1
  Tc  Tc17  1  0.000000  0.266522  0.680407  1
  Tc  Tc18  1  0.500000  0.234600  0.179068  1
  Tc  Tc19  1  0.500000  0.762627  0.822085  1
  Tc  Tc20  1  0.000000  0.437072  0.417789  1
  Tc  Tc21  1  0.000000  0.564860  0.579526  1
  Tc  Tc22  1  0.500000  0.935690  0.081080  1
  Tc  Tc23  1  0.500000  0.063598  0.920159  1
  Tc  Tc24  1  0.000000  0.993868  0.205012  1
  Tc  Tc25  1  0.000000  0.004874  0.795994  1
  Tc  Tc26  1  0.500000  0.494073  0.293662  1
  Tc  Tc27  1  0.500000  0.501134  0.706673  1
