# generated using pymatgen
data_Ta8TiVSi6
_symmetry_space_group_name_H-M   'P 1'
_cell_length_a   7.53046421
_cell_length_b   7.53046428
_cell_length_c   7.53046396
_cell_angle_alpha   129.06668422
_cell_angle_beta   129.06667758
_cell_angle_gamma   74.90330319
_symmetry_Int_Tables_number   1
_chemical_formula_structural   Ta8TiVSi6
_chemical_formula_sum   'Ta8 Ti1 V1 Si6'
_cell_volume   250.71544389
_cell_formula_units_Z   1
loop_
 _symmetry_equiv_pos_site_id
 _symmetry_equiv_pos_as_xyz
  1  'x, y, z'
loop_
 _atom_site_type_symbol
 _atom_site_label
 _atom_site_symmetry_multiplicity
 _atom_site_fract_x
 _atom_site_fract_y
 _atom_site_fract_z
 _atom_site_occupancy
  Ta  Ta0  1  0.015167  0.516175  0.830817  1
  Ta  Ta1  1  0.685358  0.184350  0.169183  1
  Ta  Ta2  1  0.516175  0.685358  0.501007  1
  Ta  Ta3  1  0.184350  0.015167  0.498993  1
  Ta  Ta4  1  0.984833  0.483825  0.169183  1
  Ta  Ta5  1  0.314642  0.815650  0.830817  1
  Ta  Ta6  1  0.483825  0.314642  0.498993  1
  Ta  Ta7  1  0.815650  0.984833  0.501007  1
  Ti  Ti8  1  0.500000  0.500000  0.000000  1
  V  V9  1  0.000000  0.000000  0.000000  1
  Si  Si10  1  0.748721  0.748721  0.000000  1
  Si  Si11  1  0.251279  0.251279  0.000000  1
  Si  Si12  1  0.634109  0.130317  0.764425  1
  Si  Si13  1  0.365891  0.869683  0.235575  1
  Si  Si14  1  0.130317  0.365891  0.496208  1
  Si  Si15  1  0.869683  0.634109  0.503792  1
