# generated using pymatgen
data_TbDy(HoIn2)2
_symmetry_space_group_name_H-M   'P 1'
_cell_length_a   6.50984807
_cell_length_b   6.50984806
_cell_length_c   10.30158200
_cell_angle_alpha   90.00000000
_cell_angle_beta   90.00000000
_cell_angle_gamma   103.59199094
_symmetry_Int_Tables_number   1
_chemical_formula_structural   TbDy(HoIn2)2
_chemical_formula_sum   'Tb2 Dy2 Ho4 In8'
_cell_volume   424.33528904
_cell_formula_units_Z   2
loop_
 _symmetry_equiv_pos_site_id
 _symmetry_equiv_pos_as_xyz
  1  'x, y, z'
loop_
 _atom_site_type_symbol
 _atom_site_label
 _atom_site_symmetry_multiplicity
 _atom_site_fract_x
 _atom_site_fract_y
 _atom_site_fract_z
 _atom_site_occupancy
  Tb  Tb0  1  0.517798  0.517798  0.250000  1
  Tb  Tb1  1  0.482202  0.482202  0.750000  1
  Dy  Dy2  1  0.985984  0.985984  0.250000  1
  Dy  Dy3  1  0.014016  0.014016  0.750000  1
  Ho  Ho4  1  0.247684  0.752316  0.500000  1
  Ho  Ho5  1  0.247684  0.752316  0.000000  1
  Ho  Ho6  1  0.752316  0.247684  0.500000  1
  Ho  Ho7  1  0.752316  0.247684  0.000000  1
  In  In8  1  0.252653  0.252653  0.010433  1
  In  In9  1  0.747347  0.747347  0.989567  1
  In  In10  1  0.252653  0.252653  0.489567  1
  In  In11  1  0.747347  0.747347  0.510433  1
  In  In12  1  0.490655  0.011742  0.250000  1
  In  In13  1  0.988258  0.509345  0.750000  1
  In  In14  1  0.509345  0.988258  0.750000  1
  In  In15  1  0.011742  0.490655  0.250000  1
