# generated using pymatgen
data_Pr2CrCo11As7
_symmetry_space_group_name_H-M   'P 1'
_cell_length_a   3.81820600
_cell_length_b   9.44300215
_cell_length_c   9.44772240
_cell_angle_alpha   119.78337170
_cell_angle_beta   90.00000000
_cell_angle_gamma   90.00000000
_symmetry_Int_Tables_number   1
_chemical_formula_structural   Pr2CrCo11As7
_chemical_formula_sum   'Pr2 Cr1 Co11 As7'
_cell_volume   295.64537157
_cell_formula_units_Z   1
loop_
 _symmetry_equiv_pos_site_id
 _symmetry_equiv_pos_as_xyz
  1  'x, y, z'
loop_
 _atom_site_type_symbol
 _atom_site_label
 _atom_site_symmetry_multiplicity
 _atom_site_fract_x
 _atom_site_fract_y
 _atom_site_fract_z
 _atom_site_occupancy
  Pr  Pr0  1  0.000000  0.667814  0.336549  1
  Pr  Pr1  1  0.500000  0.331132  0.665655  1
  Cr  Cr2  1  0.500000  0.784214  0.896403  1
  Co  Co3  1  0.000000  0.569880  0.942496  1
  Co  Co4  1  0.000000  0.372997  0.428321  1
  Co  Co5  1  0.000000  0.057527  0.626731  1
  Co  Co6  1  0.500000  0.118799  0.218582  1
  Co  Co7  1  0.500000  0.099114  0.880874  1
  Co  Co8  1  0.000000  0.877325  0.153918  1
  Co  Co9  1  0.000000  0.276661  0.123684  1
  Co  Co10  1  0.000000  0.848596  0.726692  1
  Co  Co11  1  0.500000  0.949356  0.378850  1
  Co  Co12  1  0.500000  0.428281  0.049163  1
  Co  Co13  1  0.500000  0.620828  0.570542  1
  As  As14  1  0.000000  0.003310  0.002859  1
  As  As15  1  0.500000  0.704878  0.110836  1
  As  As16  1  0.500000  0.399472  0.291621  1
  As  As17  1  0.500000  0.893385  0.600629  1
  As  As18  1  0.000000  0.591919  0.701760  1
  As  As19  1  0.000000  0.109400  0.403860  1
  As  As20  1  0.000000  0.295110  0.889976  1
