# generated using pymatgen
data_Tm7ScCr2(B12Rh)2
_symmetry_space_group_name_H-M   'P 1'
_cell_length_a   3.55960200
_cell_length_b   9.05556867
_cell_length_c   11.42660021
_cell_angle_alpha   90.02372431
_cell_angle_beta   90.00000000
_cell_angle_gamma   90.00000000
_symmetry_Int_Tables_number   1
_chemical_formula_structural   Tm7ScCr2(B12Rh)2
_chemical_formula_sum   'Tm7 Sc1 Cr2 B24 Rh2'
_cell_volume   368.32751772
_cell_formula_units_Z   1
loop_
 _symmetry_equiv_pos_site_id
 _symmetry_equiv_pos_as_xyz
  1  'x, y, z'
loop_
 _atom_site_type_symbol
 _atom_site_label
 _atom_site_symmetry_multiplicity
 _atom_site_fract_x
 _atom_site_fract_y
 _atom_site_fract_z
 _atom_site_occupancy
  Tm  Tm0  1  0.000000  0.945731  0.370664  1
  Tm  Tm1  1  0.000000  0.058402  0.627322  1
  Tm  Tm2  1  0.000000  0.554000  0.873395  1
  Tm  Tm3  1  0.000000  0.182994  0.915905  1
  Tm  Tm4  1  0.000000  0.823958  0.086640  1
  Tm  Tm5  1  0.000000  0.674371  0.585836  1
  Tm  Tm6  1  0.000000  0.318939  0.413837  1
  Sc  Sc7  1  0.000000  0.440141  0.127407  1
  Cr  Cr8  1  0.000000  0.141008  0.178828  1
  Cr  Cr9  1  0.000000  0.361812  0.680642  1
  B  B10  1  0.500000  0.369376  0.816134  1
  B  B11  1  0.500000  0.982874  0.211305  1
  B  B12  1  0.500000  0.551244  0.432946  1
  B  B13  1  0.500000  0.294151  0.233831  1
  B  B14  1  0.500000  0.208448  0.735787  1
  B  B15  1  0.500000  0.106370  0.470330  1
  B  B16  1  0.500000  0.791876  0.263680  1
  B  B17  1  0.500000  0.446633  0.566457  1
  B  B18  1  0.500000  0.251834  0.580913  1
  B  B19  1  0.500000  0.479465  0.285192  1
  B  B20  1  0.500000  0.706859  0.765414  1
  B  B21  1  0.500000  0.748201  0.419935  1
  B  B22  1  0.500000  0.518072  0.712543  1
  B  B23  1  0.500000  0.891310  0.529189  1
  B  B24  1  0.500000  0.055332  0.066306  1
  B  B25  1  0.500000  0.602363  0.030739  1
  B  B26  1  0.500000  0.750343  0.921706  1
  B  B27  1  0.500000  0.019113  0.787717  1
  B  B28  1  0.500000  0.397693  0.974361  1
  B  B29  1  0.500000  0.948306  0.934472  1
  B  B30  1  0.500000  0.628794  0.182119  1
  B  B31  1  0.500000  0.252299  0.080970  1
  B  B32  1  0.500000  0.867421  0.683444  1
  B  B33  1  0.500000  0.132159  0.314236  1
  Rh  Rh34  1  0.000000  0.861054  0.821160  1
  Rh  Rh35  1  0.000000  0.637052  0.318638  1
