# generated using pymatgen
data_DyThMoC2
_symmetry_space_group_name_H-M   'P 1'
_cell_length_a   5.27177600
_cell_length_b   6.78796100
_cell_length_c   9.99482300
_cell_angle_alpha   90.00000000
_cell_angle_beta   90.00000000
_cell_angle_gamma   90.00000000
_symmetry_Int_Tables_number   1
_chemical_formula_structural   DyThMoC2
_chemical_formula_sum   'Dy4 Th4 Mo4 C8'
_cell_volume   357.66084196
_cell_formula_units_Z   4
loop_
 _symmetry_equiv_pos_site_id
 _symmetry_equiv_pos_as_xyz
  1  'x, y, z'
loop_
 _atom_site_type_symbol
 _atom_site_label
 _atom_site_symmetry_multiplicity
 _atom_site_fract_x
 _atom_site_fract_y
 _atom_site_fract_z
 _atom_site_occupancy
  Dy  Dy0  1  0.250000  0.829072  0.056499  1
  Dy  Dy1  1  0.750000  0.670928  0.556499  1
  Dy  Dy2  1  0.250000  0.329072  0.443501  1
  Dy  Dy3  1  0.750000  0.170928  0.943501  1
  Th  Th4  1  0.250000  0.464501  0.786727  1
  Th  Th5  1  0.750000  0.035499  0.286727  1
  Th  Th6  1  0.250000  0.964501  0.713273  1
  Th  Th7  1  0.750000  0.535499  0.213273  1
  Mo  Mo8  1  0.250000  0.280736  0.131806  1
  Mo  Mo9  1  0.750000  0.219264  0.631806  1
  Mo  Mo10  1  0.250000  0.780736  0.368194  1
  Mo  Mo11  1  0.750000  0.719264  0.868194  1
  C  C12  1  0.250000  0.170392  0.945863  1
  C  C13  1  0.750000  0.829608  0.054137  1
  C  C14  1  0.250000  0.670392  0.554137  1
  C  C15  1  0.750000  0.329608  0.445863  1
  C  C16  1  0.250000  0.049965  0.260197  1
  C  C17  1  0.750000  0.450035  0.760197  1
  C  C18  1  0.250000  0.549965  0.239803  1
  C  C19  1  0.750000  0.950035  0.739803  1
