# generated using pymatgen
data_SrNpScO6
_symmetry_space_group_name_H-M   'P 1'
_cell_length_a   5.58668600
_cell_length_b   5.58668687
_cell_length_c   5.26628900
_cell_angle_alpha   90.00000000
_cell_angle_beta   90.00000000
_cell_angle_gamma   119.99999487
_symmetry_Int_Tables_number   1
_chemical_formula_structural   SrNpScO6
_chemical_formula_sum   'Sr1 Np1 Sc1 O6'
_cell_volume   142.34556315
_cell_formula_units_Z   1
loop_
 _symmetry_equiv_pos_site_id
 _symmetry_equiv_pos_as_xyz
  1  'x, y, z'
loop_
 _atom_site_type_symbol
 _atom_site_label
 _atom_site_symmetry_multiplicity
 _atom_site_fract_x
 _atom_site_fract_y
 _atom_site_fract_z
 _atom_site_occupancy
  Sr  Sr0  1  0.666667  0.333333  0.000000  1
  Np  Np1  1  0.000000  0.000000  0.500000  1
  Sc  Sc2  1  0.333333  0.666666  0.500000  1
  O  O3  1  0.030863  0.320379  0.293968  1
  O  O4  1  0.679620  0.710484  0.293968  1
  O  O5  1  0.289516  0.969136  0.293968  1
  O  O6  1  0.289515  0.320379  0.706032  1
  O  O7  1  0.030863  0.710484  0.706032  1
  O  O8  1  0.679621  0.969136  0.706032  1
