# generated using pymatgen
data_LiMn5(SiRu2)6
_symmetry_space_group_name_H-M   'P 1'
_cell_length_a   4.16816001
_cell_length_b   5.88700800
_cell_length_c   12.53391104
_cell_angle_alpha   90.00000000
_cell_angle_beta   90.00868188
_cell_angle_gamma   90.00000000
_symmetry_Int_Tables_number   1
_chemical_formula_structural   LiMn5(SiRu2)6
_chemical_formula_sum   'Li1 Mn5 Si6 Ru12'
_cell_volume   307.55699687
_cell_formula_units_Z   1
loop_
 _symmetry_equiv_pos_site_id
 _symmetry_equiv_pos_as_xyz
  1  'x, y, z'
loop_
 _atom_site_type_symbol
 _atom_site_label
 _atom_site_symmetry_multiplicity
 _atom_site_fract_x
 _atom_site_fract_y
 _atom_site_fract_z
 _atom_site_occupancy
  Li  Li0  1  0.000000  0.000000  0.000000  1
  Mn  Mn1  1  0.499737  0.500000  0.164607  1
  Mn  Mn2  1  0.999719  0.000000  0.332157  1
  Mn  Mn3  1  0.500001  0.500000  0.500000  1
  Mn  Mn4  1  0.000280  0.000000  0.667844  1
  Mn  Mn5  1  0.500262  0.500000  0.835393  1
  Si  Si6  1  0.000000  0.500000  0.000000  1
  Si  Si7  1  0.499724  0.000000  0.161620  1
  Si  Si8  1  0.999701  0.500000  0.330045  1
  Si  Si9  1  0.500001  0.000000  0.500000  1
  Si  Si10  1  0.000299  0.500000  0.669955  1
  Si  Si11  1  0.500275  0.000000  0.838380  1
  Ru  Ru12  1  0.500001  0.256132  0.000000  1
  Ru  Ru13  1  0.500001  0.743867  0.000000  1
  Ru  Ru14  1  0.999730  0.252733  0.169202  1
  Ru  Ru15  1  0.999730  0.747268  0.169202  1
  Ru  Ru16  1  0.499725  0.249640  0.334077  1
  Ru  Ru17  1  0.499725  0.750359  0.334077  1
  Ru  Ru18  1  0.000000  0.250301  0.500000  1
  Ru  Ru19  1  0.000000  0.749699  0.500000  1
  Ru  Ru20  1  0.500275  0.249640  0.665923  1
  Ru  Ru21  1  0.500275  0.750359  0.665923  1
  Ru  Ru22  1  0.000269  0.252733  0.830798  1
  Ru  Ru23  1  0.000269  0.747268  0.830798  1
