# generated using pymatgen
data_Np2CoNi(BN)2
_symmetry_space_group_name_H-M   'P 1'
_cell_length_a   3.50674900
_cell_length_b   3.50674900
_cell_length_c   7.42032600
_cell_angle_alpha   90.00000000
_cell_angle_beta   90.00000000
_cell_angle_gamma   90.00000000
_symmetry_Int_Tables_number   1
_chemical_formula_structural   Np2CoNi(BN)2
_chemical_formula_sum   'Np2 Co1 Ni1 B2 N2'
_cell_volume   91.24988995
_cell_formula_units_Z   1
loop_
 _symmetry_equiv_pos_site_id
 _symmetry_equiv_pos_as_xyz
  1  'x, y, z'
loop_
 _atom_site_type_symbol
 _atom_site_label
 _atom_site_symmetry_multiplicity
 _atom_site_fract_x
 _atom_site_fract_y
 _atom_site_fract_z
 _atom_site_occupancy
  Np  Np0  1  0.000000  0.500000  0.328533  1
  Np  Np1  1  0.500000  0.000000  0.671467  1
  Co  Co2  1  0.000000  0.000000  0.000000  1
  Ni  Ni3  1  0.500000  0.500000  0.000000  1
  B  B4  1  0.000000  0.500000  0.844246  1
  B  B5  1  0.500000  0.000000  0.155754  1
  N  N6  1  0.000000  0.500000  0.640446  1
  N  N7  1  0.500000  0.000000  0.359554  1
