# generated using pymatgen
data_Tb3TiTcC6
_symmetry_space_group_name_H-M   'P 1'
_cell_length_a   8.42445000
_cell_length_b   8.42444975
_cell_length_c   5.08668800
_cell_angle_alpha   90.00000000
_cell_angle_beta   90.00000000
_cell_angle_gamma   119.99999313
_symmetry_Int_Tables_number   1
_chemical_formula_structural   Tb3TiTcC6
_chemical_formula_sum   'Tb6 Ti2 Tc2 C12'
_cell_volume   312.64311073
_cell_formula_units_Z   2
loop_
 _symmetry_equiv_pos_site_id
 _symmetry_equiv_pos_as_xyz
  1  'x, y, z'
loop_
 _atom_site_type_symbol
 _atom_site_label
 _atom_site_symmetry_multiplicity
 _atom_site_fract_x
 _atom_site_fract_y
 _atom_site_fract_z
 _atom_site_occupancy
  Tb  Tb0  1  0.622586  0.685532  0.750000  1
  Tb  Tb1  1  0.937056  0.622586  0.250000  1
  Tb  Tb2  1  0.685532  0.062944  0.250000  1
  Tb  Tb3  1  0.314468  0.937056  0.750000  1
  Tb  Tb4  1  0.062944  0.377414  0.750000  1
  Tb  Tb5  1  0.377414  0.314468  0.250000  1
  Ti  Ti6  1  0.000000  0.000000  0.500000  1
  Ti  Ti7  1  0.000000  0.000000  0.000000  1
  Tc  Tc8  1  0.666667  0.333333  0.750000  1
  Tc  Tc9  1  0.333333  0.666667  0.250000  1
  C  C10  1  0.964450  0.768344  0.750000  1
  C  C11  1  0.196106  0.964450  0.250000  1
  C  C12  1  0.768344  0.803894  0.250000  1
  C  C13  1  0.231656  0.196106  0.750000  1
  C  C14  1  0.803894  0.035550  0.750000  1
  C  C15  1  0.035550  0.231656  0.250000  1
  C  C16  1  0.868197  0.581704  0.750000  1
  C  C17  1  0.286493  0.868197  0.250000  1
  C  C18  1  0.581704  0.713507  0.250000  1
  C  C19  1  0.418296  0.286493  0.750000  1
  C  C20  1  0.131803  0.418296  0.250000  1
  C  C21  1  0.713507  0.131803  0.750000  1
