# generated using pymatgen
data_Cr9Cu3S16
_symmetry_space_group_name_H-M   'P 1'
_cell_length_a   6.98656300
_cell_length_b   6.98656300
_cell_length_c   9.88667300
_cell_angle_alpha   90.00000000
_cell_angle_beta   90.00000000
_cell_angle_gamma   90.00000000
_symmetry_Int_Tables_number   1
_chemical_formula_structural   Cr9Cu3S16
_chemical_formula_sum   'Cr9 Cu3 S16'
_cell_volume   482.58890092
_cell_formula_units_Z   1
loop_
 _symmetry_equiv_pos_site_id
 _symmetry_equiv_pos_as_xyz
  1  'x, y, z'
loop_
 _atom_site_type_symbol
 _atom_site_label
 _atom_site_symmetry_multiplicity
 _atom_site_fract_x
 _atom_site_fract_y
 _atom_site_fract_z
 _atom_site_occupancy
  Cr  Cr0  1  0.500000  0.500000  0.500000  1
  Cr  Cr1  1  0.757530  0.000000  0.625211  1
  Cr  Cr2  1  0.249998  0.500000  0.120792  1
  Cr  Cr3  1  0.242470  0.000000  0.625211  1
  Cr  Cr4  1  0.750002  0.500000  0.120792  1
  Cr  Cr5  1  0.000000  0.242470  0.374789  1
  Cr  Cr6  1  0.500000  0.750002  0.879208  1
  Cr  Cr7  1  0.500000  0.249998  0.879208  1
  Cr  Cr8  1  0.000000  0.757530  0.374789  1
  Cu  Cu9  1  0.000000  0.000000  0.000000  1
  Cu  Cu10  1  0.500000  0.000000  0.249511  1
  Cu  Cu11  1  0.000000  0.500000  0.750489  1
  S  S12  1  0.767077  0.500000  0.365994  1
  S  S13  1  0.266023  0.000000  0.866857  1
  S  S14  1  0.232923  0.500000  0.365994  1
  S  S15  1  0.733977  0.000000  0.866857  1
  S  S16  1  0.500000  0.232923  0.634006  1
  S  S17  1  0.000000  0.733977  0.133143  1
  S  S18  1  0.500000  0.767077  0.634006  1
  S  S19  1  0.000000  0.266023  0.133143  1
  S  S20  1  0.234951  0.000000  0.383136  1
  S  S21  1  0.734095  0.500000  0.882841  1
  S  S22  1  0.765049  0.000000  0.383136  1
  S  S23  1  0.265905  0.500000  0.882841  1
  S  S24  1  0.500000  0.265905  0.117159  1
  S  S25  1  0.000000  0.765049  0.616864  1
  S  S26  1  0.500000  0.734095  0.117159  1
  S  S27  1  0.000000  0.234951  0.616864  1
