# generated using pymatgen
data_Hf8ZrIn14Co6Tc
_symmetry_space_group_name_H-M   'P 1'
_cell_length_a   9.41643172
_cell_length_b   9.41643245
_cell_length_c   9.41643300
_cell_angle_alpha   60.00000157
_cell_angle_beta   59.99999901
_cell_angle_gamma   59.99999987
_symmetry_Int_Tables_number   1
_chemical_formula_structural   Hf8ZrIn14Co6Tc
_chemical_formula_sum   'Hf8 Zr1 In14 Co6 Tc1'
_cell_volume   590.39705294
_cell_formula_units_Z   1
loop_
 _symmetry_equiv_pos_site_id
 _symmetry_equiv_pos_as_xyz
  1  'x, y, z'
loop_
 _atom_site_type_symbol
 _atom_site_label
 _atom_site_symmetry_multiplicity
 _atom_site_fract_x
 _atom_site_fract_y
 _atom_site_fract_z
 _atom_site_occupancy
  Hf  Hf0  1  0.120094  0.639719  0.120094  1
  Hf  Hf1  1  0.360281  0.879906  0.879906  1
  Hf  Hf2  1  0.879906  0.879906  0.879906  1
  Hf  Hf3  1  0.639719  0.120094  0.120094  1
  Hf  Hf4  1  0.879906  0.879906  0.360281  1
  Hf  Hf5  1  0.120094  0.120094  0.120094  1
  Hf  Hf6  1  0.879906  0.360281  0.879906  1
  Hf  Hf7  1  0.120094  0.120094  0.639719  1
  Zr  Zr8  1  0.500000  0.500000  0.500000  1
  In  In9  1  0.500000  0.842511  0.157489  1
  In  In10  1  0.500000  0.842511  0.500000  1
  In  In11  1  0.500000  0.157489  0.500000  1
  In  In12  1  0.500000  0.500000  0.842511  1
  In  In13  1  0.157489  0.500000  0.500000  1
  In  In14  1  0.842511  0.157489  0.500000  1
  In  In15  1  0.157489  0.842511  0.500000  1
  In  In16  1  0.500000  0.157489  0.842511  1
  In  In17  1  0.157489  0.500000  0.842511  1
  In  In18  1  0.500000  0.500000  0.157489  1
  In  In19  1  0.842511  0.500000  0.500000  1
  In  In20  1  0.842511  0.500000  0.157489  1
  In  In21  1  0.250000  0.250000  0.250000  1
  In  In22  1  0.750000  0.750000  0.750000  1
  Co  Co23  1  0.777776  0.777776  0.222224  1
  Co  Co24  1  0.222224  0.777776  0.222224  1
  Co  Co25  1  0.222224  0.777776  0.777776  1
  Co  Co26  1  0.222224  0.222224  0.777776  1
  Co  Co27  1  0.777776  0.222224  0.777776  1
  Co  Co28  1  0.777776  0.222224  0.222224  1
  Tc  Tc29  1  0.000000  0.000000  0.000000  1
