# generated using pymatgen
data_TbPr3Ho(Sn5Rh2)2
_symmetry_space_group_name_H-M   'P 1'
_cell_length_a   14.20642086
_cell_length_b   14.20642086
_cell_length_c   4.59049900
_cell_angle_alpha   90.00000000
_cell_angle_beta   90.00000000
_cell_angle_gamma   90.03997599
_symmetry_Int_Tables_number   1
_chemical_formula_structural   TbPr3Ho(Sn5Rh2)2
_chemical_formula_sum   'Tb2 Pr6 Ho2 Sn20 Rh8'
_cell_volume   926.46527131
_cell_formula_units_Z   2
loop_
 _symmetry_equiv_pos_site_id
 _symmetry_equiv_pos_as_xyz
  1  'x, y, z'
loop_
 _atom_site_type_symbol
 _atom_site_label
 _atom_site_symmetry_multiplicity
 _atom_site_fract_x
 _atom_site_fract_y
 _atom_site_fract_z
 _atom_site_occupancy
  Tb  Tb0  1  0.676777  0.176777  0.500000  1
  Tb  Tb1  1  0.323223  0.823223  0.500000  1
  Pr  Pr2  1  0.500000  0.500000  0.000000  1
  Pr  Pr3  1  0.000000  0.000000  0.000000  1
  Pr  Pr4  1  0.888256  0.388256  0.500000  1
  Pr  Pr5  1  0.111744  0.611744  0.500000  1
  Pr  Pr6  1  0.388159  0.111841  0.500000  1
  Pr  Pr7  1  0.611841  0.888159  0.500000  1
  Ho  Ho8  1  0.176597  0.323403  0.500000  1
  Ho  Ho9  1  0.823403  0.676597  0.500000  1
  Sn  Sn10  1  0.569859  0.069859  0.000000  1
  Sn  Sn11  1  0.430141  0.930141  0.000000  1
  Sn  Sn12  1  0.070027  0.429973  0.000000  1
  Sn  Sn13  1  0.929973  0.570027  0.000000  1
  Sn  Sn14  1  0.654158  0.698524  0.000000  1
  Sn  Sn15  1  0.345842  0.301476  0.000000  1
  Sn  Sn16  1  0.153957  0.801442  0.000000  1
  Sn  Sn17  1  0.846043  0.198558  0.000000  1
  Sn  Sn18  1  0.301442  0.653957  0.000000  1
  Sn  Sn19  1  0.698558  0.346043  0.000000  1
  Sn  Sn20  1  0.198524  0.154158  0.000000  1
  Sn  Sn21  1  0.801476  0.845842  0.000000  1
  Sn  Sn22  1  0.664304  0.506147  0.500000  1
  Sn  Sn23  1  0.335696  0.493853  0.500000  1
  Sn  Sn24  1  0.164239  0.993943  0.500000  1
  Sn  Sn25  1  0.835761  0.006057  0.500000  1
  Sn  Sn26  1  0.493943  0.664239  0.500000  1
  Sn  Sn27  1  0.506057  0.335761  0.500000  1
  Sn  Sn28  1  0.006147  0.164304  0.500000  1
  Sn  Sn29  1  0.993853  0.835696  0.500000  1
  Rh  Rh30  1  0.747433  0.530298  0.000000  1
  Rh  Rh31  1  0.252567  0.469702  0.000000  1
  Rh  Rh32  1  0.247302  0.969977  0.000000  1
  Rh  Rh33  1  0.752698  0.030023  0.000000  1
  Rh  Rh34  1  0.469977  0.747302  0.000000  1
  Rh  Rh35  1  0.530023  0.252698  0.000000  1
  Rh  Rh36  1  0.030298  0.247433  0.000000  1
  Rh  Rh37  1  0.969702  0.752567  0.000000  1
