# generated using pymatgen
data_Dy5Co16Si3(TcP3)3
_symmetry_space_group_name_H-M   'P 1'
_cell_length_a   12.10963000
_cell_length_b   12.10963018
_cell_length_c   3.72089300
_cell_angle_alpha   90.00000000
_cell_angle_beta   90.00000000
_cell_angle_gamma   119.99999403
_symmetry_Int_Tables_number   1
_chemical_formula_structural   Dy5Co16Si3(TcP3)3
_chemical_formula_sum   'Dy5 Co16 Si3 Tc3 P9'
_cell_volume   472.54110600
_cell_formula_units_Z   1
loop_
 _symmetry_equiv_pos_site_id
 _symmetry_equiv_pos_as_xyz
  1  'x, y, z'
loop_
 _atom_site_type_symbol
 _atom_site_label
 _atom_site_symmetry_multiplicity
 _atom_site_fract_x
 _atom_site_fract_y
 _atom_site_fract_z
 _atom_site_occupancy
  Dy  Dy0  1  0.666667  0.333333  0.000000  1
  Dy  Dy1  1  0.333333  0.666667  0.000000  1
  Dy  Dy2  1  0.185823  0.185020  0.500000  1
  Dy  Dy3  1  0.814980  0.000803  0.500000  1
  Dy  Dy4  1  0.999197  0.814177  0.500000  1
  Co  Co5  1  0.823946  0.195072  0.000000  1
  Co  Co6  1  0.804928  0.628875  0.000000  1
  Co  Co7  1  0.371125  0.176054  0.000000  1
  Co  Co8  1  0.196950  0.820713  0.000000  1
  Co  Co9  1  0.623763  0.803050  0.000000  1
  Co  Co10  1  0.179287  0.376237  0.000000  1
  Co  Co11  1  0.645419  0.120413  0.500000  1
  Co  Co12  1  0.879587  0.525005  0.500000  1
  Co  Co13  1  0.474995  0.354581  0.500000  1
  Co  Co14  1  0.128055  0.644776  0.500000  1
  Co  Co15  1  0.516720  0.871945  0.500000  1
  Co  Co16  1  0.355224  0.483280  0.500000  1
  Co  Co17  1  0.718801  0.723248  0.500000  1
  Co  Co18  1  0.276752  0.995552  0.500000  1
  Co  Co19  1  0.004448  0.281199  0.500000  1
  Co  Co20  1  0.000000  0.000000  0.000000  1
  Si  Si21  1  0.837528  0.316185  0.500000  1
  Si  Si22  1  0.683815  0.521342  0.500000  1
  Si  Si23  1  0.478658  0.162472  0.500000  1
  Tc  Tc24  1  0.553479  0.555227  0.000000  1
  Tc  Tc25  1  0.444773  0.998252  0.000000  1
  Tc  Tc26  1  0.001748  0.446521  0.000000  1
  P  P27  1  0.364066  0.363393  0.000000  1
  P  P28  1  0.636607  0.000673  0.000000  1
  P  P29  1  0.999327  0.635934  0.000000  1
  P  P30  1  0.314457  0.835360  0.500000  1
  P  P31  1  0.520903  0.685543  0.500000  1
  P  P32  1  0.164640  0.479097  0.500000  1
  P  P33  1  0.820149  0.821332  0.000000  1
  P  P34  1  0.178668  0.998817  0.000000  1
  P  P35  1  0.001183  0.179851  0.000000  1
