# generated using pymatgen
data_Tb2Dy3(CoO6)2
_symmetry_space_group_name_H-M   'P 1'
_cell_length_a   6.76444462
_cell_length_b   6.76444549
_cell_length_c   7.21176757
_cell_angle_alpha   74.51879195
_cell_angle_beta   74.51877923
_cell_angle_gamma   50.46578737
_symmetry_Int_Tables_number   1
_chemical_formula_structural   Tb2Dy3(CoO6)2
_chemical_formula_sum   'Tb2 Dy3 Co2 O12'
_cell_volume   243.17376077
_cell_formula_units_Z   1
loop_
 _symmetry_equiv_pos_site_id
 _symmetry_equiv_pos_as_xyz
  1  'x, y, z'
loop_
 _atom_site_type_symbol
 _atom_site_label
 _atom_site_symmetry_multiplicity
 _atom_site_fract_x
 _atom_site_fract_y
 _atom_site_fract_z
 _atom_site_occupancy
  Tb  Tb0  1  0.000065  0.000065  0.999847  1
  Tb  Tb1  1  0.307507  0.307507  0.335832  1
  Dy  Dy2  1  0.692405  0.692405  0.664450  1
  Dy  Dy3  1  0.693843  0.693843  0.144028  1
  Dy  Dy4  1  0.306200  0.306200  0.855506  1
  Co  Co5  1  0.244178  0.755733  0.500162  1
  Co  Co6  1  0.755733  0.244178  0.500162  1
  O  O7  1  0.403116  0.903149  0.923124  1
  O  O8  1  0.583449  0.098884  0.579408  1
  O  O9  1  0.899681  0.417543  0.421439  1
  O  O10  1  0.096273  0.597616  0.075980  1
  O  O11  1  0.000180  0.000180  0.329540  1
  O  O12  1  0.500038  0.500038  0.674251  1
  O  O13  1  0.903149  0.403116  0.923124  1
  O  O14  1  0.098884  0.583449  0.579408  1
  O  O15  1  0.417543  0.899681  0.421439  1
  O  O16  1  0.597616  0.096273  0.075980  1
  O  O17  1  0.500266  0.500266  0.325854  1
  O  O18  1  0.999872  0.999872  0.670466  1
