# generated using pymatgen
data_Ho12InFe3Rh
_symmetry_space_group_name_H-M   'P 1'
_cell_length_a   8.25957446
_cell_length_b   8.25957390
_cell_length_c   8.25957500
_cell_angle_alpha   111.04284577
_cell_angle_beta   106.67795112
_cell_angle_gamma   110.72862241
_symmetry_Int_Tables_number   1
_chemical_formula_structural   Ho12InFe3Rh
_chemical_formula_sum   'Ho12 In1 Fe3 Rh1'
_cell_volume   432.98976003
_cell_formula_units_Z   1
loop_
 _symmetry_equiv_pos_site_id
 _symmetry_equiv_pos_as_xyz
  1  'x, y, z'
loop_
 _atom_site_type_symbol
 _atom_site_label
 _atom_site_symmetry_multiplicity
 _atom_site_fract_x
 _atom_site_fract_y
 _atom_site_fract_z
 _atom_site_occupancy
  Ho  Ho0  1  0.310427  0.310257  0.620684  1
  Ho  Ho1  1  0.689573  0.689743  0.379316  1
  Ho  Ho2  1  0.689573  0.310257  0.999831  1
  Ho  Ho3  1  0.310427  0.689743  0.000169  1
  Ho  Ho4  1  0.188616  0.467057  0.278440  1
  Ho  Ho5  1  0.811384  0.532943  0.721560  1
  Ho  Ho6  1  0.188616  0.910175  0.721560  1
  Ho  Ho7  1  0.971663  0.187077  0.784588  1
  Ho  Ho8  1  0.811384  0.089825  0.278440  1
  Ho  Ho9  1  0.028337  0.812923  0.215412  1
  Ho  Ho10  1  0.402489  0.187077  0.215412  1
  Ho  Ho11  1  0.597511  0.812923  0.784588  1
  In  In12  1  0.500000  0.000000  0.500000  1
  Fe  Fe13  1  0.381305  0.381305  0.000000  1
  Fe  Fe14  1  0.618695  0.618695  0.000000  1
  Fe  Fe15  1  0.000000  0.000000  0.000000  1
  Rh  Rh16  1  0.000000  0.500000  0.500000  1
