# generated using pymatgen
data_Tb8Er12Si15Ir
_symmetry_space_group_name_H-M   'P 1'
_cell_length_a   7.33690554
_cell_length_b   7.73113956
_cell_length_c   14.54868000
_cell_angle_alpha   90.00000000
_cell_angle_beta   90.00000000
_cell_angle_gamma   90.09327097
_symmetry_Int_Tables_number   1
_chemical_formula_structural   Tb8Er12Si15Ir
_chemical_formula_sum   'Tb8 Er12 Si15 Ir1'
_cell_volume   825.23845432
_cell_formula_units_Z   1
loop_
 _symmetry_equiv_pos_site_id
 _symmetry_equiv_pos_as_xyz
  1  'x, y, z'
loop_
 _atom_site_type_symbol
 _atom_site_label
 _atom_site_symmetry_multiplicity
 _atom_site_fract_x
 _atom_site_fract_y
 _atom_site_fract_z
 _atom_site_occupancy
  Tb  Tb0  1  0.017291  0.183440  0.096988  1
  Tb  Tb1  1  0.985619  0.823841  0.904267  1
  Tb  Tb2  1  0.483871  0.679175  0.904740  1
  Tb  Tb3  1  0.985619  0.823841  0.595733  1
  Tb  Tb4  1  0.516622  0.319896  0.096747  1
  Tb  Tb5  1  0.017291  0.183440  0.403012  1
  Tb  Tb6  1  0.516622  0.319896  0.403253  1
  Tb  Tb7  1  0.483871  0.679175  0.595260  1
  Er  Er8  1  0.155654  0.511527  0.750000  1
  Er  Er9  1  0.839370  0.488554  0.250000  1
  Er  Er10  1  0.341305  0.014004  0.250000  1
  Er  Er11  1  0.667174  0.989146  0.750000  1
  Er  Er12  1  0.316657  0.174075  0.626275  1
  Er  Er13  1  0.675238  0.823676  0.375292  1
  Er  Er14  1  0.174400  0.680047  0.376056  1
  Er  Er15  1  0.675238  0.823676  0.124708  1
  Er  Er16  1  0.833902  0.316394  0.625639  1
  Er  Er17  1  0.316657  0.174075  0.873725  1
  Er  Er18  1  0.833902  0.316394  0.874361  1
  Er  Er19  1  0.174400  0.680047  0.123944  1
  Si  Si20  1  0.970756  0.893435  0.250000  1
  Si  Si21  1  0.469746  0.608342  0.250000  1
  Si  Si22  1  0.529338  0.396036  0.750000  1
  Si  Si23  1  0.279387  0.866399  0.750000  1
  Si  Si24  1  0.720760  0.130617  0.250000  1
  Si  Si25  1  0.221070  0.372050  0.250000  1
  Si  Si26  1  0.769571  0.623279  0.750000  1
  Si  Si27  1  0.157103  0.471537  0.537653  1
  Si  Si28  1  0.845115  0.532518  0.462103  1
  Si  Si29  1  0.347061  0.969823  0.461205  1
  Si  Si30  1  0.845115  0.532518  0.037897  1
  Si  Si31  1  0.651766  0.030691  0.537972  1
  Si  Si32  1  0.157103  0.471537  0.962347  1
  Si  Si33  1  0.651766  0.030691  0.962028  1
  Si  Si34  1  0.347061  0.969823  0.038795  1
  Ir  Ir35  1  0.026569  0.096386  0.750000  1
