# generated using pymatgen
data_Ce2GeH4
_symmetry_space_group_name_H-M   'P 1'
_cell_length_a   6.13280285
_cell_length_b   6.13280374
_cell_length_c   6.13280246
_cell_angle_alpha   106.03150600
_cell_angle_beta   106.03149976
_cell_angle_gamma   116.59417987
_symmetry_Int_Tables_number   1
_chemical_formula_structural   Ce2GeH4
_chemical_formula_sum   'Ce4 Ge2 H8'
_cell_volume   175.48141148
_cell_formula_units_Z   2
loop_
 _symmetry_equiv_pos_site_id
 _symmetry_equiv_pos_as_xyz
  1  'x, y, z'
loop_
 _atom_site_type_symbol
 _atom_site_label
 _atom_site_symmetry_multiplicity
 _atom_site_fract_x
 _atom_site_fract_y
 _atom_site_fract_z
 _atom_site_occupancy
  Ce  Ce0  1  0.836449  0.663551  0.500000  1
  Ce  Ce1  1  0.663551  0.163551  0.827102  1
  Ce  Ce2  1  0.163551  0.336449  0.500000  1
  Ce  Ce3  1  0.336449  0.836449  0.172898  1
  Ge  Ge4  1  0.750000  0.750000  0.000000  1
  Ge  Ge5  1  0.250000  0.250000  0.000000  1
  H  H6  1  0.222249  0.976367  0.500000  1
  H  H7  1  0.476367  0.722249  0.500000  1
  H  H8  1  0.722249  0.222249  0.245883  1
  H  H9  1  0.976367  0.476367  0.754117  1
  H  H10  1  0.277751  0.777751  0.754117  1
  H  H11  1  0.523633  0.277751  0.500000  1
  H  H12  1  0.023633  0.523633  0.245883  1
  H  H13  1  0.777751  0.023633  0.500000  1
