# generated using pymatgen
data_Sr8Cd3Si12Pd
_symmetry_space_group_name_H-M   'P 1'
_cell_length_a   11.94746154
_cell_length_b   10.26606740
_cell_length_c   8.48979164
_cell_angle_alpha   78.41560933
_cell_angle_beta   57.47902178
_cell_angle_gamma   44.75696425
_symmetry_Int_Tables_number   1
_chemical_formula_structural   Sr8Cd3Si12Pd
_chemical_formula_sum   'Sr8 Cd3 Si12 Pd1'
_cell_volume   588.80268546
_cell_formula_units_Z   1
loop_
 _symmetry_equiv_pos_site_id
 _symmetry_equiv_pos_as_xyz
  1  'x, y, z'
loop_
 _atom_site_type_symbol
 _atom_site_label
 _atom_site_symmetry_multiplicity
 _atom_site_fract_x
 _atom_site_fract_y
 _atom_site_fract_z
 _atom_site_occupancy
  Sr  Sr0  1  0.133720  0.121361  0.862940  1
  Sr  Sr1  1  0.863433  0.881676  0.133021  1
  Sr  Sr2  1  0.136204  0.123710  0.372088  1
  Sr  Sr3  1  0.373545  0.367161  0.134812  1
  Sr  Sr4  1  0.619272  0.632521  0.376759  1
  Sr  Sr5  1  0.377816  0.369923  0.617874  1
  Sr  Sr6  1  0.628815  0.628274  0.871432  1
  Sr  Sr7  1  0.869557  0.872301  0.630215  1
  Cd  Cd8  1  0.083543  0.417373  0.081113  1
  Cd  Cd9  1  0.832969  0.167425  0.831253  1
  Cd  Cd10  1  0.165963  0.833206  0.168296  1
  Si  Si11  1  0.908057  0.596289  0.435871  1
  Si  Si12  1  0.082157  0.410991  0.586295  1
  Si  Si13  1  0.433724  0.059953  0.910252  1
  Si  Si14  1  0.585507  0.919917  0.082942  1
  Si  Si15  1  0.338162  0.654423  0.819456  1
  Si  Si16  1  0.658242  0.341903  0.184038  1
  Si  Si17  1  0.825002  0.184342  0.334688  1
  Si  Si18  1  0.180718  0.821874  0.659343  1
  Si  Si19  1  0.905816  0.594429  0.907872  1
  Si  Si20  1  0.582763  0.918294  0.580999  1
  Si  Si21  1  0.340058  0.658953  0.338903  1
  Si  Si22  1  0.658185  0.340186  0.661519  1
  Pd  Pd23  1  0.416776  0.083517  0.418016  1
