# generated using pymatgen
data_La17Dy(CdIr6)2
_symmetry_space_group_name_H-M   'P 1'
_cell_length_a   11.39474000
_cell_length_b   11.39474000
_cell_length_c   6.43999500
_cell_angle_alpha   90.00000000
_cell_angle_beta   90.00000000
_cell_angle_gamma   90.00000000
_symmetry_Int_Tables_number   1
_chemical_formula_structural   La17Dy(CdIr6)2
_chemical_formula_sum   'La17 Dy1 Cd2 Ir12'
_cell_volume   836.16959266
_cell_formula_units_Z   1
loop_
 _symmetry_equiv_pos_site_id
 _symmetry_equiv_pos_as_xyz
  1  'x, y, z'
loop_
 _atom_site_type_symbol
 _atom_site_label
 _atom_site_symmetry_multiplicity
 _atom_site_fract_x
 _atom_site_fract_y
 _atom_site_fract_z
 _atom_site_occupancy
  La  La0  1  0.290715  0.088589  0.383266  1
  La  La1  1  0.282728  0.911620  0.890711  1
  La  La2  1  0.717272  0.088380  0.890711  1
  La  La3  1  0.709285  0.911411  0.383266  1
  La  La4  1  0.588891  0.788124  0.885116  1
  La  La5  1  0.586515  0.219447  0.390335  1
  La  La6  1  0.413485  0.780553  0.390335  1
  La  La7  1  0.411109  0.211876  0.885116  1
  La  La8  1  0.219447  0.413485  0.609665  1
  La  La9  1  0.211876  0.588891  0.114884  1
  La  La10  1  0.788124  0.411109  0.114884  1
  La  La11  1  0.780553  0.586515  0.609665  1
  La  La12  1  0.911620  0.717272  0.109289  1
  La  La13  1  0.911411  0.290715  0.616734  1
  La  La14  1  0.088589  0.709285  0.616734  1
  La  La15  1  0.088380  0.282728  0.109289  1
  La  La16  1  0.000000  0.000000  0.500000  1
  Dy  Dy17  1  0.500000  0.500000  0.000000  1
  Cd  Cd18  1  0.000000  0.000000  0.000000  1
  Cd  Cd19  1  0.500000  0.500000  0.500000  1
  Ir  Ir20  1  0.843374  0.155846  0.258192  1
  Ir  Ir21  1  0.844154  0.843374  0.741808  1
  Ir  Ir22  1  0.155846  0.156626  0.741808  1
  Ir  Ir23  1  0.156626  0.844154  0.258192  1
  Ir  Ir24  1  0.651903  0.346486  0.761495  1
  Ir  Ir25  1  0.653514  0.651903  0.238505  1
  Ir  Ir26  1  0.346486  0.348097  0.238505  1
  Ir  Ir27  1  0.348097  0.653514  0.761495  1
  Ir  Ir28  1  0.500000  0.000000  0.119743  1
  Ir  Ir29  1  0.500000  0.000000  0.618710  1
  Ir  Ir30  1  0.000000  0.500000  0.880257  1
  Ir  Ir31  1  0.000000  0.500000  0.381290  1
