# generated using pymatgen
data_Nb4Ge3Ru2
_symmetry_space_group_name_H-M   'P 1'
_cell_length_a   6.93619011
_cell_length_b   7.14862510
_cell_length_c   7.69090325
_cell_angle_alpha   117.69375143
_cell_angle_beta   116.80366924
_cell_angle_gamma   89.99999896
_symmetry_Int_Tables_number   1
_chemical_formula_structural   Nb4Ge3Ru2
_chemical_formula_sum   'Nb8 Ge6 Ru4'
_cell_volume   290.59315457
_cell_formula_units_Z   2
loop_
 _symmetry_equiv_pos_site_id
 _symmetry_equiv_pos_as_xyz
  1  'x, y, z'
loop_
 _atom_site_type_symbol
 _atom_site_label
 _atom_site_symmetry_multiplicity
 _atom_site_fract_x
 _atom_site_fract_y
 _atom_site_fract_z
 _atom_site_occupancy
  Nb  Nb0  1  0.903564  0.941062  0.382124  1
  Nb  Nb1  1  0.521441  0.058938  0.617876  1
  Nb  Nb2  1  0.516402  0.536896  0.573791  1
  Nb  Nb3  1  0.942611  0.463104  0.426209  1
  Nb  Nb4  1  0.086920  0.748056  0.996113  1
  Nb  Nb5  1  0.090807  0.251944  0.003887  1
  Nb  Nb6  1  0.748452  0.500000  0.000000  1
  Nb  Nb7  1  0.748452  0.000000  0.000000  1
  Ge  Ge8  1  0.181770  0.676440  0.341025  1
  Ge  Ge9  1  0.840745  0.323560  0.658975  1
  Ge  Ge10  1  0.181770  0.164584  0.341025  1
  Ge  Ge11  1  0.840745  0.835416  0.658975  1
  Ge  Ge12  1  0.439027  0.713347  0.926693  1
  Ge  Ge13  1  0.512335  0.286653  0.073307  1
  Ru  Ru14  1  0.248755  0.916455  0.746034  1
  Ru  Ru15  1  0.502721  0.083545  0.253966  1
  Ru  Ru16  1  0.248755  0.329579  0.746034  1
  Ru  Ru17  1  0.502721  0.670421  0.253966  1
