# generated using pymatgen
data_Na2Si(Ni2As)6
_symmetry_space_group_name_H-M   'P 1'
_cell_length_a   9.39009200
_cell_length_b   9.39009145
_cell_length_c   3.74557600
_cell_angle_alpha   90.00000000
_cell_angle_beta   90.00000000
_cell_angle_gamma   120.00000899
_symmetry_Int_Tables_number   1
_chemical_formula_structural   Na2Si(Ni2As)6
_chemical_formula_sum   'Na2 Si1 Ni12 As6'
_cell_volume   286.01504265
_cell_formula_units_Z   1
loop_
 _symmetry_equiv_pos_site_id
 _symmetry_equiv_pos_as_xyz
  1  'x, y, z'
loop_
 _atom_site_type_symbol
 _atom_site_label
 _atom_site_symmetry_multiplicity
 _atom_site_fract_x
 _atom_site_fract_y
 _atom_site_fract_z
 _atom_site_occupancy
  Na  Na0  1  0.000000  0.000000  0.000000  1
  Na  Na1  1  0.333333  0.666667  0.500000  1
  Si  Si2  1  0.666667  0.333333  0.000000  1
  Ni  Ni3  1  0.819353  0.608032  0.000000  1
  Ni  Ni4  1  0.391968  0.211320  0.000000  1
  Ni  Ni5  1  0.788680  0.180647  0.000000  1
  Ni  Ni6  1  0.042502  0.755149  0.500000  1
  Ni  Ni7  1  0.244851  0.287353  0.500000  1
  Ni  Ni8  1  0.712647  0.957498  0.500000  1
  Ni  Ni9  1  0.104677  0.383307  0.000000  1
  Ni  Ni10  1  0.616693  0.721372  0.000000  1
  Ni  Ni11  1  0.278628  0.895323  0.000000  1
  Ni  Ni12  1  0.858328  0.416468  0.500000  1
  Ni  Ni13  1  0.583532  0.441860  0.500000  1
  Ni  Ni14  1  0.558140  0.141672  0.500000  1
  As  As15  1  0.777514  0.740645  0.500000  1
  As  As16  1  0.259355  0.036869  0.500000  1
  As  As17  1  0.963131  0.222486  0.500000  1
  As  As18  1  0.072810  0.615045  0.000000  1
  As  As19  1  0.384955  0.457765  0.000000  1
  As  As20  1  0.542235  0.927190  0.000000  1
