# generated using pymatgen
data_La6MgScAu10
_symmetry_space_group_name_H-M   'P 1'
_cell_length_a   8.20543826
_cell_length_b   8.20543800
_cell_length_c   8.20543846
_cell_angle_alpha   66.02364511
_cell_angle_beta   66.02364405
_cell_angle_gamma   66.02362516
_symmetry_Int_Tables_number   1
_chemical_formula_structural   La6MgScAu10
_chemical_formula_sum   'La6 Mg1 Sc1 Au10'
_cell_volume   441.56435049
_cell_formula_units_Z   1
loop_
 _symmetry_equiv_pos_site_id
 _symmetry_equiv_pos_as_xyz
  1  'x, y, z'
loop_
 _atom_site_type_symbol
 _atom_site_label
 _atom_site_symmetry_multiplicity
 _atom_site_fract_x
 _atom_site_fract_y
 _atom_site_fract_z
 _atom_site_occupancy
  La  La0  1  0.893095  0.190074  0.620035  1
  La  La1  1  0.620035  0.893095  0.190074  1
  La  La2  1  0.190074  0.620035  0.893095  1
  La  La3  1  0.109154  0.806726  0.378949  1
  La  La4  1  0.378949  0.109154  0.806726  1
  La  La5  1  0.806726  0.378949  0.109154  1
  Mg  Mg6  1  0.345198  0.345198  0.345198  1
  Sc  Sc7  1  0.655132  0.655132  0.655132  1
  Au  Au8  1  0.999888  0.999888  0.999888  1
  Au  Au9  1  0.500534  0.500534  0.500534  1
  Au  Au10  1  0.800628  0.800628  0.800628  1
  Au  Au11  1  0.200003  0.200003  0.200003  1
  Au  Au12  1  0.939562  0.551190  0.321775  1
  Au  Au13  1  0.321775  0.939562  0.551190  1
  Au  Au14  1  0.551190  0.321775  0.939562  1
  Au  Au15  1  0.056657  0.451332  0.680068  1
  Au  Au16  1  0.680068  0.056657  0.451332  1
  Au  Au17  1  0.451332  0.680068  0.056657  1
