# generated using pymatgen
data_Tb2Ga5CoIr2
_symmetry_space_group_name_H-M   'P 1'
_cell_length_a   8.53087292
_cell_length_b   8.53087428
_cell_length_c   5.59376720
_cell_angle_alpha   70.88364408
_cell_angle_beta   70.88364741
_cell_angle_gamma   96.13857003
_symmetry_Int_Tables_number   1
_chemical_formula_structural   Tb2Ga5CoIr2
_chemical_formula_sum   'Tb4 Ga10 Co2 Ir4'
_cell_volume   352.81706388
_cell_formula_units_Z   2
loop_
 _symmetry_equiv_pos_site_id
 _symmetry_equiv_pos_as_xyz
  1  'x, y, z'
loop_
 _atom_site_type_symbol
 _atom_site_label
 _atom_site_symmetry_multiplicity
 _atom_site_fract_x
 _atom_site_fract_y
 _atom_site_fract_z
 _atom_site_occupancy
  Tb  Tb0  1  0.580836  0.869422  0.775318  1
  Tb  Tb1  1  0.130578  0.419164  0.724682  1
  Tb  Tb2  1  0.419164  0.130578  0.224682  1
  Tb  Tb3  1  0.869422  0.580836  0.275318  1
  Ga  Ga4  1  0.499951  0.500049  0.750000  1
  Ga  Ga5  1  0.500049  0.499951  0.250000  1
  Ga  Ga6  1  0.251026  0.093982  0.827052  1
  Ga  Ga7  1  0.906018  0.748974  0.672948  1
  Ga  Ga8  1  0.748974  0.906018  0.172948  1
  Ga  Ga9  1  0.093982  0.251026  0.327052  1
  Ga  Ga10  1  0.802701  0.197299  0.750000  1
  Ga  Ga11  1  0.197299  0.802701  0.250000  1
  Ga  Ga12  1  0.197487  0.802513  0.750000  1
  Ga  Ga13  1  0.802513  0.197487  0.250000  1
  Co  Co14  1  0.999932  0.000068  0.750000  1
  Co  Co15  1  0.000068  0.999932  0.250000  1
  Ir  Ir16  1  0.557773  0.252379  0.595128  1
  Ir  Ir17  1  0.747621  0.442227  0.904872  1
  Ir  Ir18  1  0.442227  0.747621  0.404872  1
  Ir  Ir19  1  0.252379  0.557773  0.095128  1
