# generated using pymatgen
data_Dy8In2IrOs
_symmetry_space_group_name_H-M   'P 1'
_cell_length_a   9.65271728
_cell_length_b   9.67070555
_cell_length_c   9.67070419
_cell_angle_alpha   60.10345165
_cell_angle_beta   60.06150750
_cell_angle_gamma   60.06151168
_symmetry_Int_Tables_number   1
_chemical_formula_structural   Dy8In2IrOs
_chemical_formula_sum   'Dy16 In4 Ir2 Os2'
_cell_volume   639.43001985
_cell_formula_units_Z   2
loop_
 _symmetry_equiv_pos_site_id
 _symmetry_equiv_pos_as_xyz
  1  'x, y, z'
loop_
 _atom_site_type_symbol
 _atom_site_label
 _atom_site_symmetry_multiplicity
 _atom_site_fract_x
 _atom_site_fract_y
 _atom_site_fract_z
 _atom_site_occupancy
  Dy  Dy0  1  0.691384  0.308616  0.308616  1
  Dy  Dy1  1  0.690099  0.693320  0.309156  1
  Dy  Dy2  1  0.307426  0.693320  0.309156  1
  Dy  Dy3  1  0.943782  0.939441  0.557902  1
  Dy  Dy4  1  0.151459  0.150015  0.547066  1
  Dy  Dy5  1  0.558874  0.939441  0.557902  1
  Dy  Dy6  1  0.153188  0.150931  0.150931  1
  Dy  Dy7  1  0.307426  0.309156  0.693320  1
  Dy  Dy8  1  0.940098  0.559902  0.559902  1
  Dy  Dy9  1  0.558874  0.557902  0.939441  1
  Dy  Dy10  1  0.558159  0.941841  0.941841  1
  Dy  Dy11  1  0.943782  0.557902  0.939441  1
  Dy  Dy12  1  0.151459  0.547066  0.150015  1
  Dy  Dy13  1  0.307938  0.692062  0.692062  1
  Dy  Dy14  1  0.690099  0.309156  0.693320  1
  Dy  Dy15  1  0.544949  0.150931  0.150931  1
  In  In16  1  0.917478  0.917287  0.247756  1
  In  In17  1  0.248791  0.917053  0.917053  1
  In  In18  1  0.917478  0.247756  0.917287  1
  In  In19  1  0.917103  0.917053  0.917053  1
  Ir  Ir20  1  0.359280  0.359580  0.359580  1
  Ir  Ir21  1  0.921560  0.359580  0.359580  1
  Os  Os22  1  0.359656  0.360274  0.920414  1
  Os  Os23  1  0.359656  0.920414  0.360274  1
