# generated using pymatgen
data_Tb3GdTm4(WO6)4
_symmetry_space_group_name_H-M   'P 1'
_cell_length_a   5.40210800
_cell_length_b   7.69598657
_cell_length_c   11.40711983
_cell_angle_alpha   75.59253637
_cell_angle_beta   90.00000000
_cell_angle_gamma   90.00000000
_symmetry_Int_Tables_number   1
_chemical_formula_structural   Tb3GdTm4(WO6)4
_chemical_formula_sum   'Tb3 Gd1 Tm4 W4 O24'
_cell_volume   459.33120688
_cell_formula_units_Z   1
loop_
 _symmetry_equiv_pos_site_id
 _symmetry_equiv_pos_as_xyz
  1  'x, y, z'
loop_
 _atom_site_type_symbol
 _atom_site_label
 _atom_site_symmetry_multiplicity
 _atom_site_fract_x
 _atom_site_fract_y
 _atom_site_fract_z
 _atom_site_occupancy
  Tb  Tb0  1  0.742699  0.000000  0.750000  1
  Tb  Tb1  1  0.257555  0.000000  0.250000  1
  Tb  Tb2  1  0.316203  0.500000  0.250000  1
  Gd  Gd3  1  0.684182  0.500000  0.750000  1
  Tm  Tm4  1  0.183222  0.793871  0.578674  1
  Tm  Tm5  1  0.817012  0.793328  0.079096  1
  Tm  Tm6  1  0.183222  0.206129  0.921326  1
  Tm  Tm7  1  0.817012  0.206672  0.420904  1
  W  W8  1  0.255969  0.724330  0.886486  1
  W  W9  1  0.744046  0.723981  0.385804  1
  W  W10  1  0.255969  0.275670  0.613514  1
  W  W11  1  0.744046  0.276019  0.114196  1
  O  O12  1  0.047907  0.940740  0.897881  1
  O  O13  1  0.538176  0.842778  0.933037  1
  O  O14  1  0.951832  0.941084  0.397269  1
  O  O15  1  0.454424  0.792173  0.726342  1
  O  O16  1  0.462415  0.842828  0.432893  1
  O  O17  1  0.983518  0.714217  0.770526  1
  O  O18  1  0.544553  0.791082  0.226179  1
  O  O19  1  0.854268  0.635839  0.548428  1
  O  O20  1  0.354799  0.489094  0.887398  1
  O  O21  1  0.017906  0.712538  0.270718  1
  O  O22  1  0.354799  0.510906  0.612602  1
  O  O23  1  0.854268  0.364161  0.951572  1
  O  O24  1  0.146956  0.635864  0.049633  1
  O  O25  1  0.642678  0.489217  0.386549  1
  O  O26  1  0.983518  0.285783  0.729474  1
  O  O27  1  0.642678  0.510783  0.113451  1
  O  O28  1  0.146956  0.364136  0.450367  1
  O  O29  1  0.454424  0.207827  0.773658  1
  O  O30  1  0.017906  0.287462  0.229282  1
  O  O31  1  0.538176  0.157222  0.566963  1
  O  O32  1  0.544553  0.208918  0.273821  1
  O  O33  1  0.047907  0.059260  0.602119  1
  O  O34  1  0.462415  0.157172  0.067107  1
  O  O35  1  0.951832  0.058916  0.102731  1
