# generated using pymatgen
data_Y3ErAl8
_symmetry_space_group_name_H-M   'P 1'
_cell_length_a   9.64607643
_cell_length_b   9.64607670
_cell_length_c   9.64607801
_cell_angle_alpha   33.53985083
_cell_angle_beta   33.53984993
_cell_angle_gamma   33.53985315
_symmetry_Int_Tables_number   1
_chemical_formula_structural   Y3ErAl8
_chemical_formula_sum   'Y3 Er1 Al8'
_cell_volume   244.04712685
_cell_formula_units_Z   1
loop_
 _symmetry_equiv_pos_site_id
 _symmetry_equiv_pos_as_xyz
  1  'x, y, z'
loop_
 _atom_site_type_symbol
 _atom_site_label
 _atom_site_symmetry_multiplicity
 _atom_site_fract_x
 _atom_site_fract_y
 _atom_site_fract_z
 _atom_site_occupancy
  Y  Y0  1  0.374918  0.374918  0.374918  1
  Y  Y1  1  0.999578  0.999578  0.999578  1
  Y  Y2  1  0.500355  0.500355  0.500355  1
  Er  Er3  1  0.875032  0.875032  0.875032  1
  Al  Al4  1  0.437109  0.936694  0.437109  1
  Al  Al5  1  0.937739  0.438640  0.937739  1
  Al  Al6  1  0.437109  0.437109  0.936694  1
  Al  Al7  1  0.937739  0.937739  0.438640  1
  Al  Al8  1  0.187585  0.187585  0.187585  1
  Al  Al9  1  0.687505  0.687505  0.687505  1
  Al  Al10  1  0.936694  0.437109  0.437109  1
  Al  Al11  1  0.438640  0.937739  0.937739  1
