# generated using pymatgen
data_LiSm6NiBr12
_symmetry_space_group_name_H-M   'P 1'
_cell_length_a   9.28119275
_cell_length_b   9.43371077
_cell_length_c   9.42699644
_cell_angle_alpha   107.92309172
_cell_angle_beta   107.71109510
_cell_angle_gamma   107.64912828
_symmetry_Int_Tables_number   1
_chemical_formula_structural   LiSm6NiBr12
_chemical_formula_sum   'Li1 Sm6 Ni1 Br12'
_cell_volume   672.60832348
_cell_formula_units_Z   1
loop_
 _symmetry_equiv_pos_site_id
 _symmetry_equiv_pos_as_xyz
  1  'x, y, z'
loop_
 _atom_site_type_symbol
 _atom_site_label
 _atom_site_symmetry_multiplicity
 _atom_site_fract_x
 _atom_site_fract_y
 _atom_site_fract_z
 _atom_site_occupancy
  Li  Li0  1  0.500000  0.500000  0.500000  1
  Sm  Sm1  1  0.310775  0.110034  0.031235  1
  Sm  Sm2  1  0.031993  0.323017  0.117515  1
  Sm  Sm3  1  0.117360  0.034277  0.323692  1
  Sm  Sm4  1  0.882639  0.965723  0.676308  1
  Sm  Sm5  1  0.968007  0.676983  0.882484  1
  Sm  Sm6  1  0.689225  0.889966  0.968764  1
  Ni  Ni7  1  0.000000  0.000000  0.000000  1
  Br  Br8  1  0.680380  0.216509  0.070802  1
  Br  Br9  1  0.381069  0.460368  0.171448  1
  Br  Br10  1  0.073226  0.684969  0.216947  1
  Br  Br11  1  0.780796  0.927174  0.315083  1
  Br  Br12  1  0.465324  0.172705  0.381082  1
  Br  Br13  1  0.170433  0.380938  0.463705  1
  Br  Br14  1  0.829568  0.619062  0.536296  1
  Br  Br15  1  0.534676  0.827296  0.618918  1
  Br  Br16  1  0.219203  0.072826  0.684917  1
  Br  Br17  1  0.926774  0.315031  0.783052  1
  Br  Br18  1  0.618932  0.539633  0.828552  1
  Br  Br19  1  0.319620  0.783490  0.929198  1
