# generated using pymatgen
data_Pr7Pa(Si3Ir)4
_symmetry_space_group_name_H-M   'P 1'
_cell_length_a   8.24495000
_cell_length_b   8.24495178
_cell_length_c   8.47781300
_cell_angle_alpha   90.00000000
_cell_angle_beta   90.00000000
_cell_angle_gamma   119.82211818
_symmetry_Int_Tables_number   1
_chemical_formula_structural   Pr7Pa(Si3Ir)4
_chemical_formula_sum   'Pr7 Pa1 Si12 Ir4'
_cell_volume   499.99570885
_cell_formula_units_Z   1
loop_
 _symmetry_equiv_pos_site_id
 _symmetry_equiv_pos_as_xyz
  1  'x, y, z'
loop_
 _atom_site_type_symbol
 _atom_site_label
 _atom_site_symmetry_multiplicity
 _atom_site_fract_x
 _atom_site_fract_y
 _atom_site_fract_z
 _atom_site_occupancy
  Pr  Pr0  1  0.500300  0.499700  0.250000  1
  Pr  Pr1  1  0.001565  0.500799  0.750000  1
  Pr  Pr2  1  0.998952  0.499451  0.250000  1
  Pr  Pr3  1  0.499201  0.998435  0.750000  1
  Pr  Pr4  1  0.500549  0.001048  0.250000  1
  Pr  Pr5  1  0.000224  0.999776  0.750000  1
  Pr  Pr6  1  0.999926  0.000074  0.250000  1
  Pa  Pa7  1  0.500218  0.499782  0.750000  1
  Si  Si8  1  0.830367  0.169633  0.999984  1
  Si  Si9  1  0.169479  0.830521  0.999154  1
  Si  Si10  1  0.330525  0.164463  0.997859  1
  Si  Si11  1  0.169479  0.830521  0.500846  1
  Si  Si12  1  0.669407  0.835449  0.995636  1
  Si  Si13  1  0.830367  0.169633  0.500016  1
  Si  Si14  1  0.835537  0.669475  0.997859  1
  Si  Si15  1  0.669407  0.835449  0.504364  1
  Si  Si16  1  0.164551  0.330593  0.995636  1
  Si  Si17  1  0.330525  0.164463  0.502141  1
  Si  Si18  1  0.164551  0.330593  0.504364  1
  Si  Si19  1  0.835537  0.669475  0.502141  1
  Ir  Ir20  1  0.660891  0.339109  0.985278  1
  Ir  Ir21  1  0.338774  0.661226  0.991037  1
  Ir  Ir22  1  0.338774  0.661226  0.508963  1
  Ir  Ir23  1  0.660891  0.339109  0.514722  1
