# generated using pymatgen
data_BaHf2H7
_symmetry_space_group_name_H-M   'P 1'
_cell_length_a   6.82001727
_cell_length_b   6.82001833
_cell_length_c   6.82001800
_cell_angle_alpha   60.00000160
_cell_angle_beta   59.99999646
_cell_angle_gamma   60.00000558
_symmetry_Int_Tables_number   1
_chemical_formula_structural   BaHf2H7
_chemical_formula_sum   'Ba2 Hf4 H14'
_cell_volume   224.30634118
_cell_formula_units_Z   2
loop_
 _symmetry_equiv_pos_site_id
 _symmetry_equiv_pos_as_xyz
  1  'x, y, z'
loop_
 _atom_site_type_symbol
 _atom_site_label
 _atom_site_symmetry_multiplicity
 _atom_site_fract_x
 _atom_site_fract_y
 _atom_site_fract_z
 _atom_site_occupancy
  Ba  Ba0  1  0.250000  0.250000  0.250000  1
  Ba  Ba1  1  0.000000  0.000000  0.000000  1
  Hf  Hf2  1  0.625000  0.625000  0.125000  1
  Hf  Hf3  1  0.625000  0.125000  0.625000  1
  Hf  Hf4  1  0.125000  0.625000  0.625000  1
  Hf  Hf5  1  0.625000  0.625000  0.625000  1
  H  H6  1  0.732951  0.267049  0.732951  1
  H  H7  1  0.982951  0.517049  0.982951  1
  H  H8  1  0.732951  0.732951  0.267049  1
  H  H9  1  0.267049  0.732951  0.732951  1
  H  H10  1  0.732951  0.267049  0.267049  1
  H  H11  1  0.267049  0.267049  0.732951  1
  H  H12  1  0.500000  0.500000  0.500000  1
  H  H13  1  0.750000  0.750000  0.750000  1
  H  H14  1  0.267049  0.732951  0.267049  1
  H  H15  1  0.517049  0.982951  0.982951  1
  H  H16  1  0.982951  0.517049  0.517049  1
  H  H17  1  0.517049  0.982951  0.517049  1
  H  H18  1  0.982951  0.982951  0.517049  1
  H  H19  1  0.517049  0.517049  0.982951  1
