# generated using pymatgen
data_TbDy2Sc3FeTe2
_symmetry_space_group_name_H-M   'P 1'
_cell_length_a   7.94911700
_cell_length_b   7.94068380
_cell_length_c   4.01710200
_cell_angle_alpha   90.00000000
_cell_angle_beta   90.00000000
_cell_angle_gamma   120.03513355
_symmetry_Int_Tables_number   1
_chemical_formula_structural   TbDy2Sc3FeTe2
_chemical_formula_sum   'Tb1 Dy2 Sc3 Fe1 Te2'
_cell_volume   219.51612155
_cell_formula_units_Z   1
loop_
 _symmetry_equiv_pos_site_id
 _symmetry_equiv_pos_as_xyz
  1  'x, y, z'
loop_
 _atom_site_type_symbol
 _atom_site_label
 _atom_site_symmetry_multiplicity
 _atom_site_fract_x
 _atom_site_fract_y
 _atom_site_fract_z
 _atom_site_occupancy
  Tb  Tb0  1  0.610930  0.000000  0.000000  1
  Dy  Dy1  1  0.388111  0.388130  0.000000  1
  Dy  Dy2  1  0.999981  0.611870  0.000000  1
  Sc  Sc3  1  0.224814  0.000000  0.500000  1
  Sc  Sc4  1  0.775456  0.774900  0.500000  1
  Sc  Sc5  1  0.000556  0.225100  0.500000  1
  Fe  Fe6  1  0.000726  0.000000  0.000000  1
  Te  Te7  1  0.332685  0.665943  0.500000  1
  Te  Te8  1  0.666743  0.334057  0.500000  1
