# generated using pymatgen
data_Tb12B(CCl4)3
_symmetry_space_group_name_H-M   'P 1'
_cell_length_a   9.32489681
_cell_length_b   9.36314404
_cell_length_c   9.36314376
_cell_angle_alpha   109.55381608
_cell_angle_beta   109.38849436
_cell_angle_gamma   109.38849523
_symmetry_Int_Tables_number   1
_chemical_formula_structural   Tb12B(CCl4)3
_chemical_formula_sum   'Tb12 B1 C3 Cl12'
_cell_volume   629.95268679
_cell_formula_units_Z   1
loop_
 _symmetry_equiv_pos_site_id
 _symmetry_equiv_pos_as_xyz
  1  'x, y, z'
loop_
 _atom_site_type_symbol
 _atom_site_label
 _atom_site_symmetry_multiplicity
 _atom_site_fract_x
 _atom_site_fract_y
 _atom_site_fract_z
 _atom_site_occupancy
  Tb  Tb0  1  0.467322  0.480585  0.236303  1
  Tb  Tb1  1  0.750000  0.231651  0.268349  1
  Tb  Tb2  1  0.750000  0.019054  0.480946  1
  Tb  Tb3  1  0.230946  0.461893  0.480946  1
  Tb  Tb4  1  0.268981  0.755718  0.236303  1
  Tb  Tb5  1  0.032678  0.263697  0.019415  1
  Tb  Tb6  1  0.018349  0.036698  0.268349  1
  Tb  Tb7  1  0.486737  0.755718  0.019415  1
  Tb  Tb8  1  0.481651  0.231651  0.463302  1
  Tb  Tb9  1  0.013263  0.480585  0.744282  1
  Tb  Tb10  1  0.269054  0.019054  0.038107  1
  Tb  Tb11  1  0.231019  0.263697  0.744282  1
  B  B12  1  0.250000  0.500000  0.000000  1
  C  C13  1  0.250000  0.249642  0.250358  1
  C  C14  1  0.500358  0.000715  0.250358  1
  C  C15  1  0.999642  0.249642  0.499285  1
  Cl  Cl16  1  0.250000  0.756778  0.743222  1
  Cl  Cl17  1  0.512653  0.506164  0.755301  1
  Cl  Cl18  1  0.987347  0.744699  0.993836  1
  Cl  Cl19  1  0.742648  0.249137  0.755301  1
  Cl  Cl20  1  0.993222  0.986444  0.743222  1
  Cl  Cl21  1  0.250000  0.993722  0.506278  1
  Cl  Cl22  1  0.756278  0.512556  0.506278  1
  Cl  Cl23  1  0.506489  0.249137  0.993836  1
  Cl  Cl24  1  0.757352  0.744699  0.250863  1
  Cl  Cl25  1  0.743722  0.993722  0.987444  1
  Cl  Cl26  1  0.993511  0.506164  0.250863  1
  Cl  Cl27  1  0.506778  0.756778  0.513556  1
