# generated using pymatgen
data_MnZn(CrSe2)4
_symmetry_space_group_name_H-M   'P 1'
_cell_length_a   7.52027148
_cell_length_b   7.52027101
_cell_length_c   7.52027100
_cell_angle_alpha   59.99999565
_cell_angle_beta   59.99999773
_cell_angle_gamma   59.99999133
_symmetry_Int_Tables_number   1
_chemical_formula_structural   MnZn(CrSe2)4
_chemical_formula_sum   'Mn1 Zn1 Cr4 Se8'
_cell_volume   300.73602417
_cell_formula_units_Z   1
loop_
 _symmetry_equiv_pos_site_id
 _symmetry_equiv_pos_as_xyz
  1  'x, y, z'
loop_
 _atom_site_type_symbol
 _atom_site_label
 _atom_site_symmetry_multiplicity
 _atom_site_fract_x
 _atom_site_fract_y
 _atom_site_fract_z
 _atom_site_occupancy
  Mn  Mn0  1  0.750000  0.750000  0.750000  1
  Zn  Zn1  1  0.500000  0.500000  0.500000  1
  Cr  Cr2  1  0.624441  0.125186  0.125186  1
  Cr  Cr3  1  0.125186  0.624441  0.125186  1
  Cr  Cr4  1  0.125186  0.125186  0.624441  1
  Cr  Cr5  1  0.125186  0.125186  0.125186  1
  Se  Se6  1  0.343404  0.885532  0.885532  1
  Se  Se7  1  0.885532  0.343404  0.885532  1
  Se  Se8  1  0.885532  0.885532  0.343404  1
  Se  Se9  1  0.885532  0.885532  0.885532  1
  Se  Se10  1  0.905996  0.364668  0.364668  1
  Se  Se11  1  0.364668  0.905996  0.364668  1
  Se  Se12  1  0.364668  0.364668  0.905996  1
  Se  Se13  1  0.364668  0.364668  0.364668  1
