# generated using pymatgen
data_Zr6Ti3Al13Pd7
_symmetry_space_group_name_H-M   'P 1'
_cell_length_a   8.85981930
_cell_length_b   8.85981988
_cell_length_c   8.85981914
_cell_angle_alpha   59.76832157
_cell_angle_beta   59.76831843
_cell_angle_gamma   59.76832406
_symmetry_Int_Tables_number   1
_chemical_formula_structural   Zr6Ti3Al13Pd7
_chemical_formula_sum   'Zr6 Ti3 Al13 Pd7'
_cell_volume   489.18040360
_cell_formula_units_Z   1
loop_
 _symmetry_equiv_pos_site_id
 _symmetry_equiv_pos_as_xyz
  1  'x, y, z'
loop_
 _atom_site_type_symbol
 _atom_site_label
 _atom_site_symmetry_multiplicity
 _atom_site_fract_x
 _atom_site_fract_y
 _atom_site_fract_z
 _atom_site_occupancy
  Zr  Zr0  1  0.688736  0.688736  0.310590  1
  Zr  Zr1  1  0.310745  0.687645  0.310745  1
  Zr  Zr2  1  0.687645  0.310745  0.310745  1
  Zr  Zr3  1  0.310745  0.310745  0.687645  1
  Zr  Zr4  1  0.688736  0.310590  0.688736  1
  Zr  Zr5  1  0.310590  0.688736  0.688736  1
  Ti  Ti6  1  0.880130  0.880130  0.360011  1
  Ti  Ti7  1  0.880130  0.360011  0.880130  1
  Ti  Ti8  1  0.360011  0.880130  0.880130  1
  Al  Al9  1  0.882004  0.882004  0.882004  1
  Al  Al10  1  0.120187  0.120187  0.641279  1
  Al  Al11  1  0.120187  0.641279  0.120187  1
  Al  Al12  1  0.641279  0.120187  0.120187  1
  Al  Al13  1  0.120559  0.120559  0.120559  1
  Al  Al14  1  0.665600  0.665600  0.000960  1
  Al  Al15  1  0.665600  0.000960  0.665600  1
  Al  Al16  1  0.000960  0.665600  0.665600  1
  Al  Al17  1  0.664428  0.664428  0.664428  1
  Al  Al18  1  0.333753  0.333753  0.997979  1
  Al  Al19  1  0.333753  0.997979  0.333753  1
  Al  Al20  1  0.997979  0.333753  0.333753  1
  Al  Al21  1  0.333311  0.333311  0.333311  1
  Pd  Pd22  1  0.002185  0.002185  0.002185  1
  Pd  Pd23  1  0.998714  0.998714  0.504334  1
  Pd  Pd24  1  0.499527  0.999930  0.499527  1
  Pd  Pd25  1  0.999930  0.499527  0.499527  1
  Pd  Pd26  1  0.499527  0.499527  0.999930  1
  Pd  Pd27  1  0.998714  0.504334  0.998714  1
  Pd  Pd28  1  0.504334  0.998714  0.998714  1
