# generated using pymatgen
data_CrFeP2O7
_symmetry_space_group_name_H-M   'P 1'
_cell_length_a   5.56694600
_cell_length_b   6.56291443
_cell_length_c   7.59844273
_cell_angle_alpha   80.04139649
_cell_angle_beta   86.84365865
_cell_angle_gamma   71.67840333
_symmetry_Int_Tables_number   1
_chemical_formula_structural   CrFeP2O7
_chemical_formula_sum   'Cr2 Fe2 P4 O14'
_cell_volume   259.56827025
_cell_formula_units_Z   2
loop_
 _symmetry_equiv_pos_site_id
 _symmetry_equiv_pos_as_xyz
  1  'x, y, z'
loop_
 _atom_site_type_symbol
 _atom_site_label
 _atom_site_symmetry_multiplicity
 _atom_site_fract_x
 _atom_site_fract_y
 _atom_site_fract_z
 _atom_site_occupancy
  Cr  Cr0  1  0.719460  0.845577  0.824405  1
  Cr  Cr1  1  0.281132  0.154455  0.174405  1
  Fe  Fe2  1  0.325776  0.656376  0.649836  1
  Fe  Fe3  1  0.675104  0.340470  0.354389  1
  P  P4  1  0.185367  0.683636  0.095815  1
  P  P5  1  0.816292  0.316330  0.905027  1
  P  P6  1  0.220299  0.201571  0.615416  1
  P  P7  1  0.777424  0.798826  0.384436  1
  O  O8  1  0.094517  0.696351  0.904018  1
  O  O9  1  0.908635  0.303100  0.095564  1
  O  O10  1  0.303461  0.857641  0.112475  1
  O  O11  1  0.697460  0.143229  0.886002  1
  O  O12  1  0.356305  0.451894  0.170213  1
  O  O13  1  0.647774  0.548233  0.830763  1
  O  O14  1  0.611436  0.649327  0.433638  1
  O  O15  1  0.385203  0.351700  0.565005  1
  O  O16  1  0.034143  0.219151  0.469859  1
  O  O17  1  0.959358  0.783744  0.531333  1
  O  O18  1  0.076128  0.282790  0.791708  1
  O  O19  1  0.926500  0.715964  0.209032  1
  O  O20  1  0.617004  0.036644  0.317666  1
  O  O21  1  0.381230  0.962990  0.678992  1
