# generated using pymatgen
data_Ho8Ta2Ti10Si15Ir
_symmetry_space_group_name_H-M   'P 1'
_cell_length_a   7.03439573
_cell_length_b   7.02425634
_cell_length_c   12.96867168
_cell_angle_alpha   89.91338329
_cell_angle_beta   89.85274568
_cell_angle_gamma   89.99968871
_symmetry_Int_Tables_number   1
_chemical_formula_structural   Ho8Ta2Ti10Si15Ir
_chemical_formula_sum   'Ho8 Ta2 Ti10 Si15 Ir1'
_cell_volume   640.79735978
_cell_formula_units_Z   1
loop_
 _symmetry_equiv_pos_site_id
 _symmetry_equiv_pos_as_xyz
  1  'x, y, z'
loop_
 _atom_site_type_symbol
 _atom_site_label
 _atom_site_symmetry_multiplicity
 _atom_site_fract_x
 _atom_site_fract_y
 _atom_site_fract_z
 _atom_site_occupancy
  Ho  Ho0  1  0.338220  0.001542  0.466698  1
  Ho  Ho1  1  0.499081  0.841418  0.717446  1
  Ho  Ho2  1  0.501035  0.159413  0.217178  1
  Ho  Ho3  1  0.841194  0.497442  0.283026  1
  Ho  Ho4  1  0.157496  0.501934  0.783201  1
  Ho  Ho5  1  0.660817  0.998474  0.967517  1
  Ho  Ho6  1  0.002741  0.338198  0.534899  1
  Ho  Ho7  1  0.999469  0.658508  0.033188  1
  Ta  Ta8  1  0.327668  0.326457  0.001433  1
  Ta  Ta9  1  0.172689  0.827286  0.249762  1
  Ti  Ti10  1  0.833603  0.170636  0.747395  1
  Ti  Ti11  1  0.672040  0.671170  0.498927  1
  Ti  Ti12  1  0.158692  0.010822  0.875479  1
  Ti  Ti13  1  0.490964  0.652869  0.125846  1
  Ti  Ti14  1  0.498729  0.343045  0.626482  1
  Ti  Ti15  1  0.656014  0.496341  0.875739  1
  Ti  Ti16  1  0.346946  0.507256  0.373404  1
  Ti  Ti17  1  0.846850  0.992368  0.374082  1
  Ti  Ti18  1  0.009432  0.153103  0.125697  1
  Ti  Ti19  1  0.992099  0.850595  0.620262  1
  Si  Si20  1  0.370720  0.701692  0.935036  1
  Si  Si21  1  0.631067  0.296394  0.434002  1
  Si  Si22  1  0.703517  0.369105  0.066475  1
  Si  Si23  1  0.301522  0.630731  0.563687  1
  Si  Si24  1  0.796335  0.868788  0.183193  1
  Si  Si25  1  0.130367  0.202437  0.315716  1
  Si  Si26  1  0.868055  0.798742  0.815397  1
  Si  Si27  1  0.293317  0.954418  0.065259  1
  Si  Si28  1  0.545822  0.791423  0.314653  1
  Si  Si29  1  0.458713  0.213860  0.816112  1
  Si  Si30  1  0.787430  0.549226  0.685322  1
  Si  Si31  1  0.207277  0.454252  0.185771  1
  Si  Si32  1  0.704990  0.045055  0.561912  1
  Si  Si33  1  0.953057  0.291925  0.937712  1
  Si  Si34  1  0.045804  0.706764  0.433947  1
  Ir  Ir35  1  0.196226  0.126313  0.688146  1
