# generated using pymatgen
data_Dy8Ho4Ni6Bi
_symmetry_space_group_name_H-M   'P 1'
_cell_length_a   8.43699121
_cell_length_b   8.43699070
_cell_length_c   8.43699109
_cell_angle_alpha   109.45891826
_cell_angle_beta   109.48758378
_cell_angle_gamma   109.46715598
_symmetry_Int_Tables_number   1
_chemical_formula_structural   Dy8Ho4Ni6Bi
_chemical_formula_sum   'Dy8 Ho4 Ni6 Bi1'
_cell_volume   462.31806763
_cell_formula_units_Z   1
loop_
 _symmetry_equiv_pos_site_id
 _symmetry_equiv_pos_as_xyz
  1  'x, y, z'
loop_
 _atom_site_type_symbol
 _atom_site_label
 _atom_site_symmetry_multiplicity
 _atom_site_fract_x
 _atom_site_fract_y
 _atom_site_fract_z
 _atom_site_occupancy
  Dy  Dy0  1  0.811958  0.692911  0.504870  1
  Dy  Dy1  1  0.188042  0.307089  0.495130  1
  Dy  Dy2  1  0.188042  0.692911  0.880953  1
  Dy  Dy3  1  0.811958  0.307089  0.119047  1
  Dy  Dy4  1  0.692867  0.504836  0.811966  1
  Dy  Dy5  1  0.307133  0.495164  0.188034  1
  Dy  Dy6  1  0.692867  0.880901  0.188034  1
  Dy  Dy7  1  0.307133  0.119099  0.811966  1
  Ho  Ho8  1  0.504581  0.812031  0.692548  1
  Ho  Ho9  1  0.495419  0.187969  0.307452  1
  Ho  Ho10  1  0.119482  0.812031  0.307452  1
  Ho  Ho11  1  0.880518  0.187969  0.692548  1
  Ni  Ni12  1  0.875199  0.375199  0.500000  1
  Ni  Ni13  1  0.124801  0.624801  0.500000  1
  Ni  Ni14  1  0.375098  0.500000  0.875098  1
  Ni  Ni15  1  0.624902  0.500000  0.124902  1
  Ni  Ni16  1  0.500000  0.875705  0.375705  1
  Ni  Ni17  1  0.500000  0.124295  0.624295  1
  Bi  Bi18  1  0.000000  0.000000  0.000000  1
