# generated using pymatgen
data_Ce9Th3Co4
_symmetry_space_group_name_H-M   'P 1'
_cell_length_a   6.08451351
_cell_length_b   6.74759943
_cell_length_c   9.46958000
_cell_angle_alpha   90.00000000
_cell_angle_beta   90.00000000
_cell_angle_gamma   89.70061698
_symmetry_Int_Tables_number   1
_chemical_formula_structural   Ce9Th3Co4
_chemical_formula_sum   'Ce9 Th3 Co4'
_cell_volume   388.77644215
_cell_formula_units_Z   1
loop_
 _symmetry_equiv_pos_site_id
 _symmetry_equiv_pos_as_xyz
  1  'x, y, z'
loop_
 _atom_site_type_symbol
 _atom_site_label
 _atom_site_symmetry_multiplicity
 _atom_site_fract_x
 _atom_site_fract_y
 _atom_site_fract_z
 _atom_site_occupancy
  Ce  Ce0  1  0.873426  0.658559  0.060009  1
  Ce  Ce1  1  0.631002  0.158769  0.059961  1
  Ce  Ce2  1  0.126367  0.339316  0.938329  1
  Ce  Ce3  1  0.371097  0.841884  0.561377  1
  Ce  Ce4  1  0.873195  0.937699  0.750000  1
  Ce  Ce5  1  0.126367  0.339316  0.561671  1
  Ce  Ce6  1  0.631002  0.158769  0.440039  1
  Ce  Ce7  1  0.371097  0.841884  0.938623  1
  Ce  Ce8  1  0.873426  0.658559  0.439991  1
  Th  Th9  1  0.135182  0.052704  0.250000  1
  Th  Th10  1  0.370829  0.552901  0.250000  1
  Th  Th11  1  0.630804  0.444175  0.750000  1
  Co  Co12  1  0.600530  0.885820  0.250000  1
  Co  Co13  1  0.405485  0.116254  0.750000  1
  Co  Co14  1  0.075990  0.628070  0.750000  1
  Co  Co15  1  0.904199  0.385322  0.250000  1
