# generated using pymatgen
data_Ta8AlVTe8
_symmetry_space_group_name_H-M   'P 1'
_cell_length_a   4.89949100
_cell_length_b   11.09324400
_cell_length_c   19.27899900
_cell_angle_alpha   90.00000000
_cell_angle_beta   90.00000000
_cell_angle_gamma   90.00000000
_symmetry_Int_Tables_number   1
_chemical_formula_structural   Ta8AlVTe8
_chemical_formula_sum   'Ta16 Al2 V2 Te16'
_cell_volume   1047.83767780
_cell_formula_units_Z   2
loop_
 _symmetry_equiv_pos_site_id
 _symmetry_equiv_pos_as_xyz
  1  'x, y, z'
loop_
 _atom_site_type_symbol
 _atom_site_label
 _atom_site_symmetry_multiplicity
 _atom_site_fract_x
 _atom_site_fract_y
 _atom_site_fract_z
 _atom_site_occupancy
  Ta  Ta0  1  0.499186  0.564439  0.382610  1
  Ta  Ta1  1  0.499186  0.435561  0.617390  1
  Ta  Ta2  1  0.500814  0.064439  0.117390  1
  Ta  Ta3  1  0.500814  0.935561  0.882610  1
  Ta  Ta4  1  0.498148  0.704857  0.536687  1
  Ta  Ta5  1  0.498148  0.295143  0.463313  1
  Ta  Ta6  1  0.501852  0.204857  0.963313  1
  Ta  Ta7  1  0.501852  0.795143  0.036687  1
  Ta  Ta8  1  0.001900  0.690300  0.442791  1
  Ta  Ta9  1  0.001900  0.309700  0.557209  1
  Ta  Ta10  1  0.998100  0.190300  0.057209  1
  Ta  Ta11  1  0.998100  0.809700  0.942791  1
  Ta  Ta12  1  0.000633  0.400723  0.390974  1
  Ta  Ta13  1  0.000633  0.599277  0.609026  1
  Ta  Ta14  1  0.999367  0.900723  0.109026  1
  Ta  Ta15  1  0.999367  0.099277  0.890974  1
  Al  Al16  1  0.249918  0.500000  0.500000  1
  Al  Al17  1  0.750082  0.000000  0.000000  1
  V  V18  1  0.749937  0.500000  0.500000  1
  V  V19  1  0.250063  0.000000  0.000000  1
  Te  Te20  1  0.994537  0.844691  0.562258  1
  Te  Te21  1  0.994537  0.155309  0.437742  1
  Te  Te22  1  0.005463  0.344691  0.937742  1
  Te  Te23  1  0.005463  0.655309  0.062258  1
  Te  Te24  1  0.503376  0.333397  0.316384  1
  Te  Te25  1  0.503376  0.666603  0.683616  1
  Te  Te26  1  0.496624  0.833397  0.183616  1
  Te  Te27  1  0.496624  0.166603  0.816384  1
  Te  Te28  1  0.505648  0.820554  0.403560  1
  Te  Te29  1  0.505648  0.179446  0.596440  1
  Te  Te30  1  0.494352  0.320554  0.096440  1
  Te  Te31  1  0.494352  0.679446  0.903560  1
  Te  Te32  1  0.996533  0.607453  0.301990  1
  Te  Te33  1  0.996533  0.392547  0.698010  1
  Te  Te34  1  0.003467  0.107453  0.198010  1
  Te  Te35  1  0.003467  0.892547  0.801990  1
