# generated using pymatgen
data_Mg3Ga2Co10B4Mo
_symmetry_space_group_name_H-M   'P 1'
_cell_length_a   8.77565838
_cell_length_b   8.77565838
_cell_length_c   2.81216300
_cell_angle_alpha   90.00000000
_cell_angle_beta   90.00000000
_cell_angle_gamma   90.41077590
_symmetry_Int_Tables_number   1
_chemical_formula_structural   Mg3Ga2Co10B4Mo
_chemical_formula_sum   'Mg3 Ga2 Co10 B4 Mo1'
_cell_volume   216.56523747
_cell_formula_units_Z   1
loop_
 _symmetry_equiv_pos_site_id
 _symmetry_equiv_pos_as_xyz
  1  'x, y, z'
loop_
 _atom_site_type_symbol
 _atom_site_label
 _atom_site_symmetry_multiplicity
 _atom_site_fract_x
 _atom_site_fract_y
 _atom_site_fract_z
 _atom_site_occupancy
  Mg  Mg0  1  0.177170  0.677170  0.000000  1
  Mg  Mg1  1  0.322956  0.176701  0.000000  1
  Mg  Mg2  1  0.676701  0.822956  0.000000  1
  Ga  Ga3  1  0.495849  0.501605  0.000000  1
  Ga  Ga4  1  0.001605  0.995849  0.000000  1
  Co  Co5  1  0.502311  0.002311  0.500000  1
  Co  Co6  1  0.997791  0.497791  0.500000  1
  Co  Co7  1  0.722360  0.557173  0.500000  1
  Co  Co8  1  0.276654  0.429681  0.500000  1
  Co  Co9  1  0.222304  0.931913  0.500000  1
  Co  Co10  1  0.783488  0.077988  0.500000  1
  Co  Co11  1  0.431913  0.722304  0.500000  1
  Co  Co12  1  0.577988  0.283488  0.500000  1
  Co  Co13  1  0.057173  0.222360  0.500000  1
  Co  Co14  1  0.929681  0.776654  0.500000  1
  B  B15  1  0.623412  0.123412  0.000000  1
  B  B16  1  0.377533  0.877533  0.000000  1
  B  B17  1  0.121188  0.376950  0.000000  1
  B  B18  1  0.876950  0.621188  0.000000  1
  Mo  Mo19  1  0.824974  0.324974  0.000000  1
