# generated using pymatgen
data_CaDy5Si24Os5Ru3
_symmetry_space_group_name_H-M   'P 1'
_cell_length_a   10.14115039
_cell_length_b   10.14114974
_cell_length_c   8.16220183
_cell_angle_alpha   89.97990996
_cell_angle_beta   89.97990225
_cell_angle_gamma   132.50371211
_symmetry_Int_Tables_number   1
_chemical_formula_structural   CaDy5Si24Os5Ru3
_chemical_formula_sum   'Ca1 Dy5 Si24 Os5 Ru3'
_cell_volume   618.85183466
_cell_formula_units_Z   1
loop_
 _symmetry_equiv_pos_site_id
 _symmetry_equiv_pos_as_xyz
  1  'x, y, z'
loop_
 _atom_site_type_symbol
 _atom_site_label
 _atom_site_symmetry_multiplicity
 _atom_site_fract_x
 _atom_site_fract_y
 _atom_site_fract_z
 _atom_site_occupancy
  Ca  Ca0  1  0.499563  0.499563  0.499905  1
  Dy  Dy1  1  0.999968  0.999968  0.999377  1
  Dy  Dy2  1  0.501240  0.001416  0.749747  1
  Dy  Dy3  1  0.998429  0.498947  0.250275  1
  Dy  Dy4  1  0.498947  0.998429  0.250275  1
  Dy  Dy5  1  0.001416  0.501240  0.749747  1
  Si  Si6  1  0.796424  0.203751  0.500132  1
  Si  Si7  1  0.296211  0.703770  0.000140  1
  Si  Si8  1  0.203751  0.796424  0.500132  1
  Si  Si9  1  0.703770  0.296211  0.000140  1
  Si  Si10  1  0.334139  0.334139  0.832079  1
  Si  Si11  1  0.666307  0.666307  0.168107  1
  Si  Si12  1  0.167692  0.167692  0.332475  1
  Si  Si13  1  0.829563  0.829563  0.664913  1
  Si  Si14  1  0.122125  0.888088  0.728310  1
  Si  Si15  1  0.112327  0.879045  0.271910  1
  Si  Si16  1  0.610425  0.378054  0.229584  1
  Si  Si17  1  0.622655  0.389749  0.770611  1
  Si  Si18  1  0.879045  0.112327  0.271910  1
  Si  Si19  1  0.888088  0.122125  0.728310  1
  Si  Si20  1  0.389749  0.622655  0.770611  1
  Si  Si21  1  0.378054  0.610425  0.229584  1
  Si  Si22  1  0.346301  0.113787  0.505037  1
  Si  Si23  1  0.886141  0.654128  0.495705  1
  Si  Si24  1  0.388355  0.155092  0.006185  1
  Si  Si25  1  0.844918  0.612147  0.994284  1
  Si  Si26  1  0.654128  0.886141  0.495705  1
  Si  Si27  1  0.113787  0.346301  0.505037  1
  Si  Si28  1  0.612147  0.844918  0.994284  1
  Si  Si29  1  0.155092  0.388355  0.006185  1
  Os  Os30  1  0.670933  0.329092  0.499877  1
  Os  Os31  1  0.170222  0.829705  0.000066  1
  Os  Os32  1  0.329092  0.670933  0.499877  1
  Os  Os33  1  0.829705  0.170222  0.000066  1
  Os  Os34  1  0.124504  0.124504  0.628139  1
  Ru  Ru35  1  0.875027  0.875027  0.371591  1
  Ru  Ru36  1  0.372078  0.372078  0.125289  1
  Ru  Ru37  1  0.627679  0.627679  0.874400  1
