# generated using pymatgen
data_Y5As2ClO10
_symmetry_space_group_name_H-M   'P 1'
_cell_length_a   6.62841861
_cell_length_b   6.62841823
_cell_length_c   8.76795599
_cell_angle_alpha   67.90225336
_cell_angle_beta   112.09774627
_cell_angle_gamma   130.15517032
_symmetry_Int_Tables_number   1
_chemical_formula_structural   Y5As2ClO10
_chemical_formula_sum   'Y5 As2 Cl1 O10'
_cell_volume   267.90373322
_cell_formula_units_Z   1
loop_
 _symmetry_equiv_pos_site_id
 _symmetry_equiv_pos_as_xyz
  1  'x, y, z'
loop_
 _atom_site_type_symbol
 _atom_site_label
 _atom_site_symmetry_multiplicity
 _atom_site_fract_x
 _atom_site_fract_y
 _atom_site_fract_z
 _atom_site_occupancy
  Y  Y0  1  0.000000  0.000000  0.000000  1
  Y  Y1  1  0.496962  0.503038  0.290569  1
  Y  Y2  1  0.503037  0.496963  0.709430  1
  Y  Y3  1  0.259390  0.740610  0.882079  1
  Y  Y4  1  0.740610  0.259390  0.117922  1
  As  As5  1  0.212136  0.787864  0.396152  1
  As  As6  1  0.787864  0.212136  0.603848  1
  Cl  Cl7  1  0.000001  0.999999  0.500001  1
  O  O8  1  0.366509  0.633491  0.414905  1
  O  O9  1  0.633492  0.366509  0.585095  1
  O  O10  1  0.620016  0.901265  0.758154  1
  O  O11  1  0.901266  0.620016  0.241847  1
  O  O12  1  0.379984  0.098735  0.241847  1
  O  O13  1  0.098735  0.379984  0.758154  1
  O  O14  1  0.372363  0.132111  0.910721  1
  O  O15  1  0.132112  0.372362  0.089280  1
  O  O16  1  0.627636  0.867886  0.089280  1
  O  O17  1  0.867887  0.627635  0.910721  1
