# generated using pymatgen
data_CaZn2CuNi2
_symmetry_space_group_name_H-M   'P 1'
_cell_length_a   8.91156500
_cell_length_b   8.94493032
_cell_length_c   4.01971300
_cell_angle_alpha   90.00000000
_cell_angle_beta   90.00000000
_cell_angle_gamma   119.87668271
_symmetry_Int_Tables_number   1
_chemical_formula_structural   CaZn2CuNi2
_chemical_formula_sum   'Ca3 Zn6 Cu3 Ni6'
_cell_volume   277.84011181
_cell_formula_units_Z   3
loop_
 _symmetry_equiv_pos_site_id
 _symmetry_equiv_pos_as_xyz
  1  'x, y, z'
loop_
 _atom_site_type_symbol
 _atom_site_label
 _atom_site_symmetry_multiplicity
 _atom_site_fract_x
 _atom_site_fract_y
 _atom_site_fract_z
 _atom_site_occupancy
  Ca  Ca0  1  0.004124  0.000000  0.500000  1
  Ca  Ca1  1  0.330633  0.665034  0.000000  1
  Ca  Ca2  1  0.665600  0.334966  0.000000  1
  Zn  Zn3  1  0.496377  0.000000  0.500000  1
  Zn  Zn4  1  0.301564  0.298310  0.000000  1
  Zn  Zn5  1  0.003253  0.701690  0.000000  1
  Zn  Zn6  1  0.999637  0.302612  0.000000  1
  Zn  Zn7  1  0.697025  0.697388  0.000000  1
  Zn  Zn8  1  0.707206  0.000000  0.000000  1
  Cu  Cu9  1  0.499041  0.500265  0.500000  1
  Cu  Cu10  1  0.998776  0.499735  0.500000  1
  Cu  Cu11  1  0.297845  0.000000  0.000000  1
  Ni  Ni12  1  0.180785  0.361493  0.500000  1
  Ni  Ni13  1  0.817216  0.181064  0.500000  1
  Ni  Ni14  1  0.363981  0.182487  0.500000  1
  Ni  Ni15  1  0.636152  0.818936  0.500000  1
  Ni  Ni16  1  0.181494  0.817513  0.500000  1
  Ni  Ni17  1  0.819292  0.638507  0.500000  1
