# generated using pymatgen
data_Tm8Re11Si16Ru
_symmetry_space_group_name_H-M   'P 1'
_cell_length_a   6.74005952
_cell_length_b   6.74005945
_cell_length_c   12.69496008
_cell_angle_alpha   90.05594723
_cell_angle_beta   89.94405096
_cell_angle_gamma   90.50911635
_symmetry_Int_Tables_number   1
_chemical_formula_structural   Tm8Re11Si16Ru
_chemical_formula_sum   'Tm8 Re11 Si16 Ru1'
_cell_volume   576.68843577
_cell_formula_units_Z   1
loop_
 _symmetry_equiv_pos_site_id
 _symmetry_equiv_pos_as_xyz
  1  'x, y, z'
loop_
 _atom_site_type_symbol
 _atom_site_label
 _atom_site_symmetry_multiplicity
 _atom_site_fract_x
 _atom_site_fract_y
 _atom_site_fract_z
 _atom_site_occupancy
  Tm  Tm0  1  0.005092  0.660075  0.029691  1
  Tm  Tm1  1  0.995086  0.338234  0.530484  1
  Tm  Tm2  1  0.338234  0.995086  0.469516  1
  Tm  Tm3  1  0.164352  0.489402  0.781312  1
  Tm  Tm4  1  0.835566  0.509222  0.280551  1
  Tm  Tm5  1  0.489402  0.164352  0.218688  1
  Tm  Tm6  1  0.509222  0.835566  0.719449  1
  Tm  Tm7  1  0.660075  0.005092  0.970309  1
  Re  Re8  1  0.161930  0.837758  0.249378  1
  Re  Re9  1  0.332867  0.332867  0.000000  1
  Re  Re10  1  0.027861  0.808137  0.631008  1
  Re  Re11  1  0.972627  0.192611  0.132690  1
  Re  Re12  1  0.808137  0.027861  0.368992  1
  Re  Re13  1  0.316789  0.487202  0.379275  1
  Re  Re14  1  0.684985  0.513645  0.878720  1
  Re  Re15  1  0.487202  0.316789  0.620725  1
  Re  Re16  1  0.513645  0.684985  0.121280  1
  Re  Re17  1  0.192611  0.972627  0.867310  1
  Re  Re18  1  0.837758  0.161930  0.750622  1
  Si  Si19  1  0.019607  0.731013  0.438074  1
  Si  Si20  1  0.612571  0.308550  0.435773  1
  Si  Si21  1  0.386387  0.691723  0.935027  1
  Si  Si22  1  0.198458  0.114381  0.682540  1
  Si  Si23  1  0.308550  0.612571  0.564227  1
  Si  Si24  1  0.691723  0.386387  0.064973  1
  Si  Si25  1  0.802074  0.885773  0.183040  1
  Si  Si26  1  0.114381  0.198458  0.317460  1
  Si  Si27  1  0.980455  0.267290  0.938408  1
  Si  Si28  1  0.731013  0.019607  0.561926  1
  Si  Si29  1  0.218797  0.479548  0.187890  1
  Si  Si30  1  0.781340  0.519286  0.688805  1
  Si  Si31  1  0.479548  0.218797  0.812110  1
  Si  Si32  1  0.519286  0.781340  0.311195  1
  Si  Si33  1  0.267290  0.980455  0.061592  1
  Si  Si34  1  0.885773  0.802074  0.816960  1
  Ru  Ru35  1  0.669305  0.669305  0.500000  1
