# generated using pymatgen
data_Pr2Sm(YSn2)2
_symmetry_space_group_name_H-M   'P 1'
_cell_length_a   8.15050300
_cell_length_b   8.32837200
_cell_length_c   15.71304600
_cell_angle_alpha   90.00000000
_cell_angle_beta   90.00000000
_cell_angle_gamma   90.00000000
_symmetry_Int_Tables_number   1
_chemical_formula_structural   Pr2Sm(YSn2)2
_chemical_formula_sum   'Pr8 Sm4 Y8 Sn16'
_cell_volume   1066.60817722
_cell_formula_units_Z   4
loop_
 _symmetry_equiv_pos_site_id
 _symmetry_equiv_pos_as_xyz
  1  'x, y, z'
loop_
 _atom_site_type_symbol
 _atom_site_label
 _atom_site_symmetry_multiplicity
 _atom_site_fract_x
 _atom_site_fract_y
 _atom_site_fract_z
 _atom_site_occupancy
  Pr  Pr0  1  0.506397  0.322515  0.903729  1
  Pr  Pr1  1  0.006397  0.177485  0.596271  1
  Pr  Pr2  1  0.493603  0.677485  0.403729  1
  Pr  Pr3  1  0.993603  0.822515  0.096271  1
  Pr  Pr4  1  0.494219  0.678146  0.096384  1
  Pr  Pr5  1  0.994219  0.821854  0.403616  1
  Pr  Pr6  1  0.505781  0.321854  0.596384  1
  Pr  Pr7  1  0.005781  0.178146  0.903616  1
  Sm  Sm8  1  0.348929  0.833873  0.876280  1
  Sm  Sm9  1  0.848929  0.666127  0.623720  1
  Sm  Sm10  1  0.651071  0.166127  0.376280  1
  Sm  Sm11  1  0.151071  0.333873  0.123720  1
  Y  Y12  1  0.651885  0.165640  0.123781  1
  Y  Y13  1  0.151885  0.334360  0.376219  1
  Y  Y14  1  0.348115  0.834360  0.623781  1
  Y  Y15  1  0.848115  0.665640  0.876219  1
  Y  Y16  1  0.181521  0.499775  0.749643  1
  Y  Y17  1  0.681521  0.000225  0.750357  1
  Y  Y18  1  0.818479  0.500225  0.249643  1
  Y  Y19  1  0.318479  0.999775  0.250357  1
  Sn  Sn20  1  0.314970  0.040313  0.042011  1
  Sn  Sn21  1  0.814970  0.459687  0.457989  1
  Sn  Sn22  1  0.685030  0.959687  0.542011  1
  Sn  Sn23  1  0.185030  0.540313  0.957989  1
  Sn  Sn24  1  0.688007  0.959874  0.958927  1
  Sn  Sn25  1  0.188007  0.540126  0.541073  1
  Sn  Sn26  1  0.311993  0.040126  0.458927  1
  Sn  Sn27  1  0.811993  0.459874  0.041073  1
  Sn  Sn28  1  0.546462  0.620826  0.750073  1
  Sn  Sn29  1  0.046462  0.879174  0.749927  1
  Sn  Sn30  1  0.453538  0.379174  0.250073  1
  Sn  Sn31  1  0.953538  0.120826  0.249927  1
  Sn  Sn32  1  0.312538  0.143719  0.749758  1
  Sn  Sn33  1  0.812538  0.356281  0.750242  1
  Sn  Sn34  1  0.687462  0.856281  0.249758  1
  Sn  Sn35  1  0.187462  0.643719  0.250242  1
