# generated using pymatgen
data_Y3Er2Si3P9Ir19
_symmetry_space_group_name_H-M   'P 1'
_cell_length_a   12.80866304
_cell_length_b   12.70797169
_cell_length_c   3.96248800
_cell_angle_alpha   90.00000000
_cell_angle_beta   90.00000000
_cell_angle_gamma   119.88038883
_symmetry_Int_Tables_number   1
_chemical_formula_structural   Y3Er2Si3P9Ir19
_chemical_formula_sum   'Y3 Er2 Si3 P9 Ir19'
_cell_volume   559.24333556
_cell_formula_units_Z   1
loop_
 _symmetry_equiv_pos_site_id
 _symmetry_equiv_pos_as_xyz
  1  'x, y, z'
loop_
 _atom_site_type_symbol
 _atom_site_label
 _atom_site_symmetry_multiplicity
 _atom_site_fract_x
 _atom_site_fract_y
 _atom_site_fract_z
 _atom_site_occupancy
  Y  Y0  1  0.662935  0.332420  0.000000  1
  Y  Y1  1  0.335236  0.667425  0.000000  1
  Y  Y2  1  0.819308  0.817309  0.500000  1
  Er  Er3  1  0.181492  0.999521  0.500000  1
  Er  Er4  1  0.997408  0.183011  0.500000  1
  Si  Si5  1  0.677830  0.161804  0.500000  1
  Si  Si6  1  0.640608  0.639413  0.000000  1
  Si  Si7  1  0.360372  0.998823  0.000000  1
  P  P8  1  0.833106  0.517262  0.500000  1
  P  P9  1  0.480575  0.321335  0.500000  1
  P  P10  1  0.180508  0.695906  0.500000  1
  P  P11  1  0.517825  0.823656  0.500000  1
  P  P12  1  0.307341  0.483115  0.500000  1
  P  P13  1  0.997988  0.356573  0.000000  1
  P  P14  1  0.173383  0.180671  0.000000  1
  P  P15  1  0.820078  0.996714  0.000000  1
  P  P16  1  0.003944  0.822451  0.000000  1
  Ir  Ir17  1  0.811281  0.179799  0.000000  1
  Ir  Ir18  1  0.825142  0.627459  0.000000  1
  Ir  Ir19  1  0.360260  0.186943  0.000000  1
  Ir  Ir20  1  0.180239  0.798140  0.000000  1
  Ir  Ir21  1  0.619940  0.818318  0.000000  1
  Ir  Ir22  1  0.190494  0.377842  0.000000  1
  Ir  Ir23  1  0.469722  0.442693  0.000000  1
  Ir  Ir24  1  0.558953  0.027146  0.000000  1
  Ir  Ir25  1  0.991519  0.532850  0.000000  1
  Ir  Ir26  1  0.282563  0.286733  0.500000  1
  Ir  Ir27  1  0.717101  0.996817  0.500000  1
  Ir  Ir28  1  0.002535  0.715935  0.500000  1
  Ir  Ir29  1  0.862538  0.355122  0.500000  1
  Ir  Ir30  1  0.648804  0.514417  0.500000  1
  Ir  Ir31  1  0.481594  0.137404  0.500000  1
  Ir  Ir32  1  0.370470  0.878434  0.500000  1
  Ir  Ir33  1  0.507097  0.629769  0.500000  1
  Ir  Ir34  1  0.129757  0.497027  0.500000  1
  Ir  Ir35  1  0.000055  0.999740  0.000000  1
