# generated using pymatgen
data_Ac2Sn5
_symmetry_space_group_name_H-M   'P 1'
_cell_length_a   4.83744377
_cell_length_b   4.89665102
_cell_length_c   18.43081465
_cell_angle_alpha   89.99367374
_cell_angle_beta   82.58573285
_cell_angle_gamma   89.99007560
_symmetry_Int_Tables_number   1
_chemical_formula_structural   Ac2Sn5
_chemical_formula_sum   'Ac4 Sn10'
_cell_volume   432.92556437
_cell_formula_units_Z   2
loop_
 _symmetry_equiv_pos_site_id
 _symmetry_equiv_pos_as_xyz
  1  'x, y, z'
loop_
 _atom_site_type_symbol
 _atom_site_label
 _atom_site_symmetry_multiplicity
 _atom_site_fract_x
 _atom_site_fract_y
 _atom_site_fract_z
 _atom_site_occupancy
  Ac  Ac0  1  0.431446  0.000098  0.136299  1
  Ac  Ac1  1  0.297054  0.999986  0.405632  1
  Ac  Ac2  1  0.702930  0.000012  0.594461  1
  Ac  Ac3  1  0.568577  0.999902  0.863603  1
  Sn  Sn4  1  0.499998  0.499993  0.000017  1
  Sn  Sn5  1  0.999987  0.000010  0.999993  1
  Sn  Sn6  1  0.928926  0.499999  0.142804  1
  Sn  Sn7  1  0.863809  0.000032  0.274145  1
  Sn  Sn8  1  0.360130  0.499967  0.275080  1
  Sn  Sn9  1  0.780254  0.499979  0.442412  1
  Sn  Sn10  1  0.219714  0.500020  0.557607  1
  Sn  Sn11  1  0.639942  0.500019  0.724926  1
  Sn  Sn12  1  0.136148  0.999986  0.725874  1
  Sn  Sn13  1  0.071095  0.499997  0.857147  1
