# generated using pymatgen
data_Dy2Ga4CuRh
_symmetry_space_group_name_H-M   'P 1'
_cell_length_a   5.47532500
_cell_length_b   5.47532494
_cell_length_c   6.67818500
_cell_angle_alpha   90.00000000
_cell_angle_beta   90.00000000
_cell_angle_gamma   134.48090132
_symmetry_Int_Tables_number   1
_chemical_formula_structural   Dy2Ga4CuRh
_chemical_formula_sum   'Dy2 Ga4 Cu1 Rh1'
_cell_volume   142.84416805
_cell_formula_units_Z   1
loop_
 _symmetry_equiv_pos_site_id
 _symmetry_equiv_pos_as_xyz
  1  'x, y, z'
loop_
 _atom_site_type_symbol
 _atom_site_label
 _atom_site_symmetry_multiplicity
 _atom_site_fract_x
 _atom_site_fract_y
 _atom_site_fract_z
 _atom_site_occupancy
  Dy  Dy0  1  0.579864  0.420136  0.250000  1
  Dy  Dy1  1  0.421093  0.578907  0.750000  1
  Ga  Ga2  1  0.866932  0.133068  0.443122  1
  Ga  Ga3  1  0.133382  0.866618  0.550248  1
  Ga  Ga4  1  0.866932  0.133068  0.056878  1
  Ga  Ga5  1  0.133382  0.866618  0.949752  1
  Cu  Cu6  1  0.291619  0.708381  0.250000  1
  Rh  Rh7  1  0.706797  0.293203  0.750000  1
