# generated using pymatgen
data_Nd2Ho(TaSn)18
_symmetry_space_group_name_H-M   'P 1'
_cell_length_a   5.80192937
_cell_length_b   9.64062664
_cell_length_c   16.02503741
_cell_angle_alpha   107.50123274
_cell_angle_beta   100.32450246
_cell_angle_gamma   90.05363712
_symmetry_Int_Tables_number   1
_chemical_formula_structural   Nd2Ho(TaSn)18
_chemical_formula_sum   'Nd2 Ho1 Ta18 Sn18'
_cell_volume   839.57785157
_cell_formula_units_Z   1
loop_
 _symmetry_equiv_pos_site_id
 _symmetry_equiv_pos_as_xyz
  1  'x, y, z'
loop_
 _atom_site_type_symbol
 _atom_site_label
 _atom_site_symmetry_multiplicity
 _atom_site_fract_x
 _atom_site_fract_y
 _atom_site_fract_z
 _atom_site_occupancy
  Nd  Nd0  1  0.331546  0.830881  0.664463  1
  Nd  Nd1  1  0.667617  0.167436  0.336128  1
  Ho  Ho2  1  0.999618  0.999082  0.000329  1
  Ta  Ta3  1  0.165910  0.415499  0.333612  1
  Ta  Ta4  1  0.332551  0.832941  0.166833  1
  Ta  Ta5  1  0.667004  0.667152  0.834542  1
  Ta  Ta6  1  0.500165  0.750427  0.000245  1
  Ta  Ta7  1  0.166233  0.165862  0.834128  1
  Ta  Ta8  1  0.833939  0.331582  0.166591  1
  Ta  Ta9  1  0.832532  0.082878  0.667123  1
  Ta  Ta10  1  0.165523  0.666788  0.834045  1
  Ta  Ta11  1  0.499418  0.998947  0.500310  1
  Ta  Ta12  1  0.499338  0.248082  0.000414  1
  Ta  Ta13  1  0.999427  0.998915  0.500290  1
  Ta  Ta14  1  0.999653  0.498964  0.500296  1
  Ta  Ta15  1  0.833033  0.832546  0.166485  1
  Ta  Ta16  1  0.833536  0.582574  0.667001  1
  Ta  Ta17  1  0.332503  0.331245  0.166122  1
  Ta  Ta18  1  0.166364  0.915216  0.333474  1
  Ta  Ta19  1  0.666655  0.165512  0.833787  1
  Ta  Ta20  1  0.499658  0.498926  0.500286  1
  Sn  Sn21  1  0.999170  0.328488  0.999981  1
  Sn  Sn22  1  0.888229  0.888042  0.777824  1
  Sn  Sn23  1  0.110948  0.110364  0.222884  1
  Sn  Sn24  1  0.222542  0.221797  0.446190  1
  Sn  Sn25  1  0.443505  0.443837  0.889441  1
  Sn  Sn26  1  0.109701  0.609055  0.220564  1
  Sn  Sn27  1  0.778712  0.278422  0.558880  1
  Sn  Sn28  1  0.889511  0.389244  0.780076  1
  Sn  Sn29  1  0.220459  0.719465  0.441614  1
  Sn  Sn30  1  0.334312  0.496159  0.667538  1
  Sn  Sn31  1  0.556174  0.054848  0.111755  1
  Sn  Sn32  1  0.665201  0.502279  0.333123  1
  Sn  Sn33  1  0.443111  0.943657  0.888876  1
  Sn  Sn34  1  0.331798  0.169544  0.667378  1
  Sn  Sn35  1  0.776508  0.776135  0.554435  1
  Sn  Sn36  1  0.666986  0.828747  0.333215  1
  Sn  Sn37  1  0.555774  0.554754  0.111430  1
  Sn  Sn38  1  0.000392  0.669759  0.000656  1
