# generated using pymatgen
data_HfTaI9
_symmetry_space_group_name_H-M   'P 1'
_cell_length_a   13.62505100
_cell_length_b   7.91403071
_cell_length_c   10.74143082
_cell_angle_alpha   75.45609971
_cell_angle_beta   90.00000000
_cell_angle_gamma   90.00000000
_symmetry_Int_Tables_number   1
_chemical_formula_structural   HfTaI9
_chemical_formula_sum   'Hf2 Ta2 I18'
_cell_volume   1121.12335945
_cell_formula_units_Z   2
loop_
 _symmetry_equiv_pos_site_id
 _symmetry_equiv_pos_as_xyz
  1  'x, y, z'
loop_
 _atom_site_type_symbol
 _atom_site_label
 _atom_site_symmetry_multiplicity
 _atom_site_fract_x
 _atom_site_fract_y
 _atom_site_fract_z
 _atom_site_occupancy
  Hf  Hf0  1  0.250000  0.756355  0.472895  1
  Hf  Hf1  1  0.750000  0.243645  0.527105  1
  Ta  Ta2  1  0.250000  0.645774  0.855360  1
  Ta  Ta3  1  0.750000  0.354226  0.144640  1
  I  I4  1  0.610595  0.440798  0.323159  1
  I  I5  1  0.110595  0.559202  0.676841  1
  I  I6  1  0.389405  0.559202  0.676841  1
  I  I7  1  0.889405  0.440798  0.323159  1
  I  I8  1  0.750000  0.686199  0.009682  1
  I  I9  1  0.250000  0.313801  0.990318  1
  I  I10  1  0.750000  0.515302  0.640056  1
  I  I11  1  0.250000  0.484698  0.359944  1
  I  I12  1  0.750000  0.023497  0.334666  1
  I  I13  1  0.250000  0.976503  0.665334  1
  I  I14  1  0.897166  0.245275  0.021334  1
  I  I15  1  0.397166  0.754725  0.978666  1
  I  I16  1  0.102834  0.754725  0.978666  1
  I  I17  1  0.602834  0.245275  0.021334  1
  I  I18  1  0.903058  0.055710  0.654540  1
  I  I19  1  0.403058  0.944290  0.345460  1
  I  I20  1  0.096942  0.944290  0.345460  1
  I  I21  1  0.596942  0.055710  0.654540  1
