# generated using pymatgen
data_Rb4Ba(SiSe3)2
_symmetry_space_group_name_H-M   'P 1'
_cell_length_a   7.82160682
_cell_length_b   7.82160760
_cell_length_c   9.01092750
_cell_angle_alpha   81.49087759
_cell_angle_beta   81.49087577
_cell_angle_gamma   119.60198373
_symmetry_Int_Tables_number   1
_chemical_formula_structural   Rb4Ba(SiSe3)2
_chemical_formula_sum   'Rb4 Ba1 Si2 Se6'
_cell_volume   458.10635065
_cell_formula_units_Z   1
loop_
 _symmetry_equiv_pos_site_id
 _symmetry_equiv_pos_as_xyz
  1  'x, y, z'
loop_
 _atom_site_type_symbol
 _atom_site_label
 _atom_site_symmetry_multiplicity
 _atom_site_fract_x
 _atom_site_fract_y
 _atom_site_fract_z
 _atom_site_occupancy
  Rb  Rb0  1  0.504607  0.495393  0.000000  1
  Rb  Rb1  1  0.820838  0.179162  0.000000  1
  Rb  Rb2  1  0.175248  0.824752  0.000000  1
  Rb  Rb3  1  0.665794  0.334206  0.500000  1
  Ba  Ba4  1  0.334777  0.665223  0.500000  1
  Si  Si5  1  0.045345  0.046010  0.361452  1
  Si  Si6  1  0.953990  0.954655  0.638548  1
  Se  Se7  1  0.788853  0.804132  0.274870  1
  Se  Se8  1  0.195868  0.211147  0.725130  1
  Se  Se9  1  0.088252  0.363430  0.277417  1
  Se  Se10  1  0.348538  0.058679  0.279277  1
  Se  Se11  1  0.941321  0.651462  0.720723  1
  Se  Se12  1  0.636570  0.911748  0.722583  1
