# generated using pymatgen
data_NdY(BeGe)2
_symmetry_space_group_name_H-M   'P 1'
_cell_length_a   3.96025000
_cell_length_b   3.96024991
_cell_length_c   8.32557700
_cell_angle_alpha   90.00000000
_cell_angle_beta   90.00000000
_cell_angle_gamma   120.00000076
_symmetry_Int_Tables_number   1
_chemical_formula_structural   NdY(BeGe)2
_chemical_formula_sum   'Nd1 Y1 Be2 Ge2'
_cell_volume   113.08113671
_cell_formula_units_Z   1
loop_
 _symmetry_equiv_pos_site_id
 _symmetry_equiv_pos_as_xyz
  1  'x, y, z'
loop_
 _atom_site_type_symbol
 _atom_site_label
 _atom_site_symmetry_multiplicity
 _atom_site_fract_x
 _atom_site_fract_y
 _atom_site_fract_z
 _atom_site_occupancy
  Nd  Nd0  1  0.000000  0.000000  0.500001  1
  Y  Y1  1  0.000000  0.000000  0.000000  1
  Be  Be2  1  0.666668  0.333334  0.244043  1
  Be  Be3  1  0.333334  0.666667  0.755957  1
  Ge  Ge4  1  0.333334  0.666667  0.242506  1
  Ge  Ge5  1  0.666668  0.333334  0.757494  1
