# generated using pymatgen
data_Dy2TmCoSn6
_symmetry_space_group_name_H-M   'P 1'
_cell_length_a   8.43346265
_cell_length_b   8.43346314
_cell_length_c   13.15228100
_cell_angle_alpha   90.00000000
_cell_angle_beta   90.00000000
_cell_angle_gamma   148.67174383
_symmetry_Int_Tables_number   1
_chemical_formula_structural   Dy2TmCoSn6
_chemical_formula_sum   'Dy4 Tm2 Co2 Sn12'
_cell_volume   486.36974396
_cell_formula_units_Z   2
loop_
 _symmetry_equiv_pos_site_id
 _symmetry_equiv_pos_as_xyz
  1  'x, y, z'
loop_
 _atom_site_type_symbol
 _atom_site_label
 _atom_site_symmetry_multiplicity
 _atom_site_fract_x
 _atom_site_fract_y
 _atom_site_fract_z
 _atom_site_occupancy
  Dy  Dy0  1  0.900145  0.099855  0.093506  1
  Dy  Dy1  1  0.099855  0.900145  0.593506  1
  Dy  Dy2  1  0.099855  0.900145  0.906494  1
  Dy  Dy3  1  0.900145  0.099855  0.406494  1
  Tm  Tm4  1  0.900307  0.099693  0.750000  1
  Tm  Tm5  1  0.099693  0.900307  0.250000  1
  Co  Co6  1  0.297753  0.702247  0.250000  1
  Co  Co7  1  0.702247  0.297753  0.750000  1
  Sn  Sn8  1  0.755050  0.244950  0.570827  1
  Sn  Sn9  1  0.426968  0.573032  0.576842  1
  Sn  Sn10  1  0.573032  0.426968  0.423158  1
  Sn  Sn11  1  0.732344  0.267656  0.250000  1
  Sn  Sn12  1  0.267656  0.732344  0.750000  1
  Sn  Sn13  1  0.244950  0.755050  0.070827  1
  Sn  Sn14  1  0.244950  0.755050  0.429173  1
  Sn  Sn15  1  0.573032  0.426968  0.076842  1
  Sn  Sn16  1  0.453152  0.546848  0.250000  1
  Sn  Sn17  1  0.546848  0.453152  0.750000  1
  Sn  Sn18  1  0.755050  0.244950  0.929173  1
  Sn  Sn19  1  0.426968  0.573032  0.923158  1
