# generated using pymatgen
data_Er(Tc2Ge)2
_symmetry_space_group_name_H-M   'P 1'
_cell_length_a   4.20229900
_cell_length_b   7.26298211
_cell_length_c   7.61734405
_cell_angle_alpha   90.00342359
_cell_angle_beta   89.99959285
_cell_angle_gamma   89.99988374
_symmetry_Int_Tables_number   1
_chemical_formula_structural   Er(Tc2Ge)2
_chemical_formula_sum   'Er2 Tc8 Ge4'
_cell_volume   232.49065196
_cell_formula_units_Z   2
loop_
 _symmetry_equiv_pos_site_id
 _symmetry_equiv_pos_as_xyz
  1  'x, y, z'
loop_
 _atom_site_type_symbol
 _atom_site_label
 _atom_site_symmetry_multiplicity
 _atom_site_fract_x
 _atom_site_fract_y
 _atom_site_fract_z
 _atom_site_occupancy
  Er  Er0  1  0.499998  0.000002  0.999978  1
  Er  Er1  1  0.000008  0.500035  0.500034  1
  Tc  Tc2  1  0.999999  0.912826  0.653301  1
  Tc  Tc3  1  0.000002  0.352595  0.104558  1
  Tc  Tc4  1  0.499999  0.587160  0.153466  1
  Tc  Tc5  1  0.999999  0.087153  0.346691  1
  Tc  Tc6  1  0.500000  0.147418  0.604532  1
  Tc  Tc7  1  0.500002  0.412805  0.846509  1
  Tc  Tc8  1  0.000002  0.647405  0.895425  1
  Tc  Tc9  1  0.499996  0.852590  0.395468  1
  Ge  Ge10  1  0.500001  0.714999  0.696286  1
  Ge  Ge11  1  0.500000  0.285042  0.303789  1
  Ge  Ge12  1  0.999999  0.215069  0.803785  1
  Ge  Ge13  1  0.999994  0.784901  0.196176  1
