# generated using pymatgen
data_YHo2Co2P6Ir7
_symmetry_space_group_name_H-M   'P 1'
_cell_length_a   3.88637500
_cell_length_b   11.03969900
_cell_length_c   12.73758400
_cell_angle_alpha   90.00000000
_cell_angle_beta   90.00000000
_cell_angle_gamma   90.00000000
_symmetry_Int_Tables_number   1
_chemical_formula_structural   YHo2Co2P6Ir7
_chemical_formula_sum   'Y2 Ho4 Co4 P12 Ir14'
_cell_volume   546.49852891
_cell_formula_units_Z   2
loop_
 _symmetry_equiv_pos_site_id
 _symmetry_equiv_pos_as_xyz
  1  'x, y, z'
loop_
 _atom_site_type_symbol
 _atom_site_label
 _atom_site_symmetry_multiplicity
 _atom_site_fract_x
 _atom_site_fract_y
 _atom_site_fract_z
 _atom_site_occupancy
  Y  Y0  1  0.000000  0.500000  0.522203  1
  Y  Y1  1  0.500000  0.000000  0.477776  1
  Ho  Ho2  1  0.500000  0.821045  0.198725  1
  Ho  Ho3  1  0.500000  0.178955  0.198725  1
  Ho  Ho4  1  0.000000  0.684977  0.801542  1
  Ho  Ho5  1  0.000000  0.315023  0.801542  1
  Co  Co6  1  0.000000  0.500000  0.986966  1
  Co  Co7  1  0.500000  0.000000  0.016161  1
  Co  Co8  1  0.000000  0.159098  0.003314  1
  Co  Co9  1  0.000000  0.840902  0.003314  1
  P  P10  1  0.500000  0.316102  0.620676  1
  P  P11  1  0.500000  0.683898  0.620676  1
  P  P12  1  0.000000  0.183620  0.379171  1
  P  P13  1  0.000000  0.816380  0.379171  1
  P  P14  1  0.500000  0.500000  0.883845  1
  P  P15  1  0.000000  0.000000  0.111109  1
  P  P16  1  0.500000  0.851173  0.900403  1
  P  P17  1  0.500000  0.148827  0.900403  1
  P  P18  1  0.000000  0.660460  0.101614  1
  P  P19  1  0.000000  0.339540  0.101614  1
  P  P20  1  0.500000  0.500000  0.353741  1
  P  P21  1  0.000000  0.000000  0.646550  1
  Ir  Ir22  1  0.500000  0.293452  0.428212  1
  Ir  Ir23  1  0.500000  0.706548  0.428212  1
  Ir  Ir24  1  0.000000  0.205078  0.571022  1
  Ir  Ir25  1  0.000000  0.794922  0.571022  1
  Ir  Ir26  1  0.500000  0.870936  0.716956  1
  Ir  Ir27  1  0.500000  0.129064  0.716956  1
  Ir  Ir28  1  0.000000  0.629650  0.282700  1
  Ir  Ir29  1  0.000000  0.370350  0.282700  1
  Ir  Ir30  1  0.500000  0.332585  0.995834  1
  Ir  Ir31  1  0.500000  0.667415  0.995834  1
  Ir  Ir32  1  0.500000  0.500000  0.171273  1
  Ir  Ir33  1  0.000000  0.000000  0.830878  1
  Ir  Ir34  1  0.500000  0.500000  0.705926  1
  Ir  Ir35  1  0.000000  0.000000  0.293239  1
