# generated using pymatgen
data_Dy4Er2Al24Os7Pt
_symmetry_space_group_name_H-M   'P 1'
_cell_length_a   8.81979457
_cell_length_b   8.81979446
_cell_length_c   9.53546619
_cell_angle_alpha   89.64004221
_cell_angle_beta   90.35995746
_cell_angle_gamma   119.91365684
_symmetry_Int_Tables_number   1
_chemical_formula_structural   Dy4Er2Al24Os7Pt
_chemical_formula_sum   'Dy4 Er2 Al24 Os7 Pt1'
_cell_volume   642.91751926
_cell_formula_units_Z   1
loop_
 _symmetry_equiv_pos_site_id
 _symmetry_equiv_pos_as_xyz
  1  'x, y, z'
loop_
 _atom_site_type_symbol
 _atom_site_label
 _atom_site_symmetry_multiplicity
 _atom_site_fract_x
 _atom_site_fract_y
 _atom_site_fract_z
 _atom_site_occupancy
  Dy  Dy0  1  0.190759  0.387172  0.251272  1
  Dy  Dy1  1  0.809241  0.612828  0.748728  1
  Dy  Dy2  1  0.612828  0.809241  0.251272  1
  Dy  Dy3  1  0.387172  0.190759  0.748728  1
  Er  Er4  1  0.195404  0.804596  0.251422  1
  Er  Er5  1  0.804596  0.195404  0.748578  1
  Al  Al6  1  0.331512  0.668488  0.020170  1
  Al  Al7  1  0.668488  0.331512  0.979830  1
  Al  Al8  1  0.666638  0.333362  0.517331  1
  Al  Al9  1  0.333362  0.666638  0.482669  1
  Al  Al10  1  0.163568  0.325570  0.577428  1
  Al  Al11  1  0.836432  0.674430  0.422572  1
  Al  Al12  1  0.674430  0.836432  0.577428  1
  Al  Al13  1  0.842152  0.675482  0.077664  1
  Al  Al14  1  0.325570  0.163568  0.422572  1
  Al  Al15  1  0.157848  0.324518  0.922336  1
  Al  Al16  1  0.163462  0.836538  0.575366  1
  Al  Al17  1  0.324518  0.157848  0.077664  1
  Al  Al18  1  0.836538  0.163462  0.424634  1
  Al  Al19  1  0.675482  0.842152  0.922336  1
  Al  Al20  1  0.836891  0.163109  0.075487  1
  Al  Al21  1  0.163109  0.836891  0.924513  1
  Al  Al22  1  0.559973  0.121715  0.249030  1
  Al  Al23  1  0.440027  0.878285  0.750970  1
  Al  Al24  1  0.878285  0.440027  0.249030  1
  Al  Al25  1  0.121715  0.559973  0.750970  1
  Al  Al26  1  0.561779  0.438221  0.251907  1
  Al  Al27  1  0.438221  0.561779  0.748093  1
  Al  Al28  1  0.999842  0.000158  0.250113  1
  Al  Al29  1  0.000158  0.999842  0.749887  1
  Os  Os30  1  0.500000  0.000000  0.000000  1
  Os  Os31  1  0.000000  0.500000  0.000000  1
  Os  Os32  1  0.500000  0.000000  0.500000  1
  Os  Os33  1  0.000000  0.500000  0.500000  1
  Os  Os34  1  0.500000  0.500000  0.500000  1
  Os  Os35  1  0.000000  0.000000  0.000000  1
  Os  Os36  1  0.000000  0.000000  0.500000  1
  Pt  Pt37  1  0.500000  0.500000  0.000000  1
