# generated using pymatgen
data_Li3Dy2TmSi2Sb
_symmetry_space_group_name_H-M   'P 1'
_cell_length_a   7.03581961
_cell_length_b   7.03581928
_cell_length_c   4.29494500
_cell_angle_alpha   90.00000000
_cell_angle_beta   90.00000000
_cell_angle_gamma   119.21375784
_symmetry_Int_Tables_number   1
_chemical_formula_structural   Li3Dy2TmSi2Sb
_chemical_formula_sum   'Li3 Dy2 Tm1 Si2 Sb1'
_cell_volume   185.56845776
_cell_formula_units_Z   1
loop_
 _symmetry_equiv_pos_site_id
 _symmetry_equiv_pos_as_xyz
  1  'x, y, z'
loop_
 _atom_site_type_symbol
 _atom_site_label
 _atom_site_symmetry_multiplicity
 _atom_site_fract_x
 _atom_site_fract_y
 _atom_site_fract_z
 _atom_site_occupancy
  Li  Li0  1  0.241153  0.000629  0.500000  1
  Li  Li1  1  0.758446  0.758446  0.500000  1
  Li  Li2  1  0.000629  0.241153  0.500000  1
  Dy  Dy3  1  0.998516  0.549731  0.000000  1
  Dy  Dy4  1  0.549731  0.998516  0.000000  1
  Tm  Tm5  1  0.447116  0.447116  0.000000  1
  Si  Si6  1  0.334360  0.663938  0.500000  1
  Si  Si7  1  0.663938  0.334360  0.500000  1
  Sb  Sb8  1  0.006112  0.006112  0.000000  1
