# generated using pymatgen
data_Nd4Mn3(FeO4)5
_symmetry_space_group_name_H-M   'P 1'
_cell_length_a   5.85225100
_cell_length_b   7.60469972
_cell_length_c   8.75177207
_cell_angle_alpha   89.85687456
_cell_angle_beta   90.00000000
_cell_angle_gamma   90.00000000
_symmetry_Int_Tables_number   1
_chemical_formula_structural   Nd4Mn3(FeO4)5
_chemical_formula_sum   'Nd4 Mn3 Fe5 O20'
_cell_volume   389.49300124
_cell_formula_units_Z   1
loop_
 _symmetry_equiv_pos_site_id
 _symmetry_equiv_pos_as_xyz
  1  'x, y, z'
loop_
 _atom_site_type_symbol
 _atom_site_label
 _atom_site_symmetry_multiplicity
 _atom_site_fract_x
 _atom_site_fract_y
 _atom_site_fract_z
 _atom_site_occupancy
  Nd  Nd0  1  0.998025  0.360998  0.673239  1
  Nd  Nd1  1  0.998025  0.639002  0.326761  1
  Nd  Nd2  1  0.999669  0.862380  0.829983  1
  Nd  Nd3  1  0.999669  0.137620  0.170017  1
  Mn  Mn4  1  0.748320  0.000000  0.500000  1
  Mn  Mn5  1  0.747746  0.500000  0.000000  1
  Mn  Mn6  1  0.252777  0.000000  0.500000  1
  Fe  Fe7  1  0.501802  0.109766  0.856653  1
  Fe  Fe8  1  0.501802  0.890234  0.143347  1
  Fe  Fe9  1  0.499743  0.610317  0.643775  1
  Fe  Fe10  1  0.499743  0.389683  0.356225  1
  Fe  Fe11  1  0.254061  0.500000  0.000000  1
  O  O12  1  0.248117  0.902059  0.294404  1
  O  O13  1  0.248117  0.097941  0.705596  1
  O  O14  1  0.751517  0.399392  0.207303  1
  O  O15  1  0.751517  0.600608  0.792697  1
  O  O16  1  0.753282  0.095908  0.705350  1
  O  O17  1  0.753282  0.904092  0.294650  1
  O  O18  1  0.246477  0.601734  0.786471  1
  O  O19  1  0.246477  0.398266  0.213529  1
  O  O20  1  0.508621  0.344844  0.930617  1
  O  O21  1  0.508621  0.655156  0.069383  1
  O  O22  1  0.500615  0.846936  0.563037  1
  O  O23  1  0.500615  0.153064  0.436963  1
  O  O24  1  0.275086  0.000000  0.000000  1
  O  O25  1  0.722903  0.500000  0.500000  1
  O  O26  1  0.725434  0.000000  0.000000  1
  O  O27  1  0.277020  0.500000  0.500000  1
  O  O28  1  0.000334  0.156235  0.448154  1
  O  O29  1  0.000334  0.843765  0.551846  1
  O  O30  1  0.990125  0.660377  0.053564  1
  O  O31  1  0.990125  0.339623  0.946436  1
