# generated using pymatgen
data_Pr4DyY5(Sn5Rh2)4
_symmetry_space_group_name_H-M   'P 1'
_cell_length_a   14.16146200
_cell_length_b   14.16146200
_cell_length_c   4.57042200
_cell_angle_alpha   90.00000000
_cell_angle_beta   90.00000000
_cell_angle_gamma   90.00000000
_symmetry_Int_Tables_number   1
_chemical_formula_structural   Pr4DyY5(Sn5Rh2)4
_chemical_formula_sum   'Pr4 Dy1 Y5 Sn20 Rh8'
_cell_volume   916.58444815
_cell_formula_units_Z   1
loop_
 _symmetry_equiv_pos_site_id
 _symmetry_equiv_pos_as_xyz
  1  'x, y, z'
loop_
 _atom_site_type_symbol
 _atom_site_label
 _atom_site_symmetry_multiplicity
 _atom_site_fract_x
 _atom_site_fract_y
 _atom_site_fract_z
 _atom_site_occupancy
  Pr  Pr0  1  0.888046  0.388030  0.500000  1
  Pr  Pr1  1  0.111954  0.611970  0.500000  1
  Pr  Pr2  1  0.388030  0.111954  0.500000  1
  Pr  Pr3  1  0.611970  0.888046  0.500000  1
  Dy  Dy4  1  0.000000  0.000000  0.000000  1
  Y  Y5  1  0.500000  0.500000  0.000000  1
  Y  Y6  1  0.677339  0.177320  0.500000  1
  Y  Y7  1  0.322661  0.822680  0.500000  1
  Y  Y8  1  0.177320  0.322661  0.500000  1
  Y  Y9  1  0.822680  0.677339  0.500000  1
  Sn  Sn10  1  0.570373  0.070355  0.000000  1
  Sn  Sn11  1  0.429627  0.929645  0.000000  1
  Sn  Sn12  1  0.070355  0.429627  0.000000  1
  Sn  Sn13  1  0.929645  0.570373  0.000000  1
  Sn  Sn14  1  0.654252  0.698114  0.000000  1
  Sn  Sn15  1  0.345748  0.301886  0.000000  1
  Sn  Sn16  1  0.154217  0.801938  0.000000  1
  Sn  Sn17  1  0.845783  0.198062  0.000000  1
  Sn  Sn18  1  0.301886  0.654252  0.000000  1
  Sn  Sn19  1  0.698114  0.345748  0.000000  1
  Sn  Sn20  1  0.198062  0.154217  0.000000  1
  Sn  Sn21  1  0.801938  0.845783  0.000000  1
  Sn  Sn22  1  0.661441  0.505698  0.500000  1
  Sn  Sn23  1  0.338559  0.494302  0.500000  1
  Sn  Sn24  1  0.161289  0.994290  0.500000  1
  Sn  Sn25  1  0.838711  0.005710  0.500000  1
  Sn  Sn26  1  0.494302  0.661441  0.500000  1
  Sn  Sn27  1  0.505698  0.338559  0.500000  1
  Sn  Sn28  1  0.005710  0.161289  0.500000  1
  Sn  Sn29  1  0.994290  0.838711  0.500000  1
  Rh  Rh30  1  0.746036  0.529316  0.000000  1
  Rh  Rh31  1  0.253964  0.470684  0.000000  1
  Rh  Rh32  1  0.245992  0.970682  0.000000  1
  Rh  Rh33  1  0.754008  0.029318  0.000000  1
  Rh  Rh34  1  0.470684  0.746036  0.000000  1
  Rh  Rh35  1  0.529316  0.253964  0.000000  1
  Rh  Rh36  1  0.029318  0.245992  0.000000  1
  Rh  Rh37  1  0.970682  0.754008  0.000000  1
