# generated using pymatgen
data_Nb8Co7Si14Pt
_symmetry_space_group_name_H-M   'P 1'
_cell_length_a   9.30390666
_cell_length_b   9.31953035
_cell_length_c   9.28687307
_cell_angle_alpha   94.27599156
_cell_angle_beta   94.18339368
_cell_angle_gamma   148.52615076
_symmetry_Int_Tables_number   1
_chemical_formula_structural   Nb8Co7Si14Pt
_chemical_formula_sum   'Nb8 Co7 Si14 Pt1'
_cell_volume   404.58283500
_cell_formula_units_Z   1
loop_
 _symmetry_equiv_pos_site_id
 _symmetry_equiv_pos_as_xyz
  1  'x, y, z'
loop_
 _atom_site_type_symbol
 _atom_site_label
 _atom_site_symmetry_multiplicity
 _atom_site_fract_x
 _atom_site_fract_y
 _atom_site_fract_z
 _atom_site_occupancy
  Nb  Nb0  1  0.310572  0.499401  0.809198  1
  Nb  Nb1  1  0.692011  0.502504  0.192240  1
  Nb  Nb2  1  0.500199  0.689730  0.192233  1
  Nb  Nb3  1  0.498626  0.309818  0.809192  1
  Nb  Nb4  1  0.133682  0.133686  0.267360  1
  Nb  Nb5  1  0.866560  0.866558  0.733128  1
  Nb  Nb6  1  0.134580  0.869529  0.002398  1
  Nb  Nb7  1  0.867828  0.132875  0.002402  1
  Co  Co8  1  0.104398  0.604394  0.208802  1
  Co  Co9  1  0.898458  0.096654  0.495655  1
  Co  Co10  1  0.597185  0.399019  0.495651  1
  Co  Co11  1  0.599643  0.099635  0.199265  1
  Co  Co12  1  0.898025  0.398013  0.796041  1
  Co  Co13  1  0.103392  0.899236  0.501872  1
  Co  Co14  1  0.398470  0.602637  0.501867  1
  Si  Si15  1  0.291521  0.291560  0.583172  1
  Si  Si16  1  0.707859  0.707898  0.415661  1
  Si  Si17  1  0.279152  0.690728  0.007158  1
  Si  Si18  1  0.728008  0.316417  0.007159  1
  Si  Si19  1  0.066448  0.468002  0.585257  1
  Si  Si20  1  0.904201  0.499662  0.406640  1
  Si  Si21  1  0.502465  0.906958  0.406646  1
  Si  Si22  1  0.518836  0.117227  0.585264  1
  Si  Si23  1  0.249778  0.249496  0.000583  1
  Si  Si24  1  0.750797  0.751091  0.000579  1
  Si  Si25  1  0.297910  0.001905  0.296132  1
  Si  Si26  1  0.721759  0.009242  0.702056  1
  Si  Si27  1  0.980345  0.692855  0.702107  1
  Si  Si28  1  0.998228  0.294223  0.296182  1
  Pt  Pt29  1  0.399063  0.899043  0.798101  1
