# generated using pymatgen
data_Gd4Dy2TaO12
_symmetry_space_group_name_H-M   'P 1'
_cell_length_a   6.53401559
_cell_length_b   6.52199389
_cell_length_c   6.54836994
_cell_angle_alpha   98.58073131
_cell_angle_beta   98.87121660
_cell_angle_gamma   98.64821055
_symmetry_Int_Tables_number   1
_chemical_formula_structural   Gd4Dy2TaO12
_chemical_formula_sum   'Gd4 Dy2 Ta1 O12'
_cell_volume   268.30574556
_cell_formula_units_Z   1
loop_
 _symmetry_equiv_pos_site_id
 _symmetry_equiv_pos_as_xyz
  1  'x, y, z'
loop_
 _atom_site_type_symbol
 _atom_site_label
 _atom_site_symmetry_multiplicity
 _atom_site_fract_x
 _atom_site_fract_y
 _atom_site_fract_z
 _atom_site_occupancy
  Gd  Gd0  1  0.304216  0.141895  0.610271  1
  Gd  Gd1  1  0.699455  0.862608  0.390618  1
  Gd  Gd2  1  0.391941  0.695480  0.861033  1
  Gd  Gd3  1  0.137948  0.607747  0.300594  1
  Dy  Dy4  1  0.858903  0.387971  0.698633  1
  Dy  Dy5  1  0.611271  0.300855  0.137034  1
  Ta  Ta6  1  0.001050  0.999587  0.999521  1
  O  O7  1  0.928005  0.043543  0.699367  1
  O  O8  1  0.956196  0.301569  0.070582  1
  O  O9  1  0.590511  0.178444  0.435592  1
  O  O10  1  0.821462  0.561744  0.411931  1
  O  O11  1  0.302079  0.074469  0.963027  1
  O  O12  1  0.566101  0.411362  0.823865  1
  O  O13  1  0.436478  0.586548  0.178585  1
  O  O14  1  0.698588  0.930091  0.040557  1
  O  O15  1  0.174935  0.435632  0.588136  1
  O  O16  1  0.411314  0.823462  0.564707  1
  O  O17  1  0.037870  0.697877  0.925454  1
  O  O18  1  0.071679  0.959118  0.300493  1
