# generated using pymatgen
data_BaPrB2Rh5
_symmetry_space_group_name_H-M   'P 1'
_cell_length_a   5.61103100
_cell_length_b   5.61103253
_cell_length_c   21.84486900
_cell_angle_alpha   90.00000000
_cell_angle_beta   90.00000000
_cell_angle_gamma   120.00028000
_symmetry_Int_Tables_number   1
_chemical_formula_structural   BaPrB2Rh5
_chemical_formula_sum   'Ba4 Pr4 B8 Rh20'
_cell_volume   595.61318932
_cell_formula_units_Z   4
loop_
 _symmetry_equiv_pos_site_id
 _symmetry_equiv_pos_as_xyz
  1  'x, y, z'
loop_
 _atom_site_type_symbol
 _atom_site_label
 _atom_site_symmetry_multiplicity
 _atom_site_fract_x
 _atom_site_fract_y
 _atom_site_fract_z
 _atom_site_occupancy
  Ba  Ba0  1  0.666664  0.333336  0.522340  1
  Ba  Ba1  1  0.333336  0.666664  0.477660  1
  Ba  Ba2  1  0.333336  0.666664  0.022340  1
  Ba  Ba3  1  0.666664  0.333336  0.977660  1
  Pr  Pr4  1  0.666760  0.333240  0.674603  1
  Pr  Pr5  1  0.333240  0.666760  0.325397  1
  Pr  Pr6  1  0.333240  0.666760  0.174603  1
  Pr  Pr7  1  0.666760  0.333240  0.825397  1
  B  B8  1  0.000073  0.999927  0.680361  1
  B  B9  1  0.999927  0.000073  0.319639  1
  B  B10  1  0.999927  0.000073  0.180361  1
  B  B11  1  0.000073  0.999927  0.819639  1
  B  B12  1  0.666598  0.333402  0.324139  1
  B  B13  1  0.333402  0.666598  0.675861  1
  B  B14  1  0.333402  0.666598  0.824139  1
  B  B15  1  0.666598  0.333402  0.175861  1
  Rh  Rh16  1  0.000000  0.000000  0.500000  1
  Rh  Rh17  1  0.000000  0.000000  0.000000  1
  Rh  Rh18  1  0.167955  0.335699  0.750000  1
  Rh  Rh19  1  0.167955  0.832045  0.750000  1
  Rh  Rh20  1  0.664301  0.832045  0.750000  1
  Rh  Rh21  1  0.832045  0.664301  0.250000  1
  Rh  Rh22  1  0.832045  0.167955  0.250000  1
  Rh  Rh23  1  0.335699  0.167955  0.250000  1
  Rh  Rh24  1  0.162173  0.324143  0.615714  1
  Rh  Rh25  1  0.162173  0.837827  0.615718  1
  Rh  Rh26  1  0.675857  0.837827  0.615714  1
  Rh  Rh27  1  0.837827  0.675857  0.384286  1
  Rh  Rh28  1  0.837827  0.162173  0.384282  1
  Rh  Rh29  1  0.324143  0.162173  0.384286  1
  Rh  Rh30  1  0.837827  0.675857  0.115714  1
  Rh  Rh31  1  0.837827  0.162173  0.115718  1
  Rh  Rh32  1  0.324143  0.162173  0.115714  1
  Rh  Rh33  1  0.162173  0.324143  0.884286  1
  Rh  Rh34  1  0.162173  0.837827  0.884282  1
  Rh  Rh35  1  0.675857  0.837827  0.884286  1
