# generated using pymatgen
data_Ti14V6Si15P
_symmetry_space_group_name_H-M   'P 1'
_cell_length_a   6.56262420
_cell_length_b   6.57338330
_cell_length_c   12.07094550
_cell_angle_alpha   89.97280930
_cell_angle_beta   90.03997282
_cell_angle_gamma   90.03837319
_symmetry_Int_Tables_number   1
_chemical_formula_structural   Ti14V6Si15P
_chemical_formula_sum   'Ti14 V6 Si15 P1'
_cell_volume   520.72392281
_cell_formula_units_Z   1
loop_
 _symmetry_equiv_pos_site_id
 _symmetry_equiv_pos_as_xyz
  1  'x, y, z'
loop_
 _atom_site_type_symbol
 _atom_site_label
 _atom_site_symmetry_multiplicity
 _atom_site_fract_x
 _atom_site_fract_y
 _atom_site_fract_z
 _atom_site_occupancy
  Ti  Ti0  1  0.154234  0.998120  0.379027  1
  Ti  Ti1  1  0.848663  0.005727  0.877267  1
  Ti  Ti2  1  0.003660  0.341525  0.220406  1
  Ti  Ti3  1  0.158232  0.504241  0.470781  1
  Ti  Ti4  1  0.843252  0.494325  0.968666  1
  Ti  Ti5  1  0.502363  0.159205  0.529493  1
  Ti  Ti6  1  0.498409  0.840151  0.029690  1
  Ti  Ti7  1  0.996263  0.654446  0.722121  1
  Ti  Ti8  1  0.339190  0.005706  0.779601  1
  Ti  Ti9  1  0.658886  0.995945  0.279988  1
  Ti  Ti10  1  0.167568  0.170673  0.998077  1
  Ti  Ti11  1  0.335114  0.668577  0.249249  1
  Ti  Ti12  1  0.668651  0.331920  0.750016  1
  Ti  Ti13  1  0.831263  0.831376  0.500552  1
  V  V14  1  0.992761  0.156131  0.624422  1
  V  V15  1  0.339576  0.489423  0.870402  1
  V  V16  1  0.655629  0.507213  0.371844  1
  V  V17  1  0.495758  0.347854  0.127766  1
  V  V18  1  0.504238  0.652587  0.628812  1
  V  V19  1  0.008295  0.845114  0.121317  1
  Si  Si20  1  0.202777  0.542717  0.063304  1
  Si  Si21  1  0.796848  0.457928  0.562748  1
  Si  Si22  1  0.542336  0.203734  0.938346  1
  Si  Si23  1  0.457790  0.796003  0.438513  1
  Si  Si24  1  0.956098  0.700544  0.312041  1
  Si  Si25  1  0.299780  0.045550  0.185396  1
  Si  Si26  1  0.698501  0.954741  0.686155  1
  Si  Si27  1  0.293177  0.364616  0.670670  1
  Si  Si28  1  0.140653  0.790039  0.923657  1
  Si  Si29  1  0.860003  0.210117  0.423569  1
  Si  Si30  1  0.792016  0.134370  0.079253  1
  Si  Si31  1  0.206310  0.864684  0.579888  1
  Si  Si32  1  0.709832  0.634916  0.171718  1
  Si  Si33  1  0.367881  0.296482  0.326086  1
  Si  Si34  1  0.629876  0.704587  0.827317  1
  P  P35  1  0.044117  0.298711  0.811840  1
