# generated using pymatgen
data_Mg4Ge3As3Ir7
_symmetry_space_group_name_H-M   'P 1'
_cell_length_a   7.07836484
_cell_length_b   7.07836546
_cell_length_c   7.07836435
_cell_angle_alpha   109.49312157
_cell_angle_beta   110.06573667
_cell_angle_gamma   108.85705054
_symmetry_Int_Tables_number   1
_chemical_formula_structural   Mg4Ge3As3Ir7
_chemical_formula_sum   'Mg4 Ge3 As3 Ir7'
_cell_volume   272.97862480
_cell_formula_units_Z   1
loop_
 _symmetry_equiv_pos_site_id
 _symmetry_equiv_pos_as_xyz
  1  'x, y, z'
loop_
 _atom_site_type_symbol
 _atom_site_label
 _atom_site_symmetry_multiplicity
 _atom_site_fract_x
 _atom_site_fract_y
 _atom_site_fract_z
 _atom_site_occupancy
  Mg  Mg0  1  0.999934  0.998738  0.500401  1
  Mg  Mg1  1  0.498336  0.998738  0.998804  1
  Mg  Mg2  1  0.000066  0.500467  0.998804  1
  Mg  Mg3  1  0.501664  0.500467  0.500401  1
  Ge  Ge4  1  0.689715  0.689412  0.999697  1
  Ge  Ge5  1  0.310285  0.309982  0.999697  1
  Ge  Ge6  1  0.000000  0.691707  0.691707  1
  As  As7  1  0.000000  0.314322  0.314322  1
  As  As8  1  0.688515  0.999492  0.688008  1
  As  As9  1  0.311485  0.999492  0.310977  1
  Ir  Ir10  1  0.000000  0.001123  0.001123  1
  Ir  Ir11  1  0.249627  0.499171  0.748798  1
  Ir  Ir12  1  0.749559  0.249180  0.499621  1
  Ir  Ir13  1  0.500000  0.248355  0.748355  1
  Ir  Ir14  1  0.500000  0.750121  0.250121  1
  Ir  Ir15  1  0.750373  0.499171  0.249543  1
  Ir  Ir16  1  0.250441  0.750062  0.499621  1
