# generated using pymatgen
data_Nd8Ag2OsRh
_symmetry_space_group_name_H-M   'P 1'
_cell_length_a   9.87684329
_cell_length_b   9.87684270
_cell_length_c   9.96504200
_cell_angle_alpha   59.70416544
_cell_angle_beta   59.70416744
_cell_angle_gamma   59.29112561
_symmetry_Int_Tables_number   1
_chemical_formula_structural   Nd8Ag2OsRh
_chemical_formula_sum   'Nd16 Ag4 Os2 Rh2'
_cell_volume   680.58740445
_cell_formula_units_Z   2
loop_
 _symmetry_equiv_pos_site_id
 _symmetry_equiv_pos_as_xyz
  1  'x, y, z'
loop_
 _atom_site_type_symbol
 _atom_site_label
 _atom_site_symmetry_multiplicity
 _atom_site_fract_x
 _atom_site_fract_y
 _atom_site_fract_z
 _atom_site_occupancy
  Nd  Nd0  1  0.600159  0.600159  0.600383  1
  Nd  Nd1  1  0.600159  0.600159  0.199298  1
  Nd  Nd2  1  0.598476  0.201627  0.599948  1
  Nd  Nd3  1  0.201627  0.598476  0.599948  1
  Nd  Nd4  1  0.061202  0.439404  0.439887  1
  Nd  Nd5  1  0.439404  0.061202  0.059507  1
  Nd  Nd6  1  0.439404  0.061202  0.439887  1
  Nd  Nd7  1  0.061202  0.439404  0.059507  1
  Nd  Nd8  1  0.439945  0.439945  0.060055  1
  Nd  Nd9  1  0.059569  0.059569  0.440431  1
  Nd  Nd10  1  0.188654  0.807760  0.813069  1
  Nd  Nd11  1  0.807760  0.188654  0.190518  1
  Nd  Nd12  1  0.807760  0.188654  0.813069  1
  Nd  Nd13  1  0.188654  0.807760  0.190518  1
  Nd  Nd14  1  0.812391  0.812391  0.187609  1
  Nd  Nd15  1  0.190635  0.190635  0.809365  1
  Ag  Ag16  1  0.831006  0.831006  0.831347  1
  Ag  Ag17  1  0.831006  0.831006  0.506641  1
  Ag  Ag18  1  0.830680  0.507547  0.830887  1
  Ag  Ag19  1  0.507547  0.830680  0.830887  1
  Os  Os20  1  0.392248  0.392248  0.387540  1
  Os  Os21  1  0.392248  0.392248  0.827961  1
  Rh  Rh22  1  0.392787  0.825476  0.390868  1
  Rh  Rh23  1  0.825476  0.392787  0.390868  1
