# generated using pymatgen
data_Nd3Al12(OsPt)2
_symmetry_space_group_name_H-M   'P 1'
_cell_length_a   8.96451453
_cell_length_b   8.91778408
_cell_length_c   9.65941600
_cell_angle_alpha   90.00000000
_cell_angle_beta   90.00000000
_cell_angle_gamma   119.82772035
_symmetry_Int_Tables_number   1
_chemical_formula_structural   Nd3Al12(OsPt)2
_chemical_formula_sum   'Nd6 Al24 Os4 Pt4'
_cell_volume   669.91014109
_cell_formula_units_Z   2
loop_
 _symmetry_equiv_pos_site_id
 _symmetry_equiv_pos_as_xyz
  1  'x, y, z'
loop_
 _atom_site_type_symbol
 _atom_site_label
 _atom_site_symmetry_multiplicity
 _atom_site_fract_x
 _atom_site_fract_y
 _atom_site_fract_z
 _atom_site_occupancy
  Nd  Nd0  1  0.187601  0.382050  0.250000  1
  Nd  Nd1  1  0.812399  0.617950  0.750000  1
  Nd  Nd2  1  0.620034  0.810017  0.250000  1
  Nd  Nd3  1  0.379966  0.189983  0.750000  1
  Nd  Nd4  1  0.187601  0.805552  0.250000  1
  Nd  Nd5  1  0.812399  0.194448  0.750000  1
  Al  Al6  1  0.328661  0.664331  0.025790  1
  Al  Al7  1  0.671339  0.335669  0.974210  1
  Al  Al8  1  0.671339  0.335669  0.525790  1
  Al  Al9  1  0.328661  0.664331  0.474210  1
  Al  Al10  1  0.158506  0.326799  0.576002  1
  Al  Al11  1  0.841494  0.673201  0.423998  1
  Al  Al12  1  0.675988  0.837994  0.574579  1
  Al  Al13  1  0.841494  0.673201  0.076002  1
  Al  Al14  1  0.324012  0.162006  0.425421  1
  Al  Al15  1  0.158506  0.326799  0.923998  1
  Al  Al16  1  0.158506  0.831707  0.576002  1
  Al  Al17  1  0.324012  0.162006  0.074579  1
  Al  Al18  1  0.841494  0.168293  0.423998  1
  Al  Al19  1  0.675988  0.837994  0.925421  1
  Al  Al20  1  0.841494  0.168293  0.076002  1
  Al  Al21  1  0.158506  0.831707  0.923998  1
  Al  Al22  1  0.564637  0.127650  0.250000  1
  Al  Al23  1  0.435363  0.872350  0.750000  1
  Al  Al24  1  0.873844  0.436922  0.250000  1
  Al  Al25  1  0.126156  0.563078  0.750000  1
  Al  Al26  1  0.564637  0.436987  0.250000  1
  Al  Al27  1  0.435363  0.563013  0.750000  1
  Al  Al28  1  0.995719  0.997859  0.250000  1
  Al  Al29  1  0.004281  0.002141  0.750000  1
  Os  Os30  1  0.000000  0.500000  0.000000  1
  Os  Os31  1  0.000000  0.500000  0.500000  1
  Os  Os32  1  0.000000  0.000000  0.000000  1
  Os  Os33  1  0.000000  0.000000  0.500000  1
  Pt  Pt34  1  0.500000  0.000000  0.000000  1
  Pt  Pt35  1  0.500000  0.000000  0.500000  1
  Pt  Pt36  1  0.500000  0.500000  0.000000  1
  Pt  Pt37  1  0.500000  0.500000  0.500000  1
