# generated using pymatgen
data_VPt2Br13
_symmetry_space_group_name_H-M   'P 1'
_cell_length_a   11.37283800
_cell_length_b   9.73256114
_cell_length_c   10.68539030
_cell_angle_alpha   80.02355990
_cell_angle_beta   90.00000000
_cell_angle_gamma   90.00000000
_symmetry_Int_Tables_number   1
_chemical_formula_structural   VPt2Br13
_chemical_formula_sum   'V2 Pt4 Br26'
_cell_volume   1164.84809428
_cell_formula_units_Z   2
loop_
 _symmetry_equiv_pos_site_id
 _symmetry_equiv_pos_as_xyz
  1  'x, y, z'
loop_
 _atom_site_type_symbol
 _atom_site_label
 _atom_site_symmetry_multiplicity
 _atom_site_fract_x
 _atom_site_fract_y
 _atom_site_fract_z
 _atom_site_occupancy
  V  V0  1  0.250000  0.264806  0.503390  1
  V  V1  1  0.750000  0.735194  0.496610  1
  Pt  Pt2  1  0.250000  0.833193  0.104585  1
  Pt  Pt3  1  0.750000  0.166807  0.895415  1
  Pt  Pt4  1  0.250000  0.676943  0.853597  1
  Pt  Pt5  1  0.750000  0.323057  0.146403  1
  Br  Br6  1  0.587385  0.809019  0.585009  1
  Br  Br7  1  0.087385  0.190981  0.414991  1
  Br  Br8  1  0.750000  0.426281  0.910072  1
  Br  Br9  1  0.250000  0.573719  0.089928  1
  Br  Br10  1  0.899372  0.154827  0.075128  1
  Br  Br11  1  0.399372  0.845173  0.924872  1
  Br  Br12  1  0.100628  0.845173  0.924872  1
  Br  Br13  1  0.600628  0.154827  0.075128  1
  Br  Br14  1  0.750000  0.202026  0.368621  1
  Br  Br15  1  0.250000  0.797974  0.631379  1
  Br  Br16  1  0.904766  0.483024  0.193718  1
  Br  Br17  1  0.404766  0.516976  0.806282  1
  Br  Br18  1  0.095234  0.516976  0.806282  1
  Br  Br19  1  0.595234  0.483024  0.193718  1
  Br  Br20  1  0.750000  0.911616  0.908082  1
  Br  Br21  1  0.250000  0.088384  0.091918  1
  Br  Br22  1  0.903700  0.195483  0.730395  1
  Br  Br23  1  0.403700  0.804517  0.269605  1
  Br  Br24  1  0.096300  0.804517  0.269605  1
  Br  Br25  1  0.596300  0.195483  0.730395  1
  Br  Br26  1  0.750000  0.809168  0.286201  1
  Br  Br27  1  0.250000  0.190832  0.713799  1
  Br  Br28  1  0.750000  0.501648  0.529982  1
  Br  Br29  1  0.250000  0.498352  0.470018  1
  Br  Br30  1  0.912615  0.809019  0.585009  1
  Br  Br31  1  0.412615  0.190981  0.414991  1
