# generated using pymatgen
data_Yb5GaNi2
_symmetry_space_group_name_H-M   'P 1'
_cell_length_a   7.39711831
_cell_length_b   7.39711787
_cell_length_c   8.80031400
_cell_angle_alpha   114.85199575
_cell_angle_beta   114.85199417
_cell_angle_gamma   89.99999577
_symmetry_Int_Tables_number   1
_chemical_formula_structural   Yb5GaNi2
_chemical_formula_sum   'Yb10 Ga2 Ni4'
_cell_volume   387.24607340
_cell_formula_units_Z   2
loop_
 _symmetry_equiv_pos_site_id
 _symmetry_equiv_pos_as_xyz
  1  'x, y, z'
loop_
 _atom_site_type_symbol
 _atom_site_label
 _atom_site_symmetry_multiplicity
 _atom_site_fract_x
 _atom_site_fract_y
 _atom_site_fract_z
 _atom_site_occupancy
  Yb  Yb0  1  0.000000  0.000000  0.000000  1
  Yb  Yb1  1  0.500000  0.500000  0.000000  1
  Yb  Yb2  1  0.463516  0.305814  0.269330  1
  Yb  Yb3  1  0.963515  0.463516  0.269330  1
  Yb  Yb4  1  0.305814  0.805815  0.269330  1
  Yb  Yb5  1  0.805815  0.963515  0.269330  1
  Yb  Yb6  1  0.194185  0.036484  0.730670  1
  Yb  Yb7  1  0.694186  0.194185  0.730670  1
  Yb  Yb8  1  0.036484  0.536484  0.730670  1
  Yb  Yb9  1  0.536484  0.694186  0.730670  1
  Ga  Ga10  1  0.250000  0.250000  0.500000  1
  Ga  Ga11  1  0.750000  0.750000  0.500000  1
  Ni  Ni12  1  0.615448  0.115449  0.000000  1
  Ni  Ni13  1  0.115449  0.384551  0.000000  1
  Ni  Ni14  1  0.884551  0.615448  0.000000  1
  Ni  Ni15  1  0.384551  0.884551  0.000000  1
