# generated using pymatgen
data_Tb11Nd9(Sn3Sb)4
_symmetry_space_group_name_H-M   'P 1'
_cell_length_a   8.27719513
_cell_length_b   8.29475154
_cell_length_c   15.73543360
_cell_angle_alpha   89.96623794
_cell_angle_beta   88.34340719
_cell_angle_gamma   90.11597806
_symmetry_Int_Tables_number   1
_chemical_formula_structural   Tb11Nd9(Sn3Sb)4
_chemical_formula_sum   'Tb11 Nd9 Sn12 Sb4'
_cell_volume   1079.89805010
_cell_formula_units_Z   1
loop_
 _symmetry_equiv_pos_site_id
 _symmetry_equiv_pos_as_xyz
  1  'x, y, z'
loop_
 _atom_site_type_symbol
 _atom_site_label
 _atom_site_symmetry_multiplicity
 _atom_site_fract_x
 _atom_site_fract_y
 _atom_site_fract_z
 _atom_site_occupancy
  Tb  Tb0  1  0.111762  0.162255  0.618190  1
  Tb  Tb1  1  0.387358  0.663282  0.380929  1
  Tb  Tb2  1  0.903690  0.837160  0.117622  1
  Tb  Tb3  1  0.406353  0.663354  0.116470  1
  Tb  Tb4  1  0.891943  0.838302  0.381112  1
  Tb  Tb5  1  0.608753  0.337409  0.618467  1
  Tb  Tb6  1  0.093788  0.162571  0.883080  1
  Tb  Tb7  1  0.269421  0.498668  0.746195  1
  Tb  Tb8  1  0.769954  0.000164  0.750626  1
  Tb  Tb9  1  0.730549  0.502034  0.250115  1
  Tb  Tb10  1  0.230631  0.999804  0.253031  1
  Nd  Nd11  1  0.437214  0.830330  0.889427  1
  Nd  Nd12  1  0.957819  0.675640  0.602728  1
  Nd  Nd13  1  0.542603  0.176292  0.396707  1
  Nd  Nd14  1  0.062275  0.331575  0.110080  1
  Nd  Nd15  1  0.570377  0.167141  0.112756  1
  Nd  Nd16  1  0.048455  0.327773  0.395230  1
  Nd  Nd17  1  0.451574  0.826369  0.604086  1
  Nd  Nd18  1  0.930549  0.667233  0.888175  1
  Nd  Nd19  1  0.594344  0.333317  0.885909  1
  Sn  Sn20  1  0.764652  0.006080  0.953487  1
  Sn  Sn21  1  0.277269  0.470252  0.544130  1
  Sn  Sn22  1  0.223301  0.970825  0.455293  1
  Sn  Sn23  1  0.738852  0.513272  0.049786  1
  Sn  Sn24  1  0.637833  0.635420  0.746835  1
  Sn  Sn25  1  0.138149  0.863923  0.748551  1
  Sn  Sn26  1  0.362239  0.364979  0.250996  1
  Sn  Sn27  1  0.862916  0.136236  0.252709  1
  Sn  Sn28  1  0.401236  0.130130  0.749334  1
  Sn  Sn29  1  0.903241  0.366651  0.748345  1
  Sn  Sn30  1  0.597408  0.867205  0.250905  1
  Sn  Sn31  1  0.097816  0.633042  0.248966  1
  Sb  Sb32  1  0.240261  0.990508  0.048777  1
  Sb  Sb33  1  0.723088  0.529384  0.454616  1
  Sb  Sb34  1  0.776627  0.028635  0.545203  1
  Sb  Sb35  1  0.255701  0.492788  0.951135  1
