# generated using pymatgen
data_Ho6Sc4SnBi5
_symmetry_space_group_name_H-M   'P 1'
_cell_length_a   8.90173800
_cell_length_b   8.93081650
_cell_length_c   6.21545500
_cell_angle_alpha   90.00000000
_cell_angle_beta   90.00000000
_cell_angle_gamma   119.89235161
_symmetry_Int_Tables_number   1
_chemical_formula_structural   Ho6Sc4SnBi5
_chemical_formula_sum   'Ho6 Sc4 Sn1 Bi5'
_cell_volume   428.39027744
_cell_formula_units_Z   1
loop_
 _symmetry_equiv_pos_site_id
 _symmetry_equiv_pos_as_xyz
  1  'x, y, z'
loop_
 _atom_site_type_symbol
 _atom_site_label
 _atom_site_symmetry_multiplicity
 _atom_site_fract_x
 _atom_site_fract_y
 _atom_site_fract_z
 _atom_site_occupancy
  Ho  Ho0  1  0.001251  0.759648  0.750000  1
  Ho  Ho1  1  0.994216  0.237213  0.250000  1
  Ho  Ho2  1  0.757003  0.762787  0.250000  1
  Ho  Ho3  1  0.758136  0.000000  0.750000  1
  Ho  Ho4  1  0.241604  0.240352  0.750000  1
  Ho  Ho5  1  0.244922  0.000000  0.250000  1
  Sc  Sc6  1  0.336408  0.670870  0.497753  1
  Sc  Sc7  1  0.665540  0.329130  0.002247  1
  Sc  Sc8  1  0.665540  0.329130  0.497753  1
  Sc  Sc9  1  0.336408  0.670870  0.002247  1
  Sn  Sn10  1  0.602468  0.000000  0.250000  1
  Bi  Bi11  1  0.397636  0.000000  0.750000  1
  Bi  Bi12  1  0.393828  0.394907  0.250000  1
  Bi  Bi13  1  0.998921  0.605093  0.250000  1
  Bi  Bi14  1  0.001069  0.396019  0.750000  1
  Bi  Bi15  1  0.605050  0.603981  0.750000  1
