# generated using pymatgen
data_Ca3PuTi4O12
_symmetry_space_group_name_H-M   'P 1'
_cell_length_a   7.73733300
_cell_length_b   5.43083682
_cell_length_c   5.54766336
_cell_angle_alpha   89.65926763
_cell_angle_beta   90.00000000
_cell_angle_gamma   90.00000000
_symmetry_Int_Tables_number   1
_chemical_formula_structural   Ca3PuTi4O12
_chemical_formula_sum   'Ca3 Pu1 Ti4 O12'
_cell_volume   233.10976241
_cell_formula_units_Z   1
loop_
 _symmetry_equiv_pos_site_id
 _symmetry_equiv_pos_as_xyz
  1  'x, y, z'
loop_
 _atom_site_type_symbol
 _atom_site_label
 _atom_site_symmetry_multiplicity
 _atom_site_fract_x
 _atom_site_fract_y
 _atom_site_fract_z
 _atom_site_occupancy
  Ca  Ca0  1  0.500000  0.489475  0.547685  1
  Ca  Ca1  1  0.000000  0.992488  0.952804  1
  Ca  Ca2  1  0.000000  0.508010  0.455911  1
  Pu  Pu3  1  0.500000  0.006656  0.049999  1
  Ti  Ti4  1  0.247830  0.998185  0.501214  1
  Ti  Ti5  1  0.752606  0.501270  0.000605  1
  Ti  Ti6  1  0.752170  0.998185  0.501214  1
  Ti  Ti7  1  0.247394  0.501270  0.000605  1
  O  O8  1  0.500000  0.581342  0.975593  1
  O  O9  1  0.500000  0.921032  0.483921  1
  O  O10  1  0.000000  0.422357  0.023798  1
  O  O11  1  0.000000  0.078936  0.518979  1
  O  O12  1  0.786207  0.798538  0.202673  1
  O  O13  1  0.208152  0.705361  0.705604  1
  O  O14  1  0.291537  0.203471  0.795175  1
  O  O15  1  0.704681  0.293028  0.290385  1
  O  O16  1  0.708463  0.203471  0.795175  1
  O  O17  1  0.295319  0.293028  0.290385  1
  O  O18  1  0.213793  0.798538  0.202673  1
  O  O19  1  0.791848  0.705361  0.705604  1
