# generated using pymatgen
data_Li2TiH6
_symmetry_space_group_name_H-M   'P 1'
_cell_length_a   2.91352189
_cell_length_b   4.97333053
_cell_length_c   4.96963201
_cell_angle_alpha   59.91256660
_cell_angle_beta   89.95027045
_cell_angle_gamma   89.93486376
_symmetry_Int_Tables_number   1
_chemical_formula_structural   Li2TiH6
_chemical_formula_sum   'Li2 Ti1 H6'
_cell_volume   62.30700292
_cell_formula_units_Z   1
loop_
 _symmetry_equiv_pos_site_id
 _symmetry_equiv_pos_as_xyz
  1  'x, y, z'
loop_
 _atom_site_type_symbol
 _atom_site_label
 _atom_site_symmetry_multiplicity
 _atom_site_fract_x
 _atom_site_fract_y
 _atom_site_fract_z
 _atom_site_occupancy
  Li  Li0  1  0.145996  0.861530  0.203077  1
  Li  Li1  1  0.112026  0.195413  0.536482  1
  Ti  Ti2  1  0.629081  0.529120  0.869306  1
  H  H3  1  0.128425  0.290559  0.107245  1
  H  H4  1  0.629034  0.162667  0.869302  1
  H  H5  1  0.128320  0.528866  0.631212  1
  H  H6  1  0.628410  0.894771  0.504006  1
  H  H7  1  0.128270  0.767671  0.869110  1
  H  H8  1  0.628897  0.529754  0.234974  1
