# generated using pymatgen
data_Mg2ZnP2Rh5
_symmetry_space_group_name_H-M   'P 1'
_cell_length_a   9.49854300
_cell_length_b   3.27798100
_cell_length_c   9.49854300
_cell_angle_alpha   90.00000000
_cell_angle_beta   90.00000000
_cell_angle_gamma   90.00000000
_symmetry_Int_Tables_number   1
_chemical_formula_structural   Mg2ZnP2Rh5
_chemical_formula_sum   'Mg4 Zn2 P4 Rh10'
_cell_volume   295.74704786
_cell_formula_units_Z   2
loop_
 _symmetry_equiv_pos_site_id
 _symmetry_equiv_pos_as_xyz
  1  'x, y, z'
loop_
 _atom_site_type_symbol
 _atom_site_label
 _atom_site_symmetry_multiplicity
 _atom_site_fract_x
 _atom_site_fract_y
 _atom_site_fract_z
 _atom_site_occupancy
  Mg  Mg0  1  0.327587  0.000000  0.172414  1
  Mg  Mg1  1  0.827587  0.000000  0.327587  1
  Mg  Mg2  1  0.172414  0.000000  0.672414  1
  Mg  Mg3  1  0.672414  0.000000  0.827587  1
  Zn  Zn4  1  0.000000  0.000000  0.000000  1
  Zn  Zn5  1  0.500000  0.000000  0.500000  1
  P  P6  1  0.630018  0.000000  0.130017  1
  P  P7  1  0.130017  0.000000  0.369982  1
  P  P8  1  0.869983  0.000000  0.630018  1
  P  P9  1  0.369982  0.000000  0.869983  1
  Rh  Rh10  1  0.500000  0.500000  0.000000  1
  Rh  Rh11  1  0.790200  0.500000  0.073033  1
  Rh  Rh12  1  0.073033  0.500000  0.209800  1
  Rh  Rh13  1  0.573033  0.500000  0.290201  1
  Rh  Rh14  1  0.290201  0.500000  0.426968  1
  Rh  Rh15  1  0.000000  0.500000  0.500000  1
  Rh  Rh16  1  0.709799  0.500000  0.573033  1
  Rh  Rh17  1  0.426968  0.500000  0.709799  1
  Rh  Rh18  1  0.926967  0.500000  0.790200  1
  Rh  Rh19  1  0.209800  0.500000  0.926967  1
