# generated using pymatgen
data_Be3Nb6As
_symmetry_space_group_name_H-M   'P 1'
_cell_length_a   6.62451911
_cell_length_b   6.62451911
_cell_length_c   3.41713200
_cell_angle_alpha   90.00000000
_cell_angle_beta   90.00000000
_cell_angle_gamma   89.97912120
_symmetry_Int_Tables_number   1
_chemical_formula_structural   Be3Nb6As
_chemical_formula_sum   'Be3 Nb6 As1'
_cell_volume   149.95827676
_cell_formula_units_Z   1
loop_
 _symmetry_equiv_pos_site_id
 _symmetry_equiv_pos_as_xyz
  1  'x, y, z'
loop_
 _atom_site_type_symbol
 _atom_site_label
 _atom_site_symmetry_multiplicity
 _atom_site_fract_x
 _atom_site_fract_y
 _atom_site_fract_z
 _atom_site_occupancy
  Be  Be0  1  0.385684  0.113492  0.000000  1
  Be  Be1  1  0.613492  0.885684  0.000000  1
  Be  Be2  1  0.122686  0.622686  0.000000  1
  Nb  Nb3  1  0.002955  0.993145  0.000000  1
  Nb  Nb4  1  0.493145  0.502955  0.000000  1
  Nb  Nb5  1  0.668416  0.168416  0.500000  1
  Nb  Nb6  1  0.189260  0.318919  0.500000  1
  Nb  Nb7  1  0.818919  0.689260  0.500000  1
  Nb  Nb8  1  0.321830  0.821830  0.500000  1
  As  As9  1  0.883612  0.383612  0.000000  1
