# generated using pymatgen
data_Ce4Ir3PtPb2
_symmetry_space_group_name_H-M   'P 1'
_cell_length_a   7.88737745
_cell_length_b   7.88737844
_cell_length_c   3.67507800
_cell_angle_alpha   90.00000000
_cell_angle_beta   90.00000000
_cell_angle_gamma   90.29190759
_symmetry_Int_Tables_number   1
_chemical_formula_structural   Ce4Ir3PtPb2
_chemical_formula_sum   'Ce4 Ir3 Pt1 Pb2'
_cell_volume   228.62632121
_cell_formula_units_Z   1
loop_
 _symmetry_equiv_pos_site_id
 _symmetry_equiv_pos_as_xyz
  1  'x, y, z'
loop_
 _atom_site_type_symbol
 _atom_site_label
 _atom_site_symmetry_multiplicity
 _atom_site_fract_x
 _atom_site_fract_y
 _atom_site_fract_z
 _atom_site_occupancy
  Ce  Ce0  1  0.160895  0.339105  0.500000  1
  Ce  Ce1  1  0.333320  0.823672  0.500000  1
  Ce  Ce2  1  0.829117  0.670883  0.500000  1
  Ce  Ce3  1  0.676328  0.166680  0.500000  1
  Ir  Ir4  1  0.630657  0.869343  0.000000  1
  Ir  Ir5  1  0.132098  0.632942  0.000000  1
  Ir  Ir6  1  0.867058  0.367902  0.000000  1
  Pt  Pt7  1  0.369175  0.130825  0.000000  1
  Pb  Pb8  1  0.500706  0.499354  0.000000  1
  Pb  Pb9  1  0.000646  0.999294  0.000000  1
