# generated using pymatgen
data_SmEr19Si15Pd
_symmetry_space_group_name_H-M   'P 1'
_cell_length_a   7.38983855
_cell_length_b   7.61899507
_cell_length_c   14.46419356
_cell_angle_alpha   90.19252786
_cell_angle_beta   90.54388513
_cell_angle_gamma   90.08704895
_symmetry_Int_Tables_number   1
_chemical_formula_structural   SmEr19Si15Pd
_chemical_formula_sum   'Sm1 Er19 Si15 Pd1'
_cell_volume   814.33729702
_cell_formula_units_Z   1
loop_
 _symmetry_equiv_pos_site_id
 _symmetry_equiv_pos_as_xyz
  1  'x, y, z'
loop_
 _atom_site_type_symbol
 _atom_site_label
 _atom_site_symmetry_multiplicity
 _atom_site_fract_x
 _atom_site_fract_y
 _atom_site_fract_z
 _atom_site_occupancy
  Sm  Sm0  1  0.025229  0.818822  0.599479  1
  Er  Er1  1  0.524897  0.679080  0.599299  1
  Er  Er2  1  0.319420  0.820202  0.121937  1
  Er  Er3  1  0.816521  0.679121  0.122593  1
  Er  Er4  1  0.852215  0.505679  0.749831  1
  Er  Er5  1  0.470403  0.317232  0.099297  1
  Er  Er6  1  0.029336  0.816660  0.900799  1
  Er  Er7  1  0.472066  0.320638  0.400483  1
  Er  Er8  1  0.651961  0.011641  0.254312  1
  Er  Er9  1  0.531056  0.682628  0.900592  1
  Er  Er10  1  0.681111  0.179106  0.877972  1
  Er  Er11  1  0.178756  0.321753  0.623907  1
  Er  Er12  1  0.184425  0.323187  0.877023  1
  Er  Er13  1  0.820007  0.682096  0.379071  1
  Er  Er14  1  0.321061  0.824842  0.377182  1
  Er  Er15  1  0.351742  0.990080  0.748115  1
  Er  Er16  1  0.681536  0.169654  0.621097  1
  Er  Er17  1  0.148394  0.490277  0.250706  1
  Er  Er18  1  0.969951  0.182943  0.098850  1
  Er  Er19  1  0.974351  0.180467  0.399301  1
  Si  Si20  1  0.234926  0.627505  0.752123  1
  Si  Si21  1  0.345030  0.031538  0.540720  1
  Si  Si22  1  0.024783  0.893887  0.247076  1
  Si  Si23  1  0.732342  0.869148  0.753181  1
  Si  Si24  1  0.267963  0.128836  0.246575  1
  Si  Si25  1  0.848579  0.468167  0.540712  1
  Si  Si26  1  0.481214  0.392644  0.749864  1
  Si  Si27  1  0.148657  0.528326  0.459588  1
  Si  Si28  1  0.145711  0.528166  0.040991  1
  Si  Si29  1  0.977889  0.106606  0.753113  1
  Si  Si30  1  0.767448  0.374694  0.248960  1
  Si  Si31  1  0.352170  0.029516  0.959512  1
  Si  Si32  1  0.855418  0.471596  0.958814  1
  Si  Si33  1  0.645077  0.971430  0.040062  1
  Si  Si34  1  0.521296  0.605946  0.248423  1
  Pd  Pd35  1  0.647059  0.975882  0.458437  1
