# generated using pymatgen
data_Ce2NdZn3PdPt2
_symmetry_space_group_name_H-M   'P 1'
_cell_length_a   7.49620909
_cell_length_b   7.47713178
_cell_length_c   3.88884500
_cell_angle_alpha   90.00000000
_cell_angle_beta   90.00000000
_cell_angle_gamma   119.91584822
_symmetry_Int_Tables_number   1
_chemical_formula_structural   Ce2NdZn3PdPt2
_chemical_formula_sum   'Ce2 Nd1 Zn3 Pd1 Pt2'
_cell_volume   188.92769909
_cell_formula_units_Z   1
loop_
 _symmetry_equiv_pos_site_id
 _symmetry_equiv_pos_as_xyz
  1  'x, y, z'
loop_
 _atom_site_type_symbol
 _atom_site_label
 _atom_site_symmetry_multiplicity
 _atom_site_fract_x
 _atom_site_fract_y
 _atom_site_fract_z
 _atom_site_occupancy
  Ce  Ce0  1  0.587730  0.587745  0.000000  1
  Ce  Ce1  1  0.412270  0.000016  0.000000  1
  Nd  Nd2  1  0.000000  0.410634  0.000000  1
  Zn  Zn3  1  0.000000  0.752361  0.500000  1
  Zn  Zn4  1  0.244047  0.244910  0.500000  1
  Zn  Zn5  1  0.755953  0.000863  0.500000  1
  Pd  Pd6  1  0.000000  0.995418  0.000000  1
  Pt  Pt7  1  0.651977  0.330014  0.500000  1
  Pt  Pt8  1  0.348023  0.678038  0.500000  1
