# generated using pymatgen
data_EuZr(NiP)3
_symmetry_space_group_name_H-M   'P 1'
_cell_length_a   3.79999900
_cell_length_b   10.22203000
_cell_length_c   12.35613800
_cell_angle_alpha   90.00000000
_cell_angle_beta   90.00000000
_cell_angle_gamma   90.00000000
_symmetry_Int_Tables_number   1
_chemical_formula_structural   EuZr(NiP)3
_chemical_formula_sum   'Eu4 Zr4 Ni12 P12'
_cell_volume   479.95816431
_cell_formula_units_Z   4
loop_
 _symmetry_equiv_pos_site_id
 _symmetry_equiv_pos_as_xyz
  1  'x, y, z'
loop_
 _atom_site_type_symbol
 _atom_site_label
 _atom_site_symmetry_multiplicity
 _atom_site_fract_x
 _atom_site_fract_y
 _atom_site_fract_z
 _atom_site_occupancy
  Eu  Eu0  1  0.250000  0.070639  0.207840  1
  Eu  Eu1  1  0.750000  0.929361  0.792160  1
  Eu  Eu2  1  0.750000  0.570639  0.292160  1
  Eu  Eu3  1  0.250000  0.429361  0.707840  1
  Zr  Zr4  1  0.250000  0.157683  0.498832  1
  Zr  Zr5  1  0.750000  0.842317  0.501168  1
  Zr  Zr6  1  0.750000  0.657683  0.001168  1
  Zr  Zr7  1  0.250000  0.342317  0.998832  1
  Ni  Ni8  1  0.250000  0.729064  0.662685  1
  Ni  Ni9  1  0.750000  0.270936  0.337315  1
  Ni  Ni10  1  0.750000  0.229064  0.837315  1
  Ni  Ni11  1  0.250000  0.770936  0.162685  1
  Ni  Ni12  1  0.250000  0.365165  0.219235  1
  Ni  Ni13  1  0.750000  0.634835  0.780765  1
  Ni  Ni14  1  0.750000  0.865165  0.280765  1
  Ni  Ni15  1  0.250000  0.134835  0.719235  1
  Ni  Ni16  1  0.250000  0.598522  0.484861  1
  Ni  Ni17  1  0.750000  0.401478  0.515139  1
  Ni  Ni18  1  0.750000  0.098522  0.015139  1
  Ni  Ni19  1  0.250000  0.901478  0.984861  1
  P  P20  1  0.250000  0.943899  0.620943  1
  P  P21  1  0.750000  0.056101  0.379057  1
  P  P22  1  0.750000  0.443899  0.879057  1
  P  P23  1  0.250000  0.556101  0.120943  1
  P  P24  1  0.250000  0.393896  0.402854  1
  P  P25  1  0.750000  0.606104  0.597146  1
  P  P26  1  0.750000  0.893896  0.097146  1
  P  P27  1  0.250000  0.106104  0.902854  1
  P  P28  1  0.250000  0.773594  0.352873  1
  P  P29  1  0.750000  0.226406  0.647127  1
  P  P30  1  0.750000  0.273594  0.147127  1
  P  P31  1  0.250000  0.726406  0.852873  1
