# generated using pymatgen
data_Lu20Bi11Pt
_symmetry_space_group_name_H-M   'P 1'
_cell_length_a   8.04151633
_cell_length_b   9.36996500
_cell_length_c   11.80914766
_cell_angle_alpha   90.00000000
_cell_angle_beta   89.57378149
_cell_angle_gamma   90.00000000
_symmetry_Int_Tables_number   1
_chemical_formula_structural   Lu20Bi11Pt
_chemical_formula_sum   'Lu20 Bi11 Pt1'
_cell_volume   889.77961802
_cell_formula_units_Z   1
loop_
 _symmetry_equiv_pos_site_id
 _symmetry_equiv_pos_as_xyz
  1  'x, y, z'
loop_
 _atom_site_type_symbol
 _atom_site_label
 _atom_site_symmetry_multiplicity
 _atom_site_fract_x
 _atom_site_fract_y
 _atom_site_fract_z
 _atom_site_occupancy
  Lu  Lu0  1  0.046603  0.250000  0.506109  1
  Lu  Lu1  1  0.984289  0.750000  0.492193  1
  Lu  Lu2  1  0.477531  0.750000  0.011950  1
  Lu  Lu3  1  0.526522  0.250000  0.990324  1
  Lu  Lu4  1  0.356700  0.250000  0.300522  1
  Lu  Lu5  1  0.656052  0.750000  0.717980  1
  Lu  Lu6  1  0.144994  0.750000  0.780125  1
  Lu  Lu7  1  0.848322  0.250000  0.215009  1
  Lu  Lu8  1  0.205720  0.250000  0.774843  1
  Lu  Lu9  1  0.807723  0.750000  0.215957  1
  Lu  Lu10  1  0.313518  0.750000  0.281867  1
  Lu  Lu11  1  0.654581  0.250000  0.704479  1
  Lu  Lu12  1  0.192664  0.067498  0.063479  1
  Lu  Lu13  1  0.807491  0.932739  0.940877  1
  Lu  Lu14  1  0.312719  0.962158  0.559466  1
  Lu  Lu15  1  0.807491  0.567261  0.940877  1
  Lu  Lu16  1  0.680456  0.074376  0.446903  1
  Lu  Lu17  1  0.192664  0.432502  0.063479  1
  Lu  Lu18  1  0.680456  0.425624  0.446903  1
  Lu  Lu19  1  0.312719  0.537842  0.559466  1
  Bi  Bi20  1  0.595537  0.750000  0.458747  1
  Bi  Bi21  1  0.098131  0.750000  0.042892  1
  Bi  Bi22  1  0.908549  0.250000  0.950144  1
  Bi  Bi23  1  0.056988  0.000121  0.322264  1
  Bi  Bi24  1  0.933557  0.001572  0.674971  1
  Bi  Bi25  1  0.435336  0.992241  0.828481  1
  Bi  Bi26  1  0.933557  0.498428  0.674971  1
  Bi  Bi27  1  0.563363  0.005094  0.175654  1
  Bi  Bi28  1  0.056988  0.499879  0.322264  1
  Bi  Bi29  1  0.563363  0.494906  0.175654  1
  Bi  Bi30  1  0.435336  0.507759  0.828481  1
  Pt  Pt31  1  0.410080  0.250000  0.532670  1
