# generated using pymatgen
data_TbYb3VFe3B16
_symmetry_space_group_name_H-M   'P 1'
_cell_length_a   3.37191600
_cell_length_b   5.92458400
_cell_length_c   11.45020714
_cell_angle_alpha   89.99115771
_cell_angle_beta   90.00000000
_cell_angle_gamma   90.00000000
_symmetry_Int_Tables_number   1
_chemical_formula_structural   TbYb3VFe3B16
_chemical_formula_sum   'Tb1 Yb3 V1 Fe3 B16'
_cell_volume   228.74307060
_cell_formula_units_Z   1
loop_
 _symmetry_equiv_pos_site_id
 _symmetry_equiv_pos_as_xyz
  1  'x, y, z'
loop_
 _atom_site_type_symbol
 _atom_site_label
 _atom_site_symmetry_multiplicity
 _atom_site_fract_x
 _atom_site_fract_y
 _atom_site_fract_z
 _atom_site_occupancy
  Tb  Tb0  1  0.500000  0.874602  0.347263  1
  Yb  Yb1  1  0.500000  0.374053  0.147588  1
  Yb  Yb2  1  0.500000  0.626595  0.849743  1
  Yb  Yb3  1  0.500000  0.123890  0.654365  1
  V  V4  1  0.500000  0.374101  0.418303  1
  Fe  Fe5  1  0.500000  0.623410  0.582386  1
  Fe  Fe6  1  0.500000  0.127569  0.916967  1
  Fe  Fe7  1  0.500000  0.873044  0.081237  1
  B  B8  1  0.000000  0.112457  0.045480  1
  B  B9  1  0.000000  0.888361  0.953526  1
  B  B10  1  0.000000  0.389706  0.549917  1
  B  B11  1  0.000000  0.616194  0.456138  1
  B  B12  1  0.000000  0.134704  0.469484  1
  B  B13  1  0.000000  0.861008  0.534825  1
  B  B14  1  0.000000  0.360993  0.967342  1
  B  B15  1  0.000000  0.639194  0.031548  1
  B  B16  1  0.000000  0.024230  0.188448  1
  B  B17  1  0.000000  0.975856  0.810487  1
  B  B18  1  0.000000  0.478196  0.691835  1
  B  B19  1  0.000000  0.526862  0.307388  1
  B  B20  1  0.000000  0.216157  0.313350  1
  B  B21  1  0.000000  0.778555  0.683519  1
  B  B22  1  0.000000  0.278751  0.818217  1
  B  B23  1  0.000000  0.721511  0.180644  1
