# generated using pymatgen
data_Ho3Sn3HgIrRu
_symmetry_space_group_name_H-M   'P 1'
_cell_length_a   7.74017700
_cell_length_b   7.74017546
_cell_length_c   3.86853600
_cell_angle_alpha   90.00000000
_cell_angle_beta   90.00000000
_cell_angle_gamma   119.99999376
_symmetry_Int_Tables_number   1
_chemical_formula_structural   Ho3Sn3HgIrRu
_chemical_formula_sum   'Ho3 Sn3 Hg1 Ir1 Ru1'
_cell_volume   200.71461630
_cell_formula_units_Z   1
loop_
 _symmetry_equiv_pos_site_id
 _symmetry_equiv_pos_as_xyz
  1  'x, y, z'
loop_
 _atom_site_type_symbol
 _atom_site_label
 _atom_site_symmetry_multiplicity
 _atom_site_fract_x
 _atom_site_fract_y
 _atom_site_fract_z
 _atom_site_occupancy
  Ho  Ho0  1  0.390576  0.413517  0.500000  1
  Ho  Ho1  1  0.586483  0.977058  0.500000  1
  Ho  Ho2  1  0.022942  0.609424  0.500000  1
  Sn  Sn3  1  0.743809  0.751214  0.000000  1
  Sn  Sn4  1  0.248786  0.992595  0.000000  1
  Sn  Sn5  1  0.007405  0.256191  0.000000  1
  Hg  Hg6  1  0.666667  0.333333  0.000000  1
  Ir  Ir7  1  0.333333  0.666667  0.000000  1
  Ru  Ru8  1  0.000000  0.000000  0.500000  1
