# generated using pymatgen
data_YbGd3(W2O7)2
_symmetry_space_group_name_H-M   'P 1'
_cell_length_a   7.37641357
_cell_length_b   7.37641299
_cell_length_c   7.49135094
_cell_angle_alpha   60.59400679
_cell_angle_beta   60.59400779
_cell_angle_gamma   60.08293556
_symmetry_Int_Tables_number   1
_chemical_formula_structural   YbGd3(W2O7)2
_chemical_formula_sum   'Yb1 Gd3 W4 O14'
_cell_volume   290.97344549
_cell_formula_units_Z   1
loop_
 _symmetry_equiv_pos_site_id
 _symmetry_equiv_pos_as_xyz
  1  'x, y, z'
loop_
 _atom_site_type_symbol
 _atom_site_label
 _atom_site_symmetry_multiplicity
 _atom_site_fract_x
 _atom_site_fract_y
 _atom_site_fract_z
 _atom_site_occupancy
  Yb  Yb0  1  0.500000  0.500000  0.000000  1
  Gd  Gd1  1  0.000000  0.500000  0.500000  1
  Gd  Gd2  1  0.500000  0.000000  0.500000  1
  Gd  Gd3  1  0.500000  0.500000  0.500000  1
  W  W4  1  0.500000  0.000000  0.000000  1
  W  W5  1  0.000000  0.500000  0.000000  1
  W  W6  1  0.000000  0.000000  0.000000  1
  W  W7  1  0.000000  0.000000  0.500000  1
  O  O8  1  0.373941  0.373941  0.378013  1
  O  O9  1  0.626059  0.626059  0.621987  1
  O  O10  1  0.082496  0.673611  0.661699  1
  O  O11  1  0.336638  0.925026  0.901679  1
  O  O12  1  0.673611  0.082496  0.661699  1
  O  O13  1  0.082579  0.082579  0.661501  1
  O  O14  1  0.663274  0.663274  0.100220  1
  O  O15  1  0.074974  0.663362  0.098321  1
  O  O16  1  0.663362  0.074974  0.098321  1
  O  O17  1  0.336726  0.336726  0.899780  1
  O  O18  1  0.917421  0.917421  0.338499  1
  O  O19  1  0.917504  0.326389  0.338301  1
  O  O20  1  0.925026  0.336638  0.901679  1
  O  O21  1  0.326389  0.917504  0.338301  1
