# generated using pymatgen
data_HoSc3CrB12Rh
_symmetry_space_group_name_H-M   'P 1'
_cell_length_a   3.46368700
_cell_length_b   8.92593933
_cell_length_c   11.27977865
_cell_angle_alpha   89.81936205
_cell_angle_beta   90.00000000
_cell_angle_gamma   90.00000000
_symmetry_Int_Tables_number   1
_chemical_formula_structural   HoSc3CrB12Rh
_chemical_formula_sum   'Ho2 Sc6 Cr2 B24 Rh2'
_cell_volume   348.73134855
_cell_formula_units_Z   2
loop_
 _symmetry_equiv_pos_site_id
 _symmetry_equiv_pos_as_xyz
  1  'x, y, z'
loop_
 _atom_site_type_symbol
 _atom_site_label
 _atom_site_symmetry_multiplicity
 _atom_site_fract_x
 _atom_site_fract_y
 _atom_site_fract_z
 _atom_site_occupancy
  Ho  Ho0  1  0.000000  0.816862  0.088681  1
  Ho  Ho1  1  0.000000  0.183138  0.911319  1
  Sc  Sc2  1  0.000000  0.326251  0.419174  1
  Sc  Sc3  1  0.000000  0.673749  0.580826  1
  Sc  Sc4  1  0.000000  0.447537  0.130095  1
  Sc  Sc5  1  0.000000  0.552463  0.869905  1
  Sc  Sc6  1  0.000000  0.940141  0.375446  1
  Sc  Sc7  1  0.000000  0.059859  0.624554  1
  Cr  Cr8  1  0.000000  0.638706  0.320604  1
  Cr  Cr9  1  0.000000  0.361294  0.679396  1
  B  B10  1  0.500000  0.054710  0.066993  1
  B  B11  1  0.500000  0.945290  0.933007  1
  B  B12  1  0.500000  0.552703  0.434713  1
  B  B13  1  0.500000  0.447297  0.565287  1
  B  B14  1  0.500000  0.254731  0.081071  1
  B  B15  1  0.500000  0.745269  0.918929  1
  B  B16  1  0.500000  0.749881  0.421464  1
  B  B17  1  0.500000  0.250119  0.578536  1
  B  B18  1  0.500000  0.295410  0.238433  1
  B  B19  1  0.500000  0.704590  0.761567  1
  B  B20  1  0.500000  0.793043  0.267230  1
  B  B21  1  0.500000  0.206957  0.732770  1
  B  B22  1  0.500000  0.130654  0.320281  1
  B  B23  1  0.500000  0.869346  0.679719  1
  B  B24  1  0.500000  0.628657  0.185104  1
  B  B25  1  0.500000  0.371343  0.814896  1
  B  B26  1  0.500000  0.479724  0.289226  1
  B  B27  1  0.500000  0.520276  0.710774  1
  B  B28  1  0.500000  0.980404  0.215991  1
  B  B29  1  0.500000  0.019596  0.784009  1
  B  B30  1  0.500000  0.102709  0.472102  1
  B  B31  1  0.500000  0.897291  0.527898  1
  B  B32  1  0.500000  0.599138  0.026736  1
  B  B33  1  0.500000  0.400862  0.973264  1
  Rh  Rh34  1  0.000000  0.140559  0.182575  1
  Rh  Rh35  1  0.000000  0.859441  0.817425  1
