# generated using pymatgen
data_Hf4ZrSnRh10
_symmetry_space_group_name_H-M   'P 1'
_cell_length_a   4.20492100
_cell_length_b   5.65442211
_cell_length_c   11.06692050
_cell_angle_alpha   88.78417119
_cell_angle_beta   90.00000000
_cell_angle_gamma   90.00000000
_symmetry_Int_Tables_number   1
_chemical_formula_structural   Hf4ZrSnRh10
_chemical_formula_sum   'Hf4 Zr1 Sn1 Rh10'
_cell_volume   263.07226778
_cell_formula_units_Z   1
loop_
 _symmetry_equiv_pos_site_id
 _symmetry_equiv_pos_as_xyz
  1  'x, y, z'
loop_
 _atom_site_type_symbol
 _atom_site_label
 _atom_site_symmetry_multiplicity
 _atom_site_fract_x
 _atom_site_fract_y
 _atom_site_fract_z
 _atom_site_occupancy
  Hf  Hf0  1  0.500000  0.825569  0.355931  1
  Hf  Hf1  1  0.500000  0.665200  0.854973  1
  Hf  Hf2  1  0.500000  0.335391  0.145118  1
  Hf  Hf3  1  0.000000  0.999563  0.000340  1
  Zr  Zr4  1  0.500000  0.175926  0.643218  1
  Sn  Sn5  1  0.000000  0.498546  0.499864  1
  Rh  Rh6  1  0.500000  0.190246  0.892436  1
  Rh  Rh7  1  0.500000  0.810129  0.109022  1
  Rh  Rh8  1  0.500000  0.700974  0.612734  1
  Rh  Rh9  1  0.500000  0.298383  0.386128  1
  Rh  Rh10  1  0.000000  0.426647  0.748234  1
  Rh  Rh11  1  0.000000  0.575820  0.253383  1
  Rh  Rh12  1  0.000000  0.996403  0.498285  1
  Rh  Rh13  1  0.000000  0.500482  0.000654  1
  Rh  Rh14  1  0.000000  0.079859  0.243390  1
  Rh  Rh15  1  0.000000  0.920864  0.756290  1
