# generated using pymatgen
data_SrSm3Rh4F28
_symmetry_space_group_name_H-M   'P 1'
_cell_length_a   5.63558891
_cell_length_b   9.12570791
_cell_length_c   12.26582185
_cell_angle_alpha   62.39458861
_cell_angle_beta   89.94853384
_cell_angle_gamma   89.79282515
_symmetry_Int_Tables_number   1
_chemical_formula_structural   SrSm3Rh4F28
_chemical_formula_sum   'Sr1 Sm3 Rh4 F28'
_cell_volume   558.99969408
_cell_formula_units_Z   1
loop_
 _symmetry_equiv_pos_site_id
 _symmetry_equiv_pos_as_xyz
  1  'x, y, z'
loop_
 _atom_site_type_symbol
 _atom_site_label
 _atom_site_symmetry_multiplicity
 _atom_site_fract_x
 _atom_site_fract_y
 _atom_site_fract_z
 _atom_site_occupancy
  Sr  Sr0  1  0.760803  0.817293  0.765351  1
  Sm  Sm1  1  0.265145  0.188933  0.734496  1
  Sm  Sm2  1  0.238269  0.188101  0.235104  1
  Sm  Sm3  1  0.739345  0.812672  0.265351  1
  Rh  Rh4  1  0.756277  0.269141  0.959310  1
  Rh  Rh5  1  0.254416  0.724862  0.539008  1
  Rh  Rh6  1  0.241403  0.723338  0.049607  1
  Rh  Rh7  1  0.741587  0.277835  0.452560  1
  F  F8  1  0.424149  0.701396  0.926897  1
  F  F9  1  0.933000  0.296332  0.576213  1
  F  F10  1  0.562506  0.287867  0.084161  1
  F  F11  1  0.066328  0.707311  0.412586  1
  F  F12  1  0.450567  0.284637  0.537054  1
  F  F13  1  0.952135  0.712391  0.972095  1
  F  F14  1  0.549483  0.719308  0.455921  1
  F  F15  1  0.048157  0.275549  0.044897  1
  F  F16  1  0.767372  0.502693  0.866933  1
  F  F17  1  0.266518  0.485539  0.632878  1
  F  F18  1  0.234213  0.483104  0.144583  1
  F  F19  1  0.729960  0.516898  0.359587  1
  F  F20  1  0.756969  0.030874  0.051660  1
  F  F21  1  0.255553  0.964904  0.447609  1
  F  F22  1  0.239907  0.961393  0.956140  1
  F  F23  1  0.743927  0.043800  0.538934  1
  F  F24  1  0.967947  0.725824  0.621643  1
  F  F25  1  0.467999  0.268735  0.872518  1
  F  F26  1  0.027570  0.273583  0.363351  1
  F  F27  1  0.530152  0.729824  0.135857  1
  F  F28  1  0.056468  0.743749  0.176689  1
  F  F29  1  0.552094  0.260356  0.325514  1
  F  F30  1  0.948965  0.251855  0.833458  1
  F  F31  1  0.434906  0.738508  0.665553  1
  F  F32  1  0.413240  0.970564  0.230938  1
  F  F33  1  0.912429  0.029797  0.268883  1
  F  F34  1  0.596333  0.053128  0.771364  1
  F  F35  1  0.113906  0.977904  0.725293  1
