# generated using pymatgen
data_Tm8Hf11Si16Ag
_symmetry_space_group_name_H-M   'P 1'
_cell_length_a   7.25140505
_cell_length_b   7.25140553
_cell_length_c   13.18724305
_cell_angle_alpha   89.84679602
_cell_angle_beta   90.15320727
_cell_angle_gamma   89.87932665
_symmetry_Int_Tables_number   1
_chemical_formula_structural   Tm8Hf11Si16Ag
_chemical_formula_sum   'Tm8 Hf11 Si16 Ag1'
_cell_volume   693.41669592
_cell_formula_units_Z   1
loop_
 _symmetry_equiv_pos_site_id
 _symmetry_equiv_pos_as_xyz
  1  'x, y, z'
loop_
 _atom_site_type_symbol
 _atom_site_label
 _atom_site_symmetry_multiplicity
 _atom_site_fract_x
 _atom_site_fract_y
 _atom_site_fract_z
 _atom_site_occupancy
  Tm  Tm0  1  0.997325  0.345974  0.211639  1
  Tm  Tm1  1  0.004644  0.655040  0.716542  1
  Tm  Tm2  1  0.154872  0.496074  0.464920  1
  Tm  Tm3  1  0.498697  0.847578  0.032969  1
  Tm  Tm4  1  0.847578  0.498697  0.967031  1
  Tm  Tm5  1  0.496074  0.154872  0.535080  1
  Tm  Tm6  1  0.345974  0.997325  0.788361  1
  Tm  Tm7  1  0.655040  0.004644  0.283458  1
  Hf  Hf8  1  0.824706  0.824706  0.500000  1
  Hf  Hf9  1  0.323680  0.676882  0.249261  1
  Hf  Hf10  1  0.676882  0.323680  0.750739  1
  Hf  Hf11  1  0.145118  0.997296  0.374438  1
  Hf  Hf12  1  0.856913  0.002636  0.878487  1
  Hf  Hf13  1  0.503791  0.645646  0.626190  1
  Hf  Hf14  1  0.356030  0.492951  0.876996  1
  Hf  Hf15  1  0.492951  0.356030  0.123004  1
  Hf  Hf16  1  0.645646  0.503791  0.373810  1
  Hf  Hf17  1  0.997296  0.145118  0.625562  1
  Hf  Hf18  1  0.002636  0.856913  0.121513  1
  Si  Si19  1  0.357693  0.295863  0.317496  1
  Si  Si20  1  0.641914  0.704528  0.820372  1
  Si  Si21  1  0.207047  0.859226  0.569556  1
  Si  Si22  1  0.133293  0.776828  0.926411  1
  Si  Si23  1  0.776828  0.133293  0.073589  1
  Si  Si24  1  0.859226  0.207047  0.430444  1
  Si  Si25  1  0.295863  0.357693  0.682504  1
  Si  Si26  1  0.704528  0.641914  0.179628  1
  Si  Si27  1  0.297196  0.051314  0.189078  1
  Si  Si28  1  0.703222  0.951200  0.686599  1
  Si  Si29  1  0.450585  0.797736  0.435719  1
  Si  Si30  1  0.207862  0.563283  0.064056  1
  Si  Si31  1  0.563283  0.207862  0.935944  1
  Si  Si32  1  0.797736  0.450585  0.564281  1
  Si  Si33  1  0.051314  0.297196  0.810922  1
  Si  Si34  1  0.951200  0.703222  0.313401  1
  Ag  Ag35  1  0.175357  0.175357  0.000000  1
