# generated using pymatgen
data_Pr8Zn8Ir5PdRh2
_symmetry_space_group_name_H-M   'P 1'
_cell_length_a   4.05600900
_cell_length_b   7.38579293
_cell_length_c   16.74827311
_cell_angle_alpha   90.10885840
_cell_angle_beta   90.00000000
_cell_angle_gamma   90.00000000
_symmetry_Int_Tables_number   1
_chemical_formula_structural   Pr8Zn8Ir5PdRh2
_chemical_formula_sum   'Pr8 Zn8 Ir5 Pd1 Rh2'
_cell_volume   501.72447595
_cell_formula_units_Z   1
loop_
 _symmetry_equiv_pos_site_id
 _symmetry_equiv_pos_as_xyz
  1  'x, y, z'
loop_
 _atom_site_type_symbol
 _atom_site_label
 _atom_site_symmetry_multiplicity
 _atom_site_fract_x
 _atom_site_fract_y
 _atom_site_fract_z
 _atom_site_occupancy
  Pr  Pr0  1  0.750000  0.452827  0.216058  1
  Pr  Pr1  1  0.750000  0.952795  0.283348  1
  Pr  Pr2  1  0.750000  0.832035  0.060755  1
  Pr  Pr3  1  0.250000  0.043462  0.719901  1
  Pr  Pr4  1  0.250000  0.168120  0.939986  1
  Pr  Pr5  1  0.250000  0.547447  0.784315  1
  Pr  Pr6  1  0.750000  0.334737  0.434961  1
  Pr  Pr7  1  0.250000  0.672024  0.560132  1
  Zn  Zn8  1  0.250000  0.995765  0.437158  1
  Zn  Zn9  1  0.750000  0.500066  0.939922  1
  Zn  Zn10  1  0.750000  0.997794  0.560324  1
  Zn  Zn11  1  0.250000  0.624622  0.349325  1
  Zn  Zn12  1  0.750000  0.377760  0.653653  1
  Zn  Zn13  1  0.750000  0.874245  0.850314  1
  Zn  Zn14  1  0.250000  0.498521  0.059678  1
  Zn  Zn15  1  0.250000  0.125730  0.150141  1
  Ir  Ir16  1  0.750000  0.257813  0.065754  1
  Ir  Ir17  1  0.250000  0.245039  0.314639  1
  Ir  Ir18  1  0.750000  0.254397  0.812696  1
  Ir  Ir19  1  0.750000  0.754254  0.685312  1
  Ir  Ir20  1  0.750000  0.757957  0.434508  1
  Pd  Pd21  1  0.250000  0.241607  0.566120  1
  Rh  Rh22  1  0.250000  0.743453  0.935009  1
  Rh  Rh23  1  0.250000  0.747532  0.185990  1
