# generated using pymatgen
data_Dy7Er9Cd4NiOs3
_symmetry_space_group_name_H-M   'P 1'
_cell_length_a   9.51145912
_cell_length_b   9.61041193
_cell_length_c   9.64966000
_cell_angle_alpha   59.86481310
_cell_angle_beta   59.51817829
_cell_angle_gamma   59.44096698
_symmetry_Int_Tables_number   1
_chemical_formula_structural   Dy7Er9Cd4NiOs3
_chemical_formula_sum   'Dy7 Er9 Cd4 Ni1 Os3'
_cell_volume   618.13845467
_cell_formula_units_Z   1
loop_
 _symmetry_equiv_pos_site_id
 _symmetry_equiv_pos_as_xyz
  1  'x, y, z'
loop_
 _atom_site_type_symbol
 _atom_site_label
 _atom_site_symmetry_multiplicity
 _atom_site_fract_x
 _atom_site_fract_y
 _atom_site_fract_z
 _atom_site_occupancy
  Dy  Dy0  1  0.059823  0.061116  0.439531  1
  Dy  Dy1  1  0.190935  0.806215  0.809911  1
  Dy  Dy2  1  0.804897  0.188824  0.188249  1
  Dy  Dy3  1  0.804897  0.188824  0.818031  1
  Dy  Dy4  1  0.190935  0.806215  0.192940  1
  Dy  Dy5  1  0.802499  0.817002  0.190250  1
  Dy  Dy6  1  0.192406  0.191757  0.807919  1
  Er  Er7  1  0.602155  0.595505  0.595067  1
  Er  Er8  1  0.602155  0.595505  0.207273  1
  Er  Er9  1  0.602539  0.211497  0.592982  1
  Er  Er10  1  0.211274  0.596952  0.595887  1
  Er  Er11  1  0.059929  0.438606  0.440114  1
  Er  Er12  1  0.435577  0.061017  0.061229  1
  Er  Er13  1  0.435577  0.061017  0.442178  1
  Er  Er14  1  0.059929  0.438606  0.061351  1
  Er  Er15  1  0.436767  0.438475  0.062379  1
  Cd  Cd16  1  0.827958  0.830879  0.831291  1
  Cd  Cd17  1  0.827958  0.830879  0.509871  1
  Cd  Cd18  1  0.830044  0.507498  0.831229  1
  Cd  Cd19  1  0.506825  0.829744  0.831716  1
  Ni  Ni20  1  0.830754  0.395260  0.386993  1
  Os  Os21  1  0.393729  0.390352  0.388036  1
  Os  Os22  1  0.393729  0.390352  0.827883  1
  Os  Os23  1  0.396706  0.827905  0.387694  1
