# generated using pymatgen
data_Ce2Dy3Er3(Si3Rh)4
_symmetry_space_group_name_H-M   'P 1'
_cell_length_a   8.18045000
_cell_length_b   8.18045042
_cell_length_c   7.95655600
_cell_angle_alpha   90.00000000
_cell_angle_beta   90.00000000
_cell_angle_gamma   119.99999830
_symmetry_Int_Tables_number   1
_chemical_formula_structural   Ce2Dy3Er3(Si3Rh)4
_chemical_formula_sum   'Ce2 Dy3 Er3 Si12 Rh4'
_cell_volume   461.11598139
_cell_formula_units_Z   1
loop_
 _symmetry_equiv_pos_site_id
 _symmetry_equiv_pos_as_xyz
  1  'x, y, z'
loop_
 _atom_site_type_symbol
 _atom_site_label
 _atom_site_symmetry_multiplicity
 _atom_site_fract_x
 _atom_site_fract_y
 _atom_site_fract_z
 _atom_site_occupancy
  Ce  Ce0  1  0.000000  0.000000  0.250000  1
  Ce  Ce1  1  0.000000  0.000000  0.750000  1
  Dy  Dy2  1  0.492727  0.507273  0.250000  1
  Dy  Dy3  1  0.492727  0.985453  0.250000  1
  Dy  Dy4  1  0.014547  0.507273  0.250000  1
  Er  Er5  1  0.508319  0.491681  0.750000  1
  Er  Er6  1  0.983361  0.491681  0.750000  1
  Er  Er7  1  0.508319  0.016639  0.750000  1
  Si  Si8  1  0.832988  0.167012  0.502639  1
  Si  Si9  1  0.832988  0.665978  0.502639  1
  Si  Si10  1  0.334022  0.167012  0.502639  1
  Si  Si11  1  0.832988  0.167012  0.997361  1
  Si  Si12  1  0.832988  0.665978  0.997361  1
  Si  Si13  1  0.334022  0.167012  0.997361  1
  Si  Si14  1  0.167564  0.832436  0.000977  1
  Si  Si15  1  0.664874  0.832436  0.000977  1
  Si  Si16  1  0.167564  0.335126  0.000977  1
  Si  Si17  1  0.167564  0.832436  0.499023  1
  Si  Si18  1  0.664874  0.832436  0.499023  1
  Si  Si19  1  0.167564  0.335126  0.499023  1
  Rh  Rh20  1  0.666667  0.333333  0.474578  1
  Rh  Rh21  1  0.666667  0.333333  0.025422  1
  Rh  Rh22  1  0.333333  0.666667  0.965235  1
  Rh  Rh23  1  0.333333  0.666667  0.534765  1
