# generated using pymatgen
data_Pr6Zn16Ir7S
_symmetry_space_group_name_H-M   'P 1'
_cell_length_a   9.19519981
_cell_length_b   9.19520003
_cell_length_c   9.19520000
_cell_angle_alpha   59.99999292
_cell_angle_beta   59.99999213
_cell_angle_gamma   59.99999762
_symmetry_Int_Tables_number   1
_chemical_formula_structural   Pr6Zn16Ir7S
_chemical_formula_sum   'Pr6 Zn16 Ir7 S1'
_cell_volume   549.75410058
_cell_formula_units_Z   1
loop_
 _symmetry_equiv_pos_site_id
 _symmetry_equiv_pos_as_xyz
  1  'x, y, z'
loop_
 _atom_site_type_symbol
 _atom_site_label
 _atom_site_symmetry_multiplicity
 _atom_site_fract_x
 _atom_site_fract_y
 _atom_site_fract_z
 _atom_site_occupancy
  Pr  Pr0  1  0.722539  0.277461  0.277461  1
  Pr  Pr1  1  0.722539  0.277461  0.722539  1
  Pr  Pr2  1  0.722539  0.722539  0.277461  1
  Pr  Pr3  1  0.277461  0.722539  0.722539  1
  Pr  Pr4  1  0.277461  0.722539  0.277461  1
  Pr  Pr5  1  0.277461  0.277461  0.722539  1
  Zn  Zn6  1  0.627756  0.124082  0.124082  1
  Zn  Zn7  1  0.124082  0.627756  0.124082  1
  Zn  Zn8  1  0.124082  0.124082  0.627756  1
  Zn  Zn9  1  0.124082  0.124082  0.124082  1
  Zn  Zn10  1  0.372244  0.875918  0.875918  1
  Zn  Zn11  1  0.875918  0.372244  0.875918  1
  Zn  Zn12  1  0.875918  0.875918  0.372244  1
  Zn  Zn13  1  0.875918  0.875918  0.875918  1
  Zn  Zn14  1  0.012761  0.329079  0.329079  1
  Zn  Zn15  1  0.329079  0.012761  0.329079  1
  Zn  Zn16  1  0.329079  0.329079  0.012761  1
  Zn  Zn17  1  0.329079  0.329079  0.329079  1
  Zn  Zn18  1  0.987239  0.670921  0.670921  1
  Zn  Zn19  1  0.670921  0.987239  0.670921  1
  Zn  Zn20  1  0.670921  0.670921  0.987239  1
  Zn  Zn21  1  0.670921  0.670921  0.670921  1
  Ir  Ir22  1  0.500000  0.000000  0.000000  1
  Ir  Ir23  1  0.500000  0.000000  0.500000  1
  Ir  Ir24  1  0.500000  0.500000  0.000000  1
  Ir  Ir25  1  0.000000  0.500000  0.500000  1
  Ir  Ir26  1  0.000000  0.500000  0.000000  1
  Ir  Ir27  1  0.000000  0.000000  0.500000  1
  Ir  Ir28  1  0.000000  0.000000  0.000000  1
  S  S29  1  0.500000  0.500000  0.500000  1
