# generated using pymatgen
data_Tb13Tm2ThIn2(HgIr2)2
_symmetry_space_group_name_H-M   'P 1'
_cell_length_a   9.70674743
_cell_length_b   9.69333836
_cell_length_c   9.69453600
_cell_angle_alpha   60.30869964
_cell_angle_beta   60.15618940
_cell_angle_gamma   60.24585415
_symmetry_Int_Tables_number   1
_chemical_formula_structural   Tb13Tm2ThIn2(HgIr2)2
_chemical_formula_sum   'Tb13 Tm2 Th1 In2 Hg2 Ir4'
_cell_volume   648.45619397
_cell_formula_units_Z   1
loop_
 _symmetry_equiv_pos_site_id
 _symmetry_equiv_pos_as_xyz
  1  'x, y, z'
loop_
 _atom_site_type_symbol
 _atom_site_label
 _atom_site_symmetry_multiplicity
 _atom_site_fract_x
 _atom_site_fract_y
 _atom_site_fract_z
 _atom_site_occupancy
  Tb  Tb0  1  0.312425  0.685930  0.313537  1
  Tb  Tb1  1  0.939308  0.560616  0.563221  1
  Tb  Tb2  1  0.311169  0.310642  0.688061  1
  Tb  Tb3  1  0.099278  0.100577  0.100196  1
  Tb  Tb4  1  0.562331  0.559336  0.939368  1
  Tb  Tb5  1  0.099308  0.100616  0.698725  1
  Tb  Tb6  1  0.691791  0.308791  0.687095  1
  Tb  Tb7  1  0.689961  0.685067  0.311679  1
  Tb  Tb8  1  0.690432  0.310142  0.311988  1
  Tb  Tb9  1  0.310551  0.687854  0.688200  1
  Tb  Tb10  1  0.559586  0.939929  0.559584  1
  Tb  Tb11  1  0.700041  0.100362  0.099145  1
  Tb  Tb12  1  0.560692  0.938704  0.940764  1
  Tm  Tm13  1  0.941912  0.938295  0.560303  1
  Tm  Tm14  1  0.939655  0.560080  0.937801  1
  Th  Th15  1  0.096542  0.709248  0.096664  1
  In  In16  1  0.331964  0.002888  0.332956  1
  In  In17  1  0.332030  0.332944  0.002652  1
  Hg  Hg18  1  0.334771  0.334014  0.334535  1
  Hg  Hg19  1  0.996863  0.333937  0.334121  1
  Ir  Ir20  1  0.893173  0.889805  0.890700  1
  Ir  Ir21  1  0.891448  0.892798  0.324858  1
  Ir  Ir22  1  0.323536  0.891778  0.891629  1
  Ir  Ir23  1  0.891231  0.325646  0.892219  1
