# generated using pymatgen
data_Li6Be5GePd12
_symmetry_space_group_name_H-M   'P 1'
_cell_length_a   4.13171500
_cell_length_b   5.81376700
_cell_length_c   12.33468800
_cell_angle_alpha   90.00000000
_cell_angle_beta   90.00094064
_cell_angle_gamma   90.00000000
_symmetry_Int_Tables_number   1
_chemical_formula_structural   Li6Be5GePd12
_chemical_formula_sum   'Li6 Be5 Ge1 Pd12'
_cell_volume   296.28942281
_cell_formula_units_Z   1
loop_
 _symmetry_equiv_pos_site_id
 _symmetry_equiv_pos_as_xyz
  1  'x, y, z'
loop_
 _atom_site_type_symbol
 _atom_site_label
 _atom_site_symmetry_multiplicity
 _atom_site_fract_x
 _atom_site_fract_y
 _atom_site_fract_z
 _atom_site_occupancy
  Li  Li0  1  0.000000  0.500000  0.000000  1
  Li  Li1  1  0.499846  0.000000  0.169147  1
  Li  Li2  1  0.999688  0.500000  0.338207  1
  Li  Li3  1  0.500000  0.000000  0.500000  1
  Li  Li4  1  0.000311  0.500000  0.661794  1
  Li  Li5  1  0.500153  0.000000  0.830854  1
  Be  Be6  1  0.499777  0.500000  0.172495  1
  Be  Be7  1  0.999687  0.000000  0.336533  1
  Be  Be8  1  0.500000  0.500000  0.500000  1
  Be  Be9  1  0.000313  0.000000  0.663467  1
  Be  Be10  1  0.500223  0.500000  0.827505  1
  Ge  Ge11  1  0.000000  0.000000  0.000000  1
  Pd  Pd12  1  0.500000  0.260121  0.000000  1
  Pd  Pd13  1  0.500000  0.739878  0.000000  1
  Pd  Pd14  1  0.999796  0.255004  0.172131  1
  Pd  Pd15  1  0.999796  0.744996  0.172131  1
  Pd  Pd16  1  0.499807  0.250299  0.334900  1
  Pd  Pd17  1  0.499807  0.749701  0.334900  1
  Pd  Pd18  1  0.000000  0.248305  0.500000  1
  Pd  Pd19  1  0.000000  0.751694  0.500000  1
  Pd  Pd20  1  0.500193  0.250299  0.665099  1
  Pd  Pd21  1  0.500193  0.749701  0.665099  1
  Pd  Pd22  1  0.000204  0.255004  0.827869  1
  Pd  Pd23  1  0.000204  0.744996  0.827869  1
