# generated using pymatgen
data_U6Cr5P13Ir15
_symmetry_space_group_name_H-M   'P 1'
_cell_length_a   13.37620585
_cell_length_b   13.36780226
_cell_length_c   3.88171933
_cell_angle_alpha   89.95360656
_cell_angle_beta   90.02955085
_cell_angle_gamma   119.84394266
_symmetry_Int_Tables_number   1
_chemical_formula_structural   U6Cr5P13Ir15
_chemical_formula_sum   'U6 Cr5 P13 Ir15'
_cell_volume   602.04419136
_cell_formula_units_Z   1
loop_
 _symmetry_equiv_pos_site_id
 _symmetry_equiv_pos_as_xyz
  1  'x, y, z'
loop_
 _atom_site_type_symbol
 _atom_site_label
 _atom_site_symmetry_multiplicity
 _atom_site_fract_x
 _atom_site_fract_y
 _atom_site_fract_z
 _atom_site_occupancy
  U  U0  1  0.527410  0.717576  0.243750  1
  U  U1  1  0.279920  0.808306  0.243504  1
  U  U2  1  0.190511  0.474120  0.243565  1
  U  U3  1  0.472747  0.282191  0.744436  1
  U  U4  1  0.716417  0.191128  0.744020  1
  U  U5  1  0.809691  0.527010  0.744141  1
  Cr  Cr6  1  0.066799  0.747251  0.743485  1
  Cr  Cr7  1  0.255777  0.320891  0.743424  1
  Cr  Cr8  1  0.911386  0.820991  0.743529  1
  Cr  Cr9  1  0.175993  0.092221  0.744256  1
  Cr  Cr10  1  0.912623  0.084558  0.743309  1
  P  P11  1  0.522772  0.137785  0.244143  1
  P  P12  1  0.862627  0.386841  0.243961  1
  P  P13  1  0.613698  0.477229  0.244427  1
  P  P14  1  0.946553  0.711566  0.243793  1
  P  P15  1  0.289898  0.237298  0.243971  1
  P  P16  1  0.764778  0.052793  0.244003  1
  P  P17  1  0.381368  0.519521  0.743986  1
  P  P18  1  0.472652  0.860236  0.743789  1
  P  P19  1  0.137452  0.618088  0.743589  1
  P  P20  1  0.719705  0.771062  0.743733  1
  P  P21  1  0.225113  0.939577  0.742640  1
  P  P22  1  0.064334  0.290111  0.743206  1
  P  P23  1  0.004565  0.002931  0.235735  1
  Ir  Ir24  1  0.332333  0.665320  0.743658  1
  Ir  Ir25  1  0.912098  0.239223  0.244121  1
  Ir  Ir26  1  0.758740  0.675084  0.244125  1
  Ir  Ir27  1  0.325389  0.084814  0.244571  1
  Ir  Ir28  1  0.431883  0.016564  0.744218  1
  Ir  Ir29  1  0.981087  0.413487  0.743903  1
  Ir  Ir30  1  0.586041  0.566686  0.744126  1
  Ir  Ir31  1  0.665948  0.333660  0.244235  1
  Ir  Ir32  1  0.098698  0.199469  0.243311  1
  Ir  Ir33  1  0.810806  0.905387  0.243871  1
  Ir  Ir34  1  0.098639  0.901738  0.242064  1
  Ir  Ir35  1  0.021338  0.582417  0.243445  1
  Ir  Ir36  1  0.418296  0.439835  0.244212  1
  Ir  Ir37  1  0.559977  0.979473  0.243897  1
  Ir  Ir38  1  0.673936  0.925562  0.743851  1
