# generated using pymatgen
data_Dy7LuTi11Si16Ru
_symmetry_space_group_name_H-M   'P 1'
_cell_length_a   7.02405842
_cell_length_b   7.02178677
_cell_length_c   12.88199691
_cell_angle_alpha   90.01519472
_cell_angle_beta   90.00244058
_cell_angle_gamma   89.90686157
_symmetry_Int_Tables_number   1
_chemical_formula_structural   Dy7LuTi11Si16Ru
_chemical_formula_sum   'Dy7 Lu1 Ti11 Si16 Ru1'
_cell_volume   635.35778228
_cell_formula_units_Z   1
loop_
 _symmetry_equiv_pos_site_id
 _symmetry_equiv_pos_as_xyz
  1  'x, y, z'
loop_
 _atom_site_type_symbol
 _atom_site_label
 _atom_site_symmetry_multiplicity
 _atom_site_fract_x
 _atom_site_fract_y
 _atom_site_fract_z
 _atom_site_occupancy
  Dy  Dy0  1  0.001724  0.341657  0.531811  1
  Dy  Dy1  1  0.660037  0.995571  0.967550  1
  Dy  Dy2  1  0.158941  0.503455  0.782300  1
  Dy  Dy3  1  0.840573  0.499706  0.284716  1
  Dy  Dy4  1  0.503314  0.159294  0.217819  1
  Dy  Dy5  1  0.499690  0.840416  0.715163  1
  Dy  Dy6  1  0.341606  0.001687  0.468163  1
  Lu  Lu7  1  0.997399  0.658847  0.032709  1
  Ti  Ti8  1  0.343996  0.507501  0.374188  1
  Ti  Ti9  1  0.849426  0.995772  0.375425  1
  Ti  Ti10  1  0.006068  0.151206  0.124603  1
  Ti  Ti11  1  0.996099  0.849150  0.624569  1
  Ti  Ti12  1  0.507525  0.344156  0.625651  1
  Ti  Ti13  1  0.151188  0.005938  0.875573  1
  Ti  Ti14  1  0.825230  0.172525  0.748809  1
  Ti  Ti15  1  0.172289  0.824996  0.251106  1
  Ti  Ti16  1  0.325665  0.326615  0.000032  1
  Ti  Ti17  1  0.492855  0.651336  0.127746  1
  Ti  Ti18  1  0.651464  0.493444  0.872404  1
  Si  Si19  1  0.046578  0.712852  0.435521  1
  Si  Si20  1  0.952482  0.292935  0.934783  1
  Si  Si21  1  0.712920  0.046494  0.564487  1
  Si  Si22  1  0.207074  0.454148  0.183780  1
  Si  Si23  1  0.790381  0.550236  0.682175  1
  Si  Si24  1  0.453206  0.207976  0.815669  1
  Si  Si25  1  0.550278  0.790287  0.317774  1
  Si  Si26  1  0.290531  0.951217  0.065632  1
  Si  Si27  1  0.798395  0.867559  0.184365  1
  Si  Si28  1  0.300252  0.626855  0.565627  1
  Si  Si29  1  0.704514  0.370383  0.065465  1
  Si  Si30  1  0.626890  0.300322  0.434331  1
  Si  Si31  1  0.367737  0.703171  0.934921  1
  Si  Si32  1  0.130813  0.203371  0.315742  1
  Si  Si33  1  0.203282  0.130862  0.684247  1
  Si  Si34  1  0.868600  0.797081  0.815190  1
  Ru  Ru35  1  0.670979  0.670979  0.499956  1
