# generated using pymatgen
data_Er6Al24Ru4Pt3Rh
_symmetry_space_group_name_H-M   'P 1'
_cell_length_a   8.81406549
_cell_length_b   8.81406456
_cell_length_c   9.47899351
_cell_angle_alpha   90.24438232
_cell_angle_beta   89.75561727
_cell_angle_gamma   119.91306582
_symmetry_Int_Tables_number   1
_chemical_formula_structural   Er6Al24Ru4Pt3Rh
_chemical_formula_sum   'Er6 Al24 Ru4 Pt3 Rh1'
_cell_volume   638.29268064
_cell_formula_units_Z   1
loop_
 _symmetry_equiv_pos_site_id
 _symmetry_equiv_pos_as_xyz
  1  'x, y, z'
loop_
 _atom_site_type_symbol
 _atom_site_label
 _atom_site_symmetry_multiplicity
 _atom_site_fract_x
 _atom_site_fract_y
 _atom_site_fract_z
 _atom_site_occupancy
  Er  Er0  1  0.190793  0.383826  0.251898  1
  Er  Er1  1  0.809207  0.616174  0.748102  1
  Er  Er2  1  0.616174  0.809207  0.251898  1
  Er  Er3  1  0.383826  0.190793  0.748102  1
  Er  Er4  1  0.191694  0.808306  0.250236  1
  Er  Er5  1  0.808306  0.191694  0.749764  1
  Al  Al6  1  0.335383  0.664617  0.033144  1
  Al  Al7  1  0.664617  0.335383  0.966856  1
  Al  Al8  1  0.669423  0.330577  0.529019  1
  Al  Al9  1  0.330577  0.669423  0.470981  1
  Al  Al10  1  0.158042  0.325504  0.575715  1
  Al  Al11  1  0.841958  0.674496  0.424285  1
  Al  Al12  1  0.674496  0.841958  0.575715  1
  Al  Al13  1  0.834631  0.675461  0.078109  1
  Al  Al14  1  0.325504  0.158042  0.424285  1
  Al  Al15  1  0.165369  0.324539  0.921891  1
  Al  Al16  1  0.163560  0.836440  0.576036  1
  Al  Al17  1  0.324539  0.165369  0.078109  1
  Al  Al18  1  0.836440  0.163560  0.423964  1
  Al  Al19  1  0.675461  0.834631  0.921891  1
  Al  Al20  1  0.837893  0.162107  0.079103  1
  Al  Al21  1  0.162107  0.837893  0.920897  1
  Al  Al22  1  0.561868  0.124684  0.253529  1
  Al  Al23  1  0.438132  0.875316  0.746471  1
  Al  Al24  1  0.875316  0.438132  0.253529  1
  Al  Al25  1  0.124684  0.561868  0.746471  1
  Al  Al26  1  0.562617  0.437383  0.246496  1
  Al  Al27  1  0.437383  0.562617  0.753504  1
  Al  Al28  1  0.999236  0.000764  0.250293  1
  Al  Al29  1  0.000764  0.999236  0.749707  1
  Ru  Ru30  1  0.500000  0.000000  0.500000  1
  Ru  Ru31  1  0.000000  0.500000  0.500000  1
  Ru  Ru32  1  0.000000  0.000000  0.000000  1
  Ru  Ru33  1  0.000000  0.000000  0.500000  1
  Pt  Pt34  1  0.500000  0.000000  0.000000  1
  Pt  Pt35  1  0.000000  0.500000  0.000000  1
  Pt  Pt36  1  0.500000  0.500000  0.500000  1
  Rh  Rh37  1  0.500000  0.500000  0.000000  1
