# generated using pymatgen
data_Na2CuNiF7
_symmetry_space_group_name_H-M   'P 1'
_cell_length_a   7.30143776
_cell_length_b   7.30143777
_cell_length_c   7.30143821
_cell_angle_alpha   120.91787557
_cell_angle_beta   118.68401556
_cell_angle_gamma   90.35594585
_symmetry_Int_Tables_number   1
_chemical_formula_structural   Na2CuNiF7
_chemical_formula_sum   'Na4 Cu2 Ni2 F14'
_cell_volume   275.93132205
_cell_formula_units_Z   2
loop_
 _symmetry_equiv_pos_site_id
 _symmetry_equiv_pos_as_xyz
  1  'x, y, z'
loop_
 _atom_site_type_symbol
 _atom_site_label
 _atom_site_symmetry_multiplicity
 _atom_site_fract_x
 _atom_site_fract_y
 _atom_site_fract_z
 _atom_site_occupancy
  Na  Na0  1  0.500000  0.500000  0.000000  1
  Na  Na1  1  0.000000  0.000000  0.000000  1
  Na  Na2  1  0.500000  0.500000  0.500000  1
  Na  Na3  1  0.500000  0.000000  0.000000  1
  Cu  Cu4  1  0.000000  0.500000  0.500000  1
  Cu  Cu5  1  0.500000  0.000000  0.500000  1
  Ni  Ni6  1  0.000000  0.500000  0.000000  1
  Ni  Ni7  1  0.000000  0.000000  0.500000  1
  F  F8  1  0.362088  0.091390  0.270698  1
  F  F9  1  0.892769  0.750000  0.142769  1
  F  F10  1  0.321042  0.083565  0.636584  1
  F  F11  1  0.678958  0.916435  0.363416  1
  F  F12  1  0.053019  0.416435  0.237477  1
  F  F13  1  0.946981  0.583565  0.762523  1
  F  F14  1  0.679308  0.408610  0.270698  1
  F  F15  1  0.637912  0.908610  0.729302  1
  F  F16  1  0.107231  0.250000  0.857231  1
  F  F17  1  0.053019  0.815543  0.636584  1
  F  F18  1  0.946981  0.184457  0.363416  1
  F  F19  1  0.321042  0.684457  0.237477  1
  F  F20  1  0.320692  0.591390  0.729302  1
  F  F21  1  0.678958  0.315543  0.762523  1
