# generated using pymatgen
data_LaTh(Al2Cu3)2
_symmetry_space_group_name_H-M   'P 1'
_cell_length_a   4.23414900
_cell_length_b   5.18725220
_cell_length_c   9.21734600
_cell_angle_alpha   91.99438005
_cell_angle_beta   90.00000000
_cell_angle_gamma   90.00000000
_symmetry_Int_Tables_number   1
_chemical_formula_structural   LaTh(Al2Cu3)2
_chemical_formula_sum   'La1 Th1 Al4 Cu6'
_cell_volume   202.32345619
_cell_formula_units_Z   1
loop_
 _symmetry_equiv_pos_site_id
 _symmetry_equiv_pos_as_xyz
  1  'x, y, z'
loop_
 _atom_site_type_symbol
 _atom_site_label
 _atom_site_symmetry_multiplicity
 _atom_site_fract_x
 _atom_site_fract_y
 _atom_site_fract_z
 _atom_site_occupancy
  La  La0  1  0.000000  0.999728  0.999651  1
  Th  Th1  1  0.000000  0.500137  0.500318  1
  Al  Al2  1  0.500000  0.000040  0.499988  1
  Al  Al3  1  0.500000  0.500018  0.000027  1
  Al  Al4  1  0.500000  0.251592  0.251913  1
  Al  Al5  1  0.500000  0.748536  0.748118  1
  Cu  Cu6  1  0.000000  0.992050  0.332259  1
  Cu  Cu7  1  0.000000  0.491790  0.829397  1
  Cu  Cu8  1  0.000000  0.507707  0.170732  1
  Cu  Cu9  1  0.000000  0.008030  0.667936  1
  Cu  Cu10  1  0.500000  0.748301  0.252241  1
  Cu  Cu11  1  0.500000  0.251873  0.747420  1
