# generated using pymatgen
data_Sm2Si4TcOs
_symmetry_space_group_name_H-M   'P 1'
_cell_length_a   4.53900449
_cell_length_b   4.02360700
_cell_length_c   8.30788221
_cell_angle_alpha   90.00000000
_cell_angle_beta   101.36767942
_cell_angle_gamma   90.00000000
_symmetry_Int_Tables_number   1
_chemical_formula_structural   Sm2Si4TcOs
_chemical_formula_sum   'Sm2 Si4 Tc1 Os1'
_cell_volume   148.75174049
_cell_formula_units_Z   1
loop_
 _symmetry_equiv_pos_site_id
 _symmetry_equiv_pos_as_xyz
  1  'x, y, z'
loop_
 _atom_site_type_symbol
 _atom_site_label
 _atom_site_symmetry_multiplicity
 _atom_site_fract_x
 _atom_site_fract_y
 _atom_site_fract_z
 _atom_site_occupancy
  Sm  Sm0  1  0.421562  0.250000  0.300089  1
  Sm  Sm1  1  0.578020  0.750001  0.700501  1
  Si  Si2  1  0.340344  0.750001  0.010588  1
  Si  Si3  1  0.966000  0.750001  0.410883  1
  Si  Si4  1  0.032284  0.250000  0.592917  1
  Si  Si5  1  0.659758  0.250000  0.986147  1
  Tc  Tc6  1  0.885865  0.750001  0.113517  1
  Os  Os7  1  0.116167  0.250000  0.885358  1
