# generated using pymatgen
data_Hf8Ti9Re2Si16Mo
_symmetry_space_group_name_H-M   'P 1'
_cell_length_a   6.54211903
_cell_length_b   6.70701500
_cell_length_c   12.94923800
_cell_angle_alpha   90.00000000
_cell_angle_beta   90.00000000
_cell_angle_gamma   90.03183449
_symmetry_Int_Tables_number   1
_chemical_formula_structural   Hf8Ti9Re2Si16Mo
_chemical_formula_sum   'Hf8 Ti9 Re2 Si16 Mo1'
_cell_volume   568.18774873
_cell_formula_units_Z   1
loop_
 _symmetry_equiv_pos_site_id
 _symmetry_equiv_pos_as_xyz
  1  'x, y, z'
loop_
 _atom_site_type_symbol
 _atom_site_label
 _atom_site_symmetry_multiplicity
 _atom_site_fract_x
 _atom_site_fract_y
 _atom_site_fract_z
 _atom_site_occupancy
  Hf  Hf0  1  0.997709  0.172713  0.092365  1
  Hf  Hf1  1  0.003052  0.828654  0.907975  1
  Hf  Hf2  1  0.506563  0.672196  0.907542  1
  Hf  Hf3  1  0.003052  0.828654  0.592025  1
  Hf  Hf4  1  0.495388  0.327741  0.093169  1
  Hf  Hf5  1  0.997709  0.172713  0.407635  1
  Hf  Hf6  1  0.495388  0.327741  0.406831  1
  Hf  Hf7  1  0.506563  0.672196  0.592458  1
  Ti  Ti8  1  0.336980  0.993991  0.250000  1
  Ti  Ti9  1  0.335371  0.167918  0.625054  1
  Ti  Ti10  1  0.664714  0.830255  0.375347  1
  Ti  Ti11  1  0.165089  0.669611  0.375438  1
  Ti  Ti12  1  0.664714  0.830255  0.124653  1
  Ti  Ti13  1  0.834091  0.330890  0.624412  1
  Ti  Ti14  1  0.335371  0.167918  0.874946  1
  Ti  Ti15  1  0.834091  0.330890  0.875588  1
  Ti  Ti16  1  0.165089  0.669611  0.124562  1
  Re  Re17  1  0.162327  0.493685  0.750000  1
  Re  Re18  1  0.837442  0.504983  0.250000  1
  Si  Si19  1  0.036287  0.116891  0.750000  1
  Si  Si20  1  0.963329  0.883342  0.250000  1
  Si  Si21  1  0.464583  0.616913  0.250000  1
  Si  Si22  1  0.534161  0.384654  0.750000  1
  Si  Si23  1  0.297089  0.857667  0.750000  1
  Si  Si24  1  0.700920  0.139735  0.250000  1
  Si  Si25  1  0.200639  0.360513  0.250000  1
  Si  Si26  1  0.800547  0.638968  0.750000  1
  Si  Si27  1  0.171085  0.460957  0.538672  1
  Si  Si28  1  0.828925  0.539907  0.461077  1
  Si  Si29  1  0.329528  0.961220  0.461600  1
  Si  Si30  1  0.828925  0.539907  0.038923  1
  Si  Si31  1  0.670188  0.039434  0.538046  1
  Si  Si32  1  0.171085  0.460957  0.961328  1
  Si  Si33  1  0.670188  0.039434  0.961954  1
  Si  Si34  1  0.329528  0.961220  0.038400  1
  Mo  Mo35  1  0.662292  0.005669  0.750000  1
