# generated using pymatgen
data_CaEr3FeSb3O14
_symmetry_space_group_name_H-M   'P 1'
_cell_length_a   7.26134868
_cell_length_b   7.26085455
_cell_length_c   7.26050284
_cell_angle_alpha   118.53033153
_cell_angle_beta   61.47042896
_cell_angle_gamma   118.53032820
_symmetry_Int_Tables_number   1
_chemical_formula_structural   CaEr3FeSb3O14
_chemical_formula_sum   'Ca1 Er3 Fe1 Sb3 O14'
_cell_volume   279.61360087
_cell_formula_units_Z   1
loop_
 _symmetry_equiv_pos_site_id
 _symmetry_equiv_pos_as_xyz
  1  'x, y, z'
loop_
 _atom_site_type_symbol
 _atom_site_label
 _atom_site_symmetry_multiplicity
 _atom_site_fract_x
 _atom_site_fract_y
 _atom_site_fract_z
 _atom_site_occupancy
  Ca  Ca0  1  0.500026  0.500016  0.000048  1
  Er  Er1  1  0.999987  0.500002  0.000008  1
  Er  Er2  1  0.500044  0.000028  0.999974  1
  Er  Er3  1  0.500031  0.499981  0.499966  1
  Fe  Fe4  1  0.000001  0.000000  0.499993  1
  Sb  Sb5  1  0.499976  0.999995  0.499987  1
  Sb  Sb6  1  0.000013  0.499992  0.500001  1
  Sb  Sb7  1  0.999997  0.999998  0.000003  1
  O  O8  1  0.628178  0.371946  0.128081  1
  O  O9  1  0.371835  0.628060  0.871921  1
  O  O10  1  0.082507  0.326150  0.173900  1
  O  O11  1  0.674158  0.915301  0.174065  1
  O  O12  1  0.674011  0.326130  0.583246  1
  O  O13  1  0.917474  0.673859  0.826099  1
  O  O14  1  0.325837  0.084719  0.825946  1
  O  O15  1  0.325979  0.673868  0.416751  1
  O  O16  1  0.647003  0.907009  0.593981  1
  O  O17  1  0.093149  0.351880  0.592728  1
  O  O18  1  0.093950  0.907452  0.147474  1
  O  O19  1  0.352969  0.092970  0.406035  1
  O  O20  1  0.906836  0.648127  0.407286  1
  O  O21  1  0.906038  0.092519  0.852508  1
