# generated using pymatgen
data_DyFe4MoP3
_symmetry_space_group_name_H-M   'P 1'
_cell_length_a   3.70640400
_cell_length_b   10.40454600
_cell_length_c   12.03493500
_cell_angle_alpha   90.00000000
_cell_angle_beta   90.00000000
_cell_angle_gamma   90.00000000
_symmetry_Int_Tables_number   1
_chemical_formula_structural   DyFe4MoP3
_chemical_formula_sum   'Dy4 Fe16 Mo4 P12'
_cell_volume   464.10862511
_cell_formula_units_Z   4
loop_
 _symmetry_equiv_pos_site_id
 _symmetry_equiv_pos_as_xyz
  1  'x, y, z'
loop_
 _atom_site_type_symbol
 _atom_site_label
 _atom_site_symmetry_multiplicity
 _atom_site_fract_x
 _atom_site_fract_y
 _atom_site_fract_z
 _atom_site_occupancy
  Dy  Dy0  1  0.250000  0.583161  0.708952  1
  Dy  Dy1  1  0.250000  0.916839  0.208952  1
  Dy  Dy2  1  0.750000  0.416839  0.291048  1
  Dy  Dy3  1  0.750000  0.083161  0.791048  1
  Fe  Fe4  1  0.250000  0.410995  0.493002  1
  Fe  Fe5  1  0.250000  0.089006  0.993002  1
  Fe  Fe6  1  0.750000  0.589005  0.506998  1
  Fe  Fe7  1  0.750000  0.910995  0.006998  1
  Fe  Fe8  1  0.250000  0.217144  0.176965  1
  Fe  Fe9  1  0.250000  0.282856  0.676965  1
  Fe  Fe10  1  0.750000  0.782856  0.823035  1
  Fe  Fe11  1  0.750000  0.717144  0.323035  1
  Fe  Fe12  1  0.250000  0.877464  0.700275  1
  Fe  Fe13  1  0.250000  0.622536  0.200275  1
  Fe  Fe14  1  0.750000  0.122536  0.299725  1
  Fe  Fe15  1  0.750000  0.377464  0.799725  1
  Fe  Fe16  1  0.250000  0.463529  0.933399  1
  Fe  Fe17  1  0.250000  0.036471  0.433399  1
  Fe  Fe18  1  0.750000  0.536471  0.066601  1
  Fe  Fe19  1  0.750000  0.963529  0.566601  1
  Mo  Mo20  1  0.250000  0.706758  0.988290  1
  Mo  Mo21  1  0.250000  0.793242  0.488290  1
  Mo  Mo22  1  0.750000  0.293242  0.011710  1
  Mo  Mo23  1  0.750000  0.206758  0.511710  1
  P  P24  1  0.250000  0.425047  0.113070  1
  P  P25  1  0.250000  0.074953  0.613070  1
  P  P26  1  0.750000  0.574953  0.886930  1
  P  P27  1  0.750000  0.925047  0.386930  1
  P  P28  1  0.250000  0.267270  0.866095  1
  P  P29  1  0.250000  0.232730  0.366095  1
  P  P30  1  0.750000  0.732730  0.133905  1
  P  P31  1  0.750000  0.767270  0.633905  1
  P  P32  1  0.250000  0.595389  0.387241  1
  P  P33  1  0.250000  0.904611  0.887241  1
  P  P34  1  0.750000  0.404611  0.612759  1
  P  P35  1  0.750000  0.095389  0.112759  1
