# generated using pymatgen
data_Y6Zn4Pt12Au
_symmetry_space_group_name_H-M   'P 1'
_cell_length_a   8.27662825
_cell_length_b   8.26979613
_cell_length_c   8.26979700
_cell_angle_alpha   109.42090008
_cell_angle_beta   109.47964947
_cell_angle_gamma   109.47963753
_symmetry_Int_Tables_number   1
_chemical_formula_structural   Y6Zn4Pt12Au
_chemical_formula_sum   'Y6 Zn4 Pt12 Au1'
_cell_volume   435.91356511
_cell_formula_units_Z   1
loop_
 _symmetry_equiv_pos_site_id
 _symmetry_equiv_pos_as_xyz
  1  'x, y, z'
loop_
 _atom_site_type_symbol
 _atom_site_label
 _atom_site_symmetry_multiplicity
 _atom_site_fract_x
 _atom_site_fract_y
 _atom_site_fract_z
 _atom_site_occupancy
  Y  Y0  1  0.703334  0.698716  0.004618  1
  Y  Y1  1  0.300487  0.999968  0.300519  1
  Y  Y2  1  0.994106  0.294569  0.294569  1
  Y  Y3  1  0.300487  0.300519  0.999968  1
  Y  Y4  1  0.703334  0.004618  0.698716  1
  Y  Y5  1  0.994106  0.699537  0.699537  1
  Zn  Zn6  1  0.000207  0.000103  0.500104  1
  Zn  Zn7  1  0.000207  0.500104  0.000103  1
  Zn  Zn8  1  0.499671  0.003587  0.003587  1
  Zn  Zn9  1  0.499671  0.496083  0.496083  1
  Pt  Pt10  1  0.330777  0.330050  0.661379  1
  Pt  Pt11  1  0.669186  0.999881  0.330600  1
  Pt  Pt12  1  0.999433  0.667487  0.331946  1
  Pt  Pt13  1  0.669186  0.330600  0.999881  1
  Pt  Pt14  1  0.330777  0.661379  0.330050  1
  Pt  Pt15  1  0.999433  0.331946  0.667487  1
  Pt  Pt16  1  0.330777  0.669397  0.000728  1
  Pt  Pt17  1  0.330777  0.000728  0.669397  1
  Pt  Pt18  1  0.665455  0.332728  0.332728  1
  Pt  Pt19  1  0.669186  0.669305  0.338586  1
  Pt  Pt20  1  0.669186  0.338586  0.669305  1
  Pt  Pt21  1  0.998287  0.999144  0.999144  1
  Au  Au22  1  0.341930  0.670965  0.670965  1
