# generated using pymatgen
data_DyTiMn4P3
_symmetry_space_group_name_H-M   'P 1'
_cell_length_a   3.61365200
_cell_length_b   10.90329600
_cell_length_c   12.42286500
_cell_angle_alpha   90.00000000
_cell_angle_beta   90.00000000
_cell_angle_gamma   90.00000000
_symmetry_Int_Tables_number   1
_chemical_formula_structural   DyTiMn4P3
_chemical_formula_sum   'Dy4 Ti4 Mn16 P12'
_cell_volume   489.46979313
_cell_formula_units_Z   4
loop_
 _symmetry_equiv_pos_site_id
 _symmetry_equiv_pos_as_xyz
  1  'x, y, z'
loop_
 _atom_site_type_symbol
 _atom_site_label
 _atom_site_symmetry_multiplicity
 _atom_site_fract_x
 _atom_site_fract_y
 _atom_site_fract_z
 _atom_site_occupancy
  Dy  Dy0  1  0.250000  0.587304  0.708067  1
  Dy  Dy1  1  0.250000  0.912696  0.208067  1
  Dy  Dy2  1  0.750000  0.412696  0.291933  1
  Dy  Dy3  1  0.750000  0.087304  0.791933  1
  Ti  Ti4  1  0.250000  0.709926  0.983105  1
  Ti  Ti5  1  0.250000  0.790074  0.483105  1
  Ti  Ti6  1  0.750000  0.290074  0.016895  1
  Ti  Ti7  1  0.750000  0.209926  0.516895  1
  Mn  Mn8  1  0.250000  0.409996  0.494015  1
  Mn  Mn9  1  0.250000  0.090004  0.994015  1
  Mn  Mn10  1  0.750000  0.590004  0.505985  1
  Mn  Mn11  1  0.750000  0.909996  0.005985  1
  Mn  Mn12  1  0.250000  0.211305  0.179398  1
  Mn  Mn13  1  0.250000  0.288695  0.679398  1
  Mn  Mn14  1  0.750000  0.788695  0.820602  1
  Mn  Mn15  1  0.750000  0.711305  0.320602  1
  Mn  Mn16  1  0.250000  0.883146  0.694794  1
  Mn  Mn17  1  0.250000  0.616854  0.194794  1
  Mn  Mn18  1  0.750000  0.116854  0.305206  1
  Mn  Mn19  1  0.750000  0.383146  0.805206  1
  Mn  Mn20  1  0.250000  0.463711  0.934475  1
  Mn  Mn21  1  0.250000  0.036289  0.434475  1
  Mn  Mn22  1  0.750000  0.536289  0.065525  1
  Mn  Mn23  1  0.750000  0.963711  0.565525  1
  P  P24  1  0.250000  0.414539  0.116988  1
  P  P25  1  0.250000  0.085461  0.616988  1
  P  P26  1  0.750000  0.585461  0.883012  1
  P  P27  1  0.750000  0.914539  0.383012  1
  P  P28  1  0.250000  0.264618  0.870571  1
  P  P29  1  0.250000  0.235382  0.370571  1
  P  P30  1  0.750000  0.735382  0.129429  1
  P  P31  1  0.750000  0.764618  0.629429  1
  P  P32  1  0.250000  0.586750  0.382727  1
  P  P33  1  0.250000  0.913250  0.882727  1
  P  P34  1  0.750000  0.413250  0.617273  1
  P  P35  1  0.750000  0.086750  0.117273  1
