# generated using pymatgen
data_ErU3(PO5)4
_symmetry_space_group_name_H-M   'P 1'
_cell_length_a   5.50826826
_cell_length_b   8.77022443
_cell_length_c   9.27659604
_cell_angle_alpha   101.31900022
_cell_angle_beta   103.59833779
_cell_angle_gamma   97.67971918
_symmetry_Int_Tables_number   1
_chemical_formula_structural   ErU3(PO5)4
_chemical_formula_sum   'Er1 U3 P4 O20'
_cell_volume   419.43845465
_cell_formula_units_Z   1
loop_
 _symmetry_equiv_pos_site_id
 _symmetry_equiv_pos_as_xyz
  1  'x, y, z'
loop_
 _atom_site_type_symbol
 _atom_site_label
 _atom_site_symmetry_multiplicity
 _atom_site_fract_x
 _atom_site_fract_y
 _atom_site_fract_z
 _atom_site_occupancy
  Er  Er0  1  0.349249  0.294017  0.046155  1
  U  U1  1  0.649350  0.703123  0.953121  1
  U  U2  1  0.335572  0.802161  0.552221  1
  U  U3  1  0.660893  0.198354  0.445465  1
  P  P4  1  0.092591  0.515332  0.766635  1
  P  P5  1  0.912551  0.485314  0.235975  1
  P  P6  1  0.281309  0.922459  0.176817  1
  P  P7  1  0.726037  0.080942  0.825669  1
  O  O8  1  0.009688  0.136532  0.892265  1
  O  O9  1  0.995485  0.852386  0.100997  1
  O  O10  1  0.972480  0.377185  0.631129  1
  O  O11  1  0.020471  0.627291  0.372642  1
  O  O12  1  0.715325  0.360511  0.268369  1
  O  O13  1  0.275484  0.646704  0.731948  1
  O  O14  1  0.430959  0.814097  0.089526  1
  O  O15  1  0.571121  0.182323  0.904969  1
  O  O16  1  0.428362  0.305330  0.497817  1
  O  O17  1  0.569318  0.692297  0.504879  1
  O  O18  1  0.878288  0.590111  0.824710  1
  O  O19  1  0.116834  0.415433  0.176538  1
  O  O20  1  0.279844  0.475034  0.900661  1
  O  O21  1  0.730756  0.542784  0.102107  1
  O  O22  1  0.883839  0.088749  0.383065  1
  O  O23  1  0.111756  0.911471  0.613343  1
  O  O24  1  0.356755  0.925403  0.347835  1
  O  O25  1  0.641206  0.060324  0.647974  1
  O  O26  1  0.358583  0.094962  0.171290  1
  O  O27  1  0.645895  0.899371  0.835880  1
