# generated using pymatgen
data_SmTh3(HgPd2)2
_symmetry_space_group_name_H-M   'P 1'
_cell_length_a   7.92913103
_cell_length_b   7.92913071
_cell_length_c   3.80284500
_cell_angle_alpha   90.00000000
_cell_angle_beta   90.00000000
_cell_angle_gamma   89.10903565
_symmetry_Int_Tables_number   1
_chemical_formula_structural   SmTh3(HgPd2)2
_chemical_formula_sum   'Sm1 Th3 Hg2 Pd4'
_cell_volume   239.06020399
_cell_formula_units_Z   1
loop_
 _symmetry_equiv_pos_site_id
 _symmetry_equiv_pos_as_xyz
  1  'x, y, z'
loop_
 _atom_site_type_symbol
 _atom_site_label
 _atom_site_symmetry_multiplicity
 _atom_site_fract_x
 _atom_site_fract_y
 _atom_site_fract_z
 _atom_site_occupancy
  Sm  Sm0  1  0.675702  0.175702  0.500000  1
  Th  Th1  1  0.326791  0.826791  0.500000  1
  Th  Th2  1  0.823542  0.673882  0.500000  1
  Th  Th3  1  0.173882  0.323542  0.500000  1
  Hg  Hg4  1  0.995311  0.001232  0.000000  1
  Hg  Hg5  1  0.501232  0.495311  0.000000  1
  Pd  Pd6  1  0.369568  0.124267  0.000000  1
  Pd  Pd7  1  0.880119  0.380119  0.000000  1
  Pd  Pd8  1  0.129584  0.629584  0.000000  1
  Pd  Pd9  1  0.624267  0.869568  0.000000  1
