# generated using pymatgen
data_Tb2Be2Fe(SiO5)2
_symmetry_space_group_name_H-M   'P 1'
_cell_length_a   10.04524491
_cell_length_b   7.57489600
_cell_length_c   4.79505043
_cell_angle_alpha   90.00000000
_cell_angle_beta   89.61430157
_cell_angle_gamma   90.00000000
_symmetry_Int_Tables_number   1
_chemical_formula_structural   Tb2Be2Fe(SiO5)2
_chemical_formula_sum   'Tb4 Be4 Fe2 Si4 O20'
_cell_volume   364.85520223
_cell_formula_units_Z   2
loop_
 _symmetry_equiv_pos_site_id
 _symmetry_equiv_pos_as_xyz
  1  'x, y, z'
loop_
 _atom_site_type_symbol
 _atom_site_label
 _atom_site_symmetry_multiplicity
 _atom_site_fract_x
 _atom_site_fract_y
 _atom_site_fract_z
 _atom_site_occupancy
  Tb  Tb0  1  0.328398  0.106921  0.000678  1
  Tb  Tb1  1  0.828398  0.393080  0.000678  1
  Tb  Tb2  1  0.171602  0.606920  0.999322  1
  Tb  Tb3  1  0.671602  0.893079  0.999322  1
  Be  Be4  1  0.164788  0.913179  0.465290  1
  Be  Be5  1  0.664788  0.586822  0.465290  1
  Be  Be6  1  0.835212  0.086821  0.534710  1
  Be  Be7  1  0.335211  0.413178  0.534712  1
  Fe  Fe8  1  0.000000  0.000000  0.000000  1
  Fe  Fe9  1  0.500000  0.499999  0.000000  1
  Si  Si10  1  0.078100  0.279572  0.481499  1
  Si  Si11  1  0.578099  0.220427  0.481499  1
  Si  Si12  1  0.421900  0.779573  0.518500  1
  Si  Si13  1  0.921900  0.720428  0.518501  1
  O  O14  1  0.832070  0.087973  0.202603  1
  O  O15  1  0.332070  0.412026  0.202605  1
  O  O16  1  0.028982  0.414995  0.239564  1
  O  O17  1  0.528982  0.085006  0.239565  1
  O  O18  1  0.303548  0.847666  0.308406  1
  O  O19  1  0.803548  0.652335  0.308406  1
  O  O20  1  0.141721  0.106912  0.313725  1
  O  O21  1  0.641721  0.393089  0.313725  1
  O  O22  1  0.048464  0.787368  0.323013  1
  O  O23  1  0.548464  0.712633  0.323014  1
  O  O24  1  0.451536  0.287367  0.676986  1
  O  O25  1  0.951536  0.212632  0.676986  1
  O  O26  1  0.358279  0.606911  0.686274  1
  O  O27  1  0.858279  0.893088  0.686274  1
  O  O28  1  0.196452  0.347665  0.691593  1
  O  O29  1  0.696452  0.152335  0.691593  1
  O  O30  1  0.471019  0.914994  0.760435  1
  O  O31  1  0.971019  0.585005  0.760435  1
  O  O32  1  0.167929  0.912027  0.797396  1
  O  O33  1  0.667929  0.587974  0.797397  1
