# generated using pymatgen
data_Ni3IrCl12
_symmetry_space_group_name_H-M   'P 1'
_cell_length_a   11.49469359
_cell_length_b   11.00968945
_cell_length_c   6.13421360
_cell_angle_alpha   78.59308713
_cell_angle_beta   69.86547768
_cell_angle_gamma   30.90328736
_symmetry_Int_Tables_number   1
_chemical_formula_structural   Ni3IrCl12
_chemical_formula_sum   'Ni3 Ir1 Cl12'
_cell_volume   366.59095865
_cell_formula_units_Z   1
loop_
 _symmetry_equiv_pos_site_id
 _symmetry_equiv_pos_as_xyz
  1  'x, y, z'
loop_
 _atom_site_type_symbol
 _atom_site_label
 _atom_site_symmetry_multiplicity
 _atom_site_fract_x
 _atom_site_fract_y
 _atom_site_fract_z
 _atom_site_occupancy
  Ni  Ni0  1  0.414515  0.414515  0.585485  1
  Ni  Ni1  1  0.833315  0.833315  0.666685  1
  Ni  Ni2  1  0.669144  0.669144  0.830856  1
  Ir  Ir3  1  0.584158  0.584158  0.415842  1
  Cl  Cl4  1  0.720874  0.281057  0.281935  1
  Cl  Cl5  1  0.894371  0.429722  0.101748  1
  Cl  Cl6  1  0.373254  0.807709  0.151576  1
  Cl  Cl7  1  0.429722  0.894371  0.574158  1
  Cl  Cl8  1  0.173599  0.645609  0.370632  1
  Cl  Cl9  1  0.281057  0.720874  0.716133  1
  Cl  Cl10  1  0.532613  0.963846  0.964758  1
  Cl  Cl11  1  0.963846  0.532613  0.538783  1
  Cl  Cl12  1  0.070206  0.606007  0.882692  1
  Cl  Cl13  1  0.807709  0.373254  0.667461  1
  Cl  Cl14  1  0.645609  0.173599  0.810160  1
  Cl  Cl15  1  0.606007  0.070206  0.441095  1
