# generated using pymatgen
data_TbDyAlSi2
_symmetry_space_group_name_H-M   'P 1'
_cell_length_a   5.60650882
_cell_length_b   5.60650824
_cell_length_c   5.60650870
_cell_angle_alpha   136.94040495
_cell_angle_beta   118.80651197
_cell_angle_gamma   77.73126422
_symmetry_Int_Tables_number   1
_chemical_formula_structural   TbDyAlSi2
_chemical_formula_sum   'Tb1 Dy1 Al1 Si2'
_cell_volume   102.52330681
_cell_formula_units_Z   1
loop_
 _symmetry_equiv_pos_site_id
 _symmetry_equiv_pos_as_xyz
  1  'x, y, z'
loop_
 _atom_site_type_symbol
 _atom_site_label
 _atom_site_symmetry_multiplicity
 _atom_site_fract_x
 _atom_site_fract_y
 _atom_site_fract_z
 _atom_site_occupancy
  Tb  Tb0  1  0.289429  0.789429  0.500000  1
  Dy  Dy1  1  0.710572  0.210572  0.500000  1
  Al  Al2  1  0.000051  0.000051  0.000000  1
  Si  Si3  1  0.289678  0.499974  0.789705  1
  Si  Si4  1  0.710269  0.499974  0.210295  1
