# generated using pymatgen
data_Er7Tm(B6Rh)4
_symmetry_space_group_name_H-M   'P 1'
_cell_length_a   3.63211300
_cell_length_b   9.13782703
_cell_length_c   11.46399004
_cell_angle_alpha   89.99081717
_cell_angle_beta   90.00000000
_cell_angle_gamma   90.00000000
_symmetry_Int_Tables_number   1
_chemical_formula_structural   Er7Tm(B6Rh)4
_chemical_formula_sum   'Er7 Tm1 B24 Rh4'
_cell_volume   380.48547207
_cell_formula_units_Z   1
loop_
 _symmetry_equiv_pos_site_id
 _symmetry_equiv_pos_as_xyz
  1  'x, y, z'
loop_
 _atom_site_type_symbol
 _atom_site_label
 _atom_site_symmetry_multiplicity
 _atom_site_fract_x
 _atom_site_fract_y
 _atom_site_fract_z
 _atom_site_occupancy
  Er  Er0  1  0.500000  0.322180  0.413473  1
  Er  Er1  1  0.500000  0.677797  0.586333  1
  Er  Er2  1  0.500000  0.177650  0.913532  1
  Er  Er3  1  0.500000  0.822356  0.086586  1
  Er  Er4  1  0.500000  0.444379  0.126679  1
  Er  Er5  1  0.500000  0.555589  0.873426  1
  Er  Er6  1  0.500000  0.055538  0.626408  1
  Tm  Tm7  1  0.500000  0.944380  0.373363  1
  B  B8  1  0.000000  0.109742  0.469854  1
  B  B9  1  0.000000  0.890036  0.529630  1
  B  B10  1  0.000000  0.389594  0.970006  1
  B  B11  1  0.000000  0.610418  0.030069  1
  B  B12  1  0.000000  0.132898  0.316118  1
  B  B13  1  0.000000  0.866797  0.683910  1
  B  B14  1  0.000000  0.366735  0.815981  1
  B  B15  1  0.000000  0.633317  0.184097  1
  B  B16  1  0.000000  0.053660  0.065480  1
  B  B17  1  0.000000  0.946285  0.934657  1
  B  B18  1  0.000000  0.446324  0.565335  1
  B  B19  1  0.000000  0.553834  0.434562  1
  B  B20  1  0.000000  0.482570  0.287021  1
  B  B21  1  0.000000  0.517460  0.713005  1
  B  B22  1  0.000000  0.017474  0.786914  1
  B  B23  1  0.000000  0.982365  0.213344  1
  B  B24  1  0.000000  0.249488  0.079237  1
  B  B25  1  0.000000  0.750477  0.920840  1
  B  B26  1  0.000000  0.250388  0.579075  1
  B  B27  1  0.000000  0.749965  0.420761  1
  B  B28  1  0.000000  0.294420  0.235899  1
  B  B29  1  0.000000  0.705488  0.764115  1
  B  B30  1  0.000000  0.205425  0.735797  1
  B  B31  1  0.000000  0.794864  0.264350  1
  Rh  Rh32  1  0.500000  0.139284  0.178951  1
  Rh  Rh33  1  0.500000  0.860418  0.821213  1
  Rh  Rh34  1  0.500000  0.360355  0.678685  1
  Rh  Rh35  1  0.500000  0.640048  0.321292  1
