# generated using pymatgen
data_LaSm5(CBr5)2
_symmetry_space_group_name_H-M   'P 1'
_cell_length_a   7.57540896
_cell_length_b   9.13682321
_cell_length_c   9.26456500
_cell_angle_alpha   107.15403380
_cell_angle_beta   96.37214707
_cell_angle_gamma   104.67680917
_symmetry_Int_Tables_number   1
_chemical_formula_structural   LaSm5(CBr5)2
_chemical_formula_sum   'La1 Sm5 C2 Br10'
_cell_volume   580.64314126
_cell_formula_units_Z   1
loop_
 _symmetry_equiv_pos_site_id
 _symmetry_equiv_pos_as_xyz
  1  'x, y, z'
loop_
 _atom_site_type_symbol
 _atom_site_label
 _atom_site_symmetry_multiplicity
 _atom_site_fract_x
 _atom_site_fract_y
 _atom_site_fract_z
 _atom_site_occupancy
  La  La0  1  0.883749  0.953858  0.234777  1
  Sm  Sm1  1  0.113404  0.044642  0.771400  1
  Sm  Sm2  1  0.029400  0.726104  0.917822  1
  Sm  Sm3  1  0.971059  0.274173  0.080084  1
  Sm  Sm4  1  0.617540  0.857861  0.809543  1
  Sm  Sm5  1  0.382990  0.142994  0.190040  1
  C  C6  1  0.909012  0.968931  0.954845  1
  C  C7  1  0.092458  0.031373  0.042356  1
  Br  Br8  1  0.753983  0.917731  0.545468  1
  Br  Br9  1  0.254098  0.085255  0.461026  1
  Br  Br10  1  0.452589  0.815280  0.084337  1
  Br  Br11  1  0.540222  0.182179  0.912070  1
  Br  Br12  1  0.804057  0.268538  0.349014  1
  Br  Br13  1  0.193361  0.740465  0.651580  1
  Br  Br14  1  0.913937  0.621776  0.169604  1
  Br  Br15  1  0.088422  0.368514  0.825751  1
  Br  Br16  1  0.662123  0.547033  0.727573  1
  Br  Br17  1  0.337596  0.453292  0.272709  1
