# generated using pymatgen
data_Dy7Y3(NiTe)4
_symmetry_space_group_name_H-M   'P 1'
_cell_length_a   7.79425503
_cell_length_b   7.79425521
_cell_length_c   14.89627200
_cell_angle_alpha   90.00081122
_cell_angle_beta   89.99918950
_cell_angle_gamma   150.17714393
_symmetry_Int_Tables_number   1
_chemical_formula_structural   Dy7Y3(NiTe)4
_chemical_formula_sum   'Dy7 Y3 Ni4 Te4'
_cell_volume   450.05213587
_cell_formula_units_Z   1
loop_
 _symmetry_equiv_pos_site_id
 _symmetry_equiv_pos_as_xyz
  1  'x, y, z'
loop_
 _atom_site_type_symbol
 _atom_site_label
 _atom_site_symmetry_multiplicity
 _atom_site_fract_x
 _atom_site_fract_y
 _atom_site_fract_z
 _atom_site_occupancy
  Dy  Dy0  1  0.958928  0.041072  0.125444  1
  Dy  Dy1  1  0.040793  0.959207  0.874594  1
  Dy  Dy2  1  0.041008  0.958992  0.625243  1
  Dy  Dy3  1  0.959164  0.040836  0.374587  1
  Dy  Dy4  1  0.740844  0.259156  0.628633  1
  Dy  Dy5  1  0.258858  0.741142  0.371437  1
  Dy  Dy6  1  0.258973  0.741027  0.128611  1
  Y  Y7  1  0.741956  0.258044  0.873166  1
  Y  Y8  1  0.605484  0.394516  0.249979  1
  Y  Y9  1  0.394767  0.605233  0.749784  1
  Ni  Ni10  1  0.412316  0.587684  0.249921  1
  Ni  Ni11  1  0.587666  0.412334  0.749514  1
  Ni  Ni12  1  0.813939  0.186061  0.250053  1
  Ni  Ni13  1  0.185358  0.814642  0.749347  1
  Te  Te14  1  0.614884  0.385116  0.039813  1
  Te  Te15  1  0.385131  0.614869  0.960062  1
  Te  Te16  1  0.384872  0.615128  0.539714  1
  Te  Te17  1  0.615058  0.384942  0.460097  1
