# generated using pymatgen
data_Nd12Th4MgCd3Ir4
_symmetry_space_group_name_H-M   'P 1'
_cell_length_a   10.00935348
_cell_length_b   10.00935386
_cell_length_c   10.00935351
_cell_angle_alpha   60.02979207
_cell_angle_beta   60.02979405
_cell_angle_gamma   60.02979187
_symmetry_Int_Tables_number   1
_chemical_formula_structural   Nd12Th4MgCd3Ir4
_chemical_formula_sum   'Nd12 Th4 Mg1 Cd3 Ir4'
_cell_volume   709.57172282
_cell_formula_units_Z   1
loop_
 _symmetry_equiv_pos_site_id
 _symmetry_equiv_pos_as_xyz
  1  'x, y, z'
loop_
 _atom_site_type_symbol
 _atom_site_label
 _atom_site_symmetry_multiplicity
 _atom_site_fract_x
 _atom_site_fract_y
 _atom_site_fract_z
 _atom_site_occupancy
  Nd  Nd0  1  0.808221  0.191555  0.191555  1
  Nd  Nd1  1  0.189032  0.810744  0.810744  1
  Nd  Nd2  1  0.191555  0.808221  0.191555  1
  Nd  Nd3  1  0.810744  0.189032  0.810744  1
  Nd  Nd4  1  0.191555  0.191555  0.808221  1
  Nd  Nd5  1  0.810744  0.810744  0.189032  1
  Nd  Nd6  1  0.940747  0.562822  0.562822  1
  Nd  Nd7  1  0.560480  0.938268  0.938268  1
  Nd  Nd8  1  0.562822  0.940747  0.562822  1
  Nd  Nd9  1  0.938268  0.560480  0.938268  1
  Nd  Nd10  1  0.562822  0.562822  0.940747  1
  Nd  Nd11  1  0.938268  0.938268  0.560480  1
  Th  Th12  1  0.345705  0.345705  0.345705  1
  Th  Th13  1  0.346043  0.346043  0.960852  1
  Th  Th14  1  0.346043  0.960852  0.346043  1
  Th  Th15  1  0.960852  0.346043  0.346043  1
  Mg  Mg16  1  0.576352  0.576352  0.576352  1
  Cd  Cd17  1  0.580598  0.580598  0.258935  1
  Cd  Cd18  1  0.580598  0.258935  0.580598  1
  Cd  Cd19  1  0.258935  0.580598  0.580598  1
  Ir  Ir20  1  0.145399  0.145399  0.145399  1
  Ir  Ir21  1  0.145389  0.145389  0.563434  1
  Ir  Ir22  1  0.145389  0.563434  0.145389  1
  Ir  Ir23  1  0.563434  0.145389  0.145389  1
