# generated using pymatgen
data_Sc4Si6Ni2Rh5
_symmetry_space_group_name_H-M   'P 1'
_cell_length_a   6.89565865
_cell_length_b   6.91323244
_cell_length_c   6.91323131
_cell_angle_alpha   109.19442946
_cell_angle_beta   109.66181766
_cell_angle_gamma   109.66182031
_symmetry_Int_Tables_number   1
_chemical_formula_structural   Sc4Si6Ni2Rh5
_chemical_formula_sum   'Sc4 Si6 Ni2 Rh5'
_cell_volume   253.36583016
_cell_formula_units_Z   1
loop_
 _symmetry_equiv_pos_site_id
 _symmetry_equiv_pos_as_xyz
  1  'x, y, z'
loop_
 _atom_site_type_symbol
 _atom_site_label
 _atom_site_symmetry_multiplicity
 _atom_site_fract_x
 _atom_site_fract_y
 _atom_site_fract_z
 _atom_site_occupancy
  Sc  Sc0  1  0.003037  0.001518  0.501518  1
  Sc  Sc1  1  0.003037  0.501518  0.001518  1
  Sc  Sc2  1  0.493511  0.997393  0.997393  1
  Sc  Sc3  1  0.493511  0.496118  0.496118  1
  Si  Si4  1  0.684069  0.682579  0.001490  1
  Si  Si5  1  0.325501  0.003165  0.322336  1
  Si  Si6  1  0.989420  0.318365  0.318365  1
  Si  Si7  1  0.325501  0.322336  0.003165  1
  Si  Si8  1  0.684069  0.001490  0.682579  1
  Si  Si9  1  0.989420  0.671056  0.671056  1
  Ni  Ni10  1  0.747609  0.251119  0.496490  1
  Ni  Ni11  1  0.747609  0.496490  0.251119  1
  Rh  Rh12  1  0.510747  0.255373  0.755373  1
  Rh  Rh13  1  0.244764  0.496334  0.748429  1
  Rh  Rh14  1  0.244764  0.748429  0.496334  1
  Rh  Rh15  1  0.510747  0.755373  0.255373  1
  Rh  Rh16  1  0.002685  0.001342  0.001342  1
