# generated using pymatgen
data_Tb4Y4Tc3B24Ru
_symmetry_space_group_name_H-M   'P 1'
_cell_length_a   3.68919300
_cell_length_b   9.17426910
_cell_length_c   11.56993407
_cell_angle_alpha   89.93010251
_cell_angle_beta   90.00000000
_cell_angle_gamma   90.00000000
_symmetry_Int_Tables_number   1
_chemical_formula_structural   Tb4Y4Tc3B24Ru
_chemical_formula_sum   'Tb4 Y4 Tc3 B24 Ru1'
_cell_volume   391.59163983
_cell_formula_units_Z   1
loop_
 _symmetry_equiv_pos_site_id
 _symmetry_equiv_pos_as_xyz
  1  'x, y, z'
loop_
 _atom_site_type_symbol
 _atom_site_label
 _atom_site_symmetry_multiplicity
 _atom_site_fract_x
 _atom_site_fract_y
 _atom_site_fract_z
 _atom_site_occupancy
  Tb  Tb0  1  0.000000  0.323795  0.413995  1
  Tb  Tb1  1  0.000000  0.674832  0.584084  1
  Tb  Tb2  1  0.000000  0.823264  0.087177  1
  Tb  Tb3  1  0.000000  0.177614  0.914573  1
  Y  Y4  1  0.000000  0.942499  0.370253  1
  Y  Y5  1  0.000000  0.058000  0.630610  1
  Y  Y6  1  0.000000  0.442947  0.129992  1
  Y  Y7  1  0.000000  0.557792  0.869130  1
  Tc  Tc8  1  0.000000  0.638081  0.320780  1
  Tc  Tc9  1  0.000000  0.361806  0.679804  1
  Tc  Tc10  1  0.000000  0.137829  0.178362  1
  B  B11  1  0.500000  0.553124  0.432531  1
  B  B12  1  0.500000  0.446488  0.567142  1
  B  B13  1  0.500000  0.053287  0.067189  1
  B  B14  1  0.500000  0.946027  0.932526  1
  B  B15  1  0.500000  0.748120  0.418360  1
  B  B16  1  0.500000  0.251368  0.581861  1
  B  B17  1  0.500000  0.248715  0.081577  1
  B  B18  1  0.500000  0.752060  0.918088  1
  B  B19  1  0.500000  0.791240  0.265589  1
  B  B20  1  0.500000  0.209119  0.735093  1
  B  B21  1  0.500000  0.291209  0.234454  1
  B  B22  1  0.500000  0.709838  0.765368  1
  B  B23  1  0.500000  0.631229  0.185832  1
  B  B24  1  0.500000  0.369005  0.814491  1
  B  B25  1  0.500000  0.130623  0.313853  1
  B  B26  1  0.500000  0.868787  0.686114  1
  B  B27  1  0.500000  0.982140  0.211766  1
  B  B28  1  0.500000  0.016438  0.788504  1
  B  B29  1  0.500000  0.482498  0.287918  1
  B  B30  1  0.500000  0.517220  0.711576  1
  B  B31  1  0.500000  0.602530  0.028155  1
  B  B32  1  0.500000  0.399067  0.971431  1
  B  B33  1  0.500000  0.101699  0.472006  1
  B  B34  1  0.500000  0.897921  0.528860  1
  Ru  Ru35  1  0.000000  0.861786  0.820955  1
