# generated using pymatgen
data_CeYRu2F14
_symmetry_space_group_name_H-M   'P 1'
_cell_length_a   5.61396376
_cell_length_b   9.01172989
_cell_length_c   12.02499135
_cell_angle_alpha   62.64339822
_cell_angle_beta   89.83487086
_cell_angle_gamma   90.16945776
_symmetry_Int_Tables_number   1
_chemical_formula_structural   CeYRu2F14
_chemical_formula_sum   'Ce2 Y2 Ru4 F28'
_cell_volume   540.31710156
_cell_formula_units_Z   2
loop_
 _symmetry_equiv_pos_site_id
 _symmetry_equiv_pos_as_xyz
  1  'x, y, z'
loop_
 _atom_site_type_symbol
 _atom_site_label
 _atom_site_symmetry_multiplicity
 _atom_site_fract_x
 _atom_site_fract_y
 _atom_site_fract_z
 _atom_site_occupancy
  Ce  Ce0  1  0.258371  0.810145  0.266821  1
  Ce  Ce1  1  0.741629  0.189855  0.733179  1
  Y  Y2  1  0.758898  0.193702  0.233172  1
  Y  Y3  1  0.241102  0.806298  0.766828  1
  Ru  Ru4  1  0.755186  0.725458  0.042065  1
  Ru  Ru5  1  0.244814  0.274542  0.957935  1
  Ru  Ru6  1  0.255838  0.270483  0.455330  1
  Ru  Ru7  1  0.744162  0.729517  0.544670  1
  F  F8  1  0.944456  0.707553  0.417746  1
  F  F9  1  0.055544  0.292447  0.582254  1
  F  F10  1  0.445261  0.292653  0.084591  1
  F  F11  1  0.554739  0.707347  0.915409  1
  F  F12  1  0.469726  0.730222  0.137413  1
  F  F13  1  0.530274  0.269778  0.862587  1
  F  F14  1  0.970666  0.268928  0.360132  1
  F  F15  1  0.029334  0.731072  0.639868  1
  F  F16  1  0.950358  0.745888  0.171297  1
  F  F17  1  0.049642  0.254112  0.828703  1
  F  F18  1  0.453122  0.251108  0.326460  1
  F  F19  1  0.546878  0.748892  0.673540  1
  F  F20  1  0.767588  0.484880  0.139107  1
  F  F21  1  0.232412  0.515120  0.860893  1
  F  F22  1  0.267751  0.512379  0.359845  1
  F  F23  1  0.732249  0.487621  0.640155  1
  F  F24  1  0.950479  0.280099  0.048073  1
  F  F25  1  0.049521  0.719901  0.951927  1
  F  F26  1  0.452000  0.719614  0.455625  1
  F  F27  1  0.548000  0.280386  0.544375  1
  F  F28  1  0.743656  0.969511  0.449405  1
  F  F29  1  0.256344  0.030489  0.550595  1
  F  F30  1  0.243217  0.033423  0.049900  1
  F  F31  1  0.756783  0.966577  0.950100  1
  F  F32  1  0.586271  0.972671  0.231367  1
  F  F33  1  0.413729  0.027329  0.768633  1
  F  F34  1  0.082047  0.029334  0.268706  1
  F  F35  1  0.917953  0.970666  0.731294  1
