# generated using pymatgen
data_Zr12Zn11AuC4
_symmetry_space_group_name_H-M   'P 1'
_cell_length_a   8.70739738
_cell_length_b   8.66244160
_cell_length_c   8.66244200
_cell_angle_alpha   59.99999847
_cell_angle_beta   60.17064074
_cell_angle_gamma   60.17064741
_symmetry_Int_Tables_number   1
_chemical_formula_structural   Zr12Zn11AuC4
_chemical_formula_sum   'Zr12 Zn11 Au1 C4'
_cell_volume   463.20089308
_cell_formula_units_Z   1
loop_
 _symmetry_equiv_pos_site_id
 _symmetry_equiv_pos_as_xyz
  1  'x, y, z'
loop_
 _atom_site_type_symbol
 _atom_site_label
 _atom_site_symmetry_multiplicity
 _atom_site_fract_x
 _atom_site_fract_y
 _atom_site_fract_z
 _atom_site_occupancy
  Zr  Zr0  1  0.439657  0.440358  0.059992  1
  Zr  Zr1  1  0.062446  0.439534  0.058486  1
  Zr  Zr2  1  0.439657  0.059992  0.059992  1
  Zr  Zr3  1  0.062446  0.058486  0.439534  1
  Zr  Zr4  1  0.439657  0.059992  0.440358  1
  Zr  Zr5  1  0.062446  0.439534  0.439534  1
  Zr  Zr6  1  0.810343  0.809642  0.190008  1
  Zr  Zr7  1  0.187554  0.810466  0.191514  1
  Zr  Zr8  1  0.810343  0.190008  0.190008  1
  Zr  Zr9  1  0.187554  0.191514  0.810466  1
  Zr  Zr10  1  0.810343  0.190008  0.809642  1
  Zr  Zr11  1  0.187554  0.810466  0.810466  1
  Zn  Zn12  1  0.826882  0.833604  0.505910  1
  Zn  Zn13  1  0.826882  0.505910  0.833604  1
  Zn  Zn14  1  0.507162  0.830946  0.830946  1
  Zn  Zn15  1  0.826882  0.833604  0.833604  1
  Zn  Zn16  1  0.423118  0.416396  0.744090  1
  Zn  Zn17  1  0.423118  0.744090  0.416396  1
  Zn  Zn18  1  0.742838  0.419054  0.419054  1
  Zn  Zn19  1  0.423118  0.416396  0.416396  1
  Zn  Zn20  1  0.625000  0.625000  0.125000  1
  Zn  Zn21  1  0.625000  0.125000  0.625000  1
  Zn  Zn22  1  0.625000  0.625000  0.625000  1
  Au  Au23  1  0.125000  0.625000  0.625000  1
  C  C24  1  0.125000  0.125000  0.625000  1
  C  C25  1  0.125000  0.625000  0.125000  1
  C  C26  1  0.625000  0.125000  0.125000  1
  C  C27  1  0.125000  0.125000  0.125000  1
