# generated using pymatgen
data_HoLu5IrOs
_symmetry_space_group_name_H-M   'P 1'
_cell_length_a   7.20742400
_cell_length_b   8.91386700
_cell_length_c   6.24180800
_cell_angle_alpha   90.00000000
_cell_angle_beta   90.00000000
_cell_angle_gamma   90.00000000
_symmetry_Int_Tables_number   1
_chemical_formula_structural   HoLu5IrOs
_chemical_formula_sum   'Ho2 Lu10 Ir2 Os2'
_cell_volume   401.01131504
_cell_formula_units_Z   2
loop_
 _symmetry_equiv_pos_site_id
 _symmetry_equiv_pos_as_xyz
  1  'x, y, z'
loop_
 _atom_site_type_symbol
 _atom_site_label
 _atom_site_symmetry_multiplicity
 _atom_site_fract_x
 _atom_site_fract_y
 _atom_site_fract_z
 _atom_site_occupancy
  Ho  Ho0  1  0.536763  0.250000  0.874705  1
  Ho  Ho1  1  0.036763  0.250000  0.625295  1
  Lu  Lu2  1  0.675805  0.058038  0.331674  1
  Lu  Lu3  1  0.175805  0.441962  0.168326  1
  Lu  Lu4  1  0.322607  0.565246  0.673724  1
  Lu  Lu5  1  0.822607  0.934754  0.826276  1
  Lu  Lu6  1  0.322607  0.934754  0.673724  1
  Lu  Lu7  1  0.822607  0.565246  0.826276  1
  Lu  Lu8  1  0.675805  0.441962  0.331674  1
  Lu  Lu9  1  0.175805  0.058038  0.168326  1
  Lu  Lu10  1  0.464400  0.750000  0.123209  1
  Lu  Lu11  1  0.964400  0.750000  0.376791  1
  Ir  Ir12  1  0.886499  0.250000  0.045666  1
  Ir  Ir13  1  0.386499  0.250000  0.454334  1
  Os  Os14  1  0.115516  0.750000  0.965102  1
  Os  Os15  1  0.615516  0.750000  0.534898  1
