# generated using pymatgen
data_Pr5(Hg2Pd)2
_symmetry_space_group_name_H-M   'P 1'
_cell_length_a   8.24531000
_cell_length_b   18.60867200
_cell_length_c   3.84326700
_cell_angle_alpha   90.00000000
_cell_angle_beta   90.00000000
_cell_angle_gamma   90.00000000
_symmetry_Int_Tables_number   1
_chemical_formula_structural   Pr5(Hg2Pd)2
_chemical_formula_sum   'Pr10 Hg8 Pd4'
_cell_volume   589.68886398
_cell_formula_units_Z   2
loop_
 _symmetry_equiv_pos_site_id
 _symmetry_equiv_pos_as_xyz
  1  'x, y, z'
loop_
 _atom_site_type_symbol
 _atom_site_label
 _atom_site_symmetry_multiplicity
 _atom_site_fract_x
 _atom_site_fract_y
 _atom_site_fract_z
 _atom_site_occupancy
  Pr  Pr0  1  0.500000  0.500000  0.000000  1
  Pr  Pr1  1  0.000000  0.000000  0.000000  1
  Pr  Pr2  1  0.732018  0.285787  0.000000  1
  Pr  Pr3  1  0.267982  0.714213  0.000000  1
  Pr  Pr4  1  0.767982  0.785787  0.000000  1
  Pr  Pr5  1  0.232018  0.214213  0.000000  1
  Pr  Pr6  1  0.617802  0.084227  0.000000  1
  Pr  Pr7  1  0.382198  0.915773  0.000000  1
  Pr  Pr8  1  0.882198  0.584227  0.000000  1
  Pr  Pr9  1  0.117802  0.415773  0.000000  1
  Hg  Hg10  1  0.709611  0.933629  0.500000  1
  Hg  Hg11  1  0.290389  0.066371  0.500000  1
  Hg  Hg12  1  0.790389  0.433629  0.500000  1
  Hg  Hg13  1  0.209611  0.566371  0.500000  1
  Hg  Hg14  1  0.581919  0.649688  0.500000  1
  Hg  Hg15  1  0.418081  0.350312  0.500000  1
  Hg  Hg16  1  0.918081  0.149688  0.500000  1
  Hg  Hg17  1  0.081919  0.850312  0.500000  1
  Pd  Pd18  1  0.522121  0.196762  0.500000  1
  Pd  Pd19  1  0.477879  0.803238  0.500000  1
  Pd  Pd20  1  0.977879  0.696762  0.500000  1
  Pd  Pd21  1  0.022121  0.303238  0.500000  1
