# generated using pymatgen
data_Er2Zn5Sn
_symmetry_space_group_name_H-M   'P 1'
_cell_length_a   8.30320711
_cell_length_b   8.30320745
_cell_length_c   8.96638100
_cell_angle_alpha   90.00000000
_cell_angle_beta   90.00000000
_cell_angle_gamma   149.76181410
_symmetry_Int_Tables_number   1
_chemical_formula_structural   Er2Zn5Sn
_chemical_formula_sum   'Er4 Zn10 Sn2'
_cell_volume   311.30857874
_cell_formula_units_Z   2
loop_
 _symmetry_equiv_pos_site_id
 _symmetry_equiv_pos_as_xyz
  1  'x, y, z'
loop_
 _atom_site_type_symbol
 _atom_site_label
 _atom_site_symmetry_multiplicity
 _atom_site_fract_x
 _atom_site_fract_y
 _atom_site_fract_z
 _atom_site_occupancy
  Er  Er0  1  0.203132  0.796868  0.250000  1
  Er  Er1  1  0.796868  0.203132  0.750000  1
  Er  Er2  1  0.000000  0.000000  0.500000  1
  Er  Er3  1  0.000000  0.000000  0.000000  1
  Zn  Zn4  1  0.813371  0.186629  0.390774  1
  Zn  Zn5  1  0.186629  0.813371  0.609226  1
  Zn  Zn6  1  0.813371  0.186629  0.109226  1
  Zn  Zn7  1  0.186629  0.813371  0.890774  1
  Zn  Zn8  1  0.656108  0.343892  0.481254  1
  Zn  Zn9  1  0.343892  0.656108  0.518746  1
  Zn  Zn10  1  0.656108  0.343892  0.018746  1
  Zn  Zn11  1  0.343892  0.656108  0.981254  1
  Zn  Zn12  1  0.391922  0.608078  0.250000  1
  Zn  Zn13  1  0.608078  0.391922  0.750000  1
  Sn  Sn14  1  0.554009  0.445991  0.250000  1
  Sn  Sn15  1  0.445991  0.554009  0.750000  1
