# generated using pymatgen
data_Tb4Sn4As2Rh7
_symmetry_space_group_name_H-M   'P 1'
_cell_length_a   7.50450762
_cell_length_b   7.52809830
_cell_length_c   7.52809800
_cell_angle_alpha   109.54006957
_cell_angle_beta   109.50037163
_cell_angle_gamma   109.50037598
_symmetry_Int_Tables_number   1
_chemical_formula_structural   Tb4Sn4As2Rh7
_chemical_formula_sum   'Tb4 Sn4 As2 Rh7'
_cell_volume   326.87928918
_cell_formula_units_Z   1
loop_
 _symmetry_equiv_pos_site_id
 _symmetry_equiv_pos_as_xyz
  1  'x, y, z'
loop_
 _atom_site_type_symbol
 _atom_site_label
 _atom_site_symmetry_multiplicity
 _atom_site_fract_x
 _atom_site_fract_y
 _atom_site_fract_z
 _atom_site_occupancy
  Tb  Tb0  1  0.000000  0.995781  0.458562  1
  Tb  Tb1  1  0.000000  0.541438  0.004219  1
  Tb  Tb2  1  0.500000  0.993716  0.006284  1
  Tb  Tb3  1  0.500000  0.493716  0.506284  1
  Sn  Sn4  1  0.000000  0.328034  0.307025  1
  Sn  Sn5  1  0.287561  0.297789  0.989772  1
  Sn  Sn6  1  0.712439  0.010228  0.702211  1
  Sn  Sn7  1  0.000000  0.692975  0.671966  1
  As  As8  1  0.655936  0.661586  0.994350  1
  As  As9  1  0.344064  0.005650  0.338414  1
  Rh  Rh10  1  0.752131  0.250614  0.501518  1
  Rh  Rh11  1  0.735250  0.497008  0.238241  1
  Rh  Rh12  1  0.500000  0.248560  0.751440  1
  Rh  Rh13  1  0.247869  0.498482  0.749386  1
  Rh  Rh14  1  0.264750  0.761759  0.502992  1
  Rh  Rh15  1  0.500000  0.748560  0.251440  1
  Rh  Rh16  1  0.000000  0.974105  0.025895  1
