# generated using pymatgen
data_Gd3Lu(MoN3)4
_symmetry_space_group_name_H-M   'P 1'
_cell_length_a   7.34431056
_cell_length_b   7.34431037
_cell_length_c   6.29716900
_cell_angle_alpha   73.81006754
_cell_angle_beta   73.81006798
_cell_angle_gamma   82.08396808
_symmetry_Int_Tables_number   1
_chemical_formula_structural   Gd3Lu(MoN3)4
_chemical_formula_sum   'Gd3 Lu1 Mo4 N12'
_cell_volume   312.59316068
_cell_formula_units_Z   1
loop_
 _symmetry_equiv_pos_site_id
 _symmetry_equiv_pos_as_xyz
  1  'x, y, z'
loop_
 _atom_site_type_symbol
 _atom_site_label
 _atom_site_symmetry_multiplicity
 _atom_site_fract_x
 _atom_site_fract_y
 _atom_site_fract_z
 _atom_site_occupancy
  Gd  Gd0  1  0.705684  0.294316  0.250000  1
  Gd  Gd1  1  0.087188  0.912812  0.250000  1
  Gd  Gd2  1  0.294660  0.705340  0.750000  1
  Lu  Lu3  1  0.911177  0.088823  0.750000  1
  Mo  Mo4  1  0.800581  0.619100  0.769227  1
  Mo  Mo5  1  0.199594  0.378712  0.234083  1
  Mo  Mo6  1  0.621288  0.800406  0.265917  1
  Mo  Mo7  1  0.380900  0.199419  0.730773  1
  N  N8  1  0.214630  0.003445  0.842305  1
  N  N9  1  0.364942  0.349412  0.438634  1
  N  N10  1  0.640756  0.653777  0.558074  1
  N  N11  1  0.624653  0.112623  0.666795  1
  N  N12  1  0.996555  0.785370  0.657695  1
  N  N13  1  0.782504  0.000753  0.143455  1
  N  N14  1  0.112563  0.621112  0.160884  1
  N  N15  1  0.887377  0.375347  0.833205  1
  N  N16  1  0.999247  0.217496  0.356545  1
  N  N17  1  0.346223  0.359244  0.941926  1
  N  N18  1  0.650588  0.635058  0.061366  1
  N  N19  1  0.378888  0.887437  0.339116  1
