# generated using pymatgen
data_Er8Be3Si12Ni
_symmetry_space_group_name_H-M   'P 1'
_cell_length_a   7.84435600
_cell_length_b   7.84435687
_cell_length_c   7.94866600
_cell_angle_alpha   90.00000000
_cell_angle_beta   90.00000000
_cell_angle_gamma   120.00000476
_symmetry_Int_Tables_number   1
_chemical_formula_structural   Er8Be3Si12Ni
_chemical_formula_sum   'Er8 Be3 Si12 Ni1'
_cell_volume   423.58395157
_cell_formula_units_Z   1
loop_
 _symmetry_equiv_pos_site_id
 _symmetry_equiv_pos_as_xyz
  1  'x, y, z'
loop_
 _atom_site_type_symbol
 _atom_site_label
 _atom_site_symmetry_multiplicity
 _atom_site_fract_x
 _atom_site_fract_y
 _atom_site_fract_z
 _atom_site_occupancy
  Er  Er0  1  0.000000  0.000000  0.249318  1
  Er  Er1  1  0.000000  0.000000  0.749906  1
  Er  Er2  1  0.499539  0.500461  0.249518  1
  Er  Er3  1  0.499539  0.999078  0.249518  1
  Er  Er4  1  0.000922  0.500461  0.249518  1
  Er  Er5  1  0.499703  0.500297  0.750233  1
  Er  Er6  1  0.000594  0.500297  0.750233  1
  Er  Er7  1  0.499703  0.999406  0.750233  1
  Be  Be8  1  0.666667  0.333333  0.499175  1
  Be  Be9  1  0.666667  0.333333  0.999176  1
  Be  Be10  1  0.333333  0.666667  0.999445  1
  Si  Si11  1  0.828768  0.171232  0.499722  1
  Si  Si12  1  0.828768  0.657536  0.499722  1
  Si  Si13  1  0.342464  0.171232  0.499722  1
  Si  Si14  1  0.826722  0.173278  0.999866  1
  Si  Si15  1  0.826722  0.653446  0.999866  1
  Si  Si16  1  0.346554  0.173278  0.999866  1
  Si  Si17  1  0.172191  0.827809  0.999673  1
  Si  Si18  1  0.655620  0.827809  0.999673  1
  Si  Si19  1  0.172191  0.344380  0.999673  1
  Si  Si20  1  0.172499  0.827501  0.499509  1
  Si  Si21  1  0.655002  0.827501  0.499509  1
  Si  Si22  1  0.172499  0.344998  0.499509  1
  Ni  Ni23  1  0.333333  0.666667  0.507413  1
