# generated using pymatgen
data_Ta(TiC)5
_symmetry_space_group_name_H-M   'P 1'
_cell_length_a   5.33163939
_cell_length_b   5.33163932
_cell_length_c   5.35865400
_cell_angle_alpha   80.21532906
_cell_angle_beta   80.21531828
_cell_angle_gamma   119.69999903
_symmetry_Int_Tables_number   1
_chemical_formula_structural   Ta(TiC)5
_chemical_formula_sum   'Ta1 Ti5 C5'
_cell_volume   124.51176449
_cell_formula_units_Z   1
loop_
 _symmetry_equiv_pos_site_id
 _symmetry_equiv_pos_as_xyz
  1  'x, y, z'
loop_
 _atom_site_type_symbol
 _atom_site_label
 _atom_site_symmetry_multiplicity
 _atom_site_fract_x
 _atom_site_fract_y
 _atom_site_fract_z
 _atom_site_occupancy
  Ta  Ta0  1  0.738092  0.738092  0.737743  1
  Ti  Ti1  1  0.264224  0.264224  0.264803  1
  Ti  Ti2  1  0.085227  0.435966  0.745868  1
  Ti  Ti3  1  0.562607  0.915570  0.253595  1
  Ti  Ti4  1  0.915570  0.562607  0.253595  1
  Ti  Ti5  1  0.435966  0.085227  0.745868  1
  C  C6  1  0.499749  0.499749  0.499848  1
  C  C7  1  0.665812  0.329868  0.001388  1
  C  C8  1  0.329868  0.665812  0.001388  1
  C  C9  1  0.833841  0.169046  0.497951  1
  C  C10  1  0.169046  0.833841  0.497951  1
