# generated using pymatgen
data_DyTh2Mg3Ga2Ag
_symmetry_space_group_name_H-M   'P 1'
_cell_length_a   7.35706851
_cell_length_b   7.35706832
_cell_length_c   4.60785200
_cell_angle_alpha   90.00000000
_cell_angle_beta   90.00000000
_cell_angle_gamma   120.02696981
_symmetry_Int_Tables_number   1
_chemical_formula_structural   DyTh2Mg3Ga2Ag
_chemical_formula_sum   'Dy1 Th2 Mg3 Ga2 Ag1'
_cell_volume   215.93381216
_cell_formula_units_Z   1
loop_
 _symmetry_equiv_pos_site_id
 _symmetry_equiv_pos_as_xyz
  1  'x, y, z'
loop_
 _atom_site_type_symbol
 _atom_site_label
 _atom_site_symmetry_multiplicity
 _atom_site_fract_x
 _atom_site_fract_y
 _atom_site_fract_z
 _atom_site_occupancy
  Dy  Dy0  1  0.419884  0.419884  0.000000  1
  Th  Th1  1  0.576248  0.001410  0.000000  1
  Th  Th2  1  0.001410  0.576248  0.000000  1
  Mg  Mg3  1  0.240095  0.000418  0.500000  1
  Mg  Mg4  1  0.000418  0.240095  0.500000  1
  Mg  Mg5  1  0.756800  0.756800  0.500000  1
  Ga  Ga6  1  0.334539  0.663798  0.500000  1
  Ga  Ga7  1  0.663798  0.334539  0.500000  1
  Ag  Ag8  1  0.006807  0.006807  0.000000  1
