# generated using pymatgen
data_Er8Sc12Si9Ge7
_symmetry_space_group_name_H-M   'P 1'
_cell_length_a   7.13033931
_cell_length_b   7.38233830
_cell_length_c   14.01343266
_cell_angle_alpha   89.99489528
_cell_angle_beta   89.77255966
_cell_angle_gamma   90.03246994
_symmetry_Int_Tables_number   1
_chemical_formula_structural   Er8Sc12Si9Ge7
_chemical_formula_sum   'Er8 Sc12 Si9 Ge7'
_cell_volume   737.64122082
_cell_formula_units_Z   1
loop_
 _symmetry_equiv_pos_site_id
 _symmetry_equiv_pos_as_xyz
  1  'x, y, z'
loop_
 _atom_site_type_symbol
 _atom_site_label
 _atom_site_symmetry_multiplicity
 _atom_site_fract_x
 _atom_site_fract_y
 _atom_site_fract_z
 _atom_site_occupancy
  Er  Er0  1  0.008527  0.175740  0.097999  1
  Er  Er1  1  0.994818  0.823856  0.902571  1
  Er  Er2  1  0.493279  0.677834  0.902141  1
  Er  Er3  1  0.994964  0.822266  0.598398  1
  Er  Er4  1  0.505367  0.321873  0.098302  1
  Er  Er5  1  0.005236  0.177633  0.401314  1
  Er  Er6  1  0.504853  0.322248  0.401330  1
  Er  Er7  1  0.495325  0.677538  0.598541  1
  Sc  Sc8  1  0.168953  0.501584  0.749828  1
  Sc  Sc9  1  0.831264  0.498705  0.250082  1
  Sc  Sc10  1  0.331172  0.001415  0.248806  1
  Sc  Sc11  1  0.668764  0.998394  0.749802  1
  Sc  Sc12  1  0.339859  0.172321  0.626511  1
  Sc  Sc13  1  0.659884  0.827555  0.373487  1
  Sc  Sc14  1  0.159944  0.672598  0.373531  1
  Sc  Sc15  1  0.660192  0.826471  0.126486  1
  Sc  Sc16  1  0.839776  0.327772  0.626516  1
  Sc  Sc17  1  0.337463  0.172481  0.873968  1
  Sc  Sc18  1  0.838013  0.326298  0.874144  1
  Sc  Sc19  1  0.163217  0.675756  0.125443  1
  Si  Si20  1  0.040240  0.115895  0.750431  1
  Si  Si21  1  0.959034  0.883845  0.249609  1
  Si  Si22  1  0.459095  0.615614  0.249775  1
  Si  Si23  1  0.540769  0.383752  0.750600  1
  Si  Si24  1  0.292086  0.870562  0.750213  1
  Si  Si25  1  0.708075  0.129328  0.249685  1
  Si  Si26  1  0.207502  0.371146  0.249515  1
  Si  Si27  1  0.792586  0.629397  0.750623  1
  Si  Si28  1  0.331795  0.962748  0.040116  1
  Ge  Ge29  1  0.175454  0.460419  0.540691  1
  Ge  Ge30  1  0.824353  0.539354  0.459536  1
  Ge  Ge31  1  0.324442  0.960621  0.459421  1
  Ge  Ge32  1  0.827063  0.538410  0.040584  1
  Ge  Ge33  1  0.675224  0.039640  0.540626  1
  Ge  Ge34  1  0.172894  0.461287  0.959301  1
  Ge  Ge35  1  0.668518  0.037644  0.960074  1
