# generated using pymatgen
data_Lu12InSi4Hg
_symmetry_space_group_name_H-M   'P 1'
_cell_length_a   8.32563399
_cell_length_b   8.32563390
_cell_length_c   8.32563390
_cell_angle_alpha   112.59282694
_cell_angle_beta   111.35738841
_cell_angle_gamma   104.57434587
_symmetry_Int_Tables_number   1
_chemical_formula_structural   Lu12InSi4Hg
_chemical_formula_sum   'Lu12 In1 Si4 Hg1'
_cell_volume   441.79011319
_cell_formula_units_Z   1
loop_
 _symmetry_equiv_pos_site_id
 _symmetry_equiv_pos_as_xyz
  1  'x, y, z'
loop_
 _atom_site_type_symbol
 _atom_site_label
 _atom_site_symmetry_multiplicity
 _atom_site_fract_x
 _atom_site_fract_y
 _atom_site_fract_z
 _atom_site_occupancy
  Lu  Lu0  1  0.439637  0.236984  0.202653  1
  Lu  Lu1  1  0.560363  0.763016  0.797347  1
  Lu  Lu2  1  0.034333  0.236984  0.797347  1
  Lu  Lu3  1  0.965667  0.763016  0.202653  1
  Lu  Lu4  1  0.187243  0.278779  0.466022  1
  Lu  Lu5  1  0.812757  0.721221  0.533978  1
  Lu  Lu6  1  0.187243  0.721221  0.908465  1
  Lu  Lu7  1  0.812757  0.278779  0.091535  1
  Lu  Lu8  1  0.320720  0.616490  0.295770  1
  Lu  Lu9  1  0.679280  0.383510  0.704230  1
  Lu  Lu10  1  0.320720  0.024949  0.704230  1
  Lu  Lu11  1  0.679280  0.975051  0.295770  1
  In  In12  1  0.500000  0.500000  0.000000  1
  Si  Si13  1  0.365540  0.000000  0.365540  1
  Si  Si14  1  0.634460  0.000000  0.634460  1
  Si  Si15  1  0.118062  0.618062  0.500000  1
  Si  Si16  1  0.881938  0.381938  0.500000  1
  Hg  Hg17  1  0.000000  0.000000  0.000000  1
