# generated using pymatgen
data_La8Al8ZnIr7
_symmetry_space_group_name_H-M   'P 1'
_cell_length_a   4.30633700
_cell_length_b   7.23581028
_cell_length_c   16.46140464
_cell_angle_alpha   89.88569065
_cell_angle_beta   90.00000000
_cell_angle_gamma   90.00000000
_symmetry_Int_Tables_number   1
_chemical_formula_structural   La8Al8ZnIr7
_chemical_formula_sum   'La8 Al8 Zn1 Ir7'
_cell_volume   512.93367343
_cell_formula_units_Z   1
loop_
 _symmetry_equiv_pos_site_id
 _symmetry_equiv_pos_as_xyz
  1  'x, y, z'
loop_
 _atom_site_type_symbol
 _atom_site_label
 _atom_site_symmetry_multiplicity
 _atom_site_fract_x
 _atom_site_fract_y
 _atom_site_fract_z
 _atom_site_occupancy
  La  La0  1  0.750000  0.846606  0.937877  1
  La  La1  1  0.250000  0.150603  0.052559  1
  La  La2  1  0.250000  0.653971  0.441326  1
  La  La3  1  0.750000  0.344748  0.561308  1
  La  La4  1  0.750000  0.985350  0.720625  1
  La  La5  1  0.250000  0.007831  0.282580  1
  La  La6  1  0.250000  0.524556  0.224349  1
  La  La7  1  0.750000  0.484014  0.779692  1
  Al  Al8  1  0.750000  0.833217  0.147184  1
  Al  Al9  1  0.250000  0.154571  0.851972  1
  Al  Al10  1  0.250000  0.655278  0.648433  1
  Al  Al11  1  0.750000  0.346884  0.356250  1
  Al  Al12  1  0.750000  0.993519  0.438927  1
  Al  Al13  1  0.250000  0.008161  0.561061  1
  Al  Al14  1  0.250000  0.509131  0.937870  1
  Al  Al15  1  0.750000  0.498064  0.058002  1
  Zn  Zn16  1  0.750000  0.225328  0.183059  1
  Ir  Ir17  1  0.750000  0.786723  0.571911  1
  Ir  Ir18  1  0.250000  0.214650  0.427900  1
  Ir  Ir19  1  0.250000  0.711262  0.071258  1
  Ir  Ir20  1  0.750000  0.284881  0.928814  1
  Ir  Ir21  1  0.750000  0.723389  0.317630  1
  Ir  Ir22  1  0.250000  0.278639  0.679921  1
  Ir  Ir23  1  0.250000  0.778628  0.819493  1
