# generated using pymatgen
data_Hf3Ti13Bi18
_symmetry_space_group_name_H-M   'P 1'
_cell_length_a   10.37654100
_cell_length_b   10.37654100
_cell_length_c   7.47499100
_cell_angle_alpha   90.00000000
_cell_angle_beta   90.00000000
_cell_angle_gamma   90.00000000
_symmetry_Int_Tables_number   1
_chemical_formula_structural   Hf3Ti13Bi18
_chemical_formula_sum   'Hf3 Ti13 Bi18'
_cell_volume   804.85173930
_cell_formula_units_Z   1
loop_
 _symmetry_equiv_pos_site_id
 _symmetry_equiv_pos_as_xyz
  1  'x, y, z'
loop_
 _atom_site_type_symbol
 _atom_site_label
 _atom_site_symmetry_multiplicity
 _atom_site_fract_x
 _atom_site_fract_y
 _atom_site_fract_z
 _atom_site_occupancy
  Hf  Hf0  1  0.500000  0.000000  0.425254  1
  Hf  Hf1  1  0.000000  0.500000  0.077071  1
  Hf  Hf2  1  0.500000  0.000000  0.921091  1
  Ti  Ti3  1  0.859217  0.000000  0.852425  1
  Ti  Ti4  1  0.000000  0.142547  0.145160  1
  Ti  Ti5  1  0.000000  0.857453  0.145160  1
  Ti  Ti6  1  0.642547  0.500000  0.145160  1
  Ti  Ti7  1  0.140783  0.000000  0.852425  1
  Ti  Ti8  1  0.357453  0.500000  0.145160  1
  Ti  Ti9  1  0.249146  0.749146  0.001626  1
  Ti  Ti10  1  0.500000  0.359217  0.852425  1
  Ti  Ti11  1  0.000000  0.500000  0.573469  1
  Ti  Ti12  1  0.750854  0.250854  0.001626  1
  Ti  Ti13  1  0.500000  0.640783  0.852425  1
  Ti  Ti14  1  0.750854  0.749146  0.001626  1
  Ti  Ti15  1  0.249146  0.250854  0.001626  1
  Bi  Bi16  1  0.669499  0.169499  0.655319  1
  Bi  Bi17  1  0.500000  0.242086  0.193100  1
  Bi  Bi18  1  0.000000  0.000000  0.499725  1
  Bi  Bi19  1  0.166526  0.666526  0.349114  1
  Bi  Bi20  1  0.238466  0.500000  0.804172  1
  Bi  Bi21  1  0.669499  0.830501  0.655319  1
  Bi  Bi22  1  0.000000  0.261534  0.804172  1
  Bi  Bi23  1  0.742086  0.000000  0.193100  1
  Bi  Bi24  1  0.500000  0.757914  0.193100  1
  Bi  Bi25  1  0.257914  0.000000  0.193100  1
  Bi  Bi26  1  0.330501  0.830501  0.655319  1
  Bi  Bi27  1  0.761534  0.500000  0.804172  1
  Bi  Bi28  1  0.500000  0.500000  0.499725  1
  Bi  Bi29  1  0.000000  0.738466  0.804172  1
  Bi  Bi30  1  0.166526  0.333474  0.349114  1
  Bi  Bi31  1  0.833474  0.333474  0.349114  1
  Bi  Bi32  1  0.330501  0.169499  0.655319  1
  Bi  Bi33  1  0.833474  0.666526  0.349114  1
