# generated using pymatgen
data_DyTm(LuPb)3
_symmetry_space_group_name_H-M   'P 1'
_cell_length_a   6.52764000
_cell_length_b   8.92054842
_cell_length_c   8.94845050
_cell_angle_alpha   119.89691582
_cell_angle_beta   90.00019774
_cell_angle_gamma   89.99959491
_symmetry_Int_Tables_number   1
_chemical_formula_structural   DyTm(LuPb)3
_chemical_formula_sum   'Dy2 Tm2 Lu6 Pb6'
_cell_volume   451.72737123
_cell_formula_units_Z   2
loop_
 _symmetry_equiv_pos_site_id
 _symmetry_equiv_pos_as_xyz
  1  'x, y, z'
loop_
 _atom_site_type_symbol
 _atom_site_label
 _atom_site_symmetry_multiplicity
 _atom_site_fract_x
 _atom_site_fract_y
 _atom_site_fract_z
 _atom_site_occupancy
  Dy  Dy0  1  0.750007  0.235264  0.000000  1
  Dy  Dy1  1  0.249993  0.764745  0.000000  1
  Tm  Tm2  1  0.750016  0.763660  0.762990  1
  Tm  Tm3  1  0.750016  0.000672  0.237010  1
  Lu  Lu4  1  0.250000  0.235870  0.236197  1
  Lu  Lu5  1  0.250000  0.999672  0.763803  1
  Lu  Lu6  1  0.499900  0.333430  0.666928  1
  Lu  Lu7  1  0.499900  0.666502  0.333072  1
  Lu  Lu8  1  0.000094  0.666511  0.333065  1
  Lu  Lu9  1  0.000094  0.333447  0.666935  1
  Pb  Pb10  1  0.749989  0.605474  0.000000  1
  Pb  Pb11  1  0.749998  0.395568  0.396621  1
  Pb  Pb12  1  0.749998  0.998948  0.603379  1
  Pb  Pb13  1  0.249983  0.393780  0.000000  1
  Pb  Pb14  1  0.250007  0.604861  0.603264  1
  Pb  Pb15  1  0.250007  0.001596  0.396736  1
