# generated using pymatgen
data_Er4Lu6Si5Sn
_symmetry_space_group_name_H-M   'P 1'
_cell_length_a   8.36389600
_cell_length_b   8.39089509
_cell_length_c   6.23632500
_cell_angle_alpha   90.00000000
_cell_angle_beta   90.00000000
_cell_angle_gamma   119.89362533
_symmetry_Int_Tables_number   1
_chemical_formula_structural   Er4Lu6Si5Sn
_chemical_formula_sum   'Er4 Lu6 Si5 Sn1'
_cell_volume   379.43798964
_cell_formula_units_Z   1
loop_
 _symmetry_equiv_pos_site_id
 _symmetry_equiv_pos_as_xyz
  1  'x, y, z'
loop_
 _atom_site_type_symbol
 _atom_site_label
 _atom_site_symmetry_multiplicity
 _atom_site_fract_x
 _atom_site_fract_y
 _atom_site_fract_z
 _atom_site_occupancy
  Er  Er0  1  0.766046  0.000000  0.750000  1
  Er  Er1  1  0.756358  0.757305  0.250000  1
  Er  Er2  1  0.999052  0.242695  0.250000  1
  Er  Er3  1  0.240151  0.000000  0.250000  1
  Lu  Lu4  1  0.673663  0.342292  0.002723  1
  Lu  Lu5  1  0.331369  0.657708  0.497277  1
  Lu  Lu6  1  0.331369  0.657708  0.002723  1
  Lu  Lu7  1  0.673663  0.342292  0.497277  1
  Lu  Lu8  1  0.989509  0.749499  0.750000  1
  Lu  Lu9  1  0.240010  0.250501  0.750000  1
  Si  Si10  1  0.394925  0.393564  0.250000  1
  Si  Si11  1  0.001361  0.606436  0.250000  1
  Si  Si12  1  0.999337  0.395611  0.750000  1
  Si  Si13  1  0.603727  0.604389  0.750000  1
  Si  Si14  1  0.604578  0.000000  0.250000  1
  Sn  Sn15  1  0.394883  0.000000  0.750000  1
