# generated using pymatgen
data_Dy9Ho9(TmSn8)2
_symmetry_space_group_name_H-M   'P 1'
_cell_length_a   8.02100506
_cell_length_b   8.16258406
_cell_length_c   15.42698003
_cell_angle_alpha   90.00502057
_cell_angle_beta   89.99477064
_cell_angle_gamma   90.01305711
_symmetry_Int_Tables_number   1
_chemical_formula_structural   Dy9Ho9(TmSn8)2
_chemical_formula_sum   'Dy9 Ho9 Tm2 Sn16'
_cell_volume   1010.03717782
_cell_formula_units_Z   1
loop_
 _symmetry_equiv_pos_site_id
 _symmetry_equiv_pos_as_xyz
  1  'x, y, z'
loop_
 _atom_site_type_symbol
 _atom_site_label
 _atom_site_symmetry_multiplicity
 _atom_site_fract_x
 _atom_site_fract_y
 _atom_site_fract_z
 _atom_site_occupancy
  Dy  Dy0  1  0.867703  0.662726  0.877460  1
  Dy  Dy1  1  0.520733  0.320706  0.902606  1
  Dy  Dy2  1  0.020810  0.179252  0.597390  1
  Dy  Dy3  1  0.479358  0.679207  0.402926  1
  Dy  Dy4  1  0.979406  0.820834  0.097177  1
  Dy  Dy5  1  0.479407  0.679167  0.097071  1
  Dy  Dy6  1  0.979361  0.820805  0.402915  1
  Dy  Dy7  1  0.520794  0.320735  0.597396  1
  Dy  Dy8  1  0.020815  0.179189  0.902576  1
  Ho  Ho9  1  0.367569  0.837307  0.877429  1
  Ho  Ho10  1  0.867591  0.662652  0.622528  1
  Ho  Ho11  1  0.632422  0.162753  0.377912  1
  Ho  Ho12  1  0.132386  0.337263  0.122074  1
  Ho  Ho13  1  0.632396  0.162759  0.122148  1
  Ho  Ho14  1  0.132414  0.337225  0.377908  1
  Ho  Ho15  1  0.367628  0.837316  0.622538  1
  Ho  Ho16  1  0.801202  0.496651  0.250020  1
  Ho  Ho17  1  0.301209  0.003351  0.250002  1
  Tm  Tm18  1  0.198706  0.503469  0.749947  1
  Tm  Tm19  1  0.698533  0.996603  0.749915  1
  Sn  Sn20  1  0.293071  0.037036  0.041498  1
  Sn  Sn21  1  0.793062  0.462968  0.458505  1
  Sn  Sn22  1  0.707145  0.963394  0.542304  1
  Sn  Sn23  1  0.207441  0.536529  0.957735  1
  Sn  Sn24  1  0.706956  0.963681  0.957745  1
  Sn  Sn25  1  0.207134  0.536604  0.542294  1
  Sn  Sn26  1  0.293060  0.037039  0.458498  1
  Sn  Sn27  1  0.793001  0.462797  0.041667  1
  Sn  Sn28  1  0.564411  0.618495  0.749935  1
  Sn  Sn29  1  0.064652  0.881618  0.749933  1
  Sn  Sn30  1  0.434728  0.380887  0.250004  1
  Sn  Sn31  1  0.934732  0.119114  0.250005  1
  Sn  Sn32  1  0.330157  0.148820  0.749995  1
  Sn  Sn33  1  0.830137  0.351066  0.749946  1
  Sn  Sn34  1  0.669943  0.852314  0.249998  1
  Sn  Sn35  1  0.169928  0.647668  0.249999  1
