# generated using pymatgen
data_YGa2Co2Ni
_symmetry_space_group_name_H-M   'P 1'
_cell_length_a   8.97051500
_cell_length_b   9.02200913
_cell_length_c   3.83640500
_cell_angle_alpha   90.00000000
_cell_angle_beta   90.00000000
_cell_angle_gamma   119.81136899
_symmetry_Int_Tables_number   1
_chemical_formula_structural   YGa2Co2Ni
_chemical_formula_sum   'Y3 Ga6 Co6 Ni3'
_cell_volume   269.40030249
_cell_formula_units_Z   3
loop_
 _symmetry_equiv_pos_site_id
 _symmetry_equiv_pos_as_xyz
  1  'x, y, z'
loop_
 _atom_site_type_symbol
 _atom_site_label
 _atom_site_symmetry_multiplicity
 _atom_site_fract_x
 _atom_site_fract_y
 _atom_site_fract_z
 _atom_site_occupancy
  Y  Y0  1  0.998010  0.996020  0.000000  1
  Y  Y1  1  0.334457  0.668916  0.500000  1
  Y  Y2  1  0.667219  0.334437  0.500000  1
  Ga  Ga3  1  0.315764  0.000216  0.500000  1
  Ga  Ga4  1  0.318055  0.315711  0.500000  1
  Ga  Ga5  1  0.000905  0.685069  0.500000  1
  Ga  Ga6  1  0.997657  0.315711  0.500000  1
  Ga  Ga7  1  0.684163  0.685069  0.500000  1
  Ga  Ga8  1  0.684452  0.000216  0.500000  1
  Co  Co9  1  0.500162  0.000324  0.000000  1
  Co  Co10  1  0.817786  0.180721  0.000000  1
  Co  Co11  1  0.362934  0.180721  0.000000  1
  Co  Co12  1  0.635426  0.819192  0.000000  1
  Co  Co13  1  0.183766  0.819192  0.000000  1
  Co  Co14  1  0.820248  0.640498  0.000000  1
  Ni  Ni15  1  0.500557  0.499232  0.000000  1
  Ni  Ni16  1  0.998675  0.499232  0.000000  1
  Ni  Ni17  1  0.179762  0.359522  0.000000  1
