# generated using pymatgen
data_Sc5Mn(AlRh2)6
_symmetry_space_group_name_H-M   'P 1'
_cell_length_a   4.41202700
_cell_length_b   6.18685300
_cell_length_c   13.17314400
_cell_angle_alpha   90.00026014
_cell_angle_beta   89.99942724
_cell_angle_gamma   89.99977199
_symmetry_Int_Tables_number   1
_chemical_formula_structural   Sc5Mn(AlRh2)6
_chemical_formula_sum   'Sc5 Mn1 Al6 Rh12'
_cell_volume   359.58154826
_cell_formula_units_Z   1
loop_
 _symmetry_equiv_pos_site_id
 _symmetry_equiv_pos_as_xyz
  1  'x, y, z'
loop_
 _atom_site_type_symbol
 _atom_site_label
 _atom_site_symmetry_multiplicity
 _atom_site_fract_x
 _atom_site_fract_y
 _atom_site_fract_z
 _atom_site_occupancy
  Sc  Sc0  1  0.999991  0.500001  0.998337  1
  Sc  Sc1  1  0.499819  0.000000  0.165546  1
  Sc  Sc2  1  0.999819  0.500000  0.333334  1
  Sc  Sc3  1  0.499996  0.000001  0.501113  1
  Sc  Sc4  1  0.000183  0.499998  0.668336  1
  Mn  Mn5  1  0.500202  0.000002  0.833344  1
  Al  Al6  1  0.999969  0.000000  0.997091  1
  Al  Al7  1  0.499861  0.500000  0.164335  1
  Al  Al8  1  0.999828  0.999999  0.333361  1
  Al  Al9  1  0.499998  0.499999  0.502228  1
  Al  Al10  1  0.000162  0.000000  0.669646  1
  Al  Al11  1  0.500168  0.500000  0.833357  1
  Rh  Rh12  1  0.499983  0.245821  0.996791  1
  Rh  Rh13  1  0.499986  0.754177  0.996790  1
  Rh  Rh14  1  0.999838  0.249686  0.166101  1
  Rh  Rh15  1  0.999838  0.750309  0.166102  1
  Rh  Rh16  1  0.499829  0.250347  0.333301  1
  Rh  Rh17  1  0.499827  0.749654  0.333300  1
  Rh  Rh18  1  0.999992  0.249693  0.500567  1
  Rh  Rh19  1  0.999996  0.750309  0.500571  1
  Rh  Rh20  1  0.500181  0.245826  0.669887  1
  Rh  Rh21  1  0.500175  0.754172  0.669885  1
  Rh  Rh22  1  0.000180  0.241460  0.833338  1
  Rh  Rh23  1  0.000181  0.758547  0.833340  1
