# generated using pymatgen
data_Li4Ca2YbPrSi8
_symmetry_space_group_name_H-M   'P 1'
_cell_length_a   3.82940900
_cell_length_b   7.88920412
_cell_length_c   10.60952464
_cell_angle_alpha   89.84407693
_cell_angle_beta   90.00000000
_cell_angle_gamma   90.00000000
_symmetry_Int_Tables_number   1
_chemical_formula_structural   Li4Ca2YbPrSi8
_chemical_formula_sum   'Li4 Ca2 Yb1 Pr1 Si8'
_cell_volume   320.52304840
_cell_formula_units_Z   1
loop_
 _symmetry_equiv_pos_site_id
 _symmetry_equiv_pos_as_xyz
  1  'x, y, z'
loop_
 _atom_site_type_symbol
 _atom_site_label
 _atom_site_symmetry_multiplicity
 _atom_site_fract_x
 _atom_site_fract_y
 _atom_site_fract_z
 _atom_site_occupancy
  Li  Li0  1  0.250000  0.998097  0.388142  1
  Li  Li1  1  0.750000  0.000131  0.610019  1
  Li  Li2  1  0.250000  0.497967  0.111192  1
  Li  Li3  1  0.750000  0.505413  0.888750  1
  Ca  Ca4  1  0.250000  0.635504  0.636169  1
  Ca  Ca5  1  0.750000  0.365931  0.364546  1
  Yb  Yb6  1  0.750000  0.866061  0.134962  1
  Pr  Pr7  1  0.250000  0.131463  0.865705  1
  Si  Si8  1  0.750000  0.269656  0.068596  1
  Si  Si9  1  0.250000  0.734552  0.934292  1
  Si  Si10  1  0.750000  0.767759  0.431294  1
  Si  Si11  1  0.250000  0.229771  0.568656  1
  Si  Si12  1  0.750000  0.833470  0.824320  1
  Si  Si13  1  0.250000  0.162882  0.173765  1
  Si  Si14  1  0.750000  0.333972  0.675844  1
  Si  Si15  1  0.250000  0.667370  0.323748  1
