# generated using pymatgen
data_Lu19Mg(Cd3Ir)2
_symmetry_space_group_name_H-M   'P 1'
_cell_length_a   9.41450028
_cell_length_b   9.41922722
_cell_length_c   9.49513200
_cell_angle_alpha   89.92643395
_cell_angle_beta   90.06615383
_cell_angle_gamma   120.70914050
_symmetry_Int_Tables_number   1
_chemical_formula_structural   Lu19Mg(Cd3Ir)2
_chemical_formula_sum   'Lu19 Mg1 Cd6 Ir2'
_cell_volume   723.92874110
_cell_formula_units_Z   1
loop_
 _symmetry_equiv_pos_site_id
 _symmetry_equiv_pos_as_xyz
  1  'x, y, z'
loop_
 _atom_site_type_symbol
 _atom_site_label
 _atom_site_symmetry_multiplicity
 _atom_site_fract_x
 _atom_site_fract_y
 _atom_site_fract_z
 _atom_site_occupancy
  Lu  Lu0  1  0.999815  0.999747  0.000080  1
  Lu  Lu1  1  0.208038  0.791858  0.441673  1
  Lu  Lu2  1  0.207818  0.415853  0.441624  1
  Lu  Lu3  1  0.584336  0.792324  0.441499  1
  Lu  Lu4  1  0.791867  0.208152  0.558283  1
  Lu  Lu5  1  0.792331  0.584274  0.558484  1
  Lu  Lu6  1  0.415752  0.207765  0.558473  1
  Lu  Lu7  1  0.790325  0.209622  0.943531  1
  Lu  Lu8  1  0.790434  0.580481  0.943449  1
  Lu  Lu9  1  0.419329  0.209502  0.943417  1
  Lu  Lu10  1  0.209620  0.790204  0.056362  1
  Lu  Lu11  1  0.209594  0.419309  0.056546  1
  Lu  Lu12  1  0.580573  0.790392  0.056508  1
  Lu  Lu13  1  0.541063  0.459121  0.251005  1
  Lu  Lu14  1  0.540714  0.081934  0.251084  1
  Lu  Lu15  1  0.918084  0.459122  0.251098  1
  Lu  Lu16  1  0.459120  0.541009  0.748995  1
  Lu  Lu17  1  0.459052  0.917923  0.748799  1
  Lu  Lu18  1  0.082030  0.540807  0.748845  1
  Mg  Mg19  1  0.000193  0.000456  0.500051  1
  Cd  Cd20  1  0.886995  0.113367  0.254834  1
  Cd  Cd21  1  0.887794  0.773714  0.255428  1
  Cd  Cd22  1  0.226232  0.112673  0.255183  1
  Cd  Cd23  1  0.112774  0.886579  0.745097  1
  Cd  Cd24  1  0.112378  0.226312  0.745004  1
  Cd  Cd25  1  0.773754  0.887540  0.744672  1
  Ir  Ir26  1  0.332334  0.667555  0.250923  1
  Ir  Ir27  1  0.667650  0.332402  0.749051  1
