# generated using pymatgen
data_TbY3Cu3Sb8
_symmetry_space_group_name_H-M   'P 1'
_cell_length_a   10.63734424
_cell_length_b   10.63721137
_cell_length_c   10.63650004
_cell_angle_alpha   146.63361183
_cell_angle_beta   146.63390808
_cell_angle_gamma   47.91774462
_symmetry_Int_Tables_number   1
_chemical_formula_structural   TbY3Cu3Sb8
_chemical_formula_sum   'Tb1 Y3 Cu3 Sb8'
_cell_volume   362.56786746
_cell_formula_units_Z   1
loop_
 _symmetry_equiv_pos_site_id
 _symmetry_equiv_pos_as_xyz
  1  'x, y, z'
loop_
 _atom_site_type_symbol
 _atom_site_label
 _atom_site_symmetry_multiplicity
 _atom_site_fract_x
 _atom_site_fract_y
 _atom_site_fract_z
 _atom_site_occupancy
  Tb  Tb0  1  0.874254  0.366552  0.000002  1
  Y  Y1  1  0.633424  0.633411  0.507660  1
  Y  Y2  1  0.125759  0.125745  0.492330  1
  Y  Y3  1  0.366575  0.874223  0.000002  1
  Cu  Cu4  1  0.999981  0.000001  0.000000  1
  Cu  Cu5  1  0.999993  0.499982  0.499959  1
  Cu  Cu6  1  0.500036  0.000023  0.500041  1
  Sb  Sb7  1  0.333521  0.333543  0.515199  1
  Sb  Sb8  1  0.818321  0.818343  0.484800  1
  Sb  Sb9  1  0.666488  0.181694  0.000003  1
  Sb  Sb10  1  0.181674  0.666494  0.000002  1
  Sb  Sb11  1  0.249957  0.250009  0.000002  1
  Sb  Sb12  1  0.749964  0.749947  0.000003  1
  Sb  Sb13  1  0.750029  0.250018  0.500003  1
  Sb  Sb14  1  0.250025  0.750014  0.499995  1
