# generated using pymatgen
data_PrNd11Ga4(GeRh2)4
_symmetry_space_group_name_H-M   'P 1'
_cell_length_a   5.75661604
_cell_length_b   8.17655020
_cell_length_c   13.47519479
_cell_angle_alpha   90.04772535
_cell_angle_beta   90.05613336
_cell_angle_gamma   90.03982802
_symmetry_Int_Tables_number   1
_chemical_formula_structural   PrNd11Ga4(GeRh2)4
_chemical_formula_sum   'Pr1 Nd11 Ga4 Ge4 Rh8'
_cell_volume   634.26676951
_cell_formula_units_Z   1
loop_
 _symmetry_equiv_pos_site_id
 _symmetry_equiv_pos_as_xyz
  1  'x, y, z'
loop_
 _atom_site_type_symbol
 _atom_site_label
 _atom_site_symmetry_multiplicity
 _atom_site_fract_x
 _atom_site_fract_y
 _atom_site_fract_z
 _atom_site_occupancy
  Pr  Pr0  1  0.149007  0.395545  0.099874  1
  Nd  Nd1  1  0.638181  0.251230  0.250410  1
  Nd  Nd2  1  0.361863  0.748578  0.749908  1
  Nd  Nd3  1  0.362009  0.751748  0.250210  1
  Nd  Nd4  1  0.638206  0.248662  0.749999  1
  Nd  Nd5  1  0.849082  0.604709  0.899644  1
  Nd  Nd6  1  0.849050  0.604265  0.599959  1
  Nd  Nd7  1  0.849235  0.895815  0.400067  1
  Nd  Nd8  1  0.150830  0.395732  0.400100  1
  Nd  Nd9  1  0.150819  0.104190  0.600025  1
  Nd  Nd10  1  0.150820  0.103787  0.899684  1
  Nd  Nd11  1  0.849206  0.895722  0.100134  1
  Ga  Ga12  1  0.636887  0.249646  0.999709  1
  Ga  Ga13  1  0.363631  0.750452  0.999751  1
  Ga  Ga14  1  0.363298  0.749971  0.499991  1
  Ga  Ga15  1  0.636717  0.249982  0.500036  1
  Ge  Ge16  1  0.139365  0.107275  0.250506  1
  Ge  Ge17  1  0.860696  0.891872  0.750004  1
  Ge  Ge18  1  0.859883  0.608908  0.250559  1
  Ge  Ge19  1  0.139049  0.391821  0.749931  1
  Rh  Rh20  1  0.371891  0.029893  0.093694  1
  Rh  Rh21  1  0.628700  0.969407  0.906547  1
  Rh  Rh22  1  0.628525  0.969396  0.593484  1
  Rh  Rh23  1  0.628243  0.530436  0.406451  1
  Rh  Rh24  1  0.371716  0.030477  0.406467  1
  Rh  Rh25  1  0.371434  0.469414  0.593491  1
  Rh  Rh26  1  0.372583  0.469821  0.905969  1
  Rh  Rh27  1  0.629078  0.531248  0.093396  1
