# generated using pymatgen
data_Y5Hf(SnIr)6
_symmetry_space_group_name_H-M   'P 1'
_cell_length_a   7.46411685
_cell_length_b   7.57270508
_cell_length_c   7.81488800
_cell_angle_alpha   90.00000000
_cell_angle_beta   90.00000000
_cell_angle_gamma   120.49753082
_symmetry_Int_Tables_number   1
_chemical_formula_structural   Y5Hf(SnIr)6
_chemical_formula_sum   'Y5 Hf1 Sn6 Ir6'
_cell_volume   380.61302325
_cell_formula_units_Z   1
loop_
 _symmetry_equiv_pos_site_id
 _symmetry_equiv_pos_as_xyz
  1  'x, y, z'
loop_
 _atom_site_type_symbol
 _atom_site_label
 _atom_site_symmetry_multiplicity
 _atom_site_fract_x
 _atom_site_fract_y
 _atom_site_fract_z
 _atom_site_occupancy
  Y  Y0  1  0.405953  0.004785  0.250000  1
  Y  Y1  1  0.596395  0.593016  0.750000  1
  Y  Y2  1  0.595429  0.597247  0.250000  1
  Y  Y3  1  0.001016  0.409519  0.750000  1
  Y  Y4  1  0.403501  0.995855  0.750000  1
  Hf  Hf5  1  0.998982  0.397295  0.250000  1
  Sn  Sn6  1  0.264230  0.261764  0.501332  1
  Sn  Sn7  1  0.264230  0.261764  0.998668  1
  Sn  Sn8  1  0.735338  0.996782  0.998900  1
  Sn  Sn9  1  0.000331  0.744447  0.490394  1
  Sn  Sn10  1  0.735338  0.996782  0.501100  1
  Sn  Sn11  1  0.000331  0.744447  0.009606  1
  Ir  Ir12  1  0.684492  0.337180  0.485789  1
  Ir  Ir13  1  0.684492  0.337180  0.014211  1
  Ir  Ir14  1  0.314985  0.652354  0.018276  1
  Ir  Ir15  1  0.314985  0.652354  0.481724  1
  Ir  Ir16  1  0.000012  0.999250  0.750000  1
  Ir  Ir17  1  0.999960  0.017976  0.250000  1
