# generated using pymatgen
data_Tb3ErAl24Ir2Pt7
_symmetry_space_group_name_H-M   'P 1'
_cell_length_a   7.51118953
_cell_length_b   7.51022632
_cell_length_c   13.17651122
_cell_angle_alpha   84.52909186
_cell_angle_beta   100.91465118
_cell_angle_gamma   119.78054090
_symmetry_Int_Tables_number   1
_chemical_formula_structural   Tb3ErAl24Ir2Pt7
_chemical_formula_sum   'Tb3 Er1 Al24 Ir2 Pt7'
_cell_volume   633.46161370
_cell_formula_units_Z   1
loop_
 _symmetry_equiv_pos_site_id
 _symmetry_equiv_pos_as_xyz
  1  'x, y, z'
loop_
 _atom_site_type_symbol
 _atom_site_label
 _atom_site_symmetry_multiplicity
 _atom_site_fract_x
 _atom_site_fract_y
 _atom_site_fract_z
 _atom_site_occupancy
  Tb  Tb0  1  0.731920  0.998564  0.190107  1
  Tb  Tb1  1  0.267302  0.001438  0.809768  1
  Tb  Tb2  1  0.061984  0.668736  0.190499  1
  Er  Er3  1  0.938492  0.331583  0.809574  1
  Al  Al4  1  0.809910  0.870468  0.817686  1
  Al  Al5  1  0.190674  0.129281  0.182269  1
  Al  Al6  1  0.985123  0.668630  0.946227  1
  Al  Al7  1  0.020249  0.334317  0.053093  1
  Al  Al8  1  0.396298  0.662620  0.818905  1
  Al  Al9  1  0.601370  0.335736  0.182718  1
  Al  Al10  1  0.882381  0.664771  0.673028  1
  Al  Al11  1  0.117740  0.334713  0.326515  1
  Al  Al12  1  0.603602  0.458541  0.816869  1
  Al  Al13  1  0.397286  0.543489  0.181461  1
  Al  Al14  1  0.230810  0.340473  0.670831  1
  Al  Al15  1  0.769120  0.659571  0.329439  1
  Al  Al16  1  0.853423  0.333539  0.559260  1
  Al  Al17  1  0.186476  0.999450  0.559059  1
  Al  Al18  1  0.814159  0.000136  0.440954  1
  Al  Al19  1  0.348722  0.996588  0.053588  1
  Al  Al20  1  0.648335  0.998216  0.946554  1
  Al  Al21  1  0.557091  0.992456  0.673595  1
  Al  Al22  1  0.443583  0.007526  0.327074  1
  Al  Al23  1  0.521592  0.668616  0.561689  1
  Al  Al24  1  0.478395  0.331666  0.438160  1
  Al  Al25  1  0.682048  0.671075  0.042626  1
  Al  Al26  1  0.314260  0.332319  0.957164  1
  Al  Al27  1  0.146832  0.665808  0.441065  1
  Ir  Ir28  1  0.328488  0.671130  0.999836  1
  Ir  Ir29  1  0.999790  0.000480  0.999807  1
  Pt  Pt30  1  0.546169  0.324670  0.637033  1
  Pt  Pt31  1  0.454208  0.674772  0.362774  1
  Pt  Pt32  1  0.887684  0.008491  0.638499  1
  Pt  Pt33  1  0.112522  0.991783  0.361772  1
  Pt  Pt34  1  0.671555  0.328606  0.999892  1
  Pt  Pt35  1  0.204119  0.666766  0.638683  1
  Pt  Pt36  1  0.796285  0.332969  0.361927  1
