# generated using pymatgen
data_LaSmSb2(H2Rh)2
_symmetry_space_group_name_H-M   'P 1'
_cell_length_a   4.52461100
_cell_length_b   4.52461169
_cell_length_c   8.63808500
_cell_angle_alpha   90.00000000
_cell_angle_beta   90.00000000
_cell_angle_gamma   120.00001688
_symmetry_Int_Tables_number   1
_chemical_formula_structural   LaSmSb2(H2Rh)2
_chemical_formula_sum   'La1 Sm1 Sb2 H4 Rh2'
_cell_volume   153.14773968
_cell_formula_units_Z   1
loop_
 _symmetry_equiv_pos_site_id
 _symmetry_equiv_pos_as_xyz
  1  'x, y, z'
loop_
 _atom_site_type_symbol
 _atom_site_label
 _atom_site_symmetry_multiplicity
 _atom_site_fract_x
 _atom_site_fract_y
 _atom_site_fract_z
 _atom_site_occupancy
  La  La0  1  0.000000  0.000000  0.000000  1
  Sm  Sm1  1  0.000000  0.000000  0.500000  1
  Sb  Sb2  1  0.666667  0.333333  0.746224  1
  Sb  Sb3  1  0.333333  0.666667  0.253776  1
  H  H4  1  0.666667  0.333333  0.057137  1
  H  H5  1  0.333333  0.666667  0.942863  1
  H  H6  1  0.666667  0.333333  0.453711  1
  H  H7  1  0.333333  0.666667  0.546289  1
  Rh  Rh8  1  0.333333  0.666667  0.743408  1
  Rh  Rh9  1  0.666667  0.333333  0.256592  1
