# generated using pymatgen
data_Ho4Al24Pd6Pt2Rh
_symmetry_space_group_name_H-M   'P 1'
_cell_length_a   7.51790999
_cell_length_b   7.54580298
_cell_length_c   13.17403769
_cell_angle_alpha   84.57932306
_cell_angle_beta   79.11867701
_cell_angle_gamma   59.93762802
_symmetry_Int_Tables_number   1
_chemical_formula_structural   Ho4Al24Pd6Pt2Rh
_chemical_formula_sum   'Ho4 Al24 Pd6 Pt2 Rh1'
_cell_volume   635.18360750
_cell_formula_units_Z   1
loop_
 _symmetry_equiv_pos_site_id
 _symmetry_equiv_pos_as_xyz
  1  'x, y, z'
loop_
 _atom_site_type_symbol
 _atom_site_label
 _atom_site_symmetry_multiplicity
 _atom_site_fract_x
 _atom_site_fract_y
 _atom_site_fract_z
 _atom_site_occupancy
  Ho  Ho0  1  0.393559  0.168483  0.809146  1
  Ho  Ho1  1  0.606441  0.831517  0.190854  1
  Ho  Ho2  1  0.733650  0.497833  0.809053  1
  Ho  Ho3  1  0.266350  0.502167  0.190947  1
  Al  Al4  1  0.687463  0.830514  0.945412  1
  Al  Al5  1  0.312537  0.169486  0.054588  1
  Al  Al6  1  0.146190  0.832640  0.561443  1
  Al  Al7  1  0.853810  0.167360  0.438557  1
  Al  Al8  1  0.479045  0.166829  0.559260  1
  Al  Al9  1  0.520955  0.833171  0.440740  1
  Al  Al10  1  0.217482  0.165007  0.328699  1
  Al  Al11  1  0.782518  0.834993  0.671301  1
  Al  Al12  1  0.436353  0.507194  0.671220  1
  Al  Al13  1  0.563647  0.492806  0.328780  1
  Al  Al14  1  0.108818  0.159912  0.669817  1
  Al  Al15  1  0.891182  0.840088  0.330183  1
  Al  Al16  1  0.349316  0.499719  0.945651  1
  Al  Al17  1  0.650684  0.500281  0.054349  1
  Al  Al18  1  0.015297  0.171428  0.954640  1
  Al  Al19  1  0.984703  0.828572  0.045360  1
  Al  Al20  1  0.186831  0.499511  0.440743  1
  Al  Al21  1  0.813169  0.500489  0.559257  1
  Al  Al22  1  0.733465  0.163513  0.183298  1
  Al  Al23  1  0.266535  0.836487  0.816702  1
  Al  Al24  1  0.061160  0.629356  0.817540  1
  Al  Al25  1  0.938840  0.370644  0.182460  1
  Al  Al26  1  0.855156  0.042225  0.816366  1
  Al  Al27  1  0.144844  0.957775  0.183634  1
  Pd  Pd28  1  0.656629  0.171622  0.999724  1
  Pd  Pd29  1  0.343371  0.828378  0.000276  1
  Pd  Pd30  1  0.537751  0.166754  0.361974  1
  Pd  Pd31  1  0.462249  0.833246  0.638026  1
  Pd  Pd32  1  0.778076  0.174962  0.637402  1
  Pd  Pd33  1  0.221924  0.825038  0.362598  1
  Pt  Pt34  1  0.119691  0.492477  0.638522  1
  Pt  Pt35  1  0.880309  0.507523  0.361478  1
  Rh  Rh36  1  0.000000  0.500000  0.000000  1
