# generated using pymatgen
data_Y4LuOs2
_symmetry_space_group_name_H-M   'P 1'
_cell_length_a   6.33639091
_cell_length_b   7.38300243
_cell_length_c   8.40724184
_cell_angle_alpha   96.79325619
_cell_angle_beta   112.13815456
_cell_angle_gamma   89.99999288
_symmetry_Int_Tables_number   1
_chemical_formula_structural   Y4LuOs2
_chemical_formula_sum   'Y8 Lu2 Os4'
_cell_volume   361.32620091
_cell_formula_units_Z   2
loop_
 _symmetry_equiv_pos_site_id
 _symmetry_equiv_pos_as_xyz
  1  'x, y, z'
loop_
 _atom_site_type_symbol
 _atom_site_label
 _atom_site_symmetry_multiplicity
 _atom_site_fract_x
 _atom_site_fract_y
 _atom_site_fract_z
 _atom_site_occupancy
  Y  Y0  1  0.526649  0.082429  0.818399  1
  Y  Y1  1  0.473351  0.917571  0.181601  1
  Y  Y2  1  0.708249  0.417571  0.181601  1
  Y  Y3  1  0.291751  0.582429  0.818399  1
  Y  Y4  1  0.295974  0.318587  0.434797  1
  Y  Y5  1  0.704026  0.681413  0.565203  1
  Y  Y6  1  0.861177  0.181413  0.565203  1
  Y  Y7  1  0.138823  0.818587  0.434797  1
  Lu  Lu8  1  0.078624  0.250000  0.000000  1
  Lu  Lu9  1  0.921376  0.750000  0.000000  1
  Os  Os10  1  0.315150  0.576915  0.214244  1
  Os  Os11  1  0.684850  0.423085  0.785756  1
  Os  Os12  1  0.100906  0.923085  0.785756  1
  Os  Os13  1  0.899094  0.076915  0.214244  1
