# generated using pymatgen
data_Tb4Cd3Co2
_symmetry_space_group_name_H-M   'P 1'
_cell_length_a   3.71792700
_cell_length_b   7.39894376
_cell_length_c   8.01694662
_cell_angle_alpha   71.14142715
_cell_angle_beta   90.00000000
_cell_angle_gamma   90.00000000
_symmetry_Int_Tables_number   1
_chemical_formula_structural   Tb4Cd3Co2
_chemical_formula_sum   'Tb4 Cd3 Co2'
_cell_volume   208.69751692
_cell_formula_units_Z   1
loop_
 _symmetry_equiv_pos_site_id
 _symmetry_equiv_pos_as_xyz
  1  'x, y, z'
loop_
 _atom_site_type_symbol
 _atom_site_label
 _atom_site_symmetry_multiplicity
 _atom_site_fract_x
 _atom_site_fract_y
 _atom_site_fract_z
 _atom_site_occupancy
  Tb  Tb0  1  0.500000  0.602295  0.188394  1
  Tb  Tb1  1  0.500000  0.397705  0.811606  1
  Tb  Tb2  1  0.500000  0.093948  0.275841  1
  Tb  Tb3  1  0.500000  0.906052  0.724159  1
  Cd  Cd4  1  0.000000  0.705721  0.502903  1
  Cd  Cd5  1  0.000000  0.000000  0.000000  1
  Cd  Cd6  1  0.000000  0.294279  0.497097  1
  Co  Co7  1  0.000000  0.648568  0.895848  1
  Co  Co8  1  0.000000  0.351432  0.104152  1
