# generated using pymatgen
data_TaTi6Ga5Ru12
_symmetry_space_group_name_H-M   'P 1'
_cell_length_a   4.33017300
_cell_length_b   6.17403100
_cell_length_c   12.97135700
_cell_angle_alpha   90.00000000
_cell_angle_beta   89.99805792
_cell_angle_gamma   90.00000000
_symmetry_Int_Tables_number   1
_chemical_formula_structural   TaTi6Ga5Ru12
_chemical_formula_sum   'Ta1 Ti6 Ga5 Ru12'
_cell_volume   346.78433050
_cell_formula_units_Z   1
loop_
 _symmetry_equiv_pos_site_id
 _symmetry_equiv_pos_as_xyz
  1  'x, y, z'
loop_
 _atom_site_type_symbol
 _atom_site_label
 _atom_site_symmetry_multiplicity
 _atom_site_fract_x
 _atom_site_fract_y
 _atom_site_fract_z
 _atom_site_occupancy
  Ta  Ta0  1  0.000000  0.000000  0.000000  1
  Ti  Ti1  1  0.000000  0.500000  0.000000  1
  Ti  Ti2  1  0.499890  0.000000  0.176130  1
  Ti  Ti3  1  0.999849  0.500000  0.335935  1
  Ti  Ti4  1  0.500001  0.000000  0.500000  1
  Ti  Ti5  1  0.000151  0.500000  0.664066  1
  Ti  Ti6  1  0.500110  0.000000  0.823870  1
  Ga  Ga7  1  0.499929  0.500000  0.167606  1
  Ga  Ga8  1  0.999816  0.000000  0.334617  1
  Ga  Ga9  1  0.500001  0.500000  0.500000  1
  Ga  Ga10  1  0.000184  0.000000  0.665383  1
  Ga  Ga11  1  0.500071  0.500000  0.832395  1
  Ru  Ru12  1  0.500001  0.249894  0.000000  1
  Ru  Ru13  1  0.500001  0.750106  0.000000  1
  Ru  Ru14  1  0.999818  0.248853  0.165221  1
  Ru  Ru15  1  0.999818  0.751147  0.165221  1
  Ru  Ru16  1  0.499814  0.251802  0.333701  1
  Ru  Ru17  1  0.499814  0.748198  0.333701  1
  Ru  Ru18  1  0.000000  0.250199  0.500000  1
  Ru  Ru19  1  0.000000  0.749801  0.500000  1
  Ru  Ru20  1  0.500186  0.251802  0.666299  1
  Ru  Ru21  1  0.500186  0.748198  0.666299  1
  Ru  Ru22  1  0.000182  0.248853  0.834779  1
  Ru  Ru23  1  0.000182  0.751147  0.834779  1
