# generated using pymatgen
data_Tm4Zn2Os5W
_symmetry_space_group_name_H-M   'P 1'
_cell_length_a   5.44636303
_cell_length_b   5.26230377
_cell_length_c   8.85443600
_cell_angle_alpha   90.00000000
_cell_angle_beta   90.00000000
_cell_angle_gamma   120.78167809
_symmetry_Int_Tables_number   1
_chemical_formula_structural   Tm4Zn2Os5W
_chemical_formula_sum   'Tm4 Zn2 Os5 W1'
_cell_volume   218.02136210
_cell_formula_units_Z   1
loop_
 _symmetry_equiv_pos_site_id
 _symmetry_equiv_pos_as_xyz
  1  'x, y, z'
loop_
 _atom_site_type_symbol
 _atom_site_label
 _atom_site_symmetry_multiplicity
 _atom_site_fract_x
 _atom_site_fract_y
 _atom_site_fract_z
 _atom_site_occupancy
  Tm  Tm0  1  0.676391  0.344196  0.565078  1
  Tm  Tm1  1  0.345003  0.672397  0.442070  1
  Tm  Tm2  1  0.345003  0.672397  0.057930  1
  Tm  Tm3  1  0.676391  0.344196  0.934922  1
  Zn  Zn4  1  0.803079  0.643568  0.250000  1
  Zn  Zn5  1  0.809835  0.159866  0.250000  1
  Os  Os6  1  0.028054  0.021221  0.494570  1
  Os  Os7  1  0.028054  0.021221  0.005430  1
  Os  Os8  1  0.171414  0.825952  0.750000  1
  Os  Os9  1  0.647029  0.821301  0.750000  1
  Os  Os10  1  0.307793  0.148697  0.250000  1
  W  W11  1  0.161955  0.324987  0.750000  1
