# generated using pymatgen
data_Ho4MnTc3B8
_symmetry_space_group_name_H-M   'P 1'
_cell_length_a   5.25182400
_cell_length_b   5.90553153
_cell_length_c   6.37393084
_cell_angle_alpha   90.54316390
_cell_angle_beta   90.00000000
_cell_angle_gamma   90.00000000
_symmetry_Int_Tables_number   1
_chemical_formula_structural   Ho4MnTc3B8
_chemical_formula_sum   'Ho4 Mn1 Tc3 B8'
_cell_volume   197.67738512
_cell_formula_units_Z   1
loop_
 _symmetry_equiv_pos_site_id
 _symmetry_equiv_pos_as_xyz
  1  'x, y, z'
loop_
 _atom_site_type_symbol
 _atom_site_label
 _atom_site_symmetry_multiplicity
 _atom_site_fract_x
 _atom_site_fract_y
 _atom_site_fract_z
 _atom_site_occupancy
  Ho  Ho0  1  0.250000  0.013154  0.339810  1
  Ho  Ho1  1  0.250000  0.512163  0.160747  1
  Ho  Ho2  1  0.750000  0.987760  0.659007  1
  Ho  Ho3  1  0.750000  0.488512  0.840834  1
  Mn  Mn4  1  0.750000  0.321474  0.316690  1
  Tc  Tc5  1  0.250000  0.183164  0.814606  1
  Tc  Tc6  1  0.250000  0.680104  0.683556  1
  Tc  Tc7  1  0.750000  0.819131  0.186735  1
  B  B8  1  0.074267  0.367225  0.532696  1
  B  B9  1  0.422723  0.872758  0.964224  1
  B  B10  1  0.579863  0.622064  0.459297  1
  B  B11  1  0.919886  0.135221  0.042790  1
  B  B12  1  0.920137  0.622064  0.459297  1
  B  B13  1  0.580114  0.135221  0.042790  1
  B  B14  1  0.425733  0.367225  0.532696  1
  B  B15  1  0.077277  0.872758  0.964224  1
