# generated using pymatgen
data_Hf3U(Co2Au)2
_symmetry_space_group_name_H-M   'P 1'
_cell_length_a   7.02055304
_cell_length_b   7.02055335
_cell_length_c   3.29709900
_cell_angle_alpha   90.00000000
_cell_angle_beta   90.00000000
_cell_angle_gamma   92.28008212
_symmetry_Int_Tables_number   1
_chemical_formula_structural   Hf3U(Co2Au)2
_chemical_formula_sum   'Hf3 U1 Co4 Au2'
_cell_volume   162.37930671
_cell_formula_units_Z   1
loop_
 _symmetry_equiv_pos_site_id
 _symmetry_equiv_pos_as_xyz
  1  'x, y, z'
loop_
 _atom_site_type_symbol
 _atom_site_label
 _atom_site_symmetry_multiplicity
 _atom_site_fract_x
 _atom_site_fract_y
 _atom_site_fract_z
 _atom_site_occupancy
  Hf  Hf0  1  0.324809  0.824809  0.500000  1
  Hf  Hf1  1  0.832131  0.668728  0.500000  1
  Hf  Hf2  1  0.168728  0.332131  0.500000  1
  U  U3  1  0.668451  0.168451  0.500000  1
  Co  Co4  1  0.388998  0.138048  0.000000  1
  Co  Co5  1  0.850185  0.350185  0.000000  1
  Co  Co6  1  0.117507  0.617507  0.000000  1
  Co  Co7  1  0.638048  0.888998  0.000000  1
  Au  Au8  1  0.016959  0.994184  0.000000  1
  Au  Au9  1  0.494184  0.516959  0.000000  1
