# generated using pymatgen
data_Na2Cd2(MoO4)3
_symmetry_space_group_name_H-M   'P 1'
_cell_length_a   7.36569833
_cell_length_b   9.19293942
_cell_length_c   10.89606625
_cell_angle_alpha   105.85104052
_cell_angle_beta   106.22304806
_cell_angle_gamma   103.25143109
_symmetry_Int_Tables_number   1
_chemical_formula_structural   Na2Cd2(MoO4)3
_chemical_formula_sum   'Na4 Cd4 Mo6 O24'
_cell_volume   643.12072625
_cell_formula_units_Z   2
loop_
 _symmetry_equiv_pos_site_id
 _symmetry_equiv_pos_as_xyz
  1  'x, y, z'
loop_
 _atom_site_type_symbol
 _atom_site_label
 _atom_site_symmetry_multiplicity
 _atom_site_fract_x
 _atom_site_fract_y
 _atom_site_fract_z
 _atom_site_occupancy
  Na  Na0  1  0.785319  0.792130  0.296740  1
  Na  Na1  1  0.216344  0.204476  0.706652  1
  Na  Na2  1  0.451805  0.996233  0.976467  1
  Na  Na3  1  0.958151  0.039701  0.067289  1
  Cd  Cd4  1  0.877048  0.453301  0.109795  1
  Cd  Cd5  1  0.125042  0.547671  0.890941  1
  Cd  Cd6  1  0.460636  0.289692  0.484111  1
  Cd  Cd7  1  0.545374  0.710533  0.518629  1
  Mo  Mo8  1  0.277802  0.839781  0.230895  1
  Mo  Mo9  1  0.723783  0.161240  0.771905  1
  Mo  Mo10  1  0.913359  0.226820  0.365720  1
  Mo  Mo11  1  0.099264  0.770857  0.631653  1
  Mo  Mo12  1  0.615913  0.596015  0.834311  1
  Mo  Mo13  1  0.382852  0.404716  0.169313  1
  O  O14  1  0.303148  0.045154  0.303820  1
  O  O15  1  0.683021  0.956406  0.688765  1
  O  O16  1  0.038112  0.728001  0.224886  1
  O  O17  1  0.963763  0.270665  0.777182  1
  O  O18  1  0.190499  0.479801  0.089691  1
  O  O19  1  0.816065  0.528721  0.916637  1
  O  O20  1  0.743413  0.281772  0.443588  1
  O  O21  1  0.246209  0.701332  0.538340  1
  O  O22  1  0.612166  0.502448  0.154542  1
  O  O23  1  0.388545  0.489720  0.846399  1
  O  O24  1  0.276702  0.806209  0.058452  1
  O  O25  1  0.732503  0.188470  0.946963  1
  O  O26  1  0.968266  0.341761  0.263116  1
  O  O27  1  0.050781  0.651324  0.731471  1
  O  O28  1  0.303566  0.194605  0.082368  1
  O  O29  1  0.675189  0.803889  0.921050  1
  O  O30  1  0.865831  0.764575  0.512600  1
  O  O31  1  0.143067  0.245005  0.495143  1
  O  O32  1  0.802432  0.024619  0.245318  1
  O  O33  1  0.240150  0.971402  0.750003  1
  O  O34  1  0.479753  0.792444  0.332479  1
  O  O35  1  0.529718  0.220738  0.676070  1
  O  O36  1  0.425474  0.447616  0.349470  1
  O  O37  1  0.580437  0.555556  0.655128  1
