# generated using pymatgen
data_Er4Zn2B4Ir9Rh
_symmetry_space_group_name_H-M   'P 1'
_cell_length_a   9.58509458
_cell_length_b   9.59802059
_cell_length_c   3.13133300
_cell_angle_alpha   90.00000000
_cell_angle_beta   90.00000000
_cell_angle_gamma   89.95998310
_symmetry_Int_Tables_number   1
_chemical_formula_structural   Er4Zn2B4Ir9Rh
_chemical_formula_sum   'Er4 Zn2 B4 Ir9 Rh1'
_cell_volume   288.07609995
_cell_formula_units_Z   1
loop_
 _symmetry_equiv_pos_site_id
 _symmetry_equiv_pos_as_xyz
  1  'x, y, z'
loop_
 _atom_site_type_symbol
 _atom_site_label
 _atom_site_symmetry_multiplicity
 _atom_site_fract_x
 _atom_site_fract_y
 _atom_site_fract_z
 _atom_site_occupancy
  Er  Er0  1  0.322545  0.822019  0.000000  1
  Er  Er1  1  0.677924  0.177577  0.000000  1
  Er  Er2  1  0.177531  0.322726  0.000000  1
  Er  Er3  1  0.820410  0.677127  0.000000  1
  Zn  Zn4  1  0.500437  0.500915  0.000000  1
  Zn  Zn5  1  0.000665  0.999744  0.000000  1
  B  B6  1  0.123772  0.624250  0.000000  1
  B  B7  1  0.875835  0.375460  0.000000  1
  B  B8  1  0.375773  0.124334  0.000000  1
  B  B9  1  0.625376  0.878781  0.000000  1
  Ir  Ir10  1  0.432497  0.279770  0.500000  1
  Ir  Ir11  1  0.933362  0.219669  0.500000  1
  Ir  Ir12  1  0.067011  0.779665  0.500000  1
  Ir  Ir13  1  0.780150  0.931381  0.500000  1
  Ir  Ir14  1  0.220458  0.067500  0.500000  1
  Ir  Ir15  1  0.279730  0.567369  0.500000  1
  Ir  Ir16  1  0.719546  0.431375  0.500000  1
  Ir  Ir17  1  0.999083  0.500240  0.500000  1
  Ir  Ir18  1  0.500513  0.999442  0.500000  1
  Rh  Rh19  1  0.567382  0.720656  0.500000  1
