# generated using pymatgen
data_BaPdAu4
_symmetry_space_group_name_H-M   'P 1'
_cell_length_a   5.80147500
_cell_length_b   5.75602445
_cell_length_c   4.64163700
_cell_angle_alpha   90.00000000
_cell_angle_beta   90.00000000
_cell_angle_gamma   120.26154300
_symmetry_Int_Tables_number   1
_chemical_formula_structural   BaPdAu4
_chemical_formula_sum   'Ba1 Pd1 Au4'
_cell_volume   133.87893289
_cell_formula_units_Z   1
loop_
 _symmetry_equiv_pos_site_id
 _symmetry_equiv_pos_as_xyz
  1  'x, y, z'
loop_
 _atom_site_type_symbol
 _atom_site_label
 _atom_site_symmetry_multiplicity
 _atom_site_fract_x
 _atom_site_fract_y
 _atom_site_fract_z
 _atom_site_occupancy
  Ba  Ba0  1  0.000000  0.000000  0.000000  1
  Pd  Pd1  1  0.500000  0.000000  0.500000  1
  Au  Au2  1  0.000000  0.500000  0.500000  1
  Au  Au3  1  0.340888  0.681776  0.000000  1
  Au  Au4  1  0.659112  0.318224  0.000000  1
  Au  Au5  1  0.500000  0.500000  0.500000  1
