# generated using pymatgen
data_TcMo(Ir2Ru)2
_symmetry_space_group_name_H-M   'P 1'
_cell_length_a   5.52161205
_cell_length_b   5.52161166
_cell_length_c   4.38864300
_cell_angle_alpha   90.00000000
_cell_angle_beta   90.00000000
_cell_angle_gamma   120.31643055
_symmetry_Int_Tables_number   1
_chemical_formula_structural   TcMo(Ir2Ru)2
_chemical_formula_sum   'Tc1 Mo1 Ir4 Ru2'
_cell_volume   115.50452781
_cell_formula_units_Z   1
loop_
 _symmetry_equiv_pos_site_id
 _symmetry_equiv_pos_as_xyz
  1  'x, y, z'
loop_
 _atom_site_type_symbol
 _atom_site_label
 _atom_site_symmetry_multiplicity
 _atom_site_fract_x
 _atom_site_fract_y
 _atom_site_fract_z
 _atom_site_occupancy
  Tc  Tc0  1  0.667847  0.332153  0.250000  1
  Mo  Mo1  1  0.332207  0.667793  0.750000  1
  Ir  Ir2  1  0.164836  0.331342  0.250000  1
  Ir  Ir3  1  0.668658  0.835164  0.250000  1
  Ir  Ir4  1  0.833376  0.664692  0.750000  1
  Ir  Ir5  1  0.335308  0.166624  0.750000  1
  Ru  Ru6  1  0.166148  0.833852  0.250000  1
  Ru  Ru7  1  0.831620  0.168380  0.750000  1
