# generated using pymatgen
data_La8NiHg3
_symmetry_space_group_name_H-M   'P 1'
_cell_length_a   10.79090000
_cell_length_b   10.79090091
_cell_length_c   7.36909200
_cell_angle_alpha   90.00000000
_cell_angle_beta   90.00000000
_cell_angle_gamma   120.00000335
_symmetry_Int_Tables_number   1
_chemical_formula_structural   La8NiHg3
_chemical_formula_sum   'La16 Ni2 Hg6'
_cell_volume   743.12174201
_cell_formula_units_Z   2
loop_
 _symmetry_equiv_pos_site_id
 _symmetry_equiv_pos_as_xyz
  1  'x, y, z'
loop_
 _atom_site_type_symbol
 _atom_site_label
 _atom_site_symmetry_multiplicity
 _atom_site_fract_x
 _atom_site_fract_y
 _atom_site_fract_z
 _atom_site_occupancy
  La  La0  1  0.829431  0.658862  0.483680  1
  La  La1  1  0.341138  0.170569  0.483680  1
  La  La2  1  0.829431  0.170569  0.483680  1
  La  La3  1  0.170569  0.341138  0.983680  1
  La  La4  1  0.658862  0.829431  0.983680  1
  La  La5  1  0.170569  0.829431  0.983680  1
  La  La6  1  0.666667  0.333333  0.183683  1
  La  La7  1  0.333333  0.666667  0.683683  1
  La  La8  1  0.539792  0.079586  0.788868  1
  La  La9  1  0.920414  0.460208  0.788868  1
  La  La10  1  0.539792  0.460208  0.788868  1
  La  La11  1  0.460208  0.920414  0.288868  1
  La  La12  1  0.079586  0.539792  0.288868  1
  La  La13  1  0.460208  0.539792  0.288868  1
  La  La14  1  0.000000  0.000000  0.789446  1
  La  La15  1  0.000000  0.000000  0.289446  1
  Ni  Ni16  1  0.666667  0.333333  0.555206  1
  Ni  Ni17  1  0.333333  0.666667  0.055206  1
  Hg  Hg18  1  0.833582  0.667164  0.039028  1
  Hg  Hg19  1  0.332836  0.166418  0.039028  1
  Hg  Hg20  1  0.833582  0.166418  0.039028  1
  Hg  Hg21  1  0.166418  0.332836  0.539028  1
  Hg  Hg22  1  0.667164  0.833582  0.539028  1
  Hg  Hg23  1  0.166418  0.833582  0.539028  1
