# generated using pymatgen
data_Y20Ir7PdRh4
_symmetry_space_group_name_H-M   'P 1'
_cell_length_a   10.96399437
_cell_length_b   10.96399381
_cell_length_c   6.41504602
_cell_angle_alpha   89.99003745
_cell_angle_beta   89.99003086
_cell_angle_gamma   89.83729631
_symmetry_Int_Tables_number   1
_chemical_formula_structural   Y20Ir7PdRh4
_chemical_formula_sum   'Y20 Ir7 Pd1 Rh4'
_cell_volume   771.14420206
_cell_formula_units_Z   1
loop_
 _symmetry_equiv_pos_site_id
 _symmetry_equiv_pos_as_xyz
  1  'x, y, z'
loop_
 _atom_site_type_symbol
 _atom_site_label
 _atom_site_symmetry_multiplicity
 _atom_site_fract_x
 _atom_site_fract_y
 _atom_site_fract_z
 _atom_site_occupancy
  Y  Y0  1  0.289799  0.089102  0.383121  1
  Y  Y1  1  0.291066  0.910178  0.881827  1
  Y  Y2  1  0.706229  0.087419  0.876230  1
  Y  Y3  1  0.707235  0.905508  0.383942  1
  Y  Y4  1  0.589147  0.790148  0.883724  1
  Y  Y5  1  0.583985  0.210004  0.383234  1
  Y  Y6  1  0.409528  0.790405  0.383097  1
  Y  Y7  1  0.409823  0.209025  0.882622  1
  Y  Y8  1  0.209852  0.410853  0.616276  1
  Y  Y9  1  0.209595  0.590472  0.116903  1
  Y  Y10  1  0.789996  0.416015  0.116766  1
  Y  Y11  1  0.790975  0.590177  0.617378  1
  Y  Y12  1  0.910898  0.710201  0.116879  1
  Y  Y13  1  0.912581  0.293771  0.623770  1
  Y  Y14  1  0.089822  0.708934  0.618173  1
  Y  Y15  1  0.094492  0.292765  0.116058  1
  Y  Y16  1  0.001041  0.997888  0.501039  1
  Y  Y17  1  0.002112  0.998959  0.998961  1
  Y  Y18  1  0.499723  0.499348  0.999413  1
  Y  Y19  1  0.500652  0.500277  0.500587  1
  Ir  Ir20  1  0.845659  0.848065  0.750504  1
  Ir  Ir21  1  0.151935  0.154341  0.749496  1
  Ir  Ir22  1  0.153910  0.846090  0.250000  1
  Ir  Ir23  1  0.655910  0.344090  0.750000  1
  Ir  Ir24  1  0.654689  0.652850  0.249085  1
  Ir  Ir25  1  0.347150  0.345311  0.250915  1
  Ir  Ir26  1  0.345988  0.654012  0.750000  1
  Pd  Pd27  1  0.844989  0.155011  0.250000  1
  Rh  Rh28  1  0.500972  0.000199  0.131596  1
  Rh  Rh29  1  0.500684  0.000239  0.629524  1
  Rh  Rh30  1  0.999761  0.499316  0.870476  1
  Rh  Rh31  1  0.999801  0.499028  0.368404  1
