# generated using pymatgen
data_Dy6Y10MgHg3Pt4
_symmetry_space_group_name_H-M   'P 1'
_cell_length_a   9.67661754
_cell_length_b   9.71219979
_cell_length_c   9.71220000
_cell_angle_alpha   59.92883796
_cell_angle_beta   59.97624534
_cell_angle_gamma   59.97623492
_symmetry_Int_Tables_number   1
_chemical_formula_structural   Dy6Y10MgHg3Pt4
_chemical_formula_sum   'Dy6 Y10 Mg1 Hg3 Pt4'
_cell_volume   644.84271519
_cell_formula_units_Z   1
loop_
 _symmetry_equiv_pos_site_id
 _symmetry_equiv_pos_as_xyz
  1  'x, y, z'
loop_
 _atom_site_type_symbol
 _atom_site_label
 _atom_site_symmetry_multiplicity
 _atom_site_fract_x
 _atom_site_fract_y
 _atom_site_fract_z
 _atom_site_occupancy
  Dy  Dy0  1  0.603297  0.601517  0.601517  1
  Dy  Dy1  1  0.603311  0.601469  0.193758  1
  Dy  Dy2  1  0.603311  0.193758  0.601469  1
  Dy  Dy3  1  0.184151  0.605268  0.605268  1
  Dy  Dy4  1  0.058546  0.441112  0.441112  1
  Dy  Dy5  1  0.437019  0.061764  0.061764  1
  Y  Y6  1  0.437360  0.061492  0.439658  1
  Y  Y7  1  0.058232  0.441478  0.058851  1
  Y  Y8  1  0.437360  0.439658  0.061492  1
  Y  Y9  1  0.058232  0.058851  0.441478  1
  Y  Y10  1  0.184567  0.814369  0.814369  1
  Y  Y11  1  0.812952  0.186369  0.186369  1
  Y  Y12  1  0.812745  0.186551  0.814122  1
  Y  Y13  1  0.184701  0.814204  0.186941  1
  Y  Y14  1  0.812745  0.814122  0.186551  1
  Y  Y15  1  0.184701  0.186941  0.814204  1
  Mg  Mg16  1  0.533034  0.822269  0.822269  1
  Hg  Hg17  1  0.833098  0.838236  0.838236  1
  Hg  Hg18  1  0.833001  0.838336  0.490429  1
  Hg  Hg19  1  0.833001  0.490429  0.838336  1
  Pt  Pt20  1  0.390912  0.395899  0.395899  1
  Pt  Pt21  1  0.392732  0.394081  0.817325  1
  Pt  Pt22  1  0.392732  0.817325  0.394081  1
  Pt  Pt23  1  0.818267  0.394507  0.394507  1
