# generated using pymatgen
data_Y10Zn2InCo
_symmetry_space_group_name_H-M   'P 1'
_cell_length_a   9.57223842
_cell_length_b   9.63621203
_cell_length_c   9.56083100
_cell_angle_alpha   90.00000000
_cell_angle_beta   90.00000000
_cell_angle_gamma   120.22131786
_symmetry_Int_Tables_number   1
_chemical_formula_structural   Y10Zn2InCo
_chemical_formula_sum   'Y20 Zn4 In2 Co2'
_cell_volume   762.03209190
_cell_formula_units_Z   2
loop_
 _symmetry_equiv_pos_site_id
 _symmetry_equiv_pos_as_xyz
  1  'x, y, z'
loop_
 _atom_site_type_symbol
 _atom_site_label
 _atom_site_symmetry_multiplicity
 _atom_site_fract_x
 _atom_site_fract_y
 _atom_site_fract_z
 _atom_site_occupancy
  Y  Y0  1  0.010097  0.005049  0.524054  1
  Y  Y1  1  0.010097  0.005049  0.975946  1
  Y  Y2  1  0.532357  0.448601  0.250000  1
  Y  Y3  1  0.532357  0.083757  0.250000  1
  Y  Y4  1  0.910810  0.455406  0.250000  1
  Y  Y5  1  0.455278  0.543273  0.750000  1
  Y  Y6  1  0.455278  0.912004  0.750000  1
  Y  Y7  1  0.084376  0.542187  0.750000  1
  Y  Y8  1  0.209128  0.788521  0.437598  1
  Y  Y9  1  0.209128  0.420607  0.437598  1
  Y  Y10  1  0.580906  0.790453  0.436315  1
  Y  Y11  1  0.789370  0.208979  0.564510  1
  Y  Y12  1  0.789370  0.580391  0.564510  1
  Y  Y13  1  0.422796  0.211398  0.565849  1
  Y  Y14  1  0.789370  0.208979  0.935490  1
  Y  Y15  1  0.789370  0.580391  0.935490  1
  Y  Y16  1  0.422796  0.211398  0.934151  1
  Y  Y17  1  0.209128  0.788521  0.062402  1
  Y  Y18  1  0.209128  0.420607  0.062402  1
  Y  Y19  1  0.580906  0.790453  0.063685  1
  Zn  Zn20  1  0.222774  0.111388  0.250000  1
  Zn  Zn21  1  0.120347  0.874251  0.750000  1
  Zn  Zn22  1  0.120347  0.246095  0.750000  1
  Zn  Zn23  1  0.759739  0.879869  0.750000  1
  In  In24  1  0.890504  0.111991  0.250000  1
  In  In25  1  0.890504  0.778514  0.250000  1
  Co  Co26  1  0.332058  0.666029  0.250000  1
  Co  Co27  1  0.671679  0.335839  0.750000  1
