# generated using pymatgen
data_LaY3(HfIr)4
_symmetry_space_group_name_H-M   'P 1'
_cell_length_a   4.55791800
_cell_length_b   7.14695738
_cell_length_c   8.39104545
_cell_angle_alpha   90.18116323
_cell_angle_beta   90.00000000
_cell_angle_gamma   90.00000000
_symmetry_Int_Tables_number   1
_chemical_formula_structural   LaY3(HfIr)4
_chemical_formula_sum   'La1 Y3 Hf4 Ir4'
_cell_volume   273.33900075
_cell_formula_units_Z   1
loop_
 _symmetry_equiv_pos_site_id
 _symmetry_equiv_pos_as_xyz
  1  'x, y, z'
loop_
 _atom_site_type_symbol
 _atom_site_label
 _atom_site_symmetry_multiplicity
 _atom_site_fract_x
 _atom_site_fract_y
 _atom_site_fract_z
 _atom_site_occupancy
  La  La0  1  0.250000  0.984550  0.321944  1
  Y  Y1  1  0.250000  0.484810  0.174874  1
  Y  Y2  1  0.750000  0.016883  0.682180  1
  Y  Y3  1  0.750000  0.517855  0.824156  1
  Hf  Hf4  1  0.250000  0.359436  0.575979  1
  Hf  Hf5  1  0.250000  0.859802  0.923529  1
  Hf  Hf6  1  0.750000  0.633375  0.430293  1
  Hf  Hf7  1  0.750000  0.143818  0.065312  1
  Ir  Ir8  1  0.250000  0.229967  0.906094  1
  Ir  Ir9  1  0.250000  0.724828  0.594402  1
  Ir  Ir10  1  0.750000  0.773342  0.088880  1
  Ir  Ir11  1  0.750000  0.271333  0.412356  1
