# generated using pymatgen
data_Ag4SbTe3O14
_symmetry_space_group_name_H-M   'P 1'
_cell_length_a   7.40248832
_cell_length_b   7.40248774
_cell_length_c   7.45013400
_cell_angle_alpha   120.30317761
_cell_angle_beta   117.87381669
_cell_angle_gamma   91.24007576
_symmetry_Int_Tables_number   1
_chemical_formula_structural   Ag4SbTe3O14
_chemical_formula_sum   'Ag4 Sb1 Te3 O14'
_cell_volume   293.29522019
_cell_formula_units_Z   1
loop_
 _symmetry_equiv_pos_site_id
 _symmetry_equiv_pos_as_xyz
  1  'x, y, z'
loop_
 _atom_site_type_symbol
 _atom_site_label
 _atom_site_symmetry_multiplicity
 _atom_site_fract_x
 _atom_site_fract_y
 _atom_site_fract_z
 _atom_site_occupancy
  Ag  Ag0  1  0.000000  0.500000  0.500000  1
  Ag  Ag1  1  0.500000  0.000000  0.500000  1
  Ag  Ag2  1  0.000000  0.500000  0.000000  1
  Ag  Ag3  1  0.000000  0.000000  0.500000  1
  Sb  Sb4  1  0.500000  0.500000  0.500000  1
  Te  Te5  1  0.500000  0.500000  0.000000  1
  Te  Te6  1  0.000000  0.000000  0.000000  1
  Te  Te7  1  0.500000  0.000000  0.000000  1
  O  O8  1  0.545510  0.412165  0.727931  1
  O  O9  1  0.452256  0.178596  0.869471  1
  O  O10  1  0.809124  0.082785  0.130529  1
  O  O11  1  0.184234  0.317579  0.272069  1
  O  O12  1  0.454490  0.587835  0.272069  1
  O  O13  1  0.547744  0.821404  0.130529  1
  O  O14  1  0.190876  0.917215  0.869471  1
  O  O15  1  0.815766  0.682421  0.727931  1
  O  O16  1  0.592898  0.243920  0.336818  1
  O  O17  1  0.407102  0.756080  0.663182  1
  O  O18  1  0.188574  0.415026  0.782304  1
  O  O19  1  0.811426  0.584974  0.217696  1
  O  O20  1  0.867277  0.093730  0.782304  1
  O  O21  1  0.132723  0.906270  0.217696  1
