# generated using pymatgen
data_TbNdSbI2
_symmetry_space_group_name_H-M   'P 1'
_cell_length_a   4.41808600
_cell_length_b   4.41808538
_cell_length_c   11.15089400
_cell_angle_alpha   90.00000000
_cell_angle_beta   90.00000000
_cell_angle_gamma   120.00000462
_symmetry_Int_Tables_number   1
_chemical_formula_structural   TbNdSbI2
_chemical_formula_sum   'Tb1 Nd1 Sb1 I2'
_cell_volume   188.49879098
_cell_formula_units_Z   1
loop_
 _symmetry_equiv_pos_site_id
 _symmetry_equiv_pos_as_xyz
  1  'x, y, z'
loop_
 _atom_site_type_symbol
 _atom_site_label
 _atom_site_symmetry_multiplicity
 _atom_site_fract_x
 _atom_site_fract_y
 _atom_site_fract_z
 _atom_site_occupancy
  Tb  Tb0  1  0.333333  0.666667  0.156053  1
  Nd  Nd1  1  0.666667  0.333333  0.844972  1
  Sb  Sb2  1  0.000000  0.000000  0.007168  1
  I  I3  1  0.333333  0.666667  0.664361  1
  I  I4  1  0.666667  0.333333  0.327447  1
