# generated using pymatgen
data_Li2Tb16TlInIr4
_symmetry_space_group_name_H-M   'P 1'
_cell_length_a   9.70950131
_cell_length_b   9.69976775
_cell_length_c   9.70734010
_cell_angle_alpha   60.04482798
_cell_angle_beta   59.99263727
_cell_angle_gamma   59.96679661
_symmetry_Int_Tables_number   1
_chemical_formula_structural   Li2Tb16TlInIr4
_chemical_formula_sum   'Li2 Tb16 Tl1 In1 Ir4'
_cell_volume   646.48295363
_cell_formula_units_Z   1
loop_
 _symmetry_equiv_pos_site_id
 _symmetry_equiv_pos_as_xyz
  1  'x, y, z'
loop_
 _atom_site_type_symbol
 _atom_site_label
 _atom_site_symmetry_multiplicity
 _atom_site_fract_x
 _atom_site_fract_y
 _atom_site_fract_z
 _atom_site_occupancy
  Li  Li0  1  0.325853  0.321954  0.322013  1
  Li  Li1  1  0.030180  0.321954  0.322013  1
  Tb  Tb2  1  0.097346  0.708489  0.096821  1
  Tb  Tb3  1  0.939054  0.938618  0.561994  1
  Tb  Tb4  1  0.940106  0.561548  0.938528  1
  Tb  Tb5  1  0.311611  0.688295  0.310954  1
  Tb  Tb6  1  0.933667  0.566353  0.566312  1
  Tb  Tb7  1  0.311794  0.311417  0.688628  1
  Tb  Tb8  1  0.099795  0.098934  0.098214  1
  Tb  Tb9  1  0.559819  0.561548  0.938528  1
  Tb  Tb10  1  0.097020  0.097030  0.708931  1
  Tb  Tb11  1  0.688161  0.311417  0.688628  1
  Tb  Tb12  1  0.689140  0.688295  0.310954  1
  Tb  Tb13  1  0.689393  0.310559  0.310656  1
  Tb  Tb14  1  0.312616  0.687371  0.687397  1
  Tb  Tb15  1  0.560335  0.938618  0.561994  1
  Tb  Tb16  1  0.703057  0.098934  0.098214  1
  Tb  Tb17  1  0.557801  0.942614  0.941785  1
  Tl  Tl18  1  0.329467  0.004020  0.337045  1
  In  In19  1  0.329813  0.335896  0.004478  1
  Ir  Ir20  1  0.888302  0.893269  0.893431  1
  Ir  Ir21  1  0.890347  0.894026  0.325279  1
  Ir  Ir22  1  0.324997  0.893269  0.893431  1
  Ir  Ir23  1  0.890325  0.325578  0.893771  1
