# generated using pymatgen
data_Dy3Ho5Lu2(BiAu2)2
_symmetry_space_group_name_H-M   'P 1'
_cell_length_a   8.67432827
_cell_length_b   8.67372907
_cell_length_c   8.67507157
_cell_angle_alpha   124.22715373
_cell_angle_beta   124.22925487
_cell_angle_gamma   82.81253403
_symmetry_Int_Tables_number   1
_chemical_formula_structural   Dy3Ho5Lu2(BiAu2)2
_chemical_formula_sum   'Dy3 Ho5 Lu2 Bi2 Au4'
_cell_volume   428.36698252
_cell_formula_units_Z   1
loop_
 _symmetry_equiv_pos_site_id
 _symmetry_equiv_pos_as_xyz
  1  'x, y, z'
loop_
 _atom_site_type_symbol
 _atom_site_label
 _atom_site_symmetry_multiplicity
 _atom_site_fract_x
 _atom_site_fract_y
 _atom_site_fract_z
 _atom_site_occupancy
  Dy  Dy0  1  0.015032  0.515007  0.810406  1
  Dy  Dy1  1  0.704625  0.204600  0.189594  1
  Dy  Dy2  1  0.514907  0.704692  0.500000  1
  Ho  Ho3  1  0.204924  0.015130  0.500000  1
  Ho  Ho4  1  0.984861  0.484901  0.189977  1
  Ho  Ho5  1  0.294885  0.794925  0.810023  1
  Ho  Ho6  1  0.484798  0.294860  0.500000  1
  Ho  Ho7  1  0.794965  0.984834  0.500000  1
  Lu  Lu8  1  0.000178  0.000157  0.000135  1
  Lu  Lu9  1  0.500044  0.500022  0.999865  1
  Bi  Bi10  1  0.750056  0.750047  0.000137  1
  Bi  Bi11  1  0.249919  0.249910  0.999863  1
  Au  Au12  1  0.638647  0.138816  0.777077  1
  Au  Au13  1  0.361570  0.861738  0.222923  1
  Au  Au14  1  0.138921  0.361487  0.500000  1
  Au  Au15  1  0.861669  0.638874  0.500000  1
