# generated using pymatgen
data_Y3Ho(InPd2)2
_symmetry_space_group_name_H-M   'P 1'
_cell_length_a   7.74201500
_cell_length_b   7.74201500
_cell_length_c   3.73534400
_cell_angle_alpha   90.00000000
_cell_angle_beta   90.00000000
_cell_angle_gamma   90.15411074
_symmetry_Int_Tables_number   1
_chemical_formula_structural   Y3Ho(InPd2)2
_chemical_formula_sum   'Y3 Ho1 In2 Pd4'
_cell_volume   223.89121316
_cell_formula_units_Z   1
loop_
 _symmetry_equiv_pos_site_id
 _symmetry_equiv_pos_as_xyz
  1  'x, y, z'
loop_
 _atom_site_type_symbol
 _atom_site_label
 _atom_site_symmetry_multiplicity
 _atom_site_fract_x
 _atom_site_fract_y
 _atom_site_fract_z
 _atom_site_occupancy
  Y  Y0  1  0.327169  0.827169  0.500000  1
  Y  Y1  1  0.827101  0.672884  0.500000  1
  Y  Y2  1  0.172884  0.327101  0.500000  1
  Ho  Ho3  1  0.672703  0.172703  0.500000  1
  In  In4  1  0.999913  0.000071  0.000000  1
  In  In5  1  0.500071  0.499913  0.000000  1
  Pd  Pd6  1  0.373285  0.127914  0.000000  1
  Pd  Pd7  1  0.871382  0.371382  0.000000  1
  Pd  Pd8  1  0.127578  0.627578  0.000000  1
  Pd  Pd9  1  0.627914  0.873285  0.000000  1
