# generated using pymatgen
data_Li2La2SnBi
_symmetry_space_group_name_H-M   'P 1'
_cell_length_a   4.82193200
_cell_length_b   7.78626063
_cell_length_c   8.48533600
_cell_angle_alpha   89.57756248
_cell_angle_beta   90.00000000
_cell_angle_gamma   90.00000000
_symmetry_Int_Tables_number   1
_chemical_formula_structural   Li2La2SnBi
_chemical_formula_sum   'Li4 La4 Sn2 Bi2'
_cell_volume   318.57174776
_cell_formula_units_Z   2
loop_
 _symmetry_equiv_pos_site_id
 _symmetry_equiv_pos_as_xyz
  1  'x, y, z'
loop_
 _atom_site_type_symbol
 _atom_site_label
 _atom_site_symmetry_multiplicity
 _atom_site_fract_x
 _atom_site_fract_y
 _atom_site_fract_z
 _atom_site_occupancy
  Li  Li0  1  0.250000  0.817899  0.924954  1
  Li  Li1  1  0.750000  0.182101  0.075046  1
  Li  Li2  1  0.750000  0.684645  0.418971  1
  Li  Li3  1  0.250000  0.315355  0.581029  1
  La  La4  1  0.250000  0.497829  0.211813  1
  La  La5  1  0.750000  0.502171  0.788187  1
  La  La6  1  0.750000  0.005005  0.729649  1
  La  La7  1  0.250000  0.994995  0.270351  1
  Sn  Sn8  1  0.750000  0.770572  0.089108  1
  Sn  Sn9  1  0.250000  0.229428  0.910892  1
  Bi  Bi10  1  0.250000  0.730736  0.589585  1
  Bi  Bi11  1  0.750000  0.269264  0.410415  1
