# generated using pymatgen
data_Hf12Th8Si15As
_symmetry_space_group_name_H-M   'P 1'
_cell_length_a   7.38852963
_cell_length_b   7.39733415
_cell_length_c   13.62035977
_cell_angle_alpha   89.73897413
_cell_angle_beta   89.99010185
_cell_angle_gamma   89.97001134
_symmetry_Int_Tables_number   1
_chemical_formula_structural   Hf12Th8Si15As
_chemical_formula_sum   'Hf12 Th8 Si15 As1'
_cell_volume   744.41868017
_cell_formula_units_Z   1
loop_
 _symmetry_equiv_pos_site_id
 _symmetry_equiv_pos_as_xyz
  1  'x, y, z'
loop_
 _atom_site_type_symbol
 _atom_site_label
 _atom_site_symmetry_multiplicity
 _atom_site_fract_x
 _atom_site_fract_y
 _atom_site_fract_z
 _atom_site_occupancy
  Hf  Hf0  1  0.174343  0.173970  0.999834  1
  Hf  Hf1  1  0.826618  0.827417  0.499824  1
  Hf  Hf2  1  0.325628  0.676551  0.249779  1
  Hf  Hf3  1  0.674134  0.326138  0.750151  1
  Hf  Hf4  1  0.154940  0.996986  0.374187  1
  Hf  Hf5  1  0.845437  0.002992  0.875492  1
  Hf  Hf6  1  0.503022  0.655677  0.625349  1
  Hf  Hf7  1  0.345484  0.496546  0.874653  1
  Hf  Hf8  1  0.495809  0.342404  0.125261  1
  Hf  Hf9  1  0.658698  0.506402  0.376595  1
  Hf  Hf10  1  0.997594  0.155759  0.624711  1
  Hf  Hf11  1  0.999559  0.842386  0.123447  1
  Th  Th12  1  0.997463  0.341220  0.216538  1
  Th  Th13  1  0.003651  0.658605  0.716575  1
  Th  Th14  1  0.154867  0.500580  0.468136  1
  Th  Th15  1  0.505322  0.839795  0.032620  1
  Th  Th16  1  0.841919  0.502481  0.966311  1
  Th  Th17  1  0.498051  0.157910  0.534399  1
  Th  Th18  1  0.342547  0.996911  0.783885  1
  Th  Th19  1  0.656644  0.003067  0.283027  1
  Si  Si20  1  0.631773  0.701919  0.815702  1
  Si  Si21  1  0.201426  0.869588  0.565663  1
  Si  Si22  1  0.131995  0.797158  0.933534  1
  Si  Si23  1  0.797516  0.132001  0.066271  1
  Si  Si24  1  0.868698  0.201794  0.433540  1
  Si  Si25  1  0.298347  0.368195  0.683950  1
  Si  Si26  1  0.700663  0.630033  0.184657  1
  Si  Si27  1  0.287664  0.035139  0.179881  1
  Si  Si28  1  0.709801  0.954830  0.685397  1
  Si  Si29  1  0.453942  0.791773  0.435467  1
  Si  Si30  1  0.209087  0.544482  0.064773  1
  Si  Si31  1  0.545709  0.208356  0.935069  1
  Si  Si32  1  0.790859  0.455386  0.565993  1
  Si  Si33  1  0.045407  0.291302  0.814822  1
  Si  Si34  1  0.954401  0.709810  0.314518  1
  As  As35  1  0.370984  0.304439  0.319985  1
