# generated using pymatgen
data_Ca2La4Si3Ge
_symmetry_space_group_name_H-M   'P 1'
_cell_length_a   7.80896970
_cell_length_b   7.80896920
_cell_length_c   4.52797400
_cell_angle_alpha   90.00000000
_cell_angle_beta   90.00000000
_cell_angle_gamma   89.82569723
_symmetry_Int_Tables_number   1
_chemical_formula_structural   Ca2La4Si3Ge
_chemical_formula_sum   'Ca2 La4 Si3 Ge1'
_cell_volume   276.11459458
_cell_formula_units_Z   1
loop_
 _symmetry_equiv_pos_site_id
 _symmetry_equiv_pos_as_xyz
  1  'x, y, z'
loop_
 _atom_site_type_symbol
 _atom_site_label
 _atom_site_symmetry_multiplicity
 _atom_site_fract_x
 _atom_site_fract_y
 _atom_site_fract_z
 _atom_site_occupancy
  Ca  Ca0  1  0.999098  0.001582  0.000000  1
  Ca  Ca1  1  0.501582  0.499098  0.000000  1
  La  La2  1  0.677023  0.177023  0.500000  1
  La  La3  1  0.324268  0.824268  0.500000  1
  La  La4  1  0.177441  0.320869  0.500000  1
  La  La5  1  0.820869  0.677441  0.500000  1
  Si  Si6  1  0.886894  0.386894  0.000000  1
  Si  Si7  1  0.610264  0.889742  0.000000  1
  Si  Si8  1  0.389742  0.110264  0.000000  1
  Ge  Ge9  1  0.112822  0.612822  0.000000  1
