# generated using pymatgen
data_Th2TlNi2
_symmetry_space_group_name_H-M   'P 1'
_cell_length_a   7.75087000
_cell_length_b   7.75087000
_cell_length_c   3.67597600
_cell_angle_alpha   90.00000000
_cell_angle_beta   90.00000000
_cell_angle_gamma   90.00000000
_symmetry_Int_Tables_number   1
_chemical_formula_structural   Th2TlNi2
_chemical_formula_sum   'Th4 Tl2 Ni4'
_cell_volume   220.83788182
_cell_formula_units_Z   2
loop_
 _symmetry_equiv_pos_site_id
 _symmetry_equiv_pos_as_xyz
  1  'x, y, z'
loop_
 _atom_site_type_symbol
 _atom_site_label
 _atom_site_symmetry_multiplicity
 _atom_site_fract_x
 _atom_site_fract_y
 _atom_site_fract_z
 _atom_site_occupancy
  Th  Th0  1  0.671722  0.171722  0.500000  1
  Th  Th1  1  0.328278  0.828278  0.500000  1
  Th  Th2  1  0.171722  0.328278  0.500000  1
  Th  Th3  1  0.828278  0.671722  0.500000  1
  Tl  Tl4  1  0.500000  0.500000  0.000000  1
  Tl  Tl5  1  0.000000  0.000000  0.000000  1
  Ni  Ni6  1  0.877518  0.377518  0.000000  1
  Ni  Ni7  1  0.122482  0.622482  0.000000  1
  Ni  Ni8  1  0.377518  0.122482  0.000000  1
  Ni  Ni9  1  0.622482  0.877518  0.000000  1
