# generated using pymatgen
data_LaBi2RuO7
_symmetry_space_group_name_H-M   'P 1'
_cell_length_a   6.66183568
_cell_length_b   6.66183539
_cell_length_c   7.62213500
_cell_angle_alpha   90.00000000
_cell_angle_beta   90.00000000
_cell_angle_gamma   110.38911905
_symmetry_Int_Tables_number   1
_chemical_formula_structural   LaBi2RuO7
_chemical_formula_sum   'La2 Bi4 Ru2 O14'
_cell_volume   317.07747072
_cell_formula_units_Z   2
loop_
 _symmetry_equiv_pos_site_id
 _symmetry_equiv_pos_as_xyz
  1  'x, y, z'
loop_
 _atom_site_type_symbol
 _atom_site_label
 _atom_site_symmetry_multiplicity
 _atom_site_fract_x
 _atom_site_fract_y
 _atom_site_fract_z
 _atom_site_occupancy
  La  La0  1  0.000000  0.000000  0.500000  1
  La  La1  1  0.000000  0.000000  0.000000  1
  Bi  Bi2  1  0.488532  0.951948  0.750000  1
  Bi  Bi3  1  0.511468  0.048052  0.250000  1
  Bi  Bi4  1  0.951948  0.488532  0.750000  1
  Bi  Bi5  1  0.048052  0.511468  0.250000  1
  Ru  Ru6  1  0.500000  0.500000  0.500000  1
  Ru  Ru7  1  0.500000  0.500000  0.000000  1
  O  O8  1  0.567222  0.567222  0.750000  1
  O  O9  1  0.432778  0.432778  0.250000  1
  O  O10  1  0.846067  0.112223  0.750000  1
  O  O11  1  0.153933  0.887777  0.250000  1
  O  O12  1  0.112223  0.846067  0.750000  1
  O  O13  1  0.887777  0.153933  0.250000  1
  O  O14  1  0.438499  0.185504  0.966029  1
  O  O15  1  0.561501  0.814496  0.466029  1
  O  O16  1  0.185504  0.438499  0.966029  1
  O  O17  1  0.814496  0.561501  0.466029  1
  O  O18  1  0.438499  0.185504  0.533971  1
  O  O19  1  0.561501  0.814496  0.033971  1
  O  O20  1  0.814496  0.561501  0.033971  1
  O  O21  1  0.185504  0.438499  0.533971  1
