# generated using pymatgen
data_HfSc5Be2(As2Ru3)2
_symmetry_space_group_name_H-M   'P 1'
_cell_length_a   7.63297736
_cell_length_b   7.62919653
_cell_length_c   7.63297828
_cell_angle_alpha   127.26040921
_cell_angle_beta   125.26045946
_cell_angle_gamma   79.48323191
_symmetry_Int_Tables_number   1
_chemical_formula_structural   HfSc5Be2(As2Ru3)2
_chemical_formula_sum   'Hf1 Sc5 Be2 As4 Ru6'
_cell_volume   279.16630669
_cell_formula_units_Z   1
loop_
 _symmetry_equiv_pos_site_id
 _symmetry_equiv_pos_as_xyz
  1  'x, y, z'
loop_
 _atom_site_type_symbol
 _atom_site_label
 _atom_site_symmetry_multiplicity
 _atom_site_fract_x
 _atom_site_fract_y
 _atom_site_fract_z
 _atom_site_occupancy
  Hf  Hf0  1  0.944386  0.641779  0.197392  1
  Sc  Sc1  1  0.446923  0.646562  0.699639  1
  Sc  Sc2  1  0.553163  0.251883  0.198720  1
  Sc  Sc3  1  0.749772  0.861525  0.611753  1
  Sc  Sc4  1  0.249100  0.859342  0.110240  1
  Sc  Sc5  1  0.053404  0.251577  0.698173  1
  Be  Be6  1  0.252230  0.257827  0.505599  1
  Be  Be7  1  0.748695  0.252707  0.004013  1
  As  As8  1  0.334559  0.585700  0.252362  1
  As  As9  1  0.665547  0.920784  0.253584  1
  As  As10  1  0.167199  0.920784  0.755237  1
  As  As11  1  0.833338  0.585700  0.751141  1
  Ru  Ru12  1  0.503168  0.493285  0.995143  1
  Ru  Ru13  1  0.998142  0.493285  0.490117  1
  Ru  Ru14  1  0.115472  0.254520  0.130361  1
  Ru  Ru15  1  0.884172  0.013909  0.137338  1
  Ru  Ru16  1  0.376571  0.013909  0.629739  1
  Ru  Ru17  1  0.624160  0.254520  0.639048  1
