# generated using pymatgen
data_PrNdBr8
_symmetry_space_group_name_H-M   'P 1'
_cell_length_a   7.50335224
_cell_length_b   8.02558142
_cell_length_c   7.79786810
_cell_angle_alpha   70.78042139
_cell_angle_beta   64.06509196
_cell_angle_gamma   72.42104274
_symmetry_Int_Tables_number   1
_chemical_formula_structural   PrNdBr8
_chemical_formula_sum   'Pr1 Nd1 Br8'
_cell_volume   391.78332543
_cell_formula_units_Z   1
loop_
 _symmetry_equiv_pos_site_id
 _symmetry_equiv_pos_as_xyz
  1  'x, y, z'
loop_
 _atom_site_type_symbol
 _atom_site_label
 _atom_site_symmetry_multiplicity
 _atom_site_fract_x
 _atom_site_fract_y
 _atom_site_fract_z
 _atom_site_occupancy
  Pr  Pr0  1  0.668460  0.003846  0.178169  1
  Nd  Nd1  1  0.330944  0.996308  0.822222  1
  Br  Br2  1  0.607183  0.756596  0.014789  1
  Br  Br3  1  0.062613  0.755761  0.111459  1
  Br  Br4  1  0.452638  0.266178  0.438827  1
  Br  Br5  1  0.843262  0.089036  0.479877  1
  Br  Br6  1  0.157726  0.911505  0.519990  1
  Br  Br7  1  0.544974  0.733576  0.565728  1
  Br  Br8  1  0.939715  0.244164  0.885969  1
  Br  Br9  1  0.392488  0.243030  0.982973  1
