# generated using pymatgen
data_Tb3Ga3Sn2
_symmetry_space_group_name_H-M   'P 1'
_cell_length_a   6.27122348
_cell_length_b   6.27122305
_cell_length_c   9.83937400
_cell_angle_alpha   90.00000000
_cell_angle_beta   90.00000000
_cell_angle_gamma   103.36425970
_symmetry_Int_Tables_number   1
_chemical_formula_structural   Tb3Ga3Sn2
_chemical_formula_sum   'Tb6 Ga6 Sn4'
_cell_volume   376.48635097
_cell_formula_units_Z   2
loop_
 _symmetry_equiv_pos_site_id
 _symmetry_equiv_pos_as_xyz
  1  'x, y, z'
loop_
 _atom_site_type_symbol
 _atom_site_label
 _atom_site_symmetry_multiplicity
 _atom_site_fract_x
 _atom_site_fract_y
 _atom_site_fract_z
 _atom_site_occupancy
  Tb  Tb0  1  0.640875  0.640875  0.250000  1
  Tb  Tb1  1  0.359125  0.359125  0.750000  1
  Tb  Tb2  1  0.195531  0.804469  0.500000  1
  Tb  Tb3  1  0.195531  0.804469  0.000000  1
  Tb  Tb4  1  0.804469  0.195531  0.500000  1
  Tb  Tb5  1  0.804469  0.195531  0.000000  1
  Ga  Ga6  1  0.026576  0.026576  0.250000  1
  Ga  Ga7  1  0.973424  0.973424  0.750000  1
  Ga  Ga8  1  0.310016  0.310016  0.044925  1
  Ga  Ga9  1  0.689984  0.689984  0.955075  1
  Ga  Ga10  1  0.310016  0.310016  0.455075  1
  Ga  Ga11  1  0.689984  0.689984  0.544925  1
  Sn  Sn12  1  0.491255  0.085471  0.250000  1
  Sn  Sn13  1  0.914529  0.508745  0.750000  1
  Sn  Sn14  1  0.508745  0.914529  0.750000  1
  Sn  Sn15  1  0.085471  0.491255  0.250000  1
