# generated using pymatgen
data_DyY3Ga20Pt11
_symmetry_space_group_name_H-M   'P 1'
_cell_length_a   4.16895027
_cell_length_b   10.98783196
_cell_length_c   13.74953056
_cell_angle_alpha   82.34847047
_cell_angle_beta   81.27814743
_cell_angle_gamma   79.06149722
_symmetry_Int_Tables_number   1
_chemical_formula_structural   DyY3Ga20Pt11
_chemical_formula_sum   'Dy1 Y3 Ga20 Pt11'
_cell_volume   607.69519456
_cell_formula_units_Z   1
loop_
 _symmetry_equiv_pos_site_id
 _symmetry_equiv_pos_as_xyz
  1  'x, y, z'
loop_
 _atom_site_type_symbol
 _atom_site_label
 _atom_site_symmetry_multiplicity
 _atom_site_fract_x
 _atom_site_fract_y
 _atom_site_fract_z
 _atom_site_occupancy
  Dy  Dy0  1  0.225516  0.370100  0.179055  1
  Y  Y1  1  0.123948  0.087335  0.664769  1
  Y  Y2  1  0.876035  0.912737  0.335189  1
  Y  Y3  1  0.774522  0.629992  0.820741  1
  Ga  Ga4  1  0.009380  0.069672  0.911619  1
  Ga  Ga5  1  0.990561  0.930445  0.088393  1
  Ga  Ga6  1  0.065647  0.674194  0.194479  1
  Ga  Ga7  1  0.934359  0.325750  0.805578  1
  Ga  Ga8  1  0.101605  0.342788  0.454138  1
  Ga  Ga9  1  0.898427  0.657169  0.545830  1
  Ga  Ga10  1  0.202701  0.602814  0.991617  1
  Ga  Ga11  1  0.797327  0.397017  0.008501  1
  Ga  Ga12  1  0.259286  0.780331  0.700947  1
  Ga  Ga13  1  0.740565  0.220015  0.298998  1
  Ga  Ga14  1  0.302641  0.899635  0.495060  1
  Ga  Ga15  1  0.697371  0.100417  0.504865  1
  Ga  Ga16  1  0.387347  0.524121  0.700947  1
  Ga  Ga17  1  0.612820  0.475596  0.298981  1
  Ga  Ga18  1  0.396629  0.204570  0.001935  1
  Ga  Ga19  1  0.603341  0.795414  0.998154  1
  Ga  Ga20  1  0.543796  0.282366  0.629989  1
  Ga  Ga21  1  0.456274  0.717521  0.369979  1
  Ga  Ga22  1  0.636838  0.934301  0.792169  1
  Ga  Ga23  1  0.363078  0.065866  0.207839  1
  Pt  Pt24  1  0.500003  0.500007  0.499989  1
  Pt  Pt25  1  0.027370  0.575987  0.369412  1
  Pt  Pt26  1  0.972753  0.423816  0.630524  1
  Pt  Pt27  1  0.138975  0.833938  0.888353  1
  Pt  Pt28  1  0.860797  0.166365  0.111828  1
  Pt  Pt29  1  0.239805  0.128496  0.391997  1
  Pt  Pt30  1  0.760183  0.871601  0.607924  1
  Pt  Pt31  1  0.345535  0.417074  0.892002  1
  Pt  Pt32  1  0.654558  0.582547  0.108215  1
  Pt  Pt33  1  0.505872  0.168495  0.819846  1
  Pt  Pt34  1  0.494138  0.831507  0.180139  1
