# generated using pymatgen
data_Tb4Er4Ga3Fe
_symmetry_space_group_name_H-M   'P 1'
_cell_length_a   9.93330600
_cell_length_b   9.93330434
_cell_length_c   6.96669900
_cell_angle_alpha   90.00000000
_cell_angle_beta   90.00000000
_cell_angle_gamma   119.99999887
_symmetry_Int_Tables_number   1
_chemical_formula_structural   Tb4Er4Ga3Fe
_chemical_formula_sum   'Tb8 Er8 Ga6 Fe2'
_cell_volume   595.31282627
_cell_formula_units_Z   2
loop_
 _symmetry_equiv_pos_site_id
 _symmetry_equiv_pos_as_xyz
  1  'x, y, z'
loop_
 _atom_site_type_symbol
 _atom_site_label
 _atom_site_symmetry_multiplicity
 _atom_site_fract_x
 _atom_site_fract_y
 _atom_site_fract_z
 _atom_site_occupancy
  Tb  Tb0  1  0.536466  0.072930  0.791736  1
  Tb  Tb1  1  0.927070  0.463534  0.791736  1
  Tb  Tb2  1  0.536466  0.463534  0.791736  1
  Tb  Tb3  1  0.463534  0.927070  0.291736  1
  Tb  Tb4  1  0.072930  0.536466  0.291736  1
  Tb  Tb5  1  0.463534  0.536466  0.291736  1
  Tb  Tb6  1  0.000000  0.000000  0.768797  1
  Tb  Tb7  1  0.000000  0.000000  0.268797  1
  Er  Er8  1  0.826677  0.653354  0.487536  1
  Er  Er9  1  0.346646  0.173323  0.487536  1
  Er  Er10  1  0.826677  0.173323  0.487536  1
  Er  Er11  1  0.173323  0.346646  0.987536  1
  Er  Er12  1  0.653354  0.826677  0.987536  1
  Er  Er13  1  0.173323  0.826677  0.987536  1
  Er  Er14  1  0.666667  0.333333  0.173283  1
  Er  Er15  1  0.333333  0.666667  0.673283  1
  Ga  Ga16  1  0.835998  0.671995  0.043436  1
  Ga  Ga17  1  0.328005  0.164002  0.043436  1
  Ga  Ga18  1  0.835998  0.164002  0.043436  1
  Ga  Ga19  1  0.164002  0.328005  0.543436  1
  Ga  Ga20  1  0.671995  0.835998  0.543436  1
  Ga  Ga21  1  0.164002  0.835998  0.543436  1
  Fe  Fe22  1  0.666667  0.333333  0.552836  1
  Fe  Fe23  1  0.333333  0.666667  0.052836  1
