# generated using pymatgen
data_SrBe2Cu8Si3
_symmetry_space_group_name_H-M   'P 1'
_cell_length_a   7.99033749
_cell_length_b   7.98623071
_cell_length_c   8.07938114
_cell_angle_alpha   119.61933486
_cell_angle_beta   119.66159759
_cell_angle_gamma   89.99999986
_symmetry_Int_Tables_number   1
_chemical_formula_structural   SrBe2Cu8Si3
_chemical_formula_sum   'Sr2 Be4 Cu16 Si6'
_cell_volume   368.48753633
_cell_formula_units_Z   2
loop_
 _symmetry_equiv_pos_site_id
 _symmetry_equiv_pos_as_xyz
  1  'x, y, z'
loop_
 _atom_site_type_symbol
 _atom_site_label
 _atom_site_symmetry_multiplicity
 _atom_site_fract_x
 _atom_site_fract_y
 _atom_site_fract_z
 _atom_site_occupancy
  Sr  Sr0  1  0.248002  0.251163  0.499297  1
  Sr  Sr1  1  0.748002  0.748134  0.499297  1
  Be  Be2  1  0.505821  0.009166  0.009725  1
  Be  Be3  1  0.005821  0.500559  0.009725  1
  Be  Be4  1  0.784204  0.285927  0.217120  1
  Be  Be5  1  0.284205  0.431193  0.217120  1
  Cu  Cu6  1  0.213853  0.061314  0.003256  1
  Cu  Cu7  1  0.941575  0.212775  0.003516  1
  Cu  Cu8  1  0.441574  0.290741  0.003516  1
  Cu  Cu9  1  0.713853  0.441941  0.003256  1
  Cu  Cu10  1  0.287746  0.560251  0.001875  1
  Cu  Cu11  1  0.557939  0.713431  0.999983  1
  Cu  Cu12  1  0.057940  0.786552  0.999983  1
  Cu  Cu13  1  0.787746  0.941624  0.001875  1
  Cu  Cu14  1  0.801515  0.066254  0.362091  1
  Cu  Cu15  1  0.560926  0.302400  0.357601  1
  Cu  Cu16  1  0.060926  0.555200  0.357601  1
  Cu  Cu17  1  0.301514  0.795837  0.362091  1
  Cu  Cu18  1  0.700274  0.200342  0.639506  1
  Cu  Cu19  1  0.939319  0.440332  0.631500  1
  Cu  Cu20  1  0.439318  0.691167  0.631500  1
  Cu  Cu21  1  0.200275  0.939165  0.639506  1
  Si  Si22  1  0.937628  0.793478  0.234109  1
  Si  Si23  1  0.437628  0.940630  0.234109  1
  Si  Si24  1  0.565355  0.065577  0.778018  1
  Si  Si25  1  0.065355  0.212441  0.778018  1
  Si  Si26  1  0.705840  0.556825  0.762403  1
  Si  Si27  1  0.205840  0.705577  0.762403  1
