# generated using pymatgen
data_PrNdGa2IrPt
_symmetry_space_group_name_H-M   'P 1'
_cell_length_a   4.50073100
_cell_length_b   7.10730600
_cell_length_c   7.88858600
_cell_angle_alpha   90.00000000
_cell_angle_beta   90.00000000
_cell_angle_gamma   90.00000000
_symmetry_Int_Tables_number   1
_chemical_formula_structural   PrNdGa2IrPt
_chemical_formula_sum   'Pr2 Nd2 Ga4 Ir2 Pt2'
_cell_volume   252.34066042
_cell_formula_units_Z   2
loop_
 _symmetry_equiv_pos_site_id
 _symmetry_equiv_pos_as_xyz
  1  'x, y, z'
loop_
 _atom_site_type_symbol
 _atom_site_label
 _atom_site_symmetry_multiplicity
 _atom_site_fract_x
 _atom_site_fract_y
 _atom_site_fract_z
 _atom_site_occupancy
  Pr  Pr0  1  0.250000  0.028833  0.685937  1
  Pr  Pr1  1  0.250000  0.528833  0.814063  1
  Nd  Nd2  1  0.750000  0.978056  0.305576  1
  Nd  Nd3  1  0.750000  0.478056  0.194424  1
  Ga  Ga4  1  0.250000  0.154683  0.074786  1
  Ga  Ga5  1  0.250000  0.654683  0.425214  1
  Ga  Ga6  1  0.750000  0.839504  0.934156  1
  Ga  Ga7  1  0.750000  0.339504  0.565844  1
  Ir  Ir8  1  0.250000  0.278383  0.391226  1
  Ir  Ir9  1  0.250000  0.778383  0.108774  1
  Pt  Pt10  1  0.750000  0.720540  0.606365  1
  Pt  Pt11  1  0.750000  0.220540  0.893635  1
