# generated using pymatgen
data_Lu4Hf3MgPt4
_symmetry_space_group_name_H-M   'P 1'
_cell_length_a   4.58457200
_cell_length_b   6.90636816
_cell_length_c   8.20305320
_cell_angle_alpha   87.34957831
_cell_angle_beta   90.00000000
_cell_angle_gamma   90.00000000
_symmetry_Int_Tables_number   1
_chemical_formula_structural   Lu4Hf3MgPt4
_chemical_formula_sum   'Lu4 Hf3 Mg1 Pt4'
_cell_volume   259.45331389
_cell_formula_units_Z   1
loop_
 _symmetry_equiv_pos_site_id
 _symmetry_equiv_pos_as_xyz
  1  'x, y, z'
loop_
 _atom_site_type_symbol
 _atom_site_label
 _atom_site_symmetry_multiplicity
 _atom_site_fract_x
 _atom_site_fract_y
 _atom_site_fract_z
 _atom_site_occupancy
  Lu  Lu0  1  0.250000  0.514020  0.167693  1
  Lu  Lu1  1  0.750000  0.466131  0.830658  1
  Lu  Lu2  1  0.750000  0.980808  0.679517  1
  Lu  Lu3  1  0.250000  0.030990  0.313804  1
  Hf  Hf4  1  0.250000  0.647744  0.574871  1
  Hf  Hf5  1  0.750000  0.365487  0.429998  1
  Hf  Hf6  1  0.750000  0.853003  0.065350  1
  Mg  Mg7  1  0.250000  0.143815  0.928871  1
  Pt  Pt8  1  0.250000  0.754090  0.890211  1
  Pt  Pt9  1  0.750000  0.233493  0.124489  1
  Pt  Pt10  1  0.750000  0.745782  0.396828  1
  Pt  Pt11  1  0.250000  0.264637  0.597712  1
