# generated using pymatgen
data_La2Pr8AlSi4Ge
_symmetry_space_group_name_H-M   'P 1'
_cell_length_a   7.88667100
_cell_length_b   9.13883454
_cell_length_c   7.88667100
_cell_angle_alpha   115.56230444
_cell_angle_beta   90.00000000
_cell_angle_gamma   115.56230444
_symmetry_Int_Tables_number   1
_chemical_formula_structural   La2Pr8AlSi4Ge
_chemical_formula_sum   'La2 Pr8 Al1 Si4 Ge1'
_cell_volume   450.32874948
_cell_formula_units_Z   1
loop_
 _symmetry_equiv_pos_site_id
 _symmetry_equiv_pos_as_xyz
  1  'x, y, z'
loop_
 _atom_site_type_symbol
 _atom_site_label
 _atom_site_symmetry_multiplicity
 _atom_site_fract_x
 _atom_site_fract_y
 _atom_site_fract_z
 _atom_site_occupancy
  La  La0  1  0.976964  0.953927  0.976964  1
  La  La1  1  0.523036  0.046073  0.523036  1
  Pr  Pr2  1  0.526389  0.716474  0.673374  1
  Pr  Pr3  1  0.190087  0.716474  0.043101  1
  Pr  Pr4  1  0.673374  0.716474  0.190087  1
  Pr  Pr5  1  0.043101  0.716474  0.526389  1
  Pr  Pr6  1  0.456899  0.283526  0.309913  1
  Pr  Pr7  1  0.826626  0.283526  0.973611  1
  Pr  Pr8  1  0.309913  0.283526  0.826626  1
  Pr  Pr9  1  0.973611  0.283526  0.456899  1
  Al  Al10  1  0.750000  0.500000  0.750000  1
  Si  Si11  1  0.885859  0.000000  0.614141  1
  Si  Si12  1  0.114141  0.000000  0.385859  1
  Si  Si13  1  0.614141  0.000000  0.114141  1
  Si  Si14  1  0.385859  0.000000  0.885859  1
  Ge  Ge15  1  0.250000  0.500000  0.250000  1
