# generated using pymatgen
data_Ni3(BiTe)2
_symmetry_space_group_name_H-M   'P 1'
_cell_length_a   6.65017185
_cell_length_b   6.65017173
_cell_length_c   6.92172714
_cell_angle_alpha   59.17950916
_cell_angle_beta   59.17951122
_cell_angle_gamma   35.21544948
_symmetry_Int_Tables_number   1
_chemical_formula_structural   Ni3(BiTe)2
_chemical_formula_sum   'Ni3 Bi2 Te2'
_cell_volume   148.84933968
_cell_formula_units_Z   1
loop_
 _symmetry_equiv_pos_site_id
 _symmetry_equiv_pos_as_xyz
  1  'x, y, z'
loop_
 _atom_site_type_symbol
 _atom_site_label
 _atom_site_symmetry_multiplicity
 _atom_site_fract_x
 _atom_site_fract_y
 _atom_site_fract_z
 _atom_site_occupancy
  Ni  Ni0  1  0.242778  0.242778  0.747186  1
  Ni  Ni1  1  0.741007  0.741007  0.268059  1
  Ni  Ni2  1  0.001214  0.001214  0.998353  1
  Bi  Bi3  1  0.878662  0.878662  0.463603  1
  Bi  Bi4  1  0.372105  0.372105  0.957766  1
  Te  Te5  1  0.132944  0.132944  0.529498  1
  Te  Te6  1  0.628530  0.628530  0.035536  1
