# generated using pymatgen
data_TmMn2SbO6
_symmetry_space_group_name_H-M   'P 1'
_cell_length_a   6.37567370
_cell_length_b   6.43626689
_cell_length_c   6.42050789
_cell_angle_alpha   90.98054008
_cell_angle_beta   91.13072559
_cell_angle_gamma   91.33551975
_symmetry_Int_Tables_number   1
_chemical_formula_structural   TmMn2SbO6
_chemical_formula_sum   'Tm2 Mn4 Sb2 O12'
_cell_volume   263.30542946
_cell_formula_units_Z   2
loop_
 _symmetry_equiv_pos_site_id
 _symmetry_equiv_pos_as_xyz
  1  'x, y, z'
loop_
 _atom_site_type_symbol
 _atom_site_label
 _atom_site_symmetry_multiplicity
 _atom_site_fract_x
 _atom_site_fract_y
 _atom_site_fract_z
 _atom_site_occupancy
  Tm  Tm0  1  0.063048  0.751950  0.563918  1
  Tm  Tm1  1  0.747626  0.564057  0.059516  1
  Mn  Mn2  1  0.560748  0.052572  0.746298  1
  Mn  Mn3  1  0.942225  0.246013  0.439936  1
  Mn  Mn4  1  0.252168  0.431153  0.946562  1
  Mn  Mn5  1  0.440194  0.955024  0.248817  1
  Sb  Sb6  1  0.496381  0.495124  0.500060  1
  Sb  Sb7  1  0.002296  0.006561  0.000683  1
  O  O8  1  0.040389  0.701606  0.910989  1
  O  O9  1  0.703002  0.910097  0.043591  1
  O  O10  1  0.911517  0.038626  0.700524  1
  O  O11  1  0.957616  0.300696  0.090481  1
  O  O12  1  0.301203  0.088971  0.954760  1
  O  O13  1  0.087894  0.957424  0.297406  1
  O  O14  1  0.798313  0.572293  0.421463  1
  O  O15  1  0.570842  0.430532  0.797932  1
  O  O16  1  0.421669  0.794227  0.565756  1
  O  O17  1  0.196737  0.429784  0.575714  1
  O  O18  1  0.428624  0.570283  0.202003  1
  O  O19  1  0.577508  0.203007  0.433592  1
