# generated using pymatgen
data_Nb2ZnOs3
_symmetry_space_group_name_H-M   'P 1'
_cell_length_a   7.69358000
_cell_length_b   7.69358074
_cell_length_c   5.48377500
_cell_angle_alpha   90.00000000
_cell_angle_beta   90.00000000
_cell_angle_gamma   120.00000543
_symmetry_Int_Tables_number   1
_chemical_formula_structural   Nb2ZnOs3
_chemical_formula_sum   'Nb6 Zn3 Os9'
_cell_volume   281.10412913
_cell_formula_units_Z   3
loop_
 _symmetry_equiv_pos_site_id
 _symmetry_equiv_pos_as_xyz
  1  'x, y, z'
loop_
 _atom_site_type_symbol
 _atom_site_label
 _atom_site_symmetry_multiplicity
 _atom_site_fract_x
 _atom_site_fract_y
 _atom_site_fract_z
 _atom_site_occupancy
  Nb  Nb0  1  0.666666  0.333333  0.542681  1
  Nb  Nb1  1  0.333334  0.666667  0.542681  1
  Nb  Nb2  1  0.000000  0.000000  0.543038  1
  Nb  Nb3  1  0.333160  0.000000  0.907930  1
  Nb  Nb4  1  0.000000  0.333159  0.907930  1
  Nb  Nb5  1  0.666841  0.666841  0.907930  1
  Zn  Zn6  1  0.666081  0.000000  0.225571  1
  Zn  Zn7  1  0.333919  0.333918  0.225571  1
  Zn  Zn8  1  0.000000  0.666082  0.225571  1
  Os  Os9  1  0.666666  0.333333  0.049079  1
  Os  Os10  1  0.333334  0.666667  0.049079  1
  Os  Os11  1  0.000000  0.000000  0.049942  1
  Os  Os12  1  0.333105  0.000000  0.401459  1
  Os  Os13  1  0.000000  0.333104  0.401459  1
  Os  Os14  1  0.666896  0.666896  0.401459  1
  Os  Os15  1  0.666566  0.000000  0.725487  1
  Os  Os16  1  0.333434  0.333434  0.725487  1
  Os  Os17  1  0.000000  0.666566  0.725487  1
