# generated using pymatgen
data_Sc22OsRu4Rh3
_symmetry_space_group_name_H-M   'P 1'
_cell_length_a   9.49332341
_cell_length_b   9.48748285
_cell_length_c   9.46516102
_cell_angle_alpha   60.11857877
_cell_angle_beta   60.05729765
_cell_angle_gamma   60.19558588
_symmetry_Int_Tables_number   1
_chemical_formula_structural   Sc22OsRu4Rh3
_chemical_formula_sum   'Sc22 Os1 Ru4 Rh3'
_cell_volume   604.50175883
_cell_formula_units_Z   1
loop_
 _symmetry_equiv_pos_site_id
 _symmetry_equiv_pos_as_xyz
  1  'x, y, z'
loop_
 _atom_site_type_symbol
 _atom_site_label
 _atom_site_symmetry_multiplicity
 _atom_site_fract_x
 _atom_site_fract_y
 _atom_site_fract_z
 _atom_site_occupancy
  Sc  Sc0  1  0.803401  0.803401  0.196599  1
  Sc  Sc1  1  0.196115  0.803885  0.197266  1
  Sc  Sc2  1  0.803988  0.196012  0.197302  1
  Sc  Sc3  1  0.196599  0.196599  0.803401  1
  Sc  Sc4  1  0.803885  0.196115  0.802734  1
  Sc  Sc5  1  0.196012  0.803988  0.802698  1
  Sc  Sc6  1  0.615439  0.618195  0.150908  1
  Sc  Sc7  1  0.617301  0.151109  0.617059  1
  Sc  Sc8  1  0.151109  0.617301  0.614532  1
  Sc  Sc9  1  0.618195  0.615439  0.615460  1
  Sc  Sc10  1  0.384561  0.381805  0.849092  1
  Sc  Sc11  1  0.382699  0.848891  0.382941  1
  Sc  Sc12  1  0.848891  0.382699  0.385468  1
  Sc  Sc13  1  0.381805  0.384561  0.384540  1
  Sc  Sc14  1  0.845341  0.842501  0.470625  1
  Sc  Sc15  1  0.844445  0.471430  0.840792  1
  Sc  Sc16  1  0.471430  0.844445  0.843332  1
  Sc  Sc17  1  0.842501  0.845341  0.841530  1
  Sc  Sc18  1  0.154659  0.157499  0.529375  1
  Sc  Sc19  1  0.155555  0.528570  0.159208  1
  Sc  Sc20  1  0.528570  0.155555  0.156668  1
  Sc  Sc21  1  0.157499  0.154659  0.158470  1
  Os  Os22  1  0.500000  0.500000  0.500000  1
  Ru  Ru23  1  0.000000  0.000000  0.000000  1
  Ru  Ru24  1  0.000000  0.000000  0.500000  1
  Ru  Ru25  1  0.000000  0.500000  0.500000  1
  Ru  Ru26  1  0.500000  0.000000  0.000000  1
  Rh  Rh27  1  0.500000  0.000000  0.500000  1
  Rh  Rh28  1  0.500000  0.500000  0.000000  1
  Rh  Rh29  1  0.000000  0.500000  0.000000  1
