# generated using pymatgen
data_Ba2LiAlGe2
_symmetry_space_group_name_H-M   'P 1'
_cell_length_a   8.93517037
_cell_length_b   8.93516909
_cell_length_c   8.93517061
_cell_angle_alpha   136.90599081
_cell_angle_beta   62.34083387
_cell_angle_gamma   137.22086305
_symmetry_Int_Tables_number   1
_chemical_formula_structural   Ba2LiAlGe2
_chemical_formula_sum   'Ba4 Li2 Al2 Ge4'
_cell_volume   327.02317476
_cell_formula_units_Z   2
loop_
 _symmetry_equiv_pos_site_id
 _symmetry_equiv_pos_as_xyz
  1  'x, y, z'
loop_
 _atom_site_type_symbol
 _atom_site_label
 _atom_site_symmetry_multiplicity
 _atom_site_fract_x
 _atom_site_fract_y
 _atom_site_fract_z
 _atom_site_occupancy
  Ba  Ba0  1  0.838616  0.259528  0.098143  1
  Ba  Ba1  1  0.661385  0.759529  0.420912  1
  Ba  Ba2  1  0.338616  0.240473  0.579088  1
  Ba  Ba3  1  0.161384  0.740472  0.901856  1
  Li  Li4  1  0.749999  0.249999  0.500000  1
  Li  Li5  1  0.249999  0.750000  0.500001  1
  Al  Al6  1  0.249999  0.249999  0.000000  1
  Al  Al7  1  0.750000  0.750000  0.000000  1
  Ge  Ge8  1  0.403042  0.734594  0.137634  1
  Ge  Ge9  1  0.096959  0.234593  0.331551  1
  Ge  Ge10  1  0.903042  0.765408  0.668450  1
  Ge  Ge11  1  0.596959  0.265408  0.862367  1
