# generated using pymatgen
data_LiSc6Zn22Si
_symmetry_space_group_name_H-M   'P 1'
_cell_length_a   8.80289278
_cell_length_b   8.80289292
_cell_length_c   8.80289300
_cell_angle_alpha   60.00000344
_cell_angle_beta   60.00000293
_cell_angle_gamma   59.99999812
_symmetry_Int_Tables_number   1
_chemical_formula_structural   LiSc6Zn22Si
_chemical_formula_sum   'Li1 Sc6 Zn22 Si1'
_cell_volume   482.34887612
_cell_formula_units_Z   1
loop_
 _symmetry_equiv_pos_site_id
 _symmetry_equiv_pos_as_xyz
  1  'x, y, z'
loop_
 _atom_site_type_symbol
 _atom_site_label
 _atom_site_symmetry_multiplicity
 _atom_site_fract_x
 _atom_site_fract_y
 _atom_site_fract_z
 _atom_site_occupancy
  Li  Li0  1  0.000000  0.000000  0.000000  1
  Sc  Sc1  1  0.711963  0.288037  0.288037  1
  Sc  Sc2  1  0.288037  0.711963  0.711963  1
  Sc  Sc3  1  0.288037  0.711963  0.288037  1
  Sc  Sc4  1  0.711963  0.288037  0.711963  1
  Sc  Sc5  1  0.288037  0.288037  0.711963  1
  Sc  Sc6  1  0.711963  0.711963  0.288037  1
  Zn  Zn7  1  0.121910  0.121910  0.121910  1
  Zn  Zn8  1  0.878090  0.878090  0.878090  1
  Zn  Zn9  1  0.121910  0.121910  0.634271  1
  Zn  Zn10  1  0.121910  0.634271  0.121910  1
  Zn  Zn11  1  0.878090  0.878090  0.365729  1
  Zn  Zn12  1  0.878090  0.365729  0.878090  1
  Zn  Zn13  1  0.634271  0.121910  0.121910  1
  Zn  Zn14  1  0.365729  0.878090  0.878090  1
  Zn  Zn15  1  0.500000  0.000000  0.000000  1
  Zn  Zn16  1  0.000000  0.500000  0.500000  1
  Zn  Zn17  1  0.000000  0.500000  0.000000  1
  Zn  Zn18  1  0.500000  0.000000  0.500000  1
  Zn  Zn19  1  0.000000  0.000000  0.500000  1
  Zn  Zn20  1  0.500000  0.500000  0.000000  1
  Zn  Zn21  1  0.335753  0.335753  0.335753  1
  Zn  Zn22  1  0.664247  0.664247  0.664247  1
  Zn  Zn23  1  0.335753  0.335753  0.992743  1
  Zn  Zn24  1  0.335753  0.992743  0.335753  1
  Zn  Zn25  1  0.664247  0.664247  0.007257  1
  Zn  Zn26  1  0.664247  0.007257  0.664247  1
  Zn  Zn27  1  0.992743  0.335753  0.335753  1
  Zn  Zn28  1  0.007257  0.664247  0.664247  1
  Si  Si29  1  0.500000  0.500000  0.500000  1
