# generated using pymatgen
data_Ca4In4PtAu3
_symmetry_space_group_name_H-M   'P 1'
_cell_length_a   4.51133700
_cell_length_b   7.50316140
_cell_length_c   8.59858323
_cell_angle_alpha   89.63085547
_cell_angle_beta   90.00000000
_cell_angle_gamma   90.00000000
_symmetry_Int_Tables_number   1
_chemical_formula_structural   Ca4In4PtAu3
_chemical_formula_sum   'Ca4 In4 Pt1 Au3'
_cell_volume   291.04989343
_cell_formula_units_Z   1
loop_
 _symmetry_equiv_pos_site_id
 _symmetry_equiv_pos_as_xyz
  1  'x, y, z'
loop_
 _atom_site_type_symbol
 _atom_site_label
 _atom_site_symmetry_multiplicity
 _atom_site_fract_x
 _atom_site_fract_y
 _atom_site_fract_z
 _atom_site_occupancy
  Ca  Ca0  1  0.250000  0.033279  0.324584  1
  Ca  Ca1  1  0.250000  0.528479  0.180601  1
  Ca  Ca2  1  0.750000  0.976582  0.677999  1
  Ca  Ca3  1  0.750000  0.466727  0.816517  1
  In  In4  1  0.750000  0.345369  0.442605  1
  In  In5  1  0.250000  0.153743  0.930616  1
  In  In6  1  0.750000  0.849678  0.062875  1
  In  In7  1  0.250000  0.643638  0.563287  1
  Pt  Pt8  1  0.250000  0.267794  0.624162  1
  Au  Au9  1  0.750000  0.235030  0.126206  1
  Au  Au10  1  0.750000  0.733981  0.375624  1
  Au  Au11  1  0.250000  0.765699  0.874925  1
