# generated using pymatgen
data_DyPa(B2Os)2
_symmetry_space_group_name_H-M   'P 1'
_cell_length_a   5.82339700
_cell_length_b   5.34465400
_cell_length_c   6.49622200
_cell_angle_alpha   90.00000000
_cell_angle_beta   90.00000000
_cell_angle_gamma   90.00000000
_symmetry_Int_Tables_number   1
_chemical_formula_structural   DyPa(B2Os)2
_chemical_formula_sum   'Dy2 Pa2 B8 Os4'
_cell_volume   202.18868682
_cell_formula_units_Z   2
loop_
 _symmetry_equiv_pos_site_id
 _symmetry_equiv_pos_as_xyz
  1  'x, y, z'
loop_
 _atom_site_type_symbol
 _atom_site_label
 _atom_site_symmetry_multiplicity
 _atom_site_fract_x
 _atom_site_fract_y
 _atom_site_fract_z
 _atom_site_occupancy
  Dy  Dy0  1  0.993898  0.750000  0.663515  1
  Dy  Dy1  1  0.493898  0.750000  0.836485  1
  Pa  Pa2  1  0.000408  0.250000  0.332723  1
  Pa  Pa3  1  0.500408  0.250000  0.167277  1
  B  B4  1  0.366661  0.085771  0.538968  1
  B  B5  1  0.866661  0.414229  0.961032  1
  B  B6  1  0.633807  0.586717  0.466906  1
  B  B7  1  0.133807  0.913283  0.033094  1
  B  B8  1  0.633807  0.913283  0.466906  1
  B  B9  1  0.133807  0.586717  0.033094  1
  B  B10  1  0.366661  0.414229  0.538968  1
  B  B11  1  0.866661  0.085771  0.961032  1
  Os  Os12  1  0.188621  0.250000  0.819240  1
  Os  Os13  1  0.688621  0.250000  0.680760  1
  Os  Os14  1  0.816137  0.750000  0.190561  1
  Os  Os15  1  0.316137  0.750000  0.309439  1
