# generated using pymatgen
data_Ta12Zn9Ga3N2
_symmetry_space_group_name_H-M   'P 1'
_cell_length_a   8.19028441
_cell_length_b   8.18748903
_cell_length_c   8.19028419
_cell_angle_alpha   60.08586184
_cell_angle_beta   60.11242472
_cell_angle_gamma   60.08586648
_symmetry_Int_Tables_number   1
_chemical_formula_structural   Ta12Zn9Ga3N2
_chemical_formula_sum   'Ta12 Zn9 Ga3 N2'
_cell_volume   389.19272181
_cell_formula_units_Z   1
loop_
 _symmetry_equiv_pos_site_id
 _symmetry_equiv_pos_as_xyz
  1  'x, y, z'
loop_
 _atom_site_type_symbol
 _atom_site_label
 _atom_site_symmetry_multiplicity
 _atom_site_fract_x
 _atom_site_fract_y
 _atom_site_fract_z
 _atom_site_occupancy
  Ta  Ta0  1  0.188863  0.810771  0.188863  1
  Ta  Ta1  1  0.439281  0.060971  0.439281  1
  Ta  Ta2  1  0.439552  0.059989  0.061785  1
  Ta  Ta3  1  0.439613  0.439332  0.061655  1
  Ta  Ta4  1  0.189254  0.810529  0.810577  1
  Ta  Ta5  1  0.060622  0.439720  0.060622  1
  Ta  Ta6  1  0.810577  0.810529  0.189254  1
  Ta  Ta7  1  0.061655  0.439332  0.439613  1
  Ta  Ta8  1  0.190240  0.188361  0.810323  1
  Ta  Ta9  1  0.810323  0.188361  0.190240  1
  Ta  Ta10  1  0.810509  0.188315  0.810509  1
  Ta  Ta11  1  0.061785  0.059989  0.439552  1
  Zn  Zn12  1  0.415565  0.416110  0.415565  1
  Zn  Zn13  1  0.834165  0.834643  0.497426  1
  Zn  Zn14  1  0.415231  0.753394  0.415231  1
  Zn  Zn15  1  0.833903  0.834240  0.833903  1
  Zn  Zn16  1  0.497426  0.834643  0.834165  1
  Zn  Zn17  1  0.624968  0.122185  0.624968  1
  Zn  Zn18  1  0.621867  0.628132  0.125017  1
  Zn  Zn19  1  0.125017  0.628132  0.621867  1
  Zn  Zn20  1  0.623428  0.629460  0.623428  1
  Ga  Ga21  1  0.835437  0.494413  0.835437  1
  Ga  Ga22  1  0.413393  0.414429  0.757069  1
  Ga  Ga23  1  0.757069  0.414429  0.413393  1
  N  N24  1  0.999862  0.999528  0.999862  1
  N  N25  1  0.250395  0.250064  0.250395  1
