# generated using pymatgen
data_TcOF3
_symmetry_space_group_name_H-M   'P 1'
_cell_length_a   6.66636082
_cell_length_b   7.57781103
_cell_length_c   8.32688072
_cell_angle_alpha   97.77023129
_cell_angle_beta   109.07039471
_cell_angle_gamma   111.59172830
_symmetry_Int_Tables_number   1
_chemical_formula_structural   TcOF3
_chemical_formula_sum   'Tc4 O4 F12'
_cell_volume   353.70160733
_cell_formula_units_Z   4
loop_
 _symmetry_equiv_pos_site_id
 _symmetry_equiv_pos_as_xyz
  1  'x, y, z'
loop_
 _atom_site_type_symbol
 _atom_site_label
 _atom_site_symmetry_multiplicity
 _atom_site_fract_x
 _atom_site_fract_y
 _atom_site_fract_z
 _atom_site_occupancy
  Tc  Tc0  1  0.503893  0.517831  0.203824  1
  Tc  Tc1  1  0.348328  0.108385  0.392860  1
  Tc  Tc2  1  0.651672  0.891615  0.607140  1
  Tc  Tc3  1  0.496107  0.482169  0.796176  1
  O  O4  1  0.577734  0.716667  0.387950  1
  O  O5  1  0.426765  0.322810  0.307125  1
  O  O6  1  0.573235  0.677190  0.692875  1
  O  O7  1  0.422266  0.283333  0.612050  1
  F  F8  1  0.561537  0.680893  0.030082  1
  F  F9  1  0.301686  0.936756  0.187073  1
  F  F10  1  0.186778  0.464122  0.080456  1
  F  F11  1  0.816868  0.549920  0.264181  1
  F  F12  1  0.975754  0.956308  0.686729  1
  F  F13  1  0.688817  0.123228  0.497684  1
  F  F14  1  0.311183  0.876771  0.502316  1
  F  F15  1  0.024246  0.043692  0.313271  1
  F  F16  1  0.183132  0.450080  0.735819  1
  F  F17  1  0.813222  0.535878  0.919544  1
  F  F18  1  0.698314  0.063244  0.812927  1
  F  F19  1  0.438463  0.319107  0.969918  1
