# generated using pymatgen
data_Lu6TiAl23Ru8
_symmetry_space_group_name_H-M   'P 1'
_cell_length_a   8.76013000
_cell_length_b   8.76012940
_cell_length_c   9.54422600
_cell_angle_alpha   90.00000000
_cell_angle_beta   90.00000000
_cell_angle_gamma   119.99999473
_symmetry_Int_Tables_number   1
_chemical_formula_structural   Lu6TiAl23Ru8
_chemical_formula_sum   'Lu6 Ti1 Al23 Ru8'
_cell_volume   634.29668491
_cell_formula_units_Z   1
loop_
 _symmetry_equiv_pos_site_id
 _symmetry_equiv_pos_as_xyz
  1  'x, y, z'
loop_
 _atom_site_type_symbol
 _atom_site_label
 _atom_site_symmetry_multiplicity
 _atom_site_fract_x
 _atom_site_fract_y
 _atom_site_fract_z
 _atom_site_occupancy
  Lu  Lu0  1  0.194937  0.389873  0.248247  1
  Lu  Lu1  1  0.805345  0.610692  0.749508  1
  Lu  Lu2  1  0.610127  0.805063  0.248247  1
  Lu  Lu3  1  0.389308  0.194655  0.749508  1
  Lu  Lu4  1  0.194937  0.805063  0.248247  1
  Lu  Lu5  1  0.805345  0.194655  0.749508  1
  Ti  Ti6  1  0.333333  0.666667  0.997643  1
  Al  Al7  1  0.666667  0.333333  0.979361  1
  Al  Al8  1  0.666667  0.333333  0.522817  1
  Al  Al9  1  0.333333  0.666667  0.477423  1
  Al  Al10  1  0.161959  0.323919  0.577780  1
  Al  Al11  1  0.837301  0.674603  0.423096  1
  Al  Al12  1  0.676081  0.838041  0.577780  1
  Al  Al13  1  0.837181  0.674362  0.079562  1
  Al  Al14  1  0.325397  0.162699  0.423096  1
  Al  Al15  1  0.158934  0.317867  0.921136  1
  Al  Al16  1  0.161959  0.838041  0.577780  1
  Al  Al17  1  0.325638  0.162819  0.079562  1
  Al  Al18  1  0.837301  0.162699  0.423096  1
  Al  Al19  1  0.682133  0.841066  0.921136  1
  Al  Al20  1  0.837181  0.162819  0.079562  1
  Al  Al21  1  0.158934  0.841066  0.921136  1
  Al  Al22  1  0.561962  0.123924  0.252349  1
  Al  Al23  1  0.439960  0.879920  0.750411  1
  Al  Al24  1  0.876076  0.438038  0.252349  1
  Al  Al25  1  0.120080  0.560040  0.750411  1
  Al  Al26  1  0.561962  0.438038  0.252349  1
  Al  Al27  1  0.439960  0.560040  0.750411  1
  Al  Al28  1  0.000000  0.000000  0.250414  1
  Al  Al29  1  0.000000  0.000000  0.750220  1
  Ru  Ru30  1  0.498173  0.996346  0.002608  1
  Ru  Ru31  1  0.003654  0.501827  0.002608  1
  Ru  Ru32  1  0.499474  0.998948  0.502386  1
  Ru  Ru33  1  0.498173  0.501827  0.002608  1
  Ru  Ru34  1  0.001052  0.500526  0.502386  1
  Ru  Ru35  1  0.499474  0.500526  0.502386  1
  Ru  Ru36  1  0.000000  0.000000  0.001788  1
  Ru  Ru37  1  0.000000  0.000000  0.499088  1
