# generated using pymatgen
data_ErLu3Fe4(CoO5)4
_symmetry_space_group_name_H-M   'P 1'
_cell_length_a   5.74777900
_cell_length_b   7.16958517
_cell_length_c   8.42348238
_cell_angle_alpha   89.93449722
_cell_angle_beta   90.00000000
_cell_angle_gamma   90.00000000
_symmetry_Int_Tables_number   1
_chemical_formula_structural   ErLu3Fe4(CoO5)4
_chemical_formula_sum   'Er1 Lu3 Fe4 Co4 O20'
_cell_volume   347.12466801
_cell_formula_units_Z   1
loop_
 _symmetry_equiv_pos_site_id
 _symmetry_equiv_pos_as_xyz
  1  'x, y, z'
loop_
 _atom_site_type_symbol
 _atom_site_label
 _atom_site_symmetry_multiplicity
 _atom_site_fract_x
 _atom_site_fract_y
 _atom_site_fract_z
 _atom_site_occupancy
  Er  Er0  1  0.500000  0.867579  0.168628  1
  Lu  Lu1  1  0.500000  0.367059  0.331530  1
  Lu  Lu2  1  0.500000  0.633439  0.668449  1
  Lu  Lu3  1  0.500000  0.134330  0.830985  1
  Fe  Fe4  1  0.000000  0.108779  0.148331  1
  Fe  Fe5  1  0.000000  0.892456  0.850850  1
  Fe  Fe6  1  0.000000  0.392394  0.648801  1
  Fe  Fe7  1  0.000000  0.607205  0.352313  1
  Co  Co8  1  0.251680  0.000328  0.500472  1
  Co  Co9  1  0.748320  0.000328  0.500472  1
  Co  Co10  1  0.748202  0.499131  0.999584  1
  Co  Co11  1  0.251798  0.499131  0.999584  1
  O  O12  1  0.237404  0.002271  0.998444  1
  O  O13  1  0.762596  0.002271  0.998444  1
  O  O14  1  0.760890  0.500382  0.500667  1
  O  O15  1  0.239110  0.500382  0.500667  1
  O  O16  1  0.000000  0.354140  0.069694  1
  O  O17  1  0.000000  0.645766  0.928329  1
  O  O18  1  0.000000  0.145224  0.572468  1
  O  O19  1  0.000000  0.854736  0.427751  1
  O  O20  1  0.262461  0.112113  0.298608  1
  O  O21  1  0.736268  0.889432  0.702109  1
  O  O22  1  0.263732  0.889432  0.702109  1
  O  O23  1  0.736374  0.389640  0.797625  1
  O  O24  1  0.737539  0.112113  0.298608  1
  O  O25  1  0.262813  0.606117  0.202722  1
  O  O26  1  0.737187  0.606117  0.202722  1
  O  O27  1  0.263626  0.389640  0.797625  1
  O  O28  1  0.500000  0.338162  0.058950  1
  O  O29  1  0.500000  0.659126  0.940138  1
  O  O30  1  0.500000  0.160923  0.559633  1
  O  O31  1  0.500000  0.839852  0.442689  1
