# generated using pymatgen
data_Y4Ge6Ir6Rh
_symmetry_space_group_name_H-M   'P 1'
_cell_length_a   7.28890032
_cell_length_b   7.28890088
_cell_length_c   7.28890083
_cell_angle_alpha   109.52999064
_cell_angle_beta   109.52999182
_cell_angle_gamma   109.35375218
_symmetry_Int_Tables_number   1
_chemical_formula_structural   Y4Ge6Ir6Rh
_chemical_formula_sum   'Y4 Ge6 Ir6 Rh1'
_cell_volume   298.10055823
_cell_formula_units_Z   1
loop_
 _symmetry_equiv_pos_site_id
 _symmetry_equiv_pos_as_xyz
  1  'x, y, z'
loop_
 _atom_site_type_symbol
 _atom_site_label
 _atom_site_symmetry_multiplicity
 _atom_site_fract_x
 _atom_site_fract_y
 _atom_site_fract_z
 _atom_site_occupancy
  Y  Y0  1  0.999939  0.000061  0.500000  1
  Y  Y1  1  0.999939  0.499939  0.999878  1
  Y  Y2  1  0.500061  0.000061  0.000122  1
  Y  Y3  1  0.500061  0.499939  0.500000  1
  Ge  Ge4  1  0.682071  0.682071  0.000000  1
  Ge  Ge5  1  0.318475  0.999943  0.318533  1
  Ge  Ge6  1  0.000057  0.318590  0.318533  1
  Ge  Ge7  1  0.317929  0.317929  0.000000  1
  Ge  Ge8  1  0.681410  0.999943  0.681467  1
  Ge  Ge9  1  0.000057  0.681525  0.681467  1
  Ir  Ir10  1  0.750420  0.500154  0.250265  1
  Ir  Ir11  1  0.499846  0.249580  0.749735  1
  Ir  Ir12  1  0.249889  0.500154  0.749735  1
  Ir  Ir13  1  0.250000  0.750000  0.500000  1
  Ir  Ir14  1  0.499846  0.750111  0.250265  1
  Ir  Ir15  1  0.000000  0.000000  0.000000  1
  Rh  Rh16  1  0.750000  0.250000  0.500000  1
