# generated using pymatgen
data_Y8Lu12Bi11Te
_symmetry_space_group_name_H-M   'P 1'
_cell_length_a   8.15990468
_cell_length_b   9.38676900
_cell_length_c   12.00428000
_cell_angle_alpha   90.00000000
_cell_angle_beta   90.27746756
_cell_angle_gamma   90.00000000
_symmetry_Int_Tables_number   1
_chemical_formula_structural   Y8Lu12Bi11Te
_chemical_formula_sum   'Y8 Lu12 Bi11 Te1'
_cell_volume   919.45872936
_cell_formula_units_Z   1
loop_
 _symmetry_equiv_pos_site_id
 _symmetry_equiv_pos_as_xyz
  1  'x, y, z'
loop_
 _atom_site_type_symbol
 _atom_site_label
 _atom_site_symmetry_multiplicity
 _atom_site_fract_x
 _atom_site_fract_y
 _atom_site_fract_z
 _atom_site_occupancy
  Y  Y0  1  0.187162  0.750000  0.718509  1
  Y  Y1  1  0.680723  0.750000  0.785235  1
  Y  Y2  1  0.812686  0.250000  0.282122  1
  Y  Y3  1  0.314388  0.250000  0.217271  1
  Y  Y4  1  0.352301  0.750000  0.213312  1
  Y  Y5  1  0.848212  0.750000  0.284389  1
  Y  Y6  1  0.650568  0.250000  0.783959  1
  Y  Y7  1  0.150768  0.250000  0.716728  1
  Lu  Lu8  1  0.022985  0.750000  0.990037  1
  Lu  Lu9  1  0.521164  0.750000  0.510045  1
  Lu  Lu10  1  0.979616  0.250000  0.009245  1
  Lu  Lu11  1  0.477990  0.250000  0.490420  1
  Lu  Lu12  1  0.311187  0.435829  0.941219  1
  Lu  Lu13  1  0.810103  0.067129  0.558516  1
  Lu  Lu14  1  0.689191  0.930313  0.057175  1
  Lu  Lu15  1  0.189110  0.568373  0.440881  1
  Lu  Lu16  1  0.689191  0.569687  0.057175  1
  Lu  Lu17  1  0.189110  0.931627  0.440881  1
  Lu  Lu18  1  0.311187  0.064171  0.941219  1
  Lu  Lu19  1  0.810103  0.432871  0.558516  1
  Bi  Bi20  1  0.437214  0.003767  0.673023  1
  Bi  Bi21  1  0.937101  0.497184  0.827249  1
  Bi  Bi22  1  0.563165  0.503727  0.328200  1
  Bi  Bi23  1  0.063373  0.996033  0.172267  1
  Bi  Bi24  1  0.563165  0.996273  0.328200  1
  Bi  Bi25  1  0.063373  0.503967  0.172267  1
  Bi  Bi26  1  0.437214  0.496233  0.673023  1
  Bi  Bi27  1  0.937101  0.002816  0.827249  1
  Bi  Bi28  1  0.902125  0.750000  0.544655  1
  Bi  Bi29  1  0.597820  0.250000  0.042586  1
  Bi  Bi30  1  0.097942  0.250000  0.456631  1
  Te  Te31  1  0.402661  0.750000  0.957798  1
