# generated using pymatgen
data_Lu2Mn3Fe7Ni2P7
_symmetry_space_group_name_H-M   'P 1'
_cell_length_a   9.06525807
_cell_length_b   9.02766009
_cell_length_c   3.59894600
_cell_angle_alpha   90.00000000
_cell_angle_beta   90.00000000
_cell_angle_gamma   119.81560786
_symmetry_Int_Tables_number   1
_chemical_formula_structural   Lu2Mn3Fe7Ni2P7
_chemical_formula_sum   'Lu2 Mn3 Fe7 Ni2 P7'
_cell_volume   255.54376061
_cell_formula_units_Z   1
loop_
 _symmetry_equiv_pos_site_id
 _symmetry_equiv_pos_as_xyz
  1  'x, y, z'
loop_
 _atom_site_type_symbol
 _atom_site_label
 _atom_site_symmetry_multiplicity
 _atom_site_fract_x
 _atom_site_fract_y
 _atom_site_fract_z
 _atom_site_occupancy
  Lu  Lu0  1  0.668103  0.332427  0.000000  1
  Lu  Lu1  1  0.000611  0.003745  0.500000  1
  Mn  Mn2  1  0.560954  0.770166  0.500000  1
  Mn  Mn3  1  0.229646  0.789776  0.500000  1
  Mn  Mn4  1  0.214061  0.444467  0.500000  1
  Fe  Fe5  1  0.966213  0.237881  0.000000  1
  Fe  Fe6  1  0.489481  0.941542  0.000000  1
  Fe  Fe7  1  0.058696  0.547117  0.000000  1
  Fe  Fe8  1  0.453519  0.509505  0.000000  1
  Fe  Fe9  1  0.721726  0.105058  0.500000  1
  Fe  Fe10  1  0.894289  0.617702  0.500000  1
  Fe  Fe11  1  0.380011  0.274238  0.500000  1
  Ni  Ni12  1  0.763201  0.730735  0.000000  1
  Ni  Ni13  1  0.268004  0.032160  0.000000  1
  P  P14  1  0.460185  0.075648  0.500000  1
  P  P15  1  0.925382  0.379303  0.500000  1
  P  P16  1  0.614495  0.536626  0.500000  1
  P  P17  1  0.746922  0.974806  0.000000  1
  P  P18  1  0.028778  0.773363  0.000000  1
  P  P19  1  0.221613  0.256955  0.000000  1
  P  P20  1  0.334109  0.666783  0.000000  1
