# generated using pymatgen
data_Eu2Tc6Ni6P7
_symmetry_space_group_name_H-M   'P 1'
_cell_length_a   9.43161657
_cell_length_b   9.42105878
_cell_length_c   3.74240900
_cell_angle_alpha   90.00000000
_cell_angle_beta   90.00000000
_cell_angle_gamma   119.98001651
_symmetry_Int_Tables_number   1
_chemical_formula_structural   Eu2Tc6Ni6P7
_chemical_formula_sum   'Eu2 Tc6 Ni6 P7'
_cell_volume   288.04155607
_cell_formula_units_Z   1
loop_
 _symmetry_equiv_pos_site_id
 _symmetry_equiv_pos_as_xyz
  1  'x, y, z'
loop_
 _atom_site_type_symbol
 _atom_site_label
 _atom_site_symmetry_multiplicity
 _atom_site_fract_x
 _atom_site_fract_y
 _atom_site_fract_z
 _atom_site_occupancy
  Eu  Eu0  1  0.666686  0.333500  0.500000  1
  Eu  Eu1  1  0.333439  0.666744  0.000000  1
  Tc  Tc2  1  0.390672  0.433010  0.500000  1
  Tc  Tc3  1  0.878588  0.793009  0.500000  1
  Tc  Tc4  1  0.914369  0.121340  0.500000  1
  Tc  Tc5  1  0.042435  0.609513  0.500000  1
  Tc  Tc6  1  0.207040  0.085706  0.500000  1
  Tc  Tc7  1  0.567222  0.958030  0.500000  1
  Ni  Ni8  1  0.158523  0.272435  0.000000  1
  Ni  Ni9  1  0.113712  0.841768  0.000000  1
  Ni  Ni10  1  0.727661  0.885411  0.000000  1
  Ni  Ni11  1  0.940704  0.363416  0.000000  1
  Ni  Ni12  1  0.636611  0.577542  0.000000  1
  Ni  Ni13  1  0.421629  0.058428  0.000000  1
  P  P14  1  0.598341  0.716410  0.500000  1
  P  P15  1  0.118442  0.401937  0.500000  1
  P  P16  1  0.884960  0.590300  0.000000  1
  P  P17  1  0.283847  0.881770  0.500000  1
  P  P18  1  0.999808  0.000078  0.000000  1
  P  P19  1  0.705571  0.115026  0.000000  1
  P  P20  1  0.409740  0.294624  0.000000  1
