# generated using pymatgen
data_K3ScAs2
_symmetry_space_group_name_H-M   'P 1'
_cell_length_a   9.18534572
_cell_length_b   9.18534570
_cell_length_c   9.18534519
_cell_angle_alpha   135.28369374
_cell_angle_beta   128.02358754
_cell_angle_gamma   70.93836475
_symmetry_Int_Tables_number   1
_chemical_formula_structural   K3ScAs2
_chemical_formula_sum   'K6 Sc2 As4'
_cell_volume   420.81624085
_cell_formula_units_Z   2
loop_
 _symmetry_equiv_pos_site_id
 _symmetry_equiv_pos_as_xyz
  1  'x, y, z'
loop_
 _atom_site_type_symbol
 _atom_site_label
 _atom_site_symmetry_multiplicity
 _atom_site_fract_x
 _atom_site_fract_y
 _atom_site_fract_z
 _atom_site_occupancy
  K  K0  1  0.614725  0.308958  0.305768  1
  K  K1  1  0.385275  0.691042  0.694232  1
  K  K2  1  0.996810  0.191042  0.805768  1
  K  K3  1  0.003190  0.808958  0.194232  1
  K  K4  1  0.500000  0.250000  0.750000  1
  K  K5  1  0.500000  0.750000  0.250000  1
  Sc  Sc6  1  0.000000  0.750000  0.750000  1
  Sc  Sc7  1  0.000000  0.250000  0.250000  1
  As  As8  1  0.719404  0.905653  0.813751  1
  As  As9  1  0.280596  0.094347  0.186249  1
  As  As10  1  0.908098  0.594347  0.313751  1
  As  As11  1  0.091902  0.405653  0.686249  1
