# generated using pymatgen
data_Li4Ga3Pd
_symmetry_space_group_name_H-M   'P 1'
_cell_length_a   7.65575070
_cell_length_b   7.65575036
_cell_length_c   7.65575188
_cell_angle_alpha   32.87583280
_cell_angle_beta   32.87584052
_cell_angle_gamma   32.87583291
_symmetry_Int_Tables_number   1
_chemical_formula_structural   Li4Ga3Pd
_chemical_formula_sum   'Li4 Ga3 Pd1'
_cell_volume   117.63492933
_cell_formula_units_Z   1
loop_
 _symmetry_equiv_pos_site_id
 _symmetry_equiv_pos_as_xyz
  1  'x, y, z'
loop_
 _atom_site_type_symbol
 _atom_site_label
 _atom_site_symmetry_multiplicity
 _atom_site_fract_x
 _atom_site_fract_y
 _atom_site_fract_z
 _atom_site_occupancy
  Li  Li0  1  0.124440  0.124440  0.124440  1
  Li  Li1  1  0.625398  0.625398  0.625398  1
  Li  Li2  1  0.001823  0.001823  0.001823  1
  Li  Li3  1  0.498007  0.498007  0.498007  1
  Ga  Ga4  1  0.873953  0.873953  0.873953  1
  Ga  Ga5  1  0.747360  0.747360  0.747360  1
  Ga  Ga6  1  0.253455  0.253455  0.253455  1
  Pd  Pd7  1  0.375565  0.375565  0.375565  1
