# generated using pymatgen
data_Nd3InPd(PtAu)2
_symmetry_space_group_name_H-M   'P 1'
_cell_length_a   7.64294700
_cell_length_b   7.77312334
_cell_length_c   3.93406300
_cell_angle_alpha   90.00000000
_cell_angle_beta   90.00000000
_cell_angle_gamma   119.44753929
_symmetry_Int_Tables_number   1
_chemical_formula_structural   Nd3InPd(PtAu)2
_chemical_formula_sum   'Nd3 In1 Pd1 Pt2 Au2'
_cell_volume   203.52568727
_cell_formula_units_Z   1
loop_
 _symmetry_equiv_pos_site_id
 _symmetry_equiv_pos_as_xyz
  1  'x, y, z'
loop_
 _atom_site_type_symbol
 _atom_site_label
 _atom_site_symmetry_multiplicity
 _atom_site_fract_x
 _atom_site_fract_y
 _atom_site_fract_z
 _atom_site_occupancy
  Nd  Nd0  1  0.987345  0.587775  0.000000  1
  Nd  Nd1  1  0.399570  0.412225  0.000000  1
  Nd  Nd2  1  0.618327  0.000000  0.000000  1
  In  In3  1  0.256465  0.000000  0.500000  1
  Pd  Pd4  1  0.014433  0.000000  0.000000  1
  Pt  Pt5  1  0.329595  0.678087  0.500000  1
  Pt  Pt6  1  0.651510  0.321913  0.500000  1
  Au  Au7  1  0.738919  0.735084  0.500000  1
  Au  Au8  1  0.003835  0.264916  0.500000  1
