# generated using pymatgen
data_Nd6Sc2InAu9
_symmetry_space_group_name_H-M   'P 1'
_cell_length_a   8.18683618
_cell_length_b   8.18683611
_cell_length_c   8.18683609
_cell_angle_alpha   65.49180482
_cell_angle_beta   65.49180195
_cell_angle_gamma   65.49178564
_symmetry_Int_Tables_number   1
_chemical_formula_structural   Nd6Sc2InAu9
_chemical_formula_sum   'Nd6 Sc2 In1 Au9'
_cell_volume   434.32899013
_cell_formula_units_Z   1
loop_
 _symmetry_equiv_pos_site_id
 _symmetry_equiv_pos_as_xyz
  1  'x, y, z'
loop_
 _atom_site_type_symbol
 _atom_site_label
 _atom_site_symmetry_multiplicity
 _atom_site_fract_x
 _atom_site_fract_y
 _atom_site_fract_z
 _atom_site_occupancy
  Nd  Nd0  1  0.897058  0.183158  0.623759  1
  Nd  Nd1  1  0.623759  0.897058  0.183158  1
  Nd  Nd2  1  0.183158  0.623759  0.897058  1
  Nd  Nd3  1  0.102942  0.816842  0.376241  1
  Nd  Nd4  1  0.376241  0.102942  0.816842  1
  Nd  Nd5  1  0.816842  0.376241  0.102942  1
  Sc  Sc6  1  0.661397  0.661397  0.661397  1
  Sc  Sc7  1  0.338603  0.338603  0.338603  1
  In  In8  1  0.500000  0.500000  0.500000  1
  Au  Au9  1  0.000000  0.000000  0.000000  1
  Au  Au10  1  0.802540  0.802540  0.802540  1
  Au  Au11  1  0.197460  0.197460  0.197460  1
  Au  Au12  1  0.936399  0.546224  0.328289  1
  Au  Au13  1  0.328289  0.936399  0.546224  1
  Au  Au14  1  0.546224  0.328289  0.936399  1
  Au  Au15  1  0.063601  0.453776  0.671711  1
  Au  Au16  1  0.671711  0.063601  0.453776  1
  Au  Au17  1  0.453776  0.671711  0.063601  1
