# generated using pymatgen
data_Tm12Co4IrPb
_symmetry_space_group_name_H-M   'P 1'
_cell_length_a   8.18317984
_cell_length_b   8.18317976
_cell_length_c   8.18317972
_cell_angle_alpha   111.08437778
_cell_angle_beta   110.74700278
_cell_angle_gamma   106.61955206
_symmetry_Int_Tables_number   1
_chemical_formula_structural   Tm12Co4IrPb
_chemical_formula_sum   'Tm12 Co4 Ir1 Pb1'
_cell_volume   421.05412553
_cell_formula_units_Z   1
loop_
 _symmetry_equiv_pos_site_id
 _symmetry_equiv_pos_as_xyz
  1  'x, y, z'
loop_
 _atom_site_type_symbol
 _atom_site_label
 _atom_site_symmetry_multiplicity
 _atom_site_fract_x
 _atom_site_fract_y
 _atom_site_fract_z
 _atom_site_occupancy
  Tm  Tm0  1  0.415036  0.218434  0.196601  1
  Tm  Tm1  1  0.584964  0.781566  0.803399  1
  Tm  Tm2  1  0.021834  0.218434  0.803399  1
  Tm  Tm3  1  0.978166  0.781566  0.196601  1
  Tm  Tm4  1  0.181956  0.282285  0.464240  1
  Tm  Tm5  1  0.818044  0.717715  0.535760  1
  Tm  Tm6  1  0.181956  0.717715  0.899672  1
  Tm  Tm7  1  0.818044  0.282285  0.100328  1
  Tm  Tm8  1  0.314386  0.622294  0.307908  1
  Tm  Tm9  1  0.685614  0.377706  0.692092  1
  Tm  Tm10  1  0.314386  0.006479  0.692092  1
  Tm  Tm11  1  0.685614  0.993521  0.307908  1
  Co  Co12  1  0.373412  0.000000  0.373412  1
  Co  Co13  1  0.626588  0.000000  0.626588  1
  Co  Co14  1  0.111999  0.611999  0.500000  1
  Co  Co15  1  0.888001  0.388001  0.500000  1
  Ir  Ir16  1  0.000000  0.000000  0.000000  1
  Pb  Pb17  1  0.500000  0.500000  0.000000  1
