# generated using pymatgen
data_KSc6(CBr6)2
_symmetry_space_group_name_H-M   'P 1'
_cell_length_a   8.40595748
_cell_length_b   8.39619573
_cell_length_c   8.86754000
_cell_angle_alpha   72.65261154
_cell_angle_beta   71.53157507
_cell_angle_gamma   73.08395322
_symmetry_Int_Tables_number   1
_chemical_formula_structural   KSc6(CBr6)2
_chemical_formula_sum   'K1 Sc6 C2 Br12'
_cell_volume   553.11088018
_cell_formula_units_Z   1
loop_
 _symmetry_equiv_pos_site_id
 _symmetry_equiv_pos_as_xyz
  1  'x, y, z'
loop_
 _atom_site_type_symbol
 _atom_site_label
 _atom_site_symmetry_multiplicity
 _atom_site_fract_x
 _atom_site_fract_y
 _atom_site_fract_z
 _atom_site_occupancy
  K  K0  1  0.000028  0.499968  0.999990  1
  Sc  Sc1  1  0.471670  0.115810  0.184922  1
  Sc  Sc2  1  0.770824  0.032738  0.408708  1
  Sc  Sc3  1  0.590486  0.731778  0.476556  1
  Sc  Sc4  1  0.409512  0.268234  0.523439  1
  Sc  Sc5  1  0.229175  0.967259  0.591298  1
  Sc  Sc6  1  0.528323  0.884197  0.815080  1
  C  C7  1  0.491618  0.026862  0.419468  1
  C  C8  1  0.508375  0.973146  0.580532  1
  Br  Br9  1  0.794957  0.156023  0.083030  1
  Br  Br10  1  0.580332  0.786589  0.138607  1
  Br  Br11  1  0.351335  0.432085  0.224170  1
  Br  Br12  1  0.133837  0.069440  0.297049  1
  Br  Br13  1  0.918824  0.723574  0.355779  1
  Br  Br14  1  0.711597  0.362943  0.432969  1
  Br  Br15  1  0.288405  0.637059  0.567023  1
  Br  Br16  1  0.081175  0.276432  0.644220  1
  Br  Br17  1  0.866165  0.930561  0.702951  1
  Br  Br18  1  0.648665  0.567926  0.775833  1
  Br  Br19  1  0.419661  0.213414  0.861400  1
  Br  Br20  1  0.205040  0.843962  0.916975  1
