# generated using pymatgen
data_Er9TmInPb5
_symmetry_space_group_name_H-M   'P 1'
_cell_length_a   6.59981300
_cell_length_b   8.96012667
_cell_length_c   8.97234450
_cell_angle_alpha   120.05005172
_cell_angle_beta   90.00140839
_cell_angle_gamma   89.99608935
_symmetry_Int_Tables_number   1
_chemical_formula_structural   Er9TmInPb5
_chemical_formula_sum   'Er9 Tm1 In1 Pb5'
_cell_volume   459.26472713
_cell_formula_units_Z   1
loop_
 _symmetry_equiv_pos_site_id
 _symmetry_equiv_pos_as_xyz
  1  'x, y, z'
loop_
 _atom_site_type_symbol
 _atom_site_label
 _atom_site_symmetry_multiplicity
 _atom_site_fract_x
 _atom_site_fract_y
 _atom_site_fract_z
 _atom_site_occupancy
  Er  Er0  1  0.501842  0.336241  0.669944  1
  Er  Er1  1  0.501881  0.666230  0.330177  1
  Er  Er2  1  0.998108  0.666254  0.330193  1
  Er  Er3  1  0.750099  0.238164  0.000227  1
  Er  Er4  1  0.750061  0.762268  0.766876  1
  Er  Er5  1  0.750050  0.995874  0.233403  1
  Er  Er6  1  0.249951  0.763250  0.999397  1
  Er  Er7  1  0.249930  0.236476  0.236194  1
  Er  Er8  1  0.249929  0.000009  0.763682  1
  Tm  Tm9  1  0.998090  0.336313  0.670052  1
  In  In10  1  0.750213  0.602923  0.999495  1
  Pb  Pb11  1  0.750176  0.393800  0.394478  1
  Pb  Pb12  1  0.750182  0.999498  0.605604  1
  Pb  Pb13  1  0.249801  0.395815  0.999909  1
  Pb  Pb14  1  0.249840  0.605252  0.604029  1
  Pb  Pb15  1  0.249847  0.001636  0.396342  1
