# generated using pymatgen
data_Ac2Ga7Ni
_symmetry_space_group_name_H-M   'P 1'
_cell_length_a   4.45239200
_cell_length_b   4.45239200
_cell_length_c   10.56559800
_cell_angle_alpha   90.00000000
_cell_angle_beta   90.00000000
_cell_angle_gamma   90.00000000
_symmetry_Int_Tables_number   1
_chemical_formula_structural   Ac2Ga7Ni
_chemical_formula_sum   'Ac2 Ga7 Ni1'
_cell_volume   209.45024375
_cell_formula_units_Z   1
loop_
 _symmetry_equiv_pos_site_id
 _symmetry_equiv_pos_as_xyz
  1  'x, y, z'
loop_
 _atom_site_type_symbol
 _atom_site_label
 _atom_site_symmetry_multiplicity
 _atom_site_fract_x
 _atom_site_fract_y
 _atom_site_fract_z
 _atom_site_occupancy
  Ac  Ac0  1  0.000000  0.000000  0.000371  1
  Ac  Ac1  1  0.500000  0.500000  0.483123  1
  Ga  Ga2  1  0.000000  0.500000  0.233955  1
  Ga  Ga3  1  0.500000  0.000000  0.754014  1
  Ga  Ga4  1  0.500000  0.000000  0.233955  1
  Ga  Ga5  1  0.000000  0.500000  0.754014  1
  Ga  Ga6  1  0.000000  0.000000  0.621923  1
  Ga  Ga7  1  0.000000  0.000000  0.377170  1
  Ga  Ga8  1  0.500000  0.500000  0.906599  1
  Ni  Ni9  1  0.500000  0.500000  0.134878  1
