# generated using pymatgen
data_Se(O2F3)2
_symmetry_space_group_name_H-M   'P 1'
_cell_length_a   5.36345613
_cell_length_b   5.98827356
_cell_length_c   6.89759740
_cell_angle_alpha   102.93590682
_cell_angle_beta   95.80287876
_cell_angle_gamma   108.47417040
_symmetry_Int_Tables_number   1
_chemical_formula_structural   Se(O2F3)2
_chemical_formula_sum   'Se1 O4 F6'
_cell_volume   201.20885292
_cell_formula_units_Z   1
loop_
 _symmetry_equiv_pos_site_id
 _symmetry_equiv_pos_as_xyz
  1  'x, y, z'
loop_
 _atom_site_type_symbol
 _atom_site_label
 _atom_site_symmetry_multiplicity
 _atom_site_fract_x
 _atom_site_fract_y
 _atom_site_fract_z
 _atom_site_occupancy
  Se  Se0  1  0.702737  0.274329  0.489039  1
  O  O1  1  0.099288  0.960134  0.920161  1
  O  O2  1  0.311900  0.971807  0.862334  1
  O  O3  1  0.294980  0.548319  0.035959  1
  O  O4  1  0.540318  0.641311  0.062403  1
  F  F5  1  0.658943  0.393428  0.731827  1
  F  F6  1  0.749241  0.158260  0.246382  1
  F  F7  1  0.992938  0.525851  0.523576  1
  F  F8  1  0.412348  0.022256  0.452448  1
  F  F9  1  0.887803  0.118512  0.585069  1
  F  F10  1  0.514716  0.428979  0.394961  1
