# generated using pymatgen
data_LiSm6PtBr12
_symmetry_space_group_name_H-M   'P 1'
_cell_length_a   9.50964685
_cell_length_b   9.49296064
_cell_length_c   9.47111070
_cell_angle_alpha   108.42561877
_cell_angle_beta   108.07650557
_cell_angle_gamma   107.82515989
_symmetry_Int_Tables_number   1
_chemical_formula_structural   LiSm6PtBr12
_chemical_formula_sum   'Li1 Sm6 Pt1 Br12'
_cell_volume   689.36226083
_cell_formula_units_Z   1
loop_
 _symmetry_equiv_pos_site_id
 _symmetry_equiv_pos_as_xyz
  1  'x, y, z'
loop_
 _atom_site_type_symbol
 _atom_site_label
 _atom_site_symmetry_multiplicity
 _atom_site_fract_x
 _atom_site_fract_y
 _atom_site_fract_z
 _atom_site_occupancy
  Li  Li0  1  0.500000  0.500000  0.500000  1
  Sm  Sm1  1  0.117937  0.325735  0.032976  1
  Sm  Sm2  1  0.327574  0.034225  0.118225  1
  Sm  Sm3  1  0.032755  0.115086  0.322272  1
  Sm  Sm4  1  0.967246  0.884914  0.677729  1
  Sm  Sm5  1  0.672426  0.965776  0.881775  1
  Sm  Sm6  1  0.882063  0.674265  0.967024  1
  Pt  Pt7  1  0.000000  0.000000  0.000000  1
  Br  Br8  1  0.215659  0.684555  0.072319  1
  Br  Br9  1  0.462442  0.381216  0.173066  1
  Br  Br10  1  0.685438  0.073769  0.216984  1
  Br  Br11  1  0.926773  0.783818  0.316002  1
  Br  Br12  1  0.172216  0.461807  0.380850  1
  Br  Br13  1  0.380868  0.173425  0.463135  1
  Br  Br14  1  0.619132  0.826575  0.536866  1
  Br  Br15  1  0.827785  0.538193  0.619150  1
  Br  Br16  1  0.073228  0.216182  0.683999  1
  Br  Br17  1  0.314563  0.926232  0.783016  1
  Br  Br18  1  0.537558  0.618784  0.826935  1
  Br  Br19  1  0.784341  0.315445  0.927681  1
