# generated using pymatgen
data_Ho17Lu3(Bi2Ir)4
_symmetry_space_group_name_H-M   'P 1'
_cell_length_a   7.94823069
_cell_length_b   8.99457565
_cell_length_c   12.47630674
_cell_angle_alpha   89.91923690
_cell_angle_beta   90.08738456
_cell_angle_gamma   89.96485707
_symmetry_Int_Tables_number   1
_chemical_formula_structural   Ho17Lu3(Bi2Ir)4
_chemical_formula_sum   'Ho17 Lu3 Bi8 Ir4'
_cell_volume   891.94108099
_cell_formula_units_Z   1
loop_
 _symmetry_equiv_pos_site_id
 _symmetry_equiv_pos_as_xyz
  1  'x, y, z'
loop_
 _atom_site_type_symbol
 _atom_site_label
 _atom_site_symmetry_multiplicity
 _atom_site_fract_x
 _atom_site_fract_y
 _atom_site_fract_z
 _atom_site_occupancy
  Ho  Ho0  1  0.839217  0.750508  0.793228  1
  Ho  Ho1  1  0.161016  0.249792  0.206417  1
  Ho  Ho2  1  0.339448  0.249292  0.706634  1
  Ho  Ho3  1  0.660242  0.750576  0.293867  1
  Ho  Ho4  1  0.375571  0.751136  0.691336  1
  Ho  Ho5  1  0.624165  0.248903  0.308929  1
  Ho  Ho6  1  0.876395  0.249697  0.808269  1
  Ho  Ho7  1  0.125093  0.750527  0.191571  1
  Ho  Ho8  1  0.945599  0.751769  0.501595  1
  Ho  Ho9  1  0.054539  0.248327  0.498345  1
  Ho  Ho10  1  0.445266  0.248891  0.998443  1
  Ho  Ho11  1  0.552789  0.750762  0.001424  1
  Ho  Ho12  1  0.324133  0.541660  0.434179  1
  Ho  Ho13  1  0.824700  0.042144  0.066067  1
  Ho  Ho14  1  0.675937  0.458323  0.565975  1
  Ho  Ho15  1  0.824323  0.458205  0.065752  1
  Ho  Ho16  1  0.175986  0.542282  0.933732  1
  Lu  Lu17  1  0.671678  0.042262  0.565649  1
  Lu  Lu18  1  0.328385  0.957920  0.434491  1
  Lu  Lu19  1  0.172164  0.957527  0.934061  1
  Bi  Bi20  1  0.567147  0.491125  0.827231  1
  Bi  Bi21  1  0.433359  0.508828  0.172836  1
  Bi  Bi22  1  0.067171  0.509060  0.672334  1
  Bi  Bi23  1  0.433397  0.991041  0.173463  1
  Bi  Bi24  1  0.933165  0.491213  0.327308  1
  Bi  Bi25  1  0.565771  0.008618  0.827319  1
  Bi  Bi26  1  0.935402  0.008444  0.327202  1
  Bi  Bi27  1  0.064959  0.991409  0.672972  1
  Ir  Ir28  1  0.570826  0.752225  0.508608  1
  Ir  Ir29  1  0.429157  0.247832  0.491599  1
  Ir  Ir30  1  0.072944  0.248786  0.990811  1
  Ir  Ir31  1  0.930059  0.750915  0.008353  1
