# generated using pymatgen
data_La3(Al3Ru)4
_symmetry_space_group_name_H-M   'P 1'
_cell_length_a   8.98808700
_cell_length_b   8.98808617
_cell_length_c   9.72350500
_cell_angle_alpha   90.00000000
_cell_angle_beta   90.00000000
_cell_angle_gamma   119.99999939
_symmetry_Int_Tables_number   1
_chemical_formula_structural   La3(Al3Ru)4
_chemical_formula_sum   'La6 Al24 Ru8'
_cell_volume   680.28041974
_cell_formula_units_Z   2
loop_
 _symmetry_equiv_pos_site_id
 _symmetry_equiv_pos_as_xyz
  1  'x, y, z'
loop_
 _atom_site_type_symbol
 _atom_site_label
 _atom_site_symmetry_multiplicity
 _atom_site_fract_x
 _atom_site_fract_y
 _atom_site_fract_z
 _atom_site_occupancy
  La  La0  1  0.192843  0.385686  0.250000  1
  La  La1  1  0.807157  0.614314  0.750000  1
  La  La2  1  0.614314  0.807157  0.250000  1
  La  La3  1  0.385686  0.192843  0.750000  1
  La  La4  1  0.192843  0.807157  0.250000  1
  La  La5  1  0.807157  0.192843  0.750000  1
  Al  Al6  1  0.333333  0.666667  0.999916  1
  Al  Al7  1  0.666667  0.333333  0.000084  1
  Al  Al8  1  0.666667  0.333333  0.499916  1
  Al  Al9  1  0.333333  0.666667  0.500084  1
  Al  Al10  1  0.162118  0.324236  0.577830  1
  Al  Al11  1  0.837882  0.675764  0.422170  1
  Al  Al12  1  0.675764  0.837882  0.577830  1
  Al  Al13  1  0.837882  0.675764  0.077830  1
  Al  Al14  1  0.324236  0.162118  0.422170  1
  Al  Al15  1  0.162118  0.324236  0.922170  1
  Al  Al16  1  0.162118  0.837882  0.577830  1
  Al  Al17  1  0.324236  0.162118  0.077830  1
  Al  Al18  1  0.837882  0.162118  0.422170  1
  Al  Al19  1  0.675764  0.837882  0.922170  1
  Al  Al20  1  0.837882  0.162118  0.077830  1
  Al  Al21  1  0.162118  0.837882  0.922170  1
  Al  Al22  1  0.563365  0.126731  0.250000  1
  Al  Al23  1  0.436635  0.873269  0.750000  1
  Al  Al24  1  0.873269  0.436635  0.250000  1
  Al  Al25  1  0.126731  0.563365  0.750000  1
  Al  Al26  1  0.563365  0.436635  0.250000  1
  Al  Al27  1  0.436635  0.563365  0.750000  1
  Al  Al28  1  0.000000  0.000000  0.250000  1
  Al  Al29  1  0.000000  0.000000  0.750000  1
  Ru  Ru30  1  0.500000  0.000000  0.000000  1
  Ru  Ru31  1  0.000000  0.500000  0.000000  1
  Ru  Ru32  1  0.500000  0.000000  0.500000  1
  Ru  Ru33  1  0.500000  0.500000  0.000000  1
  Ru  Ru34  1  0.000000  0.500000  0.500000  1
  Ru  Ru35  1  0.500000  0.500000  0.500000  1
  Ru  Ru36  1  0.000000  0.000000  0.000000  1
  Ru  Ru37  1  0.000000  0.000000  0.500000  1
