# generated using pymatgen
data_Tb12TcIrOs2
_symmetry_space_group_name_H-M   'P 1'
_cell_length_a   6.36358900
_cell_length_b   7.42936505
_cell_length_c   9.17108500
_cell_angle_alpha   90.00000000
_cell_angle_beta   90.00000000
_cell_angle_gamma   90.10321068
_symmetry_Int_Tables_number   1
_chemical_formula_structural   Tb12TcIrOs2
_chemical_formula_sum   'Tb12 Tc1 Ir1 Os2'
_cell_volume   433.58458651
_cell_formula_units_Z   1
loop_
 _symmetry_equiv_pos_site_id
 _symmetry_equiv_pos_as_xyz
  1  'x, y, z'
loop_
 _atom_site_type_symbol
 _atom_site_label
 _atom_site_symmetry_multiplicity
 _atom_site_fract_x
 _atom_site_fract_y
 _atom_site_fract_z
 _atom_site_occupancy
  Tb  Tb0  1  0.331639  0.674891  0.063714  1
  Tb  Tb1  1  0.170777  0.176006  0.433959  1
  Tb  Tb2  1  0.668052  0.325964  0.562130  1
  Tb  Tb3  1  0.831833  0.823549  0.937768  1
  Tb  Tb4  1  0.668052  0.325964  0.937870  1
  Tb  Tb5  1  0.831833  0.823549  0.562232  1
  Tb  Tb6  1  0.331639  0.674891  0.436286  1
  Tb  Tb7  1  0.170777  0.176006  0.066041  1
  Tb  Tb8  1  0.869159  0.538942  0.250000  1
  Tb  Tb9  1  0.629187  0.039047  0.250000  1
  Tb  Tb10  1  0.133871  0.461080  0.750000  1
  Tb  Tb11  1  0.366593  0.959199  0.750000  1
  Tc  Tc12  1  0.036320  0.885392  0.250000  1
  Ir  Ir13  1  0.957180  0.116778  0.750000  1
  Os  Os14  1  0.461204  0.383271  0.250000  1
  Os  Os15  1  0.541881  0.615468  0.750000  1
