# generated using pymatgen
data_Dy5Nb2P12Ir14Rh3
_symmetry_space_group_name_H-M   'P 1'
_cell_length_a   12.59645601
_cell_length_b   12.79833606
_cell_length_c   3.99356500
_cell_angle_alpha   90.00000000
_cell_angle_beta   90.00000000
_cell_angle_gamma   119.48321030
_symmetry_Int_Tables_number   1
_chemical_formula_structural   Dy5Nb2P12Ir14Rh3
_chemical_formula_sum   'Dy5 Nb2 P12 Ir14 Rh3'
_cell_volume   560.44293034
_cell_formula_units_Z   1
loop_
 _symmetry_equiv_pos_site_id
 _symmetry_equiv_pos_as_xyz
  1  'x, y, z'
loop_
 _atom_site_type_symbol
 _atom_site_label
 _atom_site_symmetry_multiplicity
 _atom_site_fract_x
 _atom_site_fract_y
 _atom_site_fract_z
 _atom_site_occupancy
  Dy  Dy0  1  0.330174  0.661125  0.500000  1
  Dy  Dy1  1  0.668411  0.338732  0.500000  1
  Dy  Dy2  1  0.998789  0.813140  0.000000  1
  Dy  Dy3  1  0.185754  0.186545  0.000000  1
  Dy  Dy4  1  0.813621  0.999959  0.000000  1
  Nb  Nb5  1  0.997924  0.450416  0.500000  1
  Nb  Nb6  1  0.547344  0.550426  0.500000  1
  P  P7  1  0.003114  0.641975  0.500000  1
  P  P8  1  0.361156  0.358255  0.500000  1
  P  P9  1  0.642334  0.999113  0.500000  1
  P  P10  1  0.515054  0.683518  0.000000  1
  P  P11  1  0.311117  0.825609  0.000000  1
  P  P12  1  0.163367  0.481322  0.000000  1
  P  P13  1  0.485030  0.173820  0.000000  1
  P  P14  1  0.682172  0.518965  0.000000  1
  P  P15  1  0.831157  0.316544  0.000000  1
  P  P16  1  0.999740  0.175584  0.500000  1
  P  P17  1  0.824124  0.824170  0.500000  1
  P  P18  1  0.181735  0.999592  0.500000  1
  Ir  Ir19  1  0.127503  0.641741  0.000000  1
  Ir  Ir20  1  0.353997  0.492563  0.000000  1
  Ir  Ir21  1  0.486139  0.357858  0.000000  1
  Ir  Ir22  1  0.861018  0.506526  0.000000  1
  Ir  Ir23  1  0.643606  0.136560  0.000000  1
  Ir  Ir24  1  0.997796  0.281981  0.000000  1
  Ir  Ir25  1  0.716479  0.718143  0.000000  1
  Ir  Ir26  1  0.289148  0.000039  0.000000  1
  Ir  Ir27  1  0.201021  0.823054  0.500000  1
  Ir  Ir28  1  0.177564  0.367975  0.500000  1
  Ir  Ir29  1  0.377514  0.176871  0.500000  1
  Ir  Ir30  1  0.809685  0.631671  0.500000  1
  Ir  Ir31  1  0.818183  0.192962  0.500000  1
  Ir  Ir32  1  0.003342  0.000212  0.500000  1
  Rh  Rh33  1  0.506876  0.863590  0.000000  1
  Rh  Rh34  1  0.462635  0.002629  0.500000  1
  Rh  Rh35  1  0.625378  0.806817  0.500000  1
