# generated using pymatgen
data_Sm2Dy3Sn3Pb
_symmetry_space_group_name_H-M   'P 1'
_cell_length_a   8.09179600
_cell_length_b   8.23866100
_cell_length_c   15.55534400
_cell_angle_alpha   90.00000000
_cell_angle_beta   90.00000000
_cell_angle_gamma   90.00000000
_symmetry_Int_Tables_number   1
_chemical_formula_structural   Sm2Dy3Sn3Pb
_chemical_formula_sum   'Sm8 Dy12 Sn12 Pb4'
_cell_volume   1037.00578292
_cell_formula_units_Z   4
loop_
 _symmetry_equiv_pos_site_id
 _symmetry_equiv_pos_as_xyz
  1  'x, y, z'
loop_
 _atom_site_type_symbol
 _atom_site_label
 _atom_site_symmetry_multiplicity
 _atom_site_fract_x
 _atom_site_fract_y
 _atom_site_fract_z
 _atom_site_occupancy
  Sm  Sm0  1  0.521515  0.320625  0.901658  1
  Sm  Sm1  1  0.021515  0.179375  0.598342  1
  Sm  Sm2  1  0.478485  0.679375  0.401658  1
  Sm  Sm3  1  0.978485  0.820625  0.098342  1
  Sm  Sm4  1  0.483649  0.678146  0.098555  1
  Sm  Sm5  1  0.983649  0.821854  0.401445  1
  Sm  Sm6  1  0.516351  0.321854  0.598555  1
  Sm  Sm7  1  0.016351  0.178146  0.901445  1
  Dy  Dy8  1  0.366287  0.837420  0.876026  1
  Dy  Dy9  1  0.866287  0.662580  0.623974  1
  Dy  Dy10  1  0.633713  0.162580  0.376026  1
  Dy  Dy11  1  0.133713  0.337420  0.123974  1
  Dy  Dy12  1  0.636901  0.163775  0.122856  1
  Dy  Dy13  1  0.136901  0.336225  0.377144  1
  Dy  Dy14  1  0.363099  0.836225  0.622856  1
  Dy  Dy15  1  0.863099  0.663775  0.877144  1
  Dy  Dy16  1  0.197126  0.502697  0.748763  1
  Dy  Dy17  1  0.697126  0.997303  0.751237  1
  Dy  Dy18  1  0.802874  0.497303  0.248763  1
  Dy  Dy19  1  0.302874  0.002697  0.251237  1
  Sn  Sn20  1  0.702580  0.961270  0.958344  1
  Sn  Sn21  1  0.202580  0.538730  0.541656  1
  Sn  Sn22  1  0.297420  0.038730  0.458344  1
  Sn  Sn23  1  0.797420  0.461270  0.041656  1
  Sn  Sn24  1  0.562815  0.621437  0.749903  1
  Sn  Sn25  1  0.062815  0.878563  0.750097  1
  Sn  Sn26  1  0.437185  0.378563  0.249903  1
  Sn  Sn27  1  0.937185  0.121437  0.250097  1
  Sn  Sn28  1  0.327004  0.145392  0.750231  1
  Sn  Sn29  1  0.827004  0.354608  0.749769  1
  Sn  Sn30  1  0.672996  0.854608  0.250231  1
  Sn  Sn31  1  0.172996  0.645392  0.249769  1
  Pb  Pb32  1  0.296714  0.039442  0.041373  1
  Pb  Pb33  1  0.796714  0.460558  0.458627  1
  Pb  Pb34  1  0.703286  0.960558  0.541373  1
  Pb  Pb35  1  0.203286  0.539442  0.958627  1
