# generated using pymatgen
data_Hf3ZrInHgN2
_symmetry_space_group_name_H-M   'P 1'
_cell_length_a   3.27594700
_cell_length_b   3.27594734
_cell_length_c   14.70290300
_cell_angle_alpha   90.00000000
_cell_angle_beta   90.00000000
_cell_angle_gamma   119.99998651
_symmetry_Int_Tables_number   1
_chemical_formula_structural   Hf3ZrInHgN2
_chemical_formula_sum   'Hf3 Zr1 In1 Hg1 N2'
_cell_volume   136.64934713
_cell_formula_units_Z   1
loop_
 _symmetry_equiv_pos_site_id
 _symmetry_equiv_pos_as_xyz
  1  'x, y, z'
loop_
 _atom_site_type_symbol
 _atom_site_label
 _atom_site_symmetry_multiplicity
 _atom_site_fract_x
 _atom_site_fract_y
 _atom_site_fract_z
 _atom_site_occupancy
  Hf  Hf0  1  0.333333  0.666667  0.419555  1
  Hf  Hf1  1  0.666667  0.333333  0.585927  1
  Hf  Hf2  1  0.666667  0.333333  0.913375  1
  Zr  Zr3  1  0.333333  0.666667  0.083053  1
  In  In4  1  0.666667  0.333333  0.252085  1
  Hg  Hg5  1  0.333333  0.666667  0.749610  1
  N  N6  1  0.000000  0.000000  0.503903  1
  N  N7  1  0.000000  0.000000  0.992493  1
