# generated using pymatgen
data_TiNbS8
_symmetry_space_group_name_H-M   'P 1'
_cell_length_a   9.00336490
_cell_length_b   8.95947685
_cell_length_c   7.62672392
_cell_angle_alpha   72.05596475
_cell_angle_beta   71.20192698
_cell_angle_gamma   81.81529473
_symmetry_Int_Tables_number   1
_chemical_formula_structural   TiNbS8
_chemical_formula_sum   'Ti2 Nb2 S16'
_cell_volume   553.43409798
_cell_formula_units_Z   2
loop_
 _symmetry_equiv_pos_site_id
 _symmetry_equiv_pos_as_xyz
  1  'x, y, z'
loop_
 _atom_site_type_symbol
 _atom_site_label
 _atom_site_symmetry_multiplicity
 _atom_site_fract_x
 _atom_site_fract_y
 _atom_site_fract_z
 _atom_site_occupancy
  Ti  Ti0  1  0.127524  0.628119  0.872132  1
  Ti  Ti1  1  0.872476  0.371881  0.127868  1
  Nb  Nb2  1  0.381480  0.881926  0.618252  1
  Nb  Nb3  1  0.618520  0.118074  0.381748  1
  S  S4  1  0.323860  0.167617  0.459642  1
  S  S5  1  0.581922  0.966756  0.729253  1
  S  S6  1  0.676140  0.832383  0.540358  1
  S  S7  1  0.025973  0.428288  0.783380  1
  S  S8  1  0.651866  0.320976  0.044707  1
  S  S9  1  0.136078  0.806320  0.559487  1
  S  S10  1  0.806808  0.127474  0.053327  1
  S  S11  1  0.974027  0.571712  0.216620  1
  S  S12  1  0.418078  0.033244  0.270747  1
  S  S13  1  0.328017  0.649741  0.531781  1
  S  S14  1  0.863922  0.193680  0.440513  1
  S  S15  1  0.193192  0.872526  0.946673  1
  S  S16  1  0.348134  0.679024  0.955293  1
  S  S17  1  0.163086  0.330626  0.963231  1
  S  S18  1  0.671983  0.350259  0.468219  1
  S  S19  1  0.836914  0.669374  0.036769  1
