# generated using pymatgen
data_Y2Sc3Ge3Pt
_symmetry_space_group_name_H-M   'P 1'
_cell_length_a   7.14446500
_cell_length_b   7.64749700
_cell_length_c   14.05540400
_cell_angle_alpha   90.00000000
_cell_angle_beta   90.00000000
_cell_angle_gamma   90.00000000
_symmetry_Int_Tables_number   1
_chemical_formula_structural   Y2Sc3Ge3Pt
_chemical_formula_sum   'Y8 Sc12 Ge12 Pt4'
_cell_volume   767.94896872
_cell_formula_units_Z   4
loop_
 _symmetry_equiv_pos_site_id
 _symmetry_equiv_pos_as_xyz
  1  'x, y, z'
loop_
 _atom_site_type_symbol
 _atom_site_label
 _atom_site_symmetry_multiplicity
 _atom_site_fract_x
 _atom_site_fract_y
 _atom_site_fract_z
 _atom_site_occupancy
  Y  Y0  1  0.004424  0.817500  0.406949  1
  Y  Y1  1  0.504424  0.682500  0.093051  1
  Y  Y2  1  0.495576  0.317500  0.593051  1
  Y  Y3  1  0.995576  0.182500  0.906949  1
  Y  Y4  1  0.995576  0.182500  0.593051  1
  Y  Y5  1  0.495576  0.317500  0.906949  1
  Y  Y6  1  0.504424  0.682500  0.406949  1
  Y  Y7  1  0.004424  0.817500  0.093051  1
  Sc  Sc8  1  0.685272  0.001622  0.250000  1
  Sc  Sc9  1  0.185272  0.498378  0.250000  1
  Sc  Sc10  1  0.814728  0.501622  0.750000  1
  Sc  Sc11  1  0.314728  0.998378  0.750000  1
  Sc  Sc12  1  0.662796  0.836055  0.627845  1
  Sc  Sc13  1  0.162796  0.663945  0.872155  1
  Sc  Sc14  1  0.837204  0.336055  0.372155  1
  Sc  Sc15  1  0.337204  0.163945  0.127845  1
  Sc  Sc16  1  0.337204  0.163945  0.372155  1
  Sc  Sc17  1  0.837204  0.336055  0.127845  1
  Sc  Sc18  1  0.162796  0.663945  0.627845  1
  Sc  Sc19  1  0.662796  0.836055  0.872155  1
  Ge  Ge20  1  0.801465  0.637334  0.250000  1
  Ge  Ge21  1  0.301465  0.862666  0.250000  1
  Ge  Ge22  1  0.698535  0.137334  0.750000  1
  Ge  Ge23  1  0.198535  0.362666  0.750000  1
  Ge  Ge24  1  0.819693  0.538342  0.541997  1
  Ge  Ge25  1  0.319693  0.961658  0.958003  1
  Ge  Ge26  1  0.680307  0.038342  0.458003  1
  Ge  Ge27  1  0.180307  0.461658  0.041997  1
  Ge  Ge28  1  0.180307  0.461658  0.458003  1
  Ge  Ge29  1  0.680307  0.038342  0.041997  1
  Ge  Ge30  1  0.319693  0.961658  0.541997  1
  Ge  Ge31  1  0.819693  0.538342  0.958003  1
  Pt  Pt32  1  0.540916  0.382834  0.250000  1
  Pt  Pt33  1  0.040916  0.117166  0.250000  1
  Pt  Pt34  1  0.959084  0.882834  0.750000  1
  Pt  Pt35  1  0.459084  0.617166  0.750000  1
