# generated using pymatgen
data_CaHoIr3W
_symmetry_space_group_name_H-M   'P 1'
_cell_length_a   5.61834439
_cell_length_b   5.61834428
_cell_length_c   5.18385200
_cell_angle_alpha   57.18635284
_cell_angle_beta   57.18634148
_cell_angle_gamma   59.99998643
_symmetry_Int_Tables_number   1
_chemical_formula_structural   CaHoIr3W
_chemical_formula_sum   'Ca1 Ho1 Ir3 W1'
_cell_volume   110.53790709
_cell_formula_units_Z   1
loop_
 _symmetry_equiv_pos_site_id
 _symmetry_equiv_pos_as_xyz
  1  'x, y, z'
loop_
 _atom_site_type_symbol
 _atom_site_label
 _atom_site_symmetry_multiplicity
 _atom_site_fract_x
 _atom_site_fract_y
 _atom_site_fract_z
 _atom_site_occupancy
  Ca  Ca0  1  0.750150  0.750150  0.749547  1
  Ho  Ho1  1  0.498960  0.498960  0.503121  1
  Ir  Ir2  1  0.625693  0.124882  0.124542  1
  Ir  Ir3  1  0.124882  0.124882  0.124542  1
  Ir  Ir4  1  0.124882  0.625693  0.124542  1
  W  W5  1  0.125431  0.125431  0.623705  1
