# generated using pymatgen
data_Er8Cu11P12Pd
_symmetry_space_group_name_H-M   'P 1'
_cell_length_a   3.83518400
_cell_length_b   10.62800537
_cell_length_c   12.96369388
_cell_angle_alpha   90.07642330
_cell_angle_beta   90.00000000
_cell_angle_gamma   90.00000000
_symmetry_Int_Tables_number   1
_chemical_formula_structural   Er8Cu11P12Pd
_chemical_formula_sum   'Er8 Cu11 P12 Pd1'
_cell_volume   528.40430928
_cell_formula_units_Z   1
loop_
 _symmetry_equiv_pos_site_id
 _symmetry_equiv_pos_as_xyz
  1  'x, y, z'
loop_
 _atom_site_type_symbol
 _atom_site_label
 _atom_site_symmetry_multiplicity
 _atom_site_fract_x
 _atom_site_fract_y
 _atom_site_fract_z
 _atom_site_occupancy
  Er  Er0  1  0.250000  0.931012  0.792034  1
  Er  Er1  1  0.750000  0.431591  0.708446  1
  Er  Er2  1  0.250000  0.566602  0.292199  1
  Er  Er3  1  0.750000  0.070842  0.208317  1
  Er  Er4  1  0.250000  0.842439  0.503373  1
  Er  Er5  1  0.750000  0.340800  0.995791  1
  Er  Er6  1  0.250000  0.659653  0.003598  1
  Er  Er7  1  0.750000  0.161903  0.497373  1
  Cu  Cu8  1  0.750000  0.905323  0.987137  1
  Cu  Cu9  1  0.250000  0.092543  0.013177  1
  Cu  Cu10  1  0.750000  0.595740  0.485642  1
  Cu  Cu11  1  0.250000  0.269938  0.328280  1
  Cu  Cu12  1  0.750000  0.771460  0.169876  1
  Cu  Cu13  1  0.250000  0.228834  0.831248  1
  Cu  Cu14  1  0.750000  0.728722  0.669477  1
  Cu  Cu15  1  0.250000  0.860187  0.281874  1
  Cu  Cu16  1  0.750000  0.359392  0.214747  1
  Cu  Cu17  1  0.250000  0.639244  0.782549  1
  Cu  Cu18  1  0.750000  0.138238  0.719962  1
  P  P19  1  0.250000  0.238121  0.645586  1
  P  P20  1  0.750000  0.744088  0.858470  1
  P  P21  1  0.250000  0.256106  0.139795  1
  P  P22  1  0.750000  0.755665  0.358211  1
  P  P23  1  0.250000  0.611270  0.604112  1
  P  P24  1  0.750000  0.104436  0.898992  1
  P  P25  1  0.250000  0.894466  0.103108  1
  P  P26  1  0.750000  0.393124  0.391576  1
  P  P27  1  0.250000  0.055915  0.370317  1
  P  P28  1  0.750000  0.556665  0.129090  1
  P  P29  1  0.250000  0.443999  0.870285  1
  P  P30  1  0.750000  0.944184  0.630080  1
  Pd  Pd31  1  0.250000  0.407495  0.515279  1
