# generated using pymatgen
data_CaLaDy5FeBr12
_symmetry_space_group_name_H-M   'P 1'
_cell_length_a   9.07468868
_cell_length_b   9.34227068
_cell_length_c   9.35334996
_cell_angle_alpha   106.96480531
_cell_angle_beta   106.23693703
_cell_angle_gamma   107.09915298
_symmetry_Int_Tables_number   1
_chemical_formula_structural   CaLaDy5FeBr12
_chemical_formula_sum   'Ca1 La1 Dy5 Fe1 Br12'
_cell_volume   664.50439497
_cell_formula_units_Z   1
loop_
 _symmetry_equiv_pos_site_id
 _symmetry_equiv_pos_as_xyz
  1  'x, y, z'
loop_
 _atom_site_type_symbol
 _atom_site_label
 _atom_site_symmetry_multiplicity
 _atom_site_fract_x
 _atom_site_fract_y
 _atom_site_fract_z
 _atom_site_occupancy
  Ca  Ca0  1  0.501342  0.499797  0.498406  1
  La  La1  1  0.712062  0.904327  0.978621  1
  Dy  Dy2  1  0.285014  0.096485  0.023043  1
  Dy  Dy3  1  0.021781  0.312900  0.105456  1
  Dy  Dy4  1  0.107066  0.024755  0.311801  1
  Dy  Dy5  1  0.896384  0.975884  0.690058  1
  Dy  Dy6  1  0.975556  0.687381  0.894073  1
  Fe  Fe7  1  0.980623  0.993733  0.000486  1
  Br  Br8  1  0.683516  0.234580  0.076372  1
  Br  Br9  1  0.373289  0.448109  0.154930  1
  Br  Br10  1  0.073192  0.681982  0.215056  1
  Br  Br11  1  0.790394  0.931497  0.333953  1
  Br  Br12  1  0.456040  0.157328  0.368709  1
  Br  Br13  1  0.152527  0.372086  0.453713  1
  Br  Br14  1  0.851811  0.628370  0.547208  1
  Br  Br15  1  0.541363  0.838230  0.609801  1
  Br  Br16  1  0.223745  0.074469  0.689864  1
  Br  Br17  1  0.930896  0.318724  0.785201  1
  Br  Br18  1  0.625270  0.531005  0.832288  1
  Br  Br19  1  0.318130  0.788359  0.930961  1
