# generated using pymatgen
data_NaVSe2O7
_symmetry_space_group_name_H-M   'P 1'
_cell_length_a   6.74955183
_cell_length_b   6.74955068
_cell_length_c   7.30844500
_cell_angle_alpha   90.00000000
_cell_angle_beta   90.00000000
_cell_angle_gamma   110.49996124
_symmetry_Int_Tables_number   1
_chemical_formula_structural   NaVSe2O7
_chemical_formula_sum   'Na2 V2 Se4 O14'
_cell_volume   311.86204213
_cell_formula_units_Z   2
loop_
 _symmetry_equiv_pos_site_id
 _symmetry_equiv_pos_as_xyz
  1  'x, y, z'
loop_
 _atom_site_type_symbol
 _atom_site_label
 _atom_site_symmetry_multiplicity
 _atom_site_fract_x
 _atom_site_fract_y
 _atom_site_fract_z
 _atom_site_occupancy
  Na  Na0  1  0.978588  0.978588  0.365373  1
  Na  Na1  1  0.021412  0.021412  0.865373  1
  V  V2  1  0.511012  0.511012  0.909064  1
  V  V3  1  0.488988  0.488988  0.409064  1
  Se  Se4  1  0.559611  0.956414  0.627506  1
  Se  Se5  1  0.956414  0.559611  0.627506  1
  Se  Se6  1  0.440389  0.043586  0.127506  1
  Se  Se7  1  0.043586  0.440389  0.127506  1
  O  O8  1  0.547145  0.791685  0.818007  1
  O  O9  1  0.791685  0.547145  0.818007  1
  O  O10  1  0.452855  0.208315  0.318007  1
  O  O11  1  0.208315  0.452855  0.318007  1
  O  O12  1  0.543622  0.784690  0.434959  1
  O  O13  1  0.784690  0.543622  0.434959  1
  O  O14  1  0.456378  0.215310  0.934959  1
  O  O15  1  0.215310  0.456378  0.934959  1
  O  O16  1  0.818507  0.099478  0.621327  1
  O  O17  1  0.099478  0.818507  0.621327  1
  O  O18  1  0.181493  0.900522  0.121327  1
  O  O19  1  0.900522  0.181493  0.121327  1
  O  O20  1  0.420983  0.420983  0.624905  1
  O  O21  1  0.579017  0.579017  0.124905  1
