# generated using pymatgen
data_Y2Hf3Sc3(Ni4P3)4
_symmetry_space_group_name_H-M   'P 1'
_cell_length_a   12.25102100
_cell_length_b   12.25102003
_cell_length_c   3.73128500
_cell_angle_alpha   90.00000000
_cell_angle_beta   90.00000000
_cell_angle_gamma   120.00000532
_symmetry_Int_Tables_number   1
_chemical_formula_structural   Y2Hf3Sc3(Ni4P3)4
_chemical_formula_sum   'Y2 Hf3 Sc3 Ni16 P12'
_cell_volume   484.99087208
_cell_formula_units_Z   1
loop_
 _symmetry_equiv_pos_site_id
 _symmetry_equiv_pos_as_xyz
  1  'x, y, z'
loop_
 _atom_site_type_symbol
 _atom_site_label
 _atom_site_symmetry_multiplicity
 _atom_site_fract_x
 _atom_site_fract_y
 _atom_site_fract_z
 _atom_site_occupancy
  Y  Y0  1  0.333333  0.666667  0.000000  1
  Y  Y1  1  0.666667  0.333333  0.000000  1
  Hf  Hf2  1  0.559901  0.559901  0.000000  1
  Hf  Hf3  1  0.440099  0.000000  0.000000  1
  Hf  Hf4  1  0.000000  0.440099  0.000000  1
  Sc  Sc5  1  0.183505  0.183505  0.500000  1
  Sc  Sc6  1  0.816495  0.000000  0.500000  1
  Sc  Sc7  1  0.000000  0.816495  0.500000  1
  Ni  Ni8  1  0.729697  0.729697  0.500000  1
  Ni  Ni9  1  0.270303  0.000000  0.500000  1
  Ni  Ni10  1  0.000000  0.270303  0.500000  1
  Ni  Ni11  1  0.181568  0.371046  0.000000  1
  Ni  Ni12  1  0.628954  0.810522  0.000000  1
  Ni  Ni13  1  0.189478  0.818432  0.000000  1
  Ni  Ni14  1  0.810522  0.628954  0.000000  1
  Ni  Ni15  1  0.818432  0.189478  0.000000  1
  Ni  Ni16  1  0.371046  0.181568  0.000000  1
  Ni  Ni17  1  0.359820  0.482904  0.500000  1
  Ni  Ni18  1  0.517096  0.876917  0.500000  1
  Ni  Ni19  1  0.123083  0.640180  0.500000  1
  Ni  Ni20  1  0.876917  0.517096  0.500000  1
  Ni  Ni21  1  0.640180  0.123083  0.500000  1
  Ni  Ni22  1  0.482904  0.359820  0.500000  1
  Ni  Ni23  1  0.000000  0.000000  0.000000  1
  P  P24  1  0.826298  0.826298  0.000000  1
  P  P25  1  0.173702  0.000000  0.000000  1
  P  P26  1  0.000000  0.173702  0.000000  1
  P  P27  1  0.169257  0.475302  0.500000  1
  P  P28  1  0.524698  0.693955  0.500000  1
  P  P29  1  0.306045  0.830743  0.500000  1
  P  P30  1  0.693955  0.524698  0.500000  1
  P  P31  1  0.830743  0.306045  0.500000  1
  P  P32  1  0.475302  0.169257  0.500000  1
  P  P33  1  0.352006  0.352006  0.000000  1
  P  P34  1  0.647994  0.000000  0.000000  1
  P  P35  1  0.000000  0.647994  0.000000  1
