# generated using pymatgen
data_Tm4Co17Re3(Si3P)3
_symmetry_space_group_name_H-M   'P 1'
_cell_length_a   3.72692100
_cell_length_b   10.43513770
_cell_length_c   11.92457443
_cell_angle_alpha   90.26594736
_cell_angle_beta   90.00000000
_cell_angle_gamma   90.00000000
_symmetry_Int_Tables_number   1
_chemical_formula_structural   Tm4Co17Re3(Si3P)3
_chemical_formula_sum   'Tm4 Co17 Re3 Si9 P3'
_cell_volume   463.75283909
_cell_formula_units_Z   1
loop_
 _symmetry_equiv_pos_site_id
 _symmetry_equiv_pos_as_xyz
  1  'x, y, z'
loop_
 _atom_site_type_symbol
 _atom_site_label
 _atom_site_symmetry_multiplicity
 _atom_site_fract_x
 _atom_site_fract_y
 _atom_site_fract_z
 _atom_site_occupancy
  Tm  Tm0  1  0.250000  0.580993  0.704216  1
  Tm  Tm1  1  0.250000  0.920583  0.203003  1
  Tm  Tm2  1  0.750000  0.421396  0.298003  1
  Tm  Tm3  1  0.750000  0.076315  0.796685  1
  Co  Co4  1  0.750000  0.206035  0.506153  1
  Co  Co5  1  0.250000  0.409220  0.487145  1
  Co  Co6  1  0.250000  0.090366  0.989331  1
  Co  Co7  1  0.750000  0.593879  0.509662  1
  Co  Co8  1  0.750000  0.909147  0.013415  1
  Co  Co9  1  0.250000  0.212339  0.174744  1
  Co  Co10  1  0.250000  0.285719  0.670772  1
  Co  Co11  1  0.750000  0.787081  0.828094  1
  Co  Co12  1  0.750000  0.715411  0.326994  1
  Co  Co13  1  0.250000  0.886206  0.702327  1
  Co  Co14  1  0.250000  0.614917  0.201932  1
  Co  Co15  1  0.750000  0.115664  0.298407  1
  Co  Co16  1  0.750000  0.381739  0.799308  1
  Co  Co17  1  0.250000  0.465544  0.932704  1
  Co  Co18  1  0.250000  0.033294  0.431293  1
  Co  Co19  1  0.750000  0.531801  0.067236  1
  Co  Co20  1  0.750000  0.971285  0.568035  1
  Re  Re21  1  0.250000  0.706484  0.989985  1
  Re  Re22  1  0.250000  0.793233  0.490282  1
  Re  Re23  1  0.750000  0.292156  0.010617  1
  Si  Si24  1  0.250000  0.416277  0.115605  1
  Si  Si25  1  0.250000  0.085300  0.611431  1
  Si  Si26  1  0.750000  0.582186  0.884818  1
  Si  Si27  1  0.750000  0.918541  0.386331  1
  Si  Si28  1  0.250000  0.266082  0.863437  1
  Si  Si29  1  0.250000  0.230970  0.368682  1
  Si  Si30  1  0.750000  0.731159  0.136181  1
  Si  Si31  1  0.750000  0.771857  0.636314  1
  Si  Si32  1  0.750000  0.398300  0.604561  1
  P  P33  1  0.250000  0.598688  0.390508  1
  P  P34  1  0.250000  0.901592  0.892286  1
  P  P35  1  0.750000  0.098240  0.109504  1
