# generated using pymatgen
data_Tb5Ru2Pb
_symmetry_space_group_name_H-M   'P 1'
_cell_length_a   8.84608116
_cell_length_b   8.84608105
_cell_length_c   8.84608000
_cell_angle_alpha   127.86232848
_cell_angle_beta   127.86231972
_cell_angle_gamma   76.84816082
_symmetry_Int_Tables_number   1
_chemical_formula_structural   Tb5Ru2Pb
_chemical_formula_sum   'Tb10 Ru4 Pb2'
_cell_volume   418.92325537
_cell_formula_units_Z   2
loop_
 _symmetry_equiv_pos_site_id
 _symmetry_equiv_pos_as_xyz
  1  'x, y, z'
loop_
 _atom_site_type_symbol
 _atom_site_label
 _atom_site_symmetry_multiplicity
 _atom_site_fract_x
 _atom_site_fract_y
 _atom_site_fract_z
 _atom_site_occupancy
  Tb  Tb0  1  0.000000  0.000000  0.000000  1
  Tb  Tb1  1  0.500000  0.500000  0.000000  1
  Tb  Tb2  1  0.787548  0.287548  0.814284  1
  Tb  Tb3  1  0.212452  0.712452  0.185716  1
  Tb  Tb4  1  0.473265  0.973265  0.185716  1
  Tb  Tb5  1  0.287548  0.473265  0.500000  1
  Tb  Tb6  1  0.026735  0.212452  0.500000  1
  Tb  Tb7  1  0.526735  0.026735  0.814284  1
  Tb  Tb8  1  0.712452  0.526735  0.500000  1
  Tb  Tb9  1  0.973265  0.787548  0.500000  1
  Ru  Ru10  1  0.143166  0.643166  0.786332  1
  Ru  Ru11  1  0.856834  0.356834  0.213668  1
  Ru  Ru12  1  0.643166  0.856834  0.500000  1
  Ru  Ru13  1  0.356834  0.143166  0.500000  1
  Pb  Pb14  1  0.250000  0.250000  0.000000  1
  Pb  Pb15  1  0.750000  0.750000  0.000000  1
