# generated using pymatgen
data_Tb2Pr6Sc11Si16Hg
_symmetry_space_group_name_H-M   'P 1'
_cell_length_a   7.18238492
_cell_length_b   7.52318857
_cell_length_c   14.24093516
_cell_angle_alpha   89.97124311
_cell_angle_beta   90.07112604
_cell_angle_gamma   90.21685319
_symmetry_Int_Tables_number   1
_chemical_formula_structural   Tb2Pr6Sc11Si16Hg
_chemical_formula_sum   'Tb2 Pr6 Sc11 Si16 Hg1'
_cell_volume   769.49470207
_cell_formula_units_Z   1
loop_
 _symmetry_equiv_pos_site_id
 _symmetry_equiv_pos_as_xyz
  1  'x, y, z'
loop_
 _atom_site_type_symbol
 _atom_site_label
 _atom_site_symmetry_multiplicity
 _atom_site_fract_x
 _atom_site_fract_y
 _atom_site_fract_z
 _atom_site_occupancy
  Tb  Tb0  1  0.012133  0.175923  0.400207  1
  Tb  Tb1  1  0.511337  0.327526  0.399991  1
  Pr  Pr2  1  0.492030  0.679322  0.899794  1
  Pr  Pr3  1  0.491168  0.679867  0.598259  1
  Pr  Pr4  1  0.980206  0.829015  0.599079  1
  Pr  Pr5  1  0.981051  0.829251  0.899114  1
  Pr  Pr6  1  0.509830  0.330706  0.099021  1
  Pr  Pr7  1  0.012233  0.172940  0.098864  1
  Sc  Sc8  1  0.336875  0.176013  0.623485  1
  Sc  Sc9  1  0.670724  0.820517  0.374146  1
  Sc  Sc10  1  0.170985  0.676533  0.376149  1
  Sc  Sc11  1  0.826994  0.315391  0.875672  1
  Sc  Sc12  1  0.827314  0.314547  0.623685  1
  Sc  Sc13  1  0.839918  0.499756  0.251365  1
  Sc  Sc14  1  0.339271  0.999772  0.251550  1
  Sc  Sc15  1  0.337200  0.174686  0.875581  1
  Sc  Sc16  1  0.171458  0.676344  0.125614  1
  Sc  Sc17  1  0.670950  0.820837  0.127802  1
  Sc  Sc18  1  0.158705  0.496493  0.749676  1
  Si  Si19  1  0.272769  0.880776  0.749354  1
  Si  Si20  1  0.466306  0.620935  0.251891  1
  Si  Si21  1  0.050208  0.129215  0.749539  1
  Si  Si22  1  0.531502  0.389776  0.749239  1
  Si  Si23  1  0.152773  0.462062  0.539256  1
  Si  Si24  1  0.967247  0.876597  0.251824  1
  Si  Si25  1  0.711534  0.121033  0.253313  1
  Si  Si26  1  0.849166  0.536400  0.038824  1
  Si  Si27  1  0.347802  0.962477  0.039611  1
  Si  Si28  1  0.153253  0.465828  0.959076  1
  Si  Si29  1  0.655027  0.046404  0.525955  1
  Si  Si30  1  0.344377  0.969130  0.458384  1
  Si  Si31  1  0.846008  0.529858  0.459313  1
  Si  Si32  1  0.793806  0.592665  0.749518  1
  Si  Si33  1  0.211105  0.379932  0.253753  1
  Si  Si34  1  0.653988  0.041514  0.971978  1
  Hg  Hg35  1  0.652746  0.999959  0.750114  1
