# generated using pymatgen
data_Y4MnV2ReB16
_symmetry_space_group_name_H-M   'P 1'
_cell_length_a   3.50792300
_cell_length_b   5.96654435
_cell_length_c   11.53112400
_cell_angle_alpha   89.92431605
_cell_angle_beta   90.00000000
_cell_angle_gamma   90.00000000
_symmetry_Int_Tables_number   1
_chemical_formula_structural   Y4MnV2ReB16
_chemical_formula_sum   'Y4 Mn1 V2 Re1 B16'
_cell_volume   241.34826902
_cell_formula_units_Z   1
loop_
 _symmetry_equiv_pos_site_id
 _symmetry_equiv_pos_as_xyz
  1  'x, y, z'
loop_
 _atom_site_type_symbol
 _atom_site_label
 _atom_site_symmetry_multiplicity
 _atom_site_fract_x
 _atom_site_fract_y
 _atom_site_fract_z
 _atom_site_occupancy
  Y  Y0  1  0.000000  0.625007  0.352076  1
  Y  Y1  1  0.000000  0.376051  0.649909  1
  Y  Y2  1  0.000000  0.125874  0.151784  1
  Y  Y3  1  0.000000  0.874894  0.847004  1
  Mn  Mn4  1  0.000000  0.876395  0.579911  1
  V  V5  1  0.000000  0.372531  0.916139  1
  V  V6  1  0.000000  0.124014  0.420451  1
  Re  Re7  1  0.000000  0.627212  0.082749  1
  B  B8  1  0.500000  0.784082  0.186116  1
  B  B9  1  0.500000  0.215095  0.812827  1
  B  B10  1  0.500000  0.283410  0.316088  1
  B  B11  1  0.500000  0.720841  0.681857  1
  B  B12  1  0.500000  0.865144  0.031900  1
  B  B13  1  0.500000  0.134996  0.966869  1
  B  B14  1  0.500000  0.364066  0.469340  1
  B  B15  1  0.500000  0.638793  0.533519  1
  B  B16  1  0.500000  0.884638  0.455684  1
  B  B17  1  0.500000  0.110073  0.548670  1
  B  B18  1  0.500000  0.385566  0.046375  1
  B  B19  1  0.500000  0.614029  0.951931  1
  B  B20  1  0.500000  0.974882  0.309412  1
  B  B21  1  0.500000  0.021703  0.690419  1
  B  B22  1  0.500000  0.474475  0.192976  1
  B  B23  1  0.500000  0.526229  0.805992  1
