# generated using pymatgen
data_Pr4Nd6Si5Sn
_symmetry_space_group_name_H-M   'P 1'
_cell_length_a   7.81404270
_cell_length_b   7.81404290
_cell_length_c   9.18794631
_cell_angle_alpha   115.16545228
_cell_angle_beta   115.16543686
_cell_angle_gamma   89.99999976
_symmetry_Int_Tables_number   1
_chemical_formula_structural   Pr4Nd6Si5Sn
_chemical_formula_sum   'Pr4 Nd6 Si5 Sn1'
_cell_volume   448.22951247
_cell_formula_units_Z   1
loop_
 _symmetry_equiv_pos_site_id
 _symmetry_equiv_pos_as_xyz
  1  'x, y, z'
loop_
 _atom_site_type_symbol
 _atom_site_label
 _atom_site_symmetry_multiplicity
 _atom_site_fract_x
 _atom_site_fract_y
 _atom_site_fract_z
 _atom_site_occupancy
  Pr  Pr0  1  0.048972  0.195568  0.719494  1
  Pr  Pr1  1  0.670522  0.523925  0.719494  1
  Pr  Pr2  1  0.195568  0.670522  0.719494  1
  Pr  Pr3  1  0.523925  0.048972  0.719494  1
  Nd  Nd4  1  0.524901  0.524901  0.049802  1
  Nd  Nd5  1  0.979268  0.979268  0.958535  1
  Nd  Nd6  1  0.974601  0.828206  0.279827  1
  Nd  Nd7  1  0.305226  0.451622  0.279827  1
  Nd  Nd8  1  0.828206  0.305226  0.279827  1
  Nd  Nd9  1  0.451622  0.974601  0.279827  1
  Si  Si10  1  0.243688  0.243688  0.487376  1
  Si  Si11  1  0.616293  0.884759  0.001366  1
  Si  Si12  1  0.385074  0.116607  0.001366  1
  Si  Si13  1  0.884759  0.385074  0.001366  1
  Si  Si14  1  0.116607  0.616293  0.001366  1
  Sn  Sn15  1  0.750768  0.750768  0.501537  1
