# generated using pymatgen
data_NdTh(AlGa)3
_symmetry_space_group_name_H-M   'P 1'
_cell_length_a   6.46467000
_cell_length_b   6.46466961
_cell_length_c   4.63930400
_cell_angle_alpha   90.00000000
_cell_angle_beta   90.00000000
_cell_angle_gamma   120.00000198
_symmetry_Int_Tables_number   1
_chemical_formula_structural   NdTh(AlGa)3
_chemical_formula_sum   'Nd1 Th1 Al3 Ga3'
_cell_volume   167.90984065
_cell_formula_units_Z   1
loop_
 _symmetry_equiv_pos_site_id
 _symmetry_equiv_pos_as_xyz
  1  'x, y, z'
loop_
 _atom_site_type_symbol
 _atom_site_label
 _atom_site_symmetry_multiplicity
 _atom_site_fract_x
 _atom_site_fract_y
 _atom_site_fract_z
 _atom_site_occupancy
  Nd  Nd0  1  0.666667  0.333333  0.250000  1
  Th  Th1  1  0.333333  0.666667  0.750000  1
  Al  Al2  1  0.140670  0.281340  0.250000  1
  Al  Al3  1  0.718660  0.859330  0.250000  1
  Al  Al4  1  0.140670  0.859330  0.250000  1
  Ga  Ga5  1  0.857628  0.715258  0.750000  1
  Ga  Ga6  1  0.284742  0.142372  0.750000  1
  Ga  Ga7  1  0.857628  0.142372  0.750000  1
