# generated using pymatgen
data_Sm2PaGa6Cu4Ni5
_symmetry_space_group_name_H-M   'P 1'
_cell_length_a   8.84082270
_cell_length_b   8.83656926
_cell_length_c   4.21116500
_cell_angle_alpha   90.00000000
_cell_angle_beta   90.00000000
_cell_angle_gamma   120.71646336
_symmetry_Int_Tables_number   1
_chemical_formula_structural   Sm2PaGa6Cu4Ni5
_chemical_formula_sum   'Sm2 Pa1 Ga6 Cu4 Ni5'
_cell_volume   282.83187221
_cell_formula_units_Z   1
loop_
 _symmetry_equiv_pos_site_id
 _symmetry_equiv_pos_as_xyz
  1  'x, y, z'
loop_
 _atom_site_type_symbol
 _atom_site_label
 _atom_site_symmetry_multiplicity
 _atom_site_fract_x
 _atom_site_fract_y
 _atom_site_fract_z
 _atom_site_occupancy
  Sm  Sm0  1  0.664109  0.335139  0.500000  1
  Sm  Sm1  1  0.333621  0.667313  0.500000  1
  Pa  Pa2  1  0.004923  0.995987  0.000000  1
  Ga  Ga3  1  0.281508  0.282872  0.500000  1
  Ga  Ga4  1  0.719729  0.996618  0.500000  1
  Ga  Ga5  1  0.999256  0.717391  0.500000  1
  Ga  Ga6  1  0.512167  0.513506  0.000000  1
  Ga  Ga7  1  0.483341  0.995661  0.000000  1
  Ga  Ga8  1  0.006331  0.492513  0.000000  1
  Cu  Cu9  1  0.807234  0.180336  0.000000  1
  Cu  Cu10  1  0.708079  0.706839  0.500000  1
  Cu  Cu11  1  0.291027  0.000815  0.500000  1
  Cu  Cu12  1  0.999347  0.290523  0.500000  1
  Ni  Ni13  1  0.827966  0.639927  0.000000  1
  Ni  Ni14  1  0.357489  0.185350  0.000000  1
  Ni  Ni15  1  0.171876  0.811973  0.000000  1
  Ni  Ni16  1  0.646043  0.831207  0.000000  1
  Ni  Ni17  1  0.185955  0.356030  0.000000  1
