# generated using pymatgen
data_Pu4Tc3B16Ru
_symmetry_space_group_name_H-M   'P 1'
_cell_length_a   3.55688000
_cell_length_b   5.98355800
_cell_length_c   11.58242901
_cell_angle_alpha   90.00444327
_cell_angle_beta   90.00000000
_cell_angle_gamma   90.00000000
_symmetry_Int_Tables_number   1
_chemical_formula_structural   Pu4Tc3B16Ru
_chemical_formula_sum   'Pu4 Tc3 B16 Ru1'
_cell_volume   246.50649383
_cell_formula_units_Z   1
loop_
 _symmetry_equiv_pos_site_id
 _symmetry_equiv_pos_as_xyz
  1  'x, y, z'
loop_
 _atom_site_type_symbol
 _atom_site_label
 _atom_site_symmetry_multiplicity
 _atom_site_fract_x
 _atom_site_fract_y
 _atom_site_fract_z
 _atom_site_occupancy
  Pu  Pu0  1  0.000000  0.626513  0.350000  1
  Pu  Pu1  1  0.000000  0.373488  0.650650  1
  Pu  Pu2  1  0.000000  0.127284  0.150078  1
  Pu  Pu3  1  0.000000  0.873460  0.849781  1
  Tc  Tc4  1  0.000000  0.363522  0.909391  1
  Tc  Tc5  1  0.000000  0.135470  0.409403  1
  Tc  Tc6  1  0.000000  0.864787  0.590140  1
  B  B7  1  0.500000  0.786743  0.185939  1
  B  B8  1  0.500000  0.212518  0.813533  1
  B  B9  1  0.500000  0.287575  0.313416  1
  B  B10  1  0.500000  0.712956  0.686591  1
  B  B11  1  0.500000  0.864389  0.031462  1
  B  B12  1  0.500000  0.134783  0.968550  1
  B  B13  1  0.500000  0.365206  0.468500  1
  B  B14  1  0.500000  0.634898  0.531760  1
  B  B15  1  0.500000  0.886039  0.453182  1
  B  B16  1  0.500000  0.113957  0.546889  1
  B  B17  1  0.500000  0.386223  0.046754  1
  B  B18  1  0.500000  0.613703  0.952938  1
  B  B19  1  0.500000  0.973909  0.307831  1
  B  B20  1  0.500000  0.025282  0.692066  1
  B  B21  1  0.500000  0.474583  0.191801  1
  B  B22  1  0.500000  0.525857  0.807942  1
  Ru  Ru23  1  0.000000  0.636855  0.091403  1
