# generated using pymatgen
data_Tb3ErGa2(B2Rh5)2
_symmetry_space_group_name_H-M   'P 1'
_cell_length_a   9.47688623
_cell_length_b   9.47688623
_cell_length_c   3.22279600
_cell_angle_alpha   90.00000000
_cell_angle_beta   90.00000000
_cell_angle_gamma   90.14154535
_symmetry_Int_Tables_number   1
_chemical_formula_structural   Tb3ErGa2(B2Rh5)2
_chemical_formula_sum   'Tb3 Er1 Ga2 B4 Rh10'
_cell_volume   289.44284916
_cell_formula_units_Z   1
loop_
 _symmetry_equiv_pos_site_id
 _symmetry_equiv_pos_as_xyz
  1  'x, y, z'
loop_
 _atom_site_type_symbol
 _atom_site_label
 _atom_site_symmetry_multiplicity
 _atom_site_fract_x
 _atom_site_fract_y
 _atom_site_fract_z
 _atom_site_occupancy
  Tb  Tb0  1  0.825530  0.325530  0.000000  1
  Tb  Tb1  1  0.325164  0.174701  0.000000  1
  Tb  Tb2  1  0.674701  0.825164  0.000000  1
  Er  Er3  1  0.174652  0.674652  0.000000  1
  Ga  Ga4  1  0.000046  0.000013  0.000000  1
  Ga  Ga5  1  0.500013  0.500046  0.000000  1
  B  B6  1  0.622242  0.122242  0.000000  1
  B  B7  1  0.122505  0.378556  0.000000  1
  B  B8  1  0.878556  0.622505  0.000000  1
  B  B9  1  0.376732  0.876732  0.000000  1
  Rh  Rh10  1  0.070921  0.219376  0.500000  1
  Rh  Rh11  1  0.218469  0.927598  0.500000  1
  Rh  Rh12  1  0.780927  0.070792  0.500000  1
  Rh  Rh13  1  0.930444  0.780755  0.500000  1
  Rh  Rh14  1  0.427598  0.718469  0.500000  1
  Rh  Rh15  1  0.570792  0.280927  0.500000  1
  Rh  Rh16  1  0.719376  0.570921  0.500000  1
  Rh  Rh17  1  0.280755  0.430444  0.500000  1
  Rh  Rh18  1  0.499687  0.999687  0.500000  1
  Rh  Rh19  1  0.000892  0.500892  0.500000  1
